MODEL 1
REMARK VINA RESULT:     -11.4      0.000      0.000
REMARK SMILES O=C(NCCCCCCNC(=O)[C@H]1CC[C@H]2CCCC[C@@H]2[N@H+]1[C@@H]1CCCSC1)c1ccc(-c2c3nc(c(-c4c(F)cc(S(=O)(=O)[O-])cc4F)c4ccc([nH]4)c(-c4c(F)cc(S(=O)(=O)[O-])cc4F)c4nc(c(-c5c(F)cc(S(=O)(=O)[O-])cc5F)c5ccc2[nH]5)C=C4)C=C3)cc1
REMARK SMILES IDX 5 1 4 2 3 3 1 4 2 5 29 7 30 8 94 9 31 10 93 11 32 12 33 13
REMARK SMILES IDX 34 14 87 15 35 16 92 17 86 18 88 19 36 20 91 21 85 22 84 23
REMARK SMILES IDX 37 25 71 26 50 27 70 28 51 29 54 30 69 31 89 32 52 33 53 34
REMARK SMILES IDX 68 36 90 37 55 38 38 39 39 40 48 41 40 42 41 43 47 44 49 45
REMARK SMILES IDX 42 46 43 47 44 48 45 49 46 50 72 51 73 52 82 53 74 54 75 55
REMARK SMILES IDX 81 56 83 57 76 58 77 59 78 60 79 61 80 62 56 63 57 64 66 65
REMARK SMILES IDX 58 66 59 67 65 68 67 69 60 70 61 71 62 72 63 73 64 74 6 75
REMARK SMILES IDX 7 76 8 77 9 78 10 79 11 80 12 82 13 83 14 84 22 85 15 86
REMARK SMILES IDX 21 87 16 89 20 90 17 91 19 92 18 93 23 94 24 95 28 96 25 97
REMARK SMILES IDX 27 98 26 99
REMARK H PARENT 3 6 88 24 54 35 10 81 22 88
REMARK Flexibility Score: inf
ROOT
ATOM      1  C   UNL A   1      32.933  27.371  25.802  1.00  0.00     0.021 C 
ENDROOT
BRANCH   1   2
ATOM      2  C   UNL A   1      33.985  28.010  26.698  1.00  0.00     0.116 C 
BRANCH   2   3
ATOM      3  N   UNL A   1      33.630  29.358  27.102  1.00  0.00    -0.352 N 
ATOM      4  O   UNL A   1      33.850  31.313  28.199  1.00  0.00    -0.269 OA
ATOM      5  C   UNL A   1      34.372  30.273  27.806  1.00  0.00     0.251 C 
ATOM      6  H   UNL A   1      32.732  29.658  26.834  1.00  0.00     0.163 HD
BRANCH   5   7
ATOM      7  C   UNL A   1      35.791  29.990  28.109  1.00  0.00     0.039 A 
ATOM      8  C   UNL A   1      36.778  30.145  27.132  1.00  0.00     0.014 A 
ATOM      9  C   UNL A   1      36.134  29.569  29.396  1.00  0.00     0.014 A 
ATOM     10  C   UNL A   1      38.088  29.761  27.405  1.00  0.00     0.010 A 
ATOM     11  C   UNL A   1      37.463  29.257  29.690  1.00  0.00     0.010 A 
ATOM     12  C   UNL A   1      38.446  29.326  28.690  1.00  0.00    -0.014 A 
BRANCH  12  13
ATOM     13  C   UNL A   1      39.862  29.001  28.997  1.00  0.00     0.031 A 
ATOM     14  C   UNL A   1      40.775  30.027  29.606  1.00  0.00     0.074 A 
ATOM     15  C   UNL A   1      40.324  27.770  28.704  1.00  0.00     0.049 A 
ATOM     16  N   UNL A   1      42.051  29.936  29.882  1.00  0.00    -0.248 NA
ATOM     17  C   UNL A   1      40.182  31.331  29.939  1.00  0.00     0.031 C 
ATOM     18  C   UNL A   1      39.530  26.693  28.107  1.00  0.00     0.029 A 
ATOM     19  N   UNL A   1      41.568  27.216  28.861  1.00  0.00    -0.354 N 
ATOM     20  C   UNL A   1      42.420  31.171  30.400  1.00  0.00     0.074 A 
ATOM     21  C   UNL A   1      41.237  32.004  30.377  1.00  0.00     0.031 C 
ATOM     22  C   UNL A   1      40.300  25.605  27.966  1.00  0.00     0.029 A 
ATOM     23  C   UNL A   1      41.654  25.924  28.402  1.00  0.00     0.049 A 
ATOM     24  H   UNL A   1      42.327  27.697  29.264  1.00  0.00     0.167 HD
ATOM     25  C   UNL A   1      43.634  31.568  30.855  1.00  0.00     0.037 A 
ATOM     26  C   UNL A   1      42.710  25.093  28.313  1.00  0.00     0.037 A 
ATOM     27  C   UNL A   1      44.803  30.725  30.874  1.00  0.00     0.049 A 
ATOM     28  C   UNL A   1      44.052  25.566  28.795  1.00  0.00     0.074 A 
ATOM     29  C   UNL A   1      46.072  31.023  31.342  1.00  0.00     0.029 A 
ATOM     30  N   UNL A   1      44.851  29.423  30.396  1.00  0.00    -0.354 N 
ATOM     31  N   UNL A   1      44.378  26.727  29.308  1.00  0.00    -0.248 NA
ATOM     32  C   UNL A   1      45.168  24.618  28.686  1.00  0.00     0.031 C 
ATOM     33  C   UNL A   1      46.897  29.919  31.104  1.00  0.00     0.029 A 
ATOM     34  C   UNL A   1      46.131  28.912  30.538  1.00  0.00     0.049 A 
ATOM     35  H   UNL A   1      44.088  28.934  30.012  1.00  0.00     0.167 HD
ATOM     36  C   UNL A   1      45.732  26.644  29.609  1.00  0.00     0.074 A 
ATOM     37  C   UNL A   1      46.161  25.313  29.224  1.00  0.00     0.031 C 
ATOM     38  C   UNL A   1      46.543  27.582  30.157  1.00  0.00     0.037 A 
BRANCH  25  39
ATOM     39  C   UNL A   1      43.764  32.987  31.344  1.00  0.00     0.058 A 
ATOM     40  C   UNL A   1      43.599  33.325  32.696  1.00  0.00     0.135 A 
ATOM     41  C   UNL A   1      44.078  34.023  30.447  1.00  0.00     0.135 A 
ATOM     42  F   UNL A   1      43.286  32.379  33.597  1.00  0.00    -0.206 F 
ATOM     43  C   UNL A   1      43.700  34.641  33.136  1.00  0.00     0.059 A 
ATOM     44  C   UNL A   1      44.212  35.343  30.870  1.00  0.00     0.059 A 
ATOM     45  F   UNL A   1      44.253  33.757  29.143  1.00  0.00    -0.206 F 
ATOM     46  C   UNL A   1      44.001  35.645  32.213  1.00  0.00     0.060 A 
BRANCH  46  47
ATOM     47  S   UNL A   1      44.100  37.351  32.795  1.00  0.00     0.124 S 
ATOM     48  O   UNL A   1      42.992  37.397  33.745  1.00  0.00    -0.237 OA
ATOM     49  O   UNL A   1      45.436  37.405  33.380  1.00  0.00    -0.237 OA
ATOM     50  O   UNL A   1      43.918  38.137  31.579  1.00  0.00    -0.744 OA
ENDBRANCH  46  47
ENDBRANCH  25  39
BRANCH  26  51
ATOM     51  C   UNL A   1      42.523  23.735  27.741  1.00  0.00     0.058 A 
ATOM     52  C   UNL A   1      42.561  23.523  26.356  1.00  0.00     0.135 A 
ATOM     53  C   UNL A   1      42.365  22.614  28.572  1.00  0.00     0.135 A 
ATOM     54  F   UNL A   1      42.705  24.565  25.523  1.00  0.00    -0.206 F 
ATOM     55  C   UNL A   1      42.449  22.248  25.813  1.00  0.00     0.059 A 
ATOM     56  C   UNL A   1      42.278  21.326  28.054  1.00  0.00     0.059 A 
ATOM     57  F   UNL A   1      42.343  22.763  29.906  1.00  0.00    -0.206 F 
ATOM     58  C   UNL A   1      42.316  21.154  26.672  1.00  0.00     0.060 A 
BRANCH  58  59
ATOM     59  S   UNL A   1      42.251  19.497  25.957  1.00  0.00     0.124 S 
ATOM     60  O   UNL A   1      43.162  19.630  24.826  1.00  0.00    -0.237 OA
ATOM     61  O   UNL A   1      42.722  18.669  27.063  1.00  0.00    -0.237 OA
ATOM     62  O   UNL A   1      40.841  19.333  25.618  1.00  0.00    -0.744 OA
ENDBRANCH  58  59
ENDBRANCH  26  51
BRANCH  38  63
ATOM     63  C   UNL A   1      47.971  27.193  30.418  1.00  0.00     0.058 A 
ATOM     64  C   UNL A   1      49.015  27.586  29.566  1.00  0.00     0.135 A 
ATOM     65  C   UNL A   1      48.305  26.466  31.573  1.00  0.00     0.135 A 
ATOM     66  F   UNL A   1      48.748  28.273  28.443  1.00  0.00    -0.206 F 
ATOM     67  C   UNL A   1      50.338  27.259  29.841  1.00  0.00     0.059 A 
ATOM     68  C   UNL A   1      49.624  26.152  31.882  1.00  0.00     0.059 A 
ATOM     69  F   UNL A   1      47.345  26.073  32.425  1.00  0.00    -0.206 F 
ATOM     70  C   UNL A   1      50.634  26.546  31.005  1.00  0.00     0.060 A 
BRANCH  70  71
ATOM     71  S   UNL A   1      52.360  26.171  31.377  1.00  0.00     0.124 S 
ATOM     72  O   UNL A   1      52.785  27.389  32.059  1.00  0.00    -0.237 OA
ATOM     73  O   UNL A   1      52.248  24.981  32.214  1.00  0.00    -0.237 OA
ATOM     74  O   UNL A   1      52.951  25.951  30.061  1.00  0.00    -0.744 OA
ENDBRANCH  70  71
ENDBRANCH  38  63
ENDBRANCH  12  13
ENDBRANCH   5   7
ENDBRANCH   2   3
ENDBRANCH   1   2
BRANCH   1  75
ATOM     75  C   UNL A   1      33.424  26.209  24.937  1.00  0.00     0.002 C 
BRANCH  75  76
ATOM     76  C   UNL A   1      32.736  26.049  23.580  1.00  0.00     0.002 C 
BRANCH  76  77
ATOM     77  C   UNL A   1      31.236  25.755  23.621  1.00  0.00     0.021 C 
BRANCH  77  78
ATOM     78  C   UNL A   1      30.833  24.310  23.355  1.00  0.00     0.116 C 
BRANCH  78  79
ATOM     79  N   UNL A   1      30.300  23.665  24.531  1.00  0.00    -0.351 N 
ATOM     80  C   UNL A   1      30.913  23.036  25.568  1.00  0.00     0.278 C 
ATOM     81  H   UNL A   1      29.318  23.686  24.593  1.00  0.00     0.163 HD
ATOM     82  O   UNL A   1      30.149  22.371  26.281  1.00  0.00    -0.268 OA
BRANCH  80  83
ATOM     83  C   UNL A   1      32.465  23.053  25.789  1.00  0.00     0.274 C 
ATOM     84  C   UNL A   1      33.002  22.874  27.231  1.00  0.00     0.076 C 
ATOM     85  N   UNL A   1      33.162  22.159  24.812  1.00  0.00    -0.319 N 
ATOM     86  C   UNL A   1      34.499  22.542  27.316  1.00  0.00     0.016 C 
ATOM     87  C   UNL A   1      34.629  22.309  24.830  1.00  0.00     0.188 C 
ATOM     88  H   UNL A   1      32.867  22.524  23.907  1.00  0.00     0.349 HD
ATOM     89  C   UNL A   1      35.180  23.063  26.060  1.00  0.00     0.048 C 
ATOM     90  C   UNL A   1      35.123  23.048  23.575  1.00  0.00     0.065 C 
ATOM     91  C   UNL A   1      36.704  22.945  26.084  1.00  0.00     0.010 C 
ATOM     92  C   UNL A   1      36.656  23.087  23.537  1.00  0.00     0.006 C 
ATOM     93  C   UNL A   1      37.286  23.606  24.832  1.00  0.00     0.001 C 
BRANCH  85  94
ATOM     94  C   UNL A   1      32.663  20.752  24.716  1.00  0.00     0.194 C 
ATOM     95  C   UNL A   1      33.314  19.761  25.701  1.00  0.00     0.067 C 
ATOM     96  C   UNL A   1      32.738  20.245  23.251  1.00  0.00     0.134 C 
ATOM     97  C   UNL A   1      32.721  18.355  25.644  1.00  0.00     0.017 C 
ATOM     98  S   UNL A   1      32.025  18.584  22.994  1.00  0.00    -0.156 SA
ATOM     99  C   UNL A   1      32.918  17.692  24.293  1.00  0.00     0.070 C 
ENDBRANCH  85  94
ENDBRANCH  80  83
ENDBRANCH  78  79
ENDBRANCH  77  78
ENDBRANCH  76  77
ENDBRANCH  75  76
ENDBRANCH   1  75
TORSDOF 17
ENDMDL
MODEL 2
REMARK VINA RESULT:     -11.4      4.972     10.645
REMARK SMILES O=C(NCCCCCCNC(=O)[C@H]1CC[C@H]2CCCC[C@@H]2[N@H+]1[C@@H]1CCCSC1)c1ccc(-c2c3nc(c(-c4c(F)cc(S(=O)(=O)[O-])cc4F)c4ccc([nH]4)c(-c4c(F)cc(S(=O)(=O)[O-])cc4F)c4nc(c(-c5c(F)cc(S(=O)(=O)[O-])cc5F)c5ccc2[nH]5)C=C4)C=C3)cc1
REMARK SMILES IDX 5 1 4 2 3 3 1 4 2 5 29 7 30 8 94 9 31 10 93 11 32 12 33 13
REMARK SMILES IDX 34 14 87 15 35 16 92 17 86 18 88 19 36 20 91 21 85 22 84 23
REMARK SMILES IDX 37 25 71 26 50 27 70 28 51 29 54 30 69 31 89 32 52 33 53 34
REMARK SMILES IDX 68 36 90 37 55 38 38 39 39 40 48 41 40 42 41 43 47 44 49 45
REMARK SMILES IDX 42 46 43 47 44 48 45 49 46 50 72 51 73 52 82 53 74 54 75 55
REMARK SMILES IDX 81 56 83 57 76 58 77 59 78 60 79 61 80 62 56 63 57 64 66 65
REMARK SMILES IDX 58 66 59 67 65 68 67 69 60 70 61 71 62 72 63 73 64 74 6 75
REMARK SMILES IDX 7 76 8 77 9 78 10 79 11 80 12 82 13 83 14 84 22 85 15 86
REMARK SMILES IDX 21 87 16 89 20 90 17 91 19 92 18 93 23 94 24 95 28 96 25 97
REMARK SMILES IDX 27 98 26 99
REMARK H PARENT 3 6 88 24 54 35 10 81 22 88
REMARK Flexibility Score: inf
ROOT
ATOM      1  C   UNL A   1      37.435  23.198  25.972  1.00  0.00     0.021 C 
ENDROOT
BRANCH   1   2
ATOM      2  C   UNL A   1      38.380  24.249  26.542  1.00  0.00     0.116 C 
BRANCH   2   3
ATOM      3  N   UNL A   1      39.750  24.067  26.098  1.00  0.00    -0.352 N 
ATOM      4  O   UNL A   1      41.935  24.568  25.876  1.00  0.00    -0.269 OA
ATOM      5  C   UNL A   1      40.879  24.750  26.476  1.00  0.00     0.251 C 
ATOM      6  H   UNL A   1      39.889  23.354  25.435  1.00  0.00     0.163 HD
BRANCH   5   7
ATOM      7  C   UNL A   1      40.811  25.722  27.587  1.00  0.00     0.039 A 
ATOM      8  C   UNL A   1      39.840  25.605  28.586  1.00  0.00     0.014 A 
ATOM      9  C   UNL A   1      41.741  26.764  27.629  1.00  0.00     0.014 A 
ATOM     10  C   UNL A   1      39.721  26.595  29.556  1.00  0.00     0.010 A 
ATOM     11  C   UNL A   1      41.666  27.716  28.648  1.00  0.00     0.010 A 
ATOM     12  C   UNL A   1      40.641  27.654  29.605  1.00  0.00    -0.014 A 
BRANCH  12  13
ATOM     13  C   UNL A   1      40.559  28.660  30.693  1.00  0.00     0.031 A 
ATOM     14  C   UNL A   1      41.457  28.570  31.895  1.00  0.00     0.074 A 
ATOM     15  C   UNL A   1      39.652  29.651  30.597  1.00  0.00     0.049 A 
ATOM     16  N   UNL A   1      41.480  29.324  32.965  1.00  0.00    -0.248 NA
ATOM     17  C   UNL A   1      42.452  27.488  31.903  1.00  0.00     0.031 C 
ATOM     18  C   UNL A   1      38.725  29.835  29.477  1.00  0.00     0.029 A 
ATOM     19  N   UNL A   1      39.354  30.683  31.447  1.00  0.00    -0.354 N 
ATOM     20  C   UNL A   1      42.473  28.798  33.783  1.00  0.00     0.074 A 
ATOM     21  C   UNL A   1      43.013  27.644  33.094  1.00  0.00     0.031 C 
ATOM     22  C   UNL A   1      37.975  30.924  29.702  1.00  0.00     0.029 A 
ATOM     23  C   UNL A   1      38.324  31.478  31.005  1.00  0.00     0.049 A 
ATOM     24  H   UNL A   1      39.832  30.841  32.294  1.00  0.00     0.167 HD
ATOM     25  C   UNL A   1      42.894  29.240  34.992  1.00  0.00     0.037 A 
ATOM     26  C   UNL A   1      37.705  32.519  31.593  1.00  0.00     0.037 A 
ATOM     27  C   UNL A   1      42.348  30.393  35.664  1.00  0.00     0.049 A 
ATOM     28  C   UNL A   1      38.168  32.973  32.947  1.00  0.00     0.074 A 
ATOM     29  C   UNL A   1      42.725  30.941  36.879  1.00  0.00     0.029 A 
ATOM     30  N   UNL A   1      41.301  31.169  35.186  1.00  0.00    -0.354 N 
ATOM     31  N   UNL A   1      39.127  32.481  33.694  1.00  0.00    -0.248 NA
ATOM     32  C   UNL A   1      37.468  34.120  33.539  1.00  0.00     0.031 C 
ATOM     33  C   UNL A   1      41.876  32.018  37.155  1.00  0.00     0.029 A 
ATOM     34  C   UNL A   1      41.006  32.177  36.089  1.00  0.00     0.049 A 
ATOM     35  H   UNL A   1      40.836  31.024  34.330  1.00  0.00     0.167 HD
ATOM     36  C   UNL A   1      39.164  33.274  34.835  1.00  0.00     0.074 A 
ATOM     37  C   UNL A   1      38.134  34.281  34.674  1.00  0.00     0.031 C 
ATOM     38  C   UNL A   1      39.981  33.179  35.913  1.00  0.00     0.037 A 
BRANCH  25  39
ATOM     39  C   UNL A   1      43.981  28.457  35.681  1.00  0.00     0.058 A 
ATOM     40  C   UNL A   1      45.342  28.726  35.462  1.00  0.00     0.135 A 
ATOM     41  C   UNL A   1      43.657  27.433  36.587  1.00  0.00     0.135 A 
ATOM     42  F   UNL A   1      45.712  29.685  34.598  1.00  0.00    -0.206 F 
ATOM     43  C   UNL A   1      46.340  27.984  36.086  1.00  0.00     0.059 A 
ATOM     44  C   UNL A   1      44.639  26.697  37.244  1.00  0.00     0.059 A 
ATOM     45  F   UNL A   1      42.372  27.136  36.839  1.00  0.00    -0.206 F 
ATOM     46  C   UNL A   1      45.979  26.966  36.970  1.00  0.00     0.060 A 
BRANCH  46  47
ATOM     47  S   UNL A   1      47.286  25.994  37.748  1.00  0.00     0.124 S 
ATOM     48  O   UNL A   1      46.523  24.889  38.320  1.00  0.00    -0.237 OA
ATOM     49  O   UNL A   1      48.140  25.654  36.615  1.00  0.00    -0.237 OA
ATOM     50  O   UNL A   1      47.869  26.920  38.714  1.00  0.00    -0.744 OA
ENDBRANCH  46  47
ENDBRANCH  25  39
BRANCH  26  51
ATOM     51  C   UNL A   1      36.582  33.191  30.889  1.00  0.00     0.058 A 
ATOM     52  C   UNL A   1      35.263  33.058  31.343  1.00  0.00     0.135 A 
ATOM     53  C   UNL A   1      36.815  34.029  29.787  1.00  0.00     0.135 A 
ATOM     54  F   UNL A   1      34.991  32.264  32.391  1.00  0.00    -0.206 F 
ATOM     55  C   UNL A   1      34.212  33.732  30.730  1.00  0.00     0.059 A 
ATOM     56  C   UNL A   1      35.785  34.734  29.173  1.00  0.00     0.059 A 
ATOM     57  F   UNL A   1      38.064  34.204  29.327  1.00  0.00    -0.206 F 
ATOM     58  C   UNL A   1      34.485  34.575  29.650  1.00  0.00     0.060 A 
BRANCH  58  59
ATOM     59  S   UNL A   1      33.124  35.504  28.913  1.00  0.00     0.124 S 
ATOM     60  O   UNL A   1      33.839  36.557  28.202  1.00  0.00    -0.237 OA
ATOM     61  O   UNL A   1      32.479  34.494  28.080  1.00  0.00    -0.237 OA
ATOM     62  O   UNL A   1      32.348  35.937  30.072  1.00  0.00    -0.744 OA
ENDBRANCH  58  59
ENDBRANCH  26  51
BRANCH  38  63
ATOM     63  C   UNL A   1      39.827  34.216  36.990  1.00  0.00     0.058 A 
ATOM     64  C   UNL A   1      40.346  35.512  36.851  1.00  0.00     0.135 A 
ATOM     65  C   UNL A   1      39.096  33.922  38.153  1.00  0.00     0.135 A 
ATOM     66  F   UNL A   1      41.061  35.842  35.763  1.00  0.00    -0.206 F 
ATOM     67  C   UNL A   1      40.158  36.478  37.835  1.00  0.00     0.059 A 
ATOM     68  C   UNL A   1      38.873  34.879  39.137  1.00  0.00     0.059 A 
ATOM     69  F   UNL A   1      38.573  32.699  38.331  1.00  0.00    -0.206 F 
ATOM     70  C   UNL A   1      39.415  36.154  38.972  1.00  0.00     0.060 A 
BRANCH  70  71
ATOM     71  S   UNL A   1      39.137  37.429  40.218  1.00  0.00     0.124 S 
ATOM     72  O   UNL A   1      38.554  36.653  41.308  1.00  0.00    -0.237 OA
ATOM     73  O   UNL A   1      40.484  37.939  40.451  1.00  0.00    -0.237 OA
ATOM     74  O   UNL A   1      38.227  38.359  39.555  1.00  0.00    -0.744 OA
ENDBRANCH  70  71
ENDBRANCH  38  63
ENDBRANCH  12  13
ENDBRANCH   5   7
ENDBRANCH   2   3
ENDBRANCH   1   2
BRANCH   1  75
ATOM     75  C   UNL A   1      36.167  23.744  25.314  1.00  0.00     0.002 C 
BRANCH  75  76
ATOM     76  C   UNL A   1      34.885  23.632  26.141  1.00  0.00     0.002 C 
BRANCH  76  77
ATOM     77  C   UNL A   1      33.757  24.591  25.759  1.00  0.00     0.021 C 
BRANCH  77  78
ATOM     78  C   UNL A   1      33.077  24.322  24.422  1.00  0.00     0.116 C 
BRANCH  78  79
ATOM     79  N   UNL A   1      33.606  25.148  23.364  1.00  0.00    -0.351 N 
ATOM     80  C   UNL A   1      33.013  26.066  22.556  1.00  0.00     0.278 C 
ATOM     81  H   UNL A   1      34.569  25.025  23.198  1.00  0.00     0.163 HD
ATOM     82  O   UNL A   1      33.700  26.406  21.584  1.00  0.00    -0.268 OA
BRANCH  80  83
ATOM     83  C   UNL A   1      31.545  26.576  22.766  1.00  0.00     0.274 C 
ATOM     84  C   UNL A   1      30.489  25.572  23.292  1.00  0.00     0.076 C 
ATOM     85  N   UNL A   1      31.523  27.867  23.521  1.00  0.00    -0.319 N 
ATOM     86  C   UNL A   1      29.196  26.221  23.808  1.00  0.00     0.016 C 
ATOM     87  C   UNL A   1      30.191  28.500  23.552  1.00  0.00     0.188 C 
ATOM     88  H   UNL A   1      32.100  28.484  22.950  1.00  0.00     0.349 HD
ATOM     89  C   UNL A   1      29.031  27.572  23.130  1.00  0.00     0.048 C 
ATOM     90  C   UNL A   1      30.148  29.738  22.639  1.00  0.00     0.065 C 
ATOM     91  C   UNL A   1      27.699  28.260  23.428  1.00  0.00     0.010 C 
ATOM     92  C   UNL A   1      28.804  30.465  22.773  1.00  0.00     0.006 C 
ATOM     93  C   UNL A   1      27.593  29.545  22.602  1.00  0.00     0.001 C 
BRANCH  85  94
ATOM     94  C   UNL A   1      32.278  27.903  24.812  1.00  0.00     0.194 C 
ATOM     95  C   UNL A   1      31.402  27.937  26.080  1.00  0.00     0.067 C 
ATOM     96  C   UNL A   1      33.325  29.049  24.800  1.00  0.00     0.134 C 
ATOM     97  C   UNL A   1      32.197  27.880  27.381  1.00  0.00     0.017 C 
ATOM     98  S   UNL A   1      34.400  29.098  26.275  1.00  0.00    -0.156 SA
ATOM     99  C   UNL A   1      33.120  29.073  27.556  1.00  0.00     0.070 C 
ENDBRANCH  85  94
ENDBRANCH  80  83
ENDBRANCH  78  79
ENDBRANCH  77  78
ENDBRANCH  76  77
ENDBRANCH  75  76
ENDBRANCH   1  75
TORSDOF 17
ENDMDL
MODEL 3
REMARK VINA RESULT:     -11.1      3.088      9.362
REMARK SMILES O=C(NCCCCCCNC(=O)[C@H]1CC[C@H]2CCCC[C@@H]2[N@H+]1[C@@H]1CCCSC1)c1ccc(-c2c3nc(c(-c4c(F)cc(S(=O)(=O)[O-])cc4F)c4ccc([nH]4)c(-c4c(F)cc(S(=O)(=O)[O-])cc4F)c4nc(c(-c5c(F)cc(S(=O)(=O)[O-])cc5F)c5ccc2[nH]5)C=C4)C=C3)cc1
REMARK SMILES IDX 5 1 4 2 3 3 1 4 2 5 29 7 30 8 94 9 31 10 93 11 32 12 33 13
REMARK SMILES IDX 34 14 87 15 35 16 92 17 86 18 88 19 36 20 91 21 85 22 84 23
REMARK SMILES IDX 37 25 71 26 50 27 70 28 51 29 54 30 69 31 89 32 52 33 53 34
REMARK SMILES IDX 68 36 90 37 55 38 38 39 39 40 48 41 40 42 41 43 47 44 49 45
REMARK SMILES IDX 42 46 43 47 44 48 45 49 46 50 72 51 73 52 82 53 74 54 75 55
REMARK SMILES IDX 81 56 83 57 76 58 77 59 78 60 79 61 80 62 56 63 57 64 66 65
REMARK SMILES IDX 58 66 59 67 65 68 67 69 60 70 61 71 62 72 63 73 64 74 6 75
REMARK SMILES IDX 7 76 8 77 9 78 10 79 11 80 12 82 13 83 14 84 22 85 15 86
REMARK SMILES IDX 21 87 16 89 20 90 17 91 19 92 18 93 23 94 24 95 28 96 25 97
REMARK SMILES IDX 27 98 26 99
REMARK H PARENT 3 6 88 24 54 35 10 81 22 88
REMARK Flexibility Score: inf
ROOT
ATOM      1  C   UNL A   1      34.966  23.622  25.233  1.00  0.00     0.021 C 
ENDROOT
BRANCH   1   2
ATOM      2  C   UNL A   1      36.332  24.065  25.742  1.00  0.00     0.116 C 
BRANCH   2   3
ATOM      3  N   UNL A   1      37.313  22.997  25.708  1.00  0.00    -0.352 N 
ATOM      4  O   UNL A   1      39.356  22.060  25.870  1.00  0.00    -0.269 OA
ATOM      5  C   UNL A   1      38.622  23.012  26.122  1.00  0.00     0.251 C 
ATOM      6  H   UNL A   1      36.997  22.143  25.337  1.00  0.00     0.163 HD
BRANCH   5   7
ATOM      7  C   UNL A   1      39.148  24.187  26.849  1.00  0.00     0.039 A 
ATOM      8  C   UNL A   1      38.868  24.377  28.205  1.00  0.00     0.014 A 
ATOM      9  C   UNL A   1      39.940  25.108  26.158  1.00  0.00     0.014 A 
ATOM     10  C   UNL A   1      39.275  25.548  28.839  1.00  0.00     0.010 A 
ATOM     11  C   UNL A   1      40.411  26.245  26.817  1.00  0.00     0.010 A 
ATOM     12  C   UNL A   1      40.062  26.487  28.155  1.00  0.00    -0.014 A 
BRANCH  12  13
ATOM     13  C   UNL A   1      40.565  27.692  28.862  1.00  0.00     0.031 A 
ATOM     14  C   UNL A   1      41.955  27.728  29.431  1.00  0.00     0.074 A 
ATOM     15  C   UNL A   1      39.746  28.751  29.003  1.00  0.00     0.049 A 
ATOM     16  N   UNL A   1      42.535  28.670  30.130  1.00  0.00    -0.248 NA
ATOM     17  C   UNL A   1      42.802  26.549  29.194  1.00  0.00     0.031 C 
ATOM     18  C   UNL A   1      38.373  28.827  28.495  1.00  0.00     0.029 A 
ATOM     19  N   UNL A   1      39.939  29.962  29.615  1.00  0.00    -0.354 N 
ATOM     20  C   UNL A   1      43.804  28.194  30.436  1.00  0.00     0.074 A 
ATOM     21  C   UNL A   1      43.901  26.867  29.865  1.00  0.00     0.031 C 
ATOM     22  C   UNL A   1      37.857  30.026  28.800  1.00  0.00     0.029 A 
ATOM     23  C   UNL A   1      38.835  30.778  29.577  1.00  0.00     0.049 A 
ATOM     24  H   UNL A   1      40.788  30.222  30.041  1.00  0.00     0.167 HD
ATOM     25  C   UNL A   1      44.795  28.810  31.125  1.00  0.00     0.037 A 
ATOM     26  C   UNL A   1      38.618  31.987  30.130  1.00  0.00     0.037 A 
ATOM     27  C   UNL A   1      44.685  30.134  31.684  1.00  0.00     0.049 A 
ATOM     28  C   UNL A   1      39.720  32.638  30.916  1.00  0.00     0.074 A 
ATOM     29  C   UNL A   1      45.641  30.860  32.374  1.00  0.00     0.029 A 
ATOM     30  N   UNL A   1      43.547  30.928  31.629  1.00  0.00    -0.354 N 
ATOM     31  N   UNL A   1      40.924  32.186  31.171  1.00  0.00    -0.248 NA
ATOM     32  C   UNL A   1      39.437  33.960  31.487  1.00  0.00     0.031 C 
ATOM     33  C   UNL A   1      45.067  32.070  32.776  1.00  0.00     0.029 A 
ATOM     34  C   UNL A   1      43.771  32.125  32.289  1.00  0.00     0.049 A 
ATOM     35  H   UNL A   1      42.705  30.676  31.186  1.00  0.00     0.167 HD
ATOM     36  C   UNL A   1      41.554  33.178  31.913  1.00  0.00     0.074 A 
ATOM     37  C   UNL A   1      40.597  34.257  32.058  1.00  0.00     0.031 C 
ATOM     38  C   UNL A   1      42.811  33.195  32.421  1.00  0.00     0.037 A 
BRANCH  25  39
ATOM     39  C   UNL A   1      46.076  28.047  31.336  1.00  0.00     0.058 A 
ATOM     40  C   UNL A   1      47.160  28.155  30.450  1.00  0.00     0.135 A 
ATOM     41  C   UNL A   1      46.229  27.206  32.452  1.00  0.00     0.135 A 
ATOM     42  F   UNL A   1      47.068  28.935  29.360  1.00  0.00    -0.206 F 
ATOM     43  C   UNL A   1      48.332  27.431  30.641  1.00  0.00     0.059 A 
ATOM     44  C   UNL A   1      47.403  26.493  32.677  1.00  0.00     0.059 A 
ATOM     45  F   UNL A   1      45.227  27.067  33.335  1.00  0.00    -0.206 F 
ATOM     46  C   UNL A   1      48.442  26.596  31.754  1.00  0.00     0.060 A 
BRANCH  46  47
ATOM     47  S   UNL A   1      49.958  25.640  31.971  1.00  0.00     0.124 S 
ATOM     48  O   UNL A   1      49.545  24.666  32.977  1.00  0.00    -0.237 OA
ATOM     49  O   UNL A   1      50.187  25.108  30.632  1.00  0.00    -0.237 OA
ATOM     50  O   UNL A   1      50.926  26.635  32.421  1.00  0.00    -0.744 OA
ENDBRANCH  46  47
ENDBRANCH  25  39
BRANCH  26  51
ATOM     51  C   UNL A   1      37.298  32.644  29.951  1.00  0.00     0.058 A 
ATOM     52  C   UNL A   1      36.243  32.401  30.842  1.00  0.00     0.135 A 
ATOM     53  C   UNL A   1      37.086  33.576  28.921  1.00  0.00     0.135 A 
ATOM     54  F   UNL A   1      36.399  31.517  31.838  1.00  0.00    -0.206 F 
ATOM     55  C   UNL A   1      35.024  33.058  30.720  1.00  0.00     0.059 A 
ATOM     56  C   UNL A   1      35.884  34.264  28.794  1.00  0.00     0.059 A 
ATOM     57  F   UNL A   1      38.071  33.856  28.054  1.00  0.00    -0.206 F 
ATOM     58  C   UNL A   1      34.857  33.995  29.697  1.00  0.00     0.060 A 
BRANCH  58  59
ATOM     59  S   UNL A   1      33.296  34.897  29.598  1.00  0.00     0.124 S 
ATOM     60  O   UNL A   1      32.858  34.878  30.988  1.00  0.00    -0.237 OA
ATOM     61  O   UNL A   1      33.725  36.193  29.080  1.00  0.00    -0.237 OA
ATOM     62  O   UNL A   1      32.502  34.094  28.673  1.00  0.00    -0.744 OA
ENDBRANCH  58  59
ENDBRANCH  26  51
BRANCH  38  63
ATOM     63  C   UNL A   1      43.245  34.436  33.147  1.00  0.00     0.058 A 
ATOM     64  C   UNL A   1      43.872  35.504  32.485  1.00  0.00     0.135 A 
ATOM     65  C   UNL A   1      42.975  34.583  34.518  1.00  0.00     0.135 A 
ATOM     66  F   UNL A   1      44.162  35.410  31.177  1.00  0.00    -0.206 F 
ATOM     67  C   UNL A   1      44.228  36.667  33.159  1.00  0.00     0.059 A 
ATOM     68  C   UNL A   1      43.298  35.748  35.206  1.00  0.00     0.059 A 
ATOM     69  F   UNL A   1      42.370  33.595  35.197  1.00  0.00    -0.206 F 
ATOM     70  C   UNL A   1      43.933  36.782  34.519  1.00  0.00     0.060 A 
BRANCH  70  71
ATOM     71  S   UNL A   1      44.356  38.316  35.371  1.00  0.00     0.124 S 
ATOM     72  O   UNL A   1      43.612  39.300  34.591  1.00  0.00    -0.237 OA
ATOM     73  O   UNL A   1      43.860  38.070  36.721  1.00  0.00    -0.237 OA
ATOM     74  O   UNL A   1      45.808  38.385  35.245  1.00  0.00    -0.744 OA
ENDBRANCH  70  71
ENDBRANCH  38  63
ENDBRANCH  12  13
ENDBRANCH   5   7
ENDBRANCH   2   3
ENDBRANCH   1   2
BRANCH   1  75
ATOM     75  C   UNL A   1      33.786  24.485  25.684  1.00  0.00     0.002 C 
BRANCH  75  76
ATOM     76  C   UNL A   1      32.423  23.789  25.713  1.00  0.00     0.002 C 
BRANCH  76  77
ATOM     77  C   UNL A   1      31.958  23.175  24.392  1.00  0.00     0.021 C 
BRANCH  77  78
ATOM     78  C   UNL A   1      30.812  23.895  23.691  1.00  0.00     0.116 C 
BRANCH  78  79
ATOM     79  N   UNL A   1      31.201  24.413  22.401  1.00  0.00    -0.351 N 
ATOM     80  C   UNL A   1      31.843  25.556  22.046  1.00  0.00     0.278 C 
ATOM     81  H   UNL A   1      30.957  23.834  21.643  1.00  0.00     0.163 HD
ATOM     82  O   UNL A   1      31.791  25.814  20.836  1.00  0.00    -0.268 OA
BRANCH  80  83
ATOM     83  C   UNL A   1      32.504  26.529  23.083  1.00  0.00     0.274 C 
ATOM     84  C   UNL A   1      33.649  27.451  22.597  1.00  0.00     0.076 C 
ATOM     85  N   UNL A   1      31.468  27.277  23.861  1.00  0.00    -0.319 N 
ATOM     86  C   UNL A   1      33.987  28.605  23.553  1.00  0.00     0.016 C 
ATOM     87  C   UNL A   1      32.027  28.036  24.996  1.00  0.00     0.188 C 
ATOM     88  H   UNL A   1      30.909  26.536  24.283  1.00  0.00     0.349 HD
ATOM     89  C   UNL A   1      33.561  28.208  24.957  1.00  0.00     0.048 C 
ATOM     90  C   UNL A   1      31.670  27.367  26.334  1.00  0.00     0.065 C 
ATOM     91  C   UNL A   1      33.986  29.199  26.041  1.00  0.00     0.010 C 
ATOM     92  C   UNL A   1      32.142  28.227  27.514  1.00  0.00     0.006 C 
ATOM     93  C   UNL A   1      33.613  28.640  27.417  1.00  0.00     0.001 C 
BRANCH  85  94
ATOM     94  C   UNL A   1      30.420  27.992  23.068  1.00  0.00     0.194 C 
ATOM     95  C   UNL A   1      30.716  29.479  22.786  1.00  0.00     0.067 C 
ATOM     96  C   UNL A   1      29.020  27.791  23.707  1.00  0.00     0.134 C 
ATOM     97  C   UNL A   1      29.676  30.157  21.898  1.00  0.00     0.017 C 
ATOM     98  S   UNL A   1      27.645  28.508  22.742  1.00  0.00    -0.156 SA
ATOM     99  C   UNL A   1      28.295  30.184  22.529  1.00  0.00     0.070 C 
ENDBRANCH  85  94
ENDBRANCH  80  83
ENDBRANCH  78  79
ENDBRANCH  77  78
ENDBRANCH  76  77
ENDBRANCH  75  76
ENDBRANCH   1  75
TORSDOF 17
ENDMDL
