MODEL 1
REMARK VINA RESULT:     -10.8      0.000      0.000
REMARK SMILES CC(C)=CC(=O)Nc1ccc(C(=O)NCCCCCCNC(=O)c2ccc(-c3c4nc(c(-c5c(F)cc(S(=O)(=O)[O-])cc5F)c5ccc([nH]5)c(-c5c(F)cc(S(=O)(=O)[O-])cc5F)c5nc(c(-c6c(F)cc(S(=O)(=O)[O-])cc6F)c6ccc3[nH]6)C=C5)C=C4)cc2)cc1
REMARK SMILES IDX 18 1 17 2 16 3 15 4 14 5 12 6 13 7 11 9 8 10 9 11 91 12
REMARK SMILES IDX 10 13 90 14 7 15 5 16 6 17 4 19 1 20 2 21 3 22 19 23 20 24
REMARK SMILES IDX 21 25 22 26 23 28 24 29 25 30 89 31 26 32 88 33 27 34 28 35
REMARK SMILES IDX 29 36 82 37 30 38 87 39 81 40 83 41 31 42 86 43 80 44 79 45
REMARK SMILES IDX 32 47 66 48 45 49 65 50 46 51 49 52 64 53 84 54 47 55 48 56
REMARK SMILES IDX 63 58 85 59 50 60 33 61 34 62 43 63 35 64 36 65 42 66 44 67
REMARK SMILES IDX 37 68 38 69 39 70 40 71 41 72 67 73 68 74 77 75 69 76 70 77
REMARK SMILES IDX 76 78 78 79 71 80 72 81 73 82 74 83 75 84 51 85 52 86 61 87
REMARK SMILES IDX 53 88 54 89 60 90 62 91 55 92 56 93 57 94 58 95 59 96
REMARK H PARENT 14 8 7 18 21 27 83 46 49 57
REMARK Flexibility Score: inf
ROOT
ATOM      1  C   UNL A   1      34.784  24.595  25.013  1.00  0.00     0.002 C 
ENDROOT
BRANCH   1   2
ATOM      2  C   UNL A   1      34.579  24.456  23.500  1.00  0.00     0.002 C 
BRANCH   2   3
ATOM      3  C   UNL A   1      33.114  24.505  23.044  1.00  0.00     0.021 C 
BRANCH   3   4
ATOM      4  C   UNL A   1      32.905  25.364  21.795  1.00  0.00     0.116 C 
BRANCH   4   5
ATOM      5  N   UNL A   1      33.106  26.765  22.127  1.00  0.00    -0.352 N 
ATOM      6  C   UNL A   1      32.506  27.589  23.046  1.00  0.00     0.251 C 
ATOM      7  O   UNL A   1      32.847  28.770  23.081  1.00  0.00    -0.269 OA
ATOM      8  H   UNL A   1      33.804  27.207  21.590  1.00  0.00     0.163 HD
BRANCH   6   9
ATOM      9  C   UNL A   1      31.562  27.076  24.073  1.00  0.00     0.039 A 
ATOM     10  C   UNL A   1      30.149  25.593  25.961  1.00  0.00     0.041 A 
ATOM     11  C   UNL A   1      31.343  26.211  26.330  1.00  0.00     0.027 A 
ATOM     12  C   UNL A   1      29.562  25.889  24.733  1.00  0.00     0.027 A 
ATOM     13  C   UNL A   1      32.069  26.916  25.370  1.00  0.00     0.016 A 
ATOM     14  C   UNL A   1      30.251  26.673  23.806  1.00  0.00     0.016 A 
BRANCH  10  15
ATOM     15  N   UNL A   1      29.631  24.630  26.829  1.00  0.00    -0.323 N 
ATOM     16  C   UNL A   1      29.800  23.277  26.825  1.00  0.00     0.248 C 
ATOM     17  O   UNL A   1      29.110  22.583  27.576  1.00  0.00    -0.270 OA
ATOM     18  H   UNL A   1      29.059  24.980  27.550  1.00  0.00     0.170 HD
BRANCH  16  19
ATOM     19  C   UNL A   1      30.829  22.598  25.985  1.00  0.00     0.070 C 
ATOM     20  C   UNL A   1      32.850  22.579  27.544  1.00  0.00     0.039 C 
ATOM     21  C   UNL A   1      32.106  22.269  26.275  1.00  0.00    -0.071 C 
ATOM     22  C   UNL A   1      32.917  21.453  25.298  1.00  0.00     0.039 C 
ENDBRANCH  16  19
ENDBRANCH  10  15
ENDBRANCH   6   9
ENDBRANCH   4   5
ENDBRANCH   3   4
ENDBRANCH   2   3
ENDBRANCH   1   2
BRANCH   1  23
ATOM     23  C   UNL A   1      35.880  23.704  25.599  1.00  0.00     0.021 C 
BRANCH  23  24
ATOM     24  C   UNL A   1      37.184  23.706  24.806  1.00  0.00     0.116 C 
BRANCH  24  25
ATOM     25  N   UNL A   1      38.114  22.695  25.292  1.00  0.00    -0.352 N 
ATOM     26  C   UNL A   1      39.220  22.848  26.091  1.00  0.00     0.251 C 
ATOM     27  H   UNL A   1      37.922  21.773  25.006  1.00  0.00     0.163 HD
ATOM     28  O   UNL A   1      40.021  21.925  26.221  1.00  0.00    -0.269 OA
BRANCH  26  29
ATOM     29  C   UNL A   1      39.450  24.136  26.777  1.00  0.00     0.039 A 
ATOM     30  C   UNL A   1      38.876  24.352  28.032  1.00  0.00     0.014 A 
ATOM     31  C   UNL A   1      40.253  25.117  26.189  1.00  0.00     0.014 A 
ATOM     32  C   UNL A   1      39.175  25.522  28.733  1.00  0.00     0.010 A 
ATOM     33  C   UNL A   1      40.604  26.249  26.919  1.00  0.00     0.010 A 
ATOM     34  C   UNL A   1      40.077  26.458  28.202  1.00  0.00    -0.014 A 
BRANCH  34  35
ATOM     35  C   UNL A   1      40.514  27.644  28.983  1.00  0.00     0.031 A 
ATOM     36  C   UNL A   1      41.818  27.621  29.730  1.00  0.00     0.074 A 
ATOM     37  C   UNL A   1      39.691  28.707  29.089  1.00  0.00     0.049 A 
ATOM     38  N   UNL A   1      42.318  28.514  30.545  1.00  0.00    -0.248 NA
ATOM     39  C   UNL A   1      42.662  26.428  29.555  1.00  0.00     0.031 C 
ATOM     40  C   UNL A   1      38.382  28.830  28.442  1.00  0.00     0.029 A 
ATOM     41  N   UNL A   1      39.824  29.880  29.790  1.00  0.00    -0.354 N 
ATOM     42  C   UNL A   1      43.526  27.989  30.987  1.00  0.00     0.074 A 
ATOM     43  C   UNL A   1      43.660  26.677  30.390  1.00  0.00     0.031 C 
ATOM     44  C   UNL A   1      37.840  30.016  28.765  1.00  0.00     0.029 A 
ATOM     45  C   UNL A   1      38.738  30.717  29.678  1.00  0.00     0.049 A 
ATOM     46  H   UNL A   1      40.621  30.102  30.323  1.00  0.00     0.167 HD
ATOM     47  C   UNL A   1      44.448  28.557  31.801  1.00  0.00     0.037 A 
ATOM     48  C   UNL A   1      38.483  31.906  30.260  1.00  0.00     0.037 A 
ATOM     49  C   UNL A   1      44.311  29.869  32.381  1.00  0.00     0.049 A 
ATOM     50  C   UNL A   1      39.505  32.499  31.191  1.00  0.00     0.074 A 
ATOM     51  C   UNL A   1      45.214  30.558  33.171  1.00  0.00     0.029 A 
ATOM     52  N   UNL A   1      43.197  30.687  32.243  1.00  0.00    -0.354 N 
ATOM     53  N   UNL A   1      40.674  32.021  31.543  1.00  0.00    -0.248 NA
ATOM     54  C   UNL A   1      39.174  33.793  31.806  1.00  0.00     0.031 C 
ATOM     55  C   UNL A   1      44.625  31.766  33.557  1.00  0.00     0.029 A 
ATOM     56  C   UNL A   1      43.377  31.857  32.963  1.00  0.00     0.049 A 
ATOM     57  H   UNL A   1      42.398  30.467  31.712  1.00  0.00     0.167 HD
ATOM     58  C   UNL A   1      41.228  32.962  32.405  1.00  0.00     0.074 A 
ATOM     59  C   UNL A   1      40.272  34.046  32.506  1.00  0.00     0.031 C 
ATOM     60  C   UNL A   1      42.417  32.929  33.055  1.00  0.00     0.037 A 
BRANCH  47  61
ATOM     61  C   UNL A   1      45.686  27.763  32.119  1.00  0.00     0.058 A 
ATOM     62  C   UNL A   1      45.708  26.811  33.151  1.00  0.00     0.135 A 
ATOM     63  C   UNL A   1      46.854  27.926  31.356  1.00  0.00     0.135 A 
ATOM     64  F   UNL A   1      44.625  26.623  33.921  1.00  0.00    -0.206 F 
ATOM     65  C   UNL A   1      46.852  26.072  33.436  1.00  0.00     0.059 A 
ATOM     66  C   UNL A   1      48.000  27.176  31.603  1.00  0.00     0.059 A 
ATOM     67  F   UNL A   1      46.890  28.821  30.356  1.00  0.00    -0.206 F 
ATOM     68  C   UNL A   1      47.993  26.261  32.655  1.00  0.00     0.060 A 
BRANCH  68  69
ATOM     69  S   UNL A   1      49.467  25.291  33.038  1.00  0.00     0.124 S 
ATOM     70  O   UNL A   1      48.918  24.264  33.919  1.00  0.00    -0.237 OA
ATOM     71  O   UNL A   1      49.889  24.834  31.718  1.00  0.00    -0.237 OA
ATOM     72  O   UNL A   1      50.354  26.257  33.678  1.00  0.00    -0.744 OA
ENDBRANCH  68  69
ENDBRANCH  47  61
BRANCH  48  73
ATOM     73  C   UNL A   1      37.203  32.612  29.979  1.00  0.00     0.058 A 
ATOM     74  C   UNL A   1      37.146  33.658  29.046  1.00  0.00     0.135 A 
ATOM     75  C   UNL A   1      36.012  32.248  30.624  1.00  0.00     0.135 A 
ATOM     76  F   UNL A   1      38.261  34.049  28.409  1.00  0.00    -0.206 F 
ATOM     77  C   UNL A   1      35.958  34.327  28.771  1.00  0.00     0.059 A 
ATOM     78  C   UNL A   1      34.804  32.883  30.347  1.00  0.00     0.059 A 
ATOM     79  F   UNL A   1      36.007  31.243  31.514  1.00  0.00    -0.206 F 
ATOM     80  C   UNL A   1      34.790  33.929  29.424  1.00  0.00     0.060 A 
BRANCH  80  81
ATOM     81  S   UNL A   1      33.244  34.769  29.022  1.00  0.00     0.124 S 
ATOM     82  O   UNL A   1      32.638  34.916  30.340  1.00  0.00    -0.237 OA
ATOM     83  O   UNL A   1      33.719  35.998  28.394  1.00  0.00    -0.237 OA
ATOM     84  O   UNL A   1      32.578  33.831  28.121  1.00  0.00    -0.744 OA
ENDBRANCH  80  81
ENDBRANCH  48  73
BRANCH  60  85
ATOM     85  C   UNL A   1      42.768  34.106  33.925  1.00  0.00     0.058 A 
ATOM     86  C   UNL A   1      42.475  34.119  35.297  1.00  0.00     0.135 A 
ATOM     87  C   UNL A   1      43.471  35.200  33.393  1.00  0.00     0.135 A 
ATOM     88  F   UNL A   1      41.795  33.104  35.852  1.00  0.00    -0.206 F 
ATOM     89  C   UNL A   1      42.857  35.180  36.111  1.00  0.00     0.059 A 
ATOM     90  C   UNL A   1      43.889  36.257  34.195  1.00  0.00     0.059 A 
ATOM     91  F   UNL A   1      43.783  35.234  32.088  1.00  0.00    -0.206 F 
ATOM     92  C   UNL A   1      43.573  36.241  35.552  1.00  0.00     0.060 A 
BRANCH  92  93
ATOM     93  S   UNL A   1      44.113  37.581  36.634  1.00  0.00     0.124 S 
ATOM     94  O   UNL A   1      44.036  38.731  35.740  1.00  0.00    -0.237 OA
ATOM     95  O   UNL A   1      43.119  37.539  37.701  1.00  0.00    -0.237 OA
ATOM     96  O   UNL A   1      45.462  37.180  37.025  1.00  0.00    -0.744 OA
ENDBRANCH  92  93
ENDBRANCH  60  85
ENDBRANCH  34  35
ENDBRANCH  26  29
ENDBRANCH  24  25
ENDBRANCH  23  24
ENDBRANCH   1  23
TORSDOF 18
ENDMDL
MODEL 2
REMARK VINA RESULT:     -10.8      2.993      9.057
REMARK SMILES CC(C)=CC(=O)Nc1ccc(C(=O)NCCCCCCNC(=O)c2ccc(-c3c4nc(c(-c5c(F)cc(S(=O)(=O)[O-])cc5F)c5ccc([nH]5)c(-c5c(F)cc(S(=O)(=O)[O-])cc5F)c5nc(c(-c6c(F)cc(S(=O)(=O)[O-])cc6F)c6ccc3[nH]6)C=C5)C=C4)cc2)cc1
REMARK SMILES IDX 18 1 17 2 16 3 15 4 14 5 12 6 13 7 11 9 8 10 9 11 91 12
REMARK SMILES IDX 10 13 90 14 7 15 5 16 6 17 4 19 1 20 2 21 3 22 19 23 20 24
REMARK SMILES IDX 21 25 22 26 23 28 24 29 25 30 89 31 26 32 88 33 27 34 28 35
REMARK SMILES IDX 29 36 82 37 30 38 87 39 81 40 83 41 31 42 86 43 80 44 79 45
REMARK SMILES IDX 32 47 66 48 45 49 65 50 46 51 49 52 64 53 84 54 47 55 48 56
REMARK SMILES IDX 63 58 85 59 50 60 33 61 34 62 43 63 35 64 36 65 42 66 44 67
REMARK SMILES IDX 37 68 38 69 39 70 40 71 41 72 67 73 68 74 77 75 69 76 70 77
REMARK SMILES IDX 76 78 78 79 71 80 72 81 73 82 74 83 75 84 51 85 52 86 61 87
REMARK SMILES IDX 53 88 54 89 60 90 62 91 55 92 56 93 57 94 58 95 59 96
REMARK H PARENT 14 8 7 18 21 27 83 46 49 57
REMARK Flexibility Score: inf
ROOT
ATOM      1  C   UNL A   1      31.529  27.513  26.264  1.00  0.00     0.002 C 
ENDROOT
BRANCH   1   2
ATOM      2  C   UNL A   1      30.908  26.931  24.989  1.00  0.00     0.002 C 
BRANCH   2   3
ATOM      3  C   UNL A   1      31.320  27.640  23.692  1.00  0.00     0.021 C 
BRANCH   3   4
ATOM      4  C   UNL A   1      30.506  27.188  22.478  1.00  0.00     0.116 C 
BRANCH   4   5
ATOM      5  N   UNL A   1      31.405  26.771  21.415  1.00  0.00    -0.352 N 
ATOM      6  C   UNL A   1      32.502  25.947  21.407  1.00  0.00     0.251 C 
ATOM      7  O   UNL A   1      33.117  25.805  20.351  1.00  0.00    -0.269 OA
ATOM      8  H   UNL A   1      31.185  27.152  20.534  1.00  0.00     0.163 HD
BRANCH   6   9
ATOM      9  C   UNL A   1      32.890  25.133  22.589  1.00  0.00     0.039 A 
ATOM     10  C   UNL A   1      33.100  23.864  25.059  1.00  0.00     0.041 A 
ATOM     11  C   UNL A   1      32.205  23.372  24.111  1.00  0.00     0.027 A 
ATOM     12  C   UNL A   1      34.027  24.841  24.702  1.00  0.00     0.027 A 
ATOM     13  C   UNL A   1      32.072  24.035  22.892  1.00  0.00     0.016 A 
ATOM     14  C   UNL A   1      33.950  25.441  23.444  1.00  0.00     0.016 A 
BRANCH  10  15
ATOM     15  N   UNL A   1      32.966  23.399  26.369  1.00  0.00    -0.323 N 
ATOM     16  C   UNL A   1      33.661  22.421  27.018  1.00  0.00     0.248 C 
ATOM     17  O   UNL A   1      33.268  22.038  28.123  1.00  0.00    -0.270 OA
ATOM     18  H   UNL A   1      32.267  23.841  26.902  1.00  0.00     0.170 HD
BRANCH  16  19
ATOM     19  C   UNL A   1      34.916  21.829  26.471  1.00  0.00     0.070 C 
ATOM     20  C   UNL A   1      34.008  20.137  24.789  1.00  0.00     0.039 C 
ATOM     21  C   UNL A   1      35.088  20.890  25.515  1.00  0.00    -0.071 C 
ATOM     22  C   UNL A   1      36.476  20.551  25.029  1.00  0.00     0.039 C 
ENDBRANCH  16  19
ENDBRANCH  10  15
ENDBRANCH   6   9
ENDBRANCH   4   5
ENDBRANCH   3   4
ENDBRANCH   2   3
ENDBRANCH   1   2
BRANCH   1  23
ATOM     23  C   UNL A   1      32.864  28.233  26.059  1.00  0.00     0.021 C 
BRANCH  23  24
ATOM     24  C   UNL A   1      33.620  28.536  27.350  1.00  0.00     0.116 C 
BRANCH  24  25
ATOM     25  N   UNL A   1      33.621  29.961  27.653  1.00  0.00    -0.352 N 
ATOM     26  C   UNL A   1      34.594  30.716  28.260  1.00  0.00     0.251 C 
ATOM     27  H   UNL A   1      32.811  30.451  27.385  1.00  0.00     0.163 HD
ATOM     28  O   UNL A   1      34.342  31.857  28.642  1.00  0.00    -0.269 OA
BRANCH  26  29
ATOM     29  C   UNL A   1      35.939  30.141  28.469  1.00  0.00     0.039 A 
ATOM     30  C   UNL A   1      36.855  30.150  27.416  1.00  0.00     0.014 A 
ATOM     31  C   UNL A   1      36.298  29.615  29.713  1.00  0.00     0.014 A 
ATOM     32  C   UNL A   1      38.161  29.706  27.636  1.00  0.00     0.010 A 
ATOM     33  C   UNL A   1      37.617  29.238  29.948  1.00  0.00     0.010 A 
ATOM     34  C   UNL A   1      38.564  29.289  28.915  1.00  0.00    -0.014 A 
BRANCH  34  35
ATOM     35  C   UNL A   1      39.978  28.939  29.207  1.00  0.00     0.031 A 
ATOM     36  C   UNL A   1      40.913  29.969  29.775  1.00  0.00     0.074 A 
ATOM     37  C   UNL A   1      40.438  27.715  28.876  1.00  0.00     0.049 A 
ATOM     38  N   UNL A   1      42.199  29.882  29.999  1.00  0.00    -0.248 NA
ATOM     39  C   UNL A   1      40.330  31.277  30.116  1.00  0.00     0.031 C 
ATOM     40  C   UNL A   1      39.636  26.642  28.282  1.00  0.00     0.029 A 
ATOM     41  N   UNL A   1      41.694  27.169  28.977  1.00  0.00    -0.354 N 
ATOM     42  C   UNL A   1      42.581  31.122  30.496  1.00  0.00     0.074 A 
ATOM     43  C   UNL A   1      41.401  31.960  30.493  1.00  0.00     0.031 C 
ATOM     44  C   UNL A   1      40.415  25.566  28.085  1.00  0.00     0.029 A 
ATOM     45  C   UNL A   1      41.780  25.885  28.493  1.00  0.00     0.049 A 
ATOM     46  H   UNL A   1      42.462  27.653  29.360  1.00  0.00     0.167 HD
ATOM     47  C   UNL A   1      43.801  31.519  30.932  1.00  0.00     0.037 A 
ATOM     48  C   UNL A   1      42.841  25.062  28.370  1.00  0.00     0.037 A 
ATOM     49  C   UNL A   1      44.967  30.673  30.942  1.00  0.00     0.049 A 
ATOM     50  C   UNL A   1      44.193  25.539  28.826  1.00  0.00     0.074 A 
ATOM     51  C   UNL A   1      46.233  30.962  31.418  1.00  0.00     0.029 A 
ATOM     52  N   UNL A   1      45.013  29.378  30.445  1.00  0.00    -0.354 N 
ATOM     53  N   UNL A   1      44.523  26.691  29.360  1.00  0.00    -0.248 NA
ATOM     54  C   UNL A   1      45.318  24.608  28.663  1.00  0.00     0.031 C 
ATOM     55  C   UNL A   1      47.059  29.864  31.157  1.00  0.00     0.029 A 
ATOM     56  C   UNL A   1      46.296  28.869  30.569  1.00  0.00     0.049 A 
ATOM     57  H   UNL A   1      44.248  28.894  30.059  1.00  0.00     0.167 HD
ATOM     58  C   UNL A   1      45.889  26.616  29.614  1.00  0.00     0.074 A 
ATOM     59  C   UNL A   1      46.319  25.299  29.192  1.00  0.00     0.031 C 
ATOM     60  C   UNL A   1      46.711  27.554  30.145  1.00  0.00     0.037 A 
BRANCH  47  61
ATOM     61  C   UNL A   1      43.940  32.931  31.433  1.00  0.00     0.058 A 
ATOM     62  C   UNL A   1      43.695  33.266  32.775  1.00  0.00     0.135 A 
ATOM     63  C   UNL A   1      44.364  33.956  30.571  1.00  0.00     0.135 A 
ATOM     64  F   UNL A   1      43.275  32.330  33.640  1.00  0.00    -0.206 F 
ATOM     65  C   UNL A   1      43.835  34.571  33.236  1.00  0.00     0.059 A 
ATOM     66  C   UNL A   1      44.541  35.262  31.018  1.00  0.00     0.059 A 
ATOM     67  F   UNL A   1      44.614  33.693  29.279  1.00  0.00    -0.206 F 
ATOM     68  C   UNL A   1      44.259  35.562  32.350  1.00  0.00     0.060 A 
BRANCH  68  69
ATOM     69  S   UNL A   1      44.437  37.249  32.969  1.00  0.00     0.124 S 
ATOM     70  O   UNL A   1      43.854  37.133  34.302  1.00  0.00    -0.237 OA
ATOM     71  O   UNL A   1      45.882  37.446  32.924  1.00  0.00    -0.237 OA
ATOM     72  O   UNL A   1      43.669  38.044  32.016  1.00  0.00    -0.744 OA
ENDBRANCH  68  69
ENDBRANCH  47  61
BRANCH  48  73
ATOM     73  C   UNL A   1      42.665  23.704  27.789  1.00  0.00     0.058 A 
ATOM     74  C   UNL A   1      42.561  22.574  28.613  1.00  0.00     0.135 A 
ATOM     75  C   UNL A   1      42.584  23.508  26.402  1.00  0.00     0.135 A 
ATOM     76  F   UNL A   1      42.641  22.708  29.947  1.00  0.00    -0.206 F 
ATOM     77  C   UNL A   1      42.395  21.298  28.086  1.00  0.00     0.059 A 
ATOM     78  C   UNL A   1      42.391  22.245  25.850  1.00  0.00     0.059 A 
ATOM     79  F   UNL A   1      42.662  24.558  25.568  1.00  0.00    -0.206 F 
ATOM     80  C   UNL A   1      42.307  21.144  26.701  1.00  0.00     0.060 A 
BRANCH  80  81
ATOM     81  S   UNL A   1      42.039  19.490  26.029  1.00  0.00     0.124 S 
ATOM     82  O   UNL A   1      42.908  19.505  24.858  1.00  0.00    -0.237 OA
ATOM     83  O   UNL A   1      42.468  18.639  27.134  1.00  0.00    -0.237 OA
ATOM     84  O   UNL A   1      40.605  19.469  25.752  1.00  0.00    -0.744 OA
ENDBRANCH  80  81
ENDBRANCH  48  73
BRANCH  60  85
ATOM     85  C   UNL A   1      48.161  27.191  30.320  1.00  0.00     0.058 A 
ATOM     86  C   UNL A   1      49.113  27.473  29.329  1.00  0.00     0.135 A 
ATOM     87  C   UNL A   1      48.613  26.623  31.522  1.00  0.00     0.135 A 
ATOM     88  F   UNL A   1      48.732  28.005  28.157  1.00  0.00    -0.206 F 
ATOM     89  C   UNL A   1      50.463  27.194  29.517  1.00  0.00     0.059 A 
ATOM     90  C   UNL A   1      49.962  26.363  31.744  1.00  0.00     0.059 A 
ATOM     91  F   UNL A   1      47.745  26.340  32.506  1.00  0.00    -0.206 F 
ATOM     92  C   UNL A   1      50.879  26.648  30.734  1.00  0.00     0.060 A 
BRANCH  92  93
ATOM     93  S   UNL A   1      52.641  26.349  30.986  1.00  0.00     0.124 S 
ATOM     94  O   UNL A   1      53.030  27.515  31.770  1.00  0.00    -0.237 OA
ATOM     95  O   UNL A   1      52.640  25.075  31.700  1.00  0.00    -0.237 OA
ATOM     96  O   UNL A   1      53.176  26.298  29.628  1.00  0.00    -0.744 OA
ENDBRANCH  92  93
ENDBRANCH  60  85
ENDBRANCH  34  35
ENDBRANCH  26  29
ENDBRANCH  24  25
ENDBRANCH  23  24
ENDBRANCH   1  23
TORSDOF 18
ENDMDL
MODEL 3
REMARK VINA RESULT:     -10.8      4.596     10.290
REMARK SMILES CC(C)=CC(=O)Nc1ccc(C(=O)NCCCCCCNC(=O)c2ccc(-c3c4nc(c(-c5c(F)cc(S(=O)(=O)[O-])cc5F)c5ccc([nH]5)c(-c5c(F)cc(S(=O)(=O)[O-])cc5F)c5nc(c(-c6c(F)cc(S(=O)(=O)[O-])cc6F)c6ccc3[nH]6)C=C5)C=C4)cc2)cc1
REMARK SMILES IDX 18 1 17 2 16 3 15 4 14 5 12 6 13 7 11 9 8 10 9 11 91 12
REMARK SMILES IDX 10 13 90 14 7 15 5 16 6 17 4 19 1 20 2 21 3 22 19 23 20 24
REMARK SMILES IDX 21 25 22 26 23 28 24 29 25 30 89 31 26 32 88 33 27 34 28 35
REMARK SMILES IDX 29 36 82 37 30 38 87 39 81 40 83 41 31 42 86 43 80 44 79 45
REMARK SMILES IDX 32 47 66 48 45 49 65 50 46 51 49 52 64 53 84 54 47 55 48 56
REMARK SMILES IDX 63 58 85 59 50 60 33 61 34 62 43 63 35 64 36 65 42 66 44 67
REMARK SMILES IDX 37 68 38 69 39 70 40 71 41 72 67 73 68 74 77 75 69 76 70 77
REMARK SMILES IDX 76 78 78 79 71 80 72 81 73 82 74 83 75 84 51 85 52 86 61 87
REMARK SMILES IDX 53 88 54 89 60 90 62 91 55 92 56 93 57 94 58 95 59 96
REMARK H PARENT 14 8 7 18 21 27 83 46 49 57
REMARK Flexibility Score: inf
ROOT
ATOM      1  C   UNL A   1      32.442  29.523  27.247  1.00  0.00     0.002 C 
ENDROOT
BRANCH   1   2
ATOM      2  C   UNL A   1      31.826  28.142  27.497  1.00  0.00     0.002 C 
BRANCH   2   3
ATOM      3  C   UNL A   1      32.283  27.049  26.521  1.00  0.00     0.021 C 
BRANCH   3   4
ATOM      4  C   UNL A   1      31.149  26.519  25.641  1.00  0.00     0.116 C 
BRANCH   4   5
ATOM      5  N   UNL A   1      30.362  25.552  26.389  1.00  0.00    -0.352 N 
ATOM      6  C   UNL A   1      30.530  24.210  26.620  1.00  0.00     0.251 C 
ATOM      7  O   UNL A   1      29.666  23.616  27.263  1.00  0.00    -0.269 OA
ATOM      8  H   UNL A   1      29.557  25.932  26.809  1.00  0.00     0.163 HD
BRANCH   6   9
ATOM      9  C   UNL A   1      31.770  23.487  26.230  1.00  0.00     0.039 A 
ATOM     10  C   UNL A   1      33.731  21.621  25.577  1.00  0.00     0.041 A 
ATOM     11  C   UNL A   1      32.776  21.972  24.624  1.00  0.00     0.027 A 
ATOM     12  C   UNL A   1      33.835  22.348  26.761  1.00  0.00     0.027 A 
ATOM     13  C   UNL A   1      31.770  22.874  24.969  1.00  0.00     0.016 A 
ATOM     14  C   UNL A   1      32.877  23.318  27.064  1.00  0.00     0.016 A 
BRANCH  10  15
ATOM     15  N   UNL A   1      34.502  20.485  25.323  1.00  0.00    -0.323 N 
ATOM     16  C   UNL A   1      35.853  20.365  25.182  1.00  0.00     0.248 C 
ATOM     17  O   UNL A   1      36.323  19.297  24.783  1.00  0.00    -0.270 OA
ATOM     18  H   UNL A   1      33.994  19.646  25.231  1.00  0.00     0.170 HD
BRANCH  16  19
ATOM     19  C   UNL A   1      36.799  21.461  25.545  1.00  0.00     0.070 C 
ATOM     20  C   UNL A   1      36.550  23.046  23.559  1.00  0.00     0.039 C 
ATOM     21  C   UNL A   1      37.087  22.609  24.894  1.00  0.00    -0.071 C 
ATOM     22  C   UNL A   1      37.985  23.637  25.537  1.00  0.00     0.039 C 
ENDBRANCH  16  19
ENDBRANCH  10  15
ENDBRANCH   6   9
ENDBRANCH   4   5
ENDBRANCH   3   4
ENDBRANCH   2   3
ENDBRANCH   1   2
BRANCH   1  23
ATOM     23  C   UNL A   1      33.843  29.503  26.633  1.00  0.00     0.021 C 
BRANCH  23  24
ATOM     24  C   UNL A   1      34.965  29.240  27.633  1.00  0.00     0.116 C 
BRANCH  24  25
ATOM     25  N   UNL A   1      35.062  30.301  28.627  1.00  0.00    -0.352 N 
ATOM     26  C   UNL A   1      36.112  30.623  29.450  1.00  0.00     0.251 C 
ATOM     27  H   UNL A   1      34.262  30.867  28.721  1.00  0.00     0.163 HD
ATOM     28  O   UNL A   1      35.948  31.403  30.385  1.00  0.00    -0.269 OA
BRANCH  26  29
ATOM     29  C   UNL A   1      37.436  30.011  29.216  1.00  0.00     0.039 A 
ATOM     30  C   UNL A   1      37.921  29.914  27.910  1.00  0.00     0.014 A 
ATOM     31  C   UNL A   1      38.205  29.555  30.290  1.00  0.00     0.014 A 
ATOM     32  C   UNL A   1      39.214  29.434  27.689  1.00  0.00     0.010 A 
ATOM     33  C   UNL A   1      39.516  29.142  30.074  1.00  0.00     0.010 A 
ATOM     34  C   UNL A   1      40.038  29.088  28.773  1.00  0.00    -0.014 A 
BRANCH  34  35
ATOM     35  C   UNL A   1      41.459  28.702  28.574  1.00  0.00     0.031 A 
ATOM     36  C   UNL A   1      42.541  29.743  28.622  1.00  0.00     0.074 A 
ATOM     37  C   UNL A   1      41.760  27.424  28.265  1.00  0.00     0.049 A 
ATOM     38  N   UNL A   1      43.819  29.617  28.372  1.00  0.00    -0.248 NA
ATOM     39  C   UNL A   1      42.129  31.112  28.975  1.00  0.00     0.031 C 
ATOM     40  C   UNL A   1      40.792  26.330  28.151  1.00  0.00     0.029 A 
ATOM     41  N   UNL A   1      42.964  26.830  27.973  1.00  0.00    -0.354 N 
ATOM     42  C   UNL A   1      44.362  30.887  28.527  1.00  0.00     0.074 A 
ATOM     43  C   UNL A   1      43.267  31.779  28.843  1.00  0.00     0.031 C 
ATOM     44  C   UNL A   1      41.440  25.199  27.829  1.00  0.00     0.029 A 
ATOM     45  C   UNL A   1      42.861  25.494  27.666  1.00  0.00     0.049 A 
ATOM     46  H   UNL A   1      43.820  27.316  27.983  1.00  0.00     0.167 HD
ATOM     47  C   UNL A   1      45.658  31.269  28.433  1.00  0.00     0.037 A 
ATOM     48  C   UNL A   1      43.799  24.608  27.277  1.00  0.00     0.037 A 
ATOM     49  C   UNL A   1      46.743  30.371  28.131  1.00  0.00     0.049 A 
ATOM     50  C   UNL A   1      45.226  25.065  27.142  1.00  0.00     0.074 A 
ATOM     51  C   UNL A   1      48.097  30.649  28.071  1.00  0.00     0.029 A 
ATOM     52  N   UNL A   1      46.599  29.024  27.827  1.00  0.00    -0.354 N 
ATOM     53  N   UNL A   1      45.734  26.255  27.361  1.00  0.00    -0.248 NA
ATOM     54  C   UNL A   1      46.209  24.063  26.706  1.00  0.00     0.031 C 
ATOM     55  C   UNL A   1      48.765  29.486  27.676  1.00  0.00     0.029 A 
ATOM     56  C   UNL A   1      47.835  28.468  27.543  1.00  0.00     0.049 A 
ATOM     57  H   UNL A   1      45.744  28.537  27.814  1.00  0.00     0.167 HD
ATOM     58  C   UNL A   1      47.097  26.140  27.109  1.00  0.00     0.074 A 
ATOM     59  C   UNL A   1      47.337  24.760  26.738  1.00  0.00     0.031 C 
ATOM     60  C   UNL A   1      48.061  27.091  27.176  1.00  0.00     0.037 A 
BRANCH  47  61
ATOM     61  C   UNL A   1      45.978  32.723  28.657  1.00  0.00     0.058 A 
ATOM     62  C   UNL A   1      45.977  33.649  27.601  1.00  0.00     0.135 A 
ATOM     63  C   UNL A   1      46.247  33.205  29.948  1.00  0.00     0.135 A 
ATOM     64  F   UNL A   1      45.740  33.243  26.344  1.00  0.00    -0.206 F 
ATOM     65  C   UNL A   1      46.264  34.994  27.813  1.00  0.00     0.059 A 
ATOM     66  C   UNL A   1      46.505  34.551  30.188  1.00  0.00     0.059 A 
ATOM     67  F   UNL A   1      46.260  32.365  30.995  1.00  0.00    -0.206 F 
ATOM     68  C   UNL A   1      46.526  35.436  29.111  1.00  0.00     0.060 A 
BRANCH  68  69
ATOM     69  S   UNL A   1      46.892  37.185  29.366  1.00  0.00     0.124 S 
ATOM     70  O   UNL A   1      47.928  37.414  28.364  1.00  0.00    -0.237 OA
ATOM     71  O   UNL A   1      45.603  37.815  29.100  1.00  0.00    -0.237 OA
ATOM     72  O   UNL A   1      47.340  37.240  30.754  1.00  0.00    -0.744 OA
ENDBRANCH  68  69
ENDBRANCH  47  61
BRANCH  48  73
ATOM     73  C   UNL A   1      43.417  23.200  26.984  1.00  0.00     0.058 A 
ATOM     74  C   UNL A   1      43.355  22.728  25.665  1.00  0.00     0.135 A 
ATOM     75  C   UNL A   1      43.119  22.295  28.015  1.00  0.00     0.135 A 
ATOM     76  F   UNL A   1      43.623  23.557  24.644  1.00  0.00    -0.206 F 
ATOM     77  C   UNL A   1      43.001  21.414  25.375  1.00  0.00     0.059 A 
ATOM     78  C   UNL A   1      42.789  20.968  27.753  1.00  0.00     0.059 A 
ATOM     79  F   UNL A   1      43.178  22.690  29.296  1.00  0.00    -0.206 F 
ATOM     80  C   UNL A   1      42.724  20.540  26.427  1.00  0.00     0.060 A 
BRANCH  80  81
ATOM     81  S   UNL A   1      42.316  18.824  26.042  1.00  0.00     0.124 S 
ATOM     82  O   UNL A   1      40.911  18.933  25.665  1.00  0.00    -0.237 OA
ATOM     83  O   UNL A   1      43.248  18.524  24.960  1.00  0.00    -0.237 OA
ATOM     84  O   UNL A   1      42.581  18.127  27.299  1.00  0.00    -0.744 OA
ENDBRANCH  80  81
ENDBRANCH  48  73
BRANCH  60  85
ATOM     85  C   UNL A   1      49.472  26.677  26.858  1.00  0.00     0.058 A 
ATOM     86  C   UNL A   1      50.317  26.135  27.837  1.00  0.00     0.135 A 
ATOM     87  C   UNL A   1      49.958  26.756  25.542  1.00  0.00     0.135 A 
ATOM     88  F   UNL A   1      49.905  26.048  29.112  1.00  0.00    -0.206 F 
ATOM     89  C   UNL A   1      51.599  25.694  27.528  1.00  0.00     0.059 A 
ATOM     90  C   UNL A   1      51.226  26.294  25.204  1.00  0.00     0.059 A 
ATOM     91  F   UNL A   1      49.188  27.260  24.565  1.00  0.00    -0.206 F 
ATOM     92  C   UNL A   1      52.041  25.769  26.205  1.00  0.00     0.060 A 
BRANCH  92  93
ATOM     93  S   UNL A   1      53.685  25.137  25.808  1.00  0.00     0.124 S 
ATOM     94  O   UNL A   1      53.381  23.782  25.361  1.00  0.00    -0.237 OA
ATOM     95  O   UNL A   1      54.132  26.062  24.772  1.00  0.00    -0.237 OA
ATOM     96  O   UNL A   1      54.402  25.233  27.077  1.00  0.00    -0.744 OA
ENDBRANCH  92  93
ENDBRANCH  60  85
ENDBRANCH  34  35
ENDBRANCH  26  29
ENDBRANCH  24  25
ENDBRANCH  23  24
ENDBRANCH   1  23
TORSDOF 18
ENDMDL
