MODEL 1
REMARK VINA RESULT:     -12.2      0.000      0.000
REMARK SMILES COc1cc(NC(=O)CN2C(=O)c3ccccc3C2=O)c(C(=O)NCCCCCCNC(=O)c2ccc(-c3c4nc(c(-c5c(F)cc(S(=O)(=O)[O-])cc5F)c5ccc([nH]5)c(-c5c(F)cc(S(=O)(=O)[O-])cc5F)c5nc(c(-c6c(F)cc(S(=O)(=O)[O-])cc6F)c6ccc3[nH]6)C=C5)C=C4)cc2)cc1OC
REMARK SMILES IDX 27 1 26 2 25 3 24 4 22 5 23 6 21 8 3 9 4 10 101 11 5 12
REMARK SMILES IDX 100 13 2 14 1 15 102 16 103 17 6 18 7 19 8 21 9 22 10 23
REMARK SMILES IDX 11 24 19 25 12 26 13 27 18 28 20 29 14 30 17 31 15 32 16 33
REMARK SMILES IDX 28 34 29 35 30 36 31 37 32 38 33 40 34 41 35 42 99 43 36 44
REMARK SMILES IDX 98 45 37 46 38 47 39 48 92 49 40 50 97 51 91 52 93 53 41 54
REMARK SMILES IDX 96 55 90 56 89 57 42 59 76 60 55 61 75 62 56 63 59 64 74 65
REMARK SMILES IDX 94 66 57 67 58 68 73 70 95 71 60 72 43 73 44 74 53 75 45 76
REMARK SMILES IDX 46 77 52 78 54 79 47 80 48 81 49 82 50 83 51 84 77 85 78 86
REMARK SMILES IDX 87 87 79 88 80 89 86 90 88 91 81 92 82 93 83 94 84 95 85 96
REMARK SMILES IDX 61 97 62 98 71 99 63 100 64 101 70 102 72 103 65 104 66 105
REMARK SMILES IDX 67 106 68 107 69 108
REMARK H PARENT 24 7 6 20 31 39 93 58 59 69
REMARK Flexibility Score: inf
ROOT
ATOM      1  C   UNL A   1      34.623  31.447  27.707  1.00  0.00     0.002 C 
ENDROOT
BRANCH   1   2
ATOM      2  C   UNL A   1      33.220  31.076  27.213  1.00  0.00     0.021 C 
BRANCH   2   3
ATOM      3  C   UNL A   1      33.184  29.756  26.438  1.00  0.00     0.116 C 
BRANCH   3   4
ATOM      4  N   UNL A   1      32.293  28.819  27.098  1.00  0.00    -0.352 N 
ATOM      5  C   UNL A   1      31.494  27.804  26.637  1.00  0.00     0.253 C 
ATOM      6  O   UNL A   1      30.864  27.168  27.485  1.00  0.00    -0.269 OA
ATOM      7  H   UNL A   1      32.252  28.938  28.075  1.00  0.00     0.163 HD
BRANCH   5   8
ATOM      8  C   UNL A   1      31.422  27.386  25.199  1.00  0.00     0.067 A 
ATOM      9  C   UNL A   1      31.491  26.711  22.469  1.00  0.00     0.162 A 
ATOM     10  C   UNL A   1      32.015  25.837  23.431  1.00  0.00     0.077 A 
ATOM     11  C   UNL A   1      30.892  27.901  22.871  1.00  0.00     0.161 A 
ATOM     12  C   UNL A   1      31.905  26.113  24.798  1.00  0.00     0.058 A 
ATOM     13  C   UNL A   1      30.840  28.213  24.231  1.00  0.00     0.066 A 
BRANCH   9  14
ATOM     14  O   UNL A   1      31.390  26.324  21.161  1.00  0.00    -0.493 OA
ATOM     15  C   UNL A   1      32.519  25.608  20.667  1.00  0.00     0.278 C 
ENDBRANCH   9  14
BRANCH  11  16
ATOM     16  O   UNL A   1      30.304  28.833  22.058  1.00  0.00    -0.493 OA
ATOM     17  C   UNL A   1      29.073  29.377  22.530  1.00  0.00     0.278 C 
ENDBRANCH  11  16
BRANCH  12  18
ATOM     18  N   UNL A   1      32.252  25.162  25.784  1.00  0.00    -0.324 N 
ATOM     19  C   UNL A   1      33.082  24.082  25.836  1.00  0.00     0.244 C 
ATOM     20  H   UNL A   1      31.781  25.315  26.636  1.00  0.00     0.170 HD
ATOM     21  O   UNL A   1      33.306  23.601  26.956  1.00  0.00    -0.273 OA
BRANCH  19  22
ATOM     22  C   UNL A   1      33.825  23.498  24.632  1.00  0.00     0.229 C 
BRANCH  22  23
ATOM     23  N   UNL A   1      33.673  22.072  24.429  1.00  0.00    -0.265 N 
ATOM     24  C   UNL A   1      34.597  21.148  24.824  1.00  0.00     0.262 C 
ATOM     25  C   UNL A   1      32.726  21.511  23.616  1.00  0.00     0.262 C 
ATOM     26  O   UNL A   1      35.661  21.319  25.391  1.00  0.00    -0.269 OA
ATOM     27  C   UNL A   1      34.092  19.846  24.398  1.00  0.00     0.053 A 
ATOM     28  C   UNL A   1      32.940  20.067  23.665  1.00  0.00     0.053 A 
ATOM     29  O   UNL A   1      31.885  22.063  22.934  1.00  0.00    -0.269 OA
ATOM     30  C   UNL A   1      34.579  18.575  24.629  1.00  0.00     0.015 A 
ATOM     31  C   UNL A   1      32.202  19.030  23.129  1.00  0.00     0.015 A 
ATOM     32  C   UNL A   1      33.849  17.507  24.099  1.00  0.00     0.001 A 
ATOM     33  C   UNL A   1      32.669  17.733  23.359  1.00  0.00     0.001 A 
ENDBRANCH  22  23
ENDBRANCH  19  22
ENDBRANCH  12  18
ENDBRANCH   5   8
ENDBRANCH   3   4
ENDBRANCH   2   3
ENDBRANCH   1   2
BRANCH   1  34
ATOM     34  C   UNL A   1      34.677  32.702  28.588  1.00  0.00     0.002 C 
BRANCH  34  35
ATOM     35  C   UNL A   1      36.075  33.299  28.774  1.00  0.00     0.021 C 
BRANCH  35  36
ATOM     36  C   UNL A   1      36.617  33.194  30.197  1.00  0.00     0.116 C 
BRANCH  36  37
ATOM     37  N   UNL A   1      36.146  31.986  30.860  1.00  0.00    -0.352 N 
ATOM     38  C   UNL A   1      36.700  30.730  30.875  1.00  0.00     0.251 C 
ATOM     39  H   UNL A   1      35.311  32.084  31.372  1.00  0.00     0.163 HD
ATOM     40  O   UNL A   1      36.043  29.770  31.263  1.00  0.00    -0.269 OA
BRANCH  38  41
ATOM     41  C   UNL A   1      38.088  30.540  30.404  1.00  0.00     0.039 A 
ATOM     42  C   UNL A   1      39.129  30.539  31.336  1.00  0.00     0.014 A 
ATOM     43  C   UNL A   1      38.357  30.353  29.045  1.00  0.00     0.014 A 
ATOM     44  C   UNL A   1      40.431  30.268  30.913  1.00  0.00     0.010 A 
ATOM     45  C   UNL A   1      39.644  30.019  28.635  1.00  0.00     0.010 A 
ATOM     46  C   UNL A   1      40.691  29.958  29.567  1.00  0.00    -0.014 A 
BRANCH  46  47
ATOM     47  C   UNL A   1      42.035  29.503  29.128  1.00  0.00     0.031 A 
ATOM     48  C   UNL A   1      43.160  30.487  28.964  1.00  0.00     0.074 A 
ATOM     49  C   UNL A   1      42.209  28.209  28.787  1.00  0.00     0.049 A 
ATOM     50  N   UNL A   1      44.367  30.287  28.503  1.00  0.00    -0.248 NA
ATOM     51  C   UNL A   1      42.887  31.881  29.347  1.00  0.00     0.031 C 
ATOM     52  C   UNL A   1      41.173  27.173  28.851  1.00  0.00     0.029 A 
ATOM     53  N   UNL A   1      43.307  27.546  28.299  1.00  0.00    -0.354 N 
ATOM     54  C   UNL A   1      44.993  31.527  28.524  1.00  0.00     0.074 A 
ATOM     55  C   UNL A   1      44.021  32.482  29.010  1.00  0.00     0.031 C 
ATOM     56  C   UNL A   1      41.686  26.009  28.425  1.00  0.00     0.029 A 
ATOM     57  C   UNL A   1      43.069  26.222  28.013  1.00  0.00     0.049 A 
ATOM     58  H   UNL A   1      44.181  27.977  28.165  1.00  0.00     0.167 HD
ATOM     59  C   UNL A   1      46.267  31.833  28.183  1.00  0.00     0.037 A 
ATOM     60  C   UNL A   1      43.865  25.288  27.454  1.00  0.00     0.037 A 
ATOM     61  C   UNL A   1      47.233  30.868  27.724  1.00  0.00     0.049 A 
ATOM     62  C   UNL A   1      45.271  25.660  27.071  1.00  0.00     0.074 A 
ATOM     63  C   UNL A   1      48.574  31.064  27.444  1.00  0.00     0.029 A 
ATOM     64  N   UNL A   1      46.961  29.533  27.461  1.00  0.00    -0.354 N 
ATOM     65  N   UNL A   1      45.877  26.816  27.195  1.00  0.00    -0.248 NA
ATOM     66  C   UNL A   1      46.101  24.606  26.470  1.00  0.00     0.031 C 
ATOM     67  C   UNL A   1      49.097  29.864  26.951  1.00  0.00     0.029 A 
ATOM     68  C   UNL A   1      48.097  28.906  26.978  1.00  0.00     0.049 A 
ATOM     69  H   UNL A   1      46.090  29.097  27.599  1.00  0.00     0.167 HD
ATOM     70  C   UNL A   1      47.162  26.626  26.696  1.00  0.00     0.074 A 
ATOM     71  C   UNL A   1      47.254  25.238  26.294  1.00  0.00     0.031 C 
ATOM     72  C   UNL A   1      48.171  27.523  26.575  1.00  0.00     0.037 A 
BRANCH  59  73
ATOM     73  C   UNL A   1      46.704  33.269  28.286  1.00  0.00     0.058 A 
ATOM     74  C   UNL A   1      47.275  33.788  29.457  1.00  0.00     0.135 A 
ATOM     75  C   UNL A   1      46.624  34.116  27.167  1.00  0.00     0.135 A 
ATOM     76  F   UNL A   1      47.364  33.027  30.560  1.00  0.00    -0.206 F 
ATOM     77  C   UNL A   1      47.739  35.097  29.523  1.00  0.00     0.059 A 
ATOM     78  C   UNL A   1      47.106  35.421  27.201  1.00  0.00     0.059 A 
ATOM     79  F   UNL A   1      46.085  33.673  26.020  1.00  0.00    -0.206 F 
ATOM     80  C   UNL A   1      47.656  35.904  28.387  1.00  0.00     0.060 A 
BRANCH  80  81
ATOM     81  S   UNL A   1      48.296  37.591  28.481  1.00  0.00     0.124 S 
ATOM     82  O   UNL A   1      47.294  38.235  29.323  1.00  0.00    -0.237 OA
ATOM     83  O   UNL A   1      49.605  37.391  29.093  1.00  0.00    -0.237 OA
ATOM     84  O   UNL A   1      48.317  38.025  27.088  1.00  0.00    -0.744 OA
ENDBRANCH  80  81
ENDBRANCH  59  73
BRANCH  60  85
ATOM     85  C   UNL A   1      43.341  23.918  27.203  1.00  0.00     0.058 A 
ATOM     86  C   UNL A   1      42.961  23.508  25.916  1.00  0.00     0.135 A 
ATOM     87  C   UNL A   1      43.211  22.988  28.247  1.00  0.00     0.135 A 
ATOM     88  F   UNL A   1      43.058  24.361  24.885  1.00  0.00    -0.206 F 
ATOM     89  C   UNL A   1      42.452  22.236  25.676  1.00  0.00     0.059 A 
ATOM     90  C   UNL A   1      42.733  21.701  28.028  1.00  0.00     0.059 A 
ATOM     91  F   UNL A   1      43.577  23.321  29.495  1.00  0.00    -0.206 F 
ATOM     92  C   UNL A   1      42.343  21.338  26.740  1.00  0.00     0.060 A 
BRANCH  92  93
ATOM     93  S   UNL A   1      41.713  19.677  26.414  1.00  0.00     0.124 S 
ATOM     94  O   UNL A   1      40.280  19.923  26.307  1.00  0.00    -0.237 OA
ATOM     95  O   UNL A   1      42.397  19.329  25.172  1.00  0.00    -0.237 OA
ATOM     96  O   UNL A   1      42.140  18.922  27.587  1.00  0.00    -0.744 OA
ENDBRANCH  92  93
ENDBRANCH  60  85
BRANCH  72  97
ATOM     97  C   UNL A   1      49.465  27.037  25.982  1.00  0.00     0.058 A 
ATOM     98  C   UNL A   1      49.745  27.193  24.616  1.00  0.00     0.135 A 
ATOM     99  C   UNL A   1      50.462  26.477  26.798  1.00  0.00     0.135 A 
ATOM    100  F   UNL A   1      48.822  27.711  23.791  1.00  0.00    -0.206 F 
ATOM    101  C   UNL A   1      50.967  26.801  24.076  1.00  0.00     0.059 A 
ATOM    102  C   UNL A   1      51.701  26.106  26.285  1.00  0.00     0.059 A 
ATOM    103  F   UNL A   1      50.246  26.313  28.113  1.00  0.00    -0.206 F 
ATOM    104  C   UNL A   1      51.942  26.266  24.921  1.00  0.00     0.060 A 
BRANCH 104 105
ATOM    105  S   UNL A   1      53.541  25.819  24.215  1.00  0.00     0.124 S 
ATOM    106  O   UNL A   1      54.413  26.833  24.797  1.00  0.00    -0.237 OA
ATOM    107  O   UNL A   1      53.730  24.459  24.710  1.00  0.00    -0.237 OA
ATOM    108  O   UNL A   1      53.321  25.933  22.775  1.00  0.00    -0.744 OA
ENDBRANCH 104 105
ENDBRANCH  72  97
ENDBRANCH  46  47
ENDBRANCH  38  41
ENDBRANCH  36  37
ENDBRANCH  35  36
ENDBRANCH  34  35
ENDBRANCH   1  34
TORSDOF 21
ENDMDL
MODEL 2
REMARK VINA RESULT:     -12.1      0.594      7.864
REMARK SMILES COc1cc(NC(=O)CN2C(=O)c3ccccc3C2=O)c(C(=O)NCCCCCCNC(=O)c2ccc(-c3c4nc(c(-c5c(F)cc(S(=O)(=O)[O-])cc5F)c5ccc([nH]5)c(-c5c(F)cc(S(=O)(=O)[O-])cc5F)c5nc(c(-c6c(F)cc(S(=O)(=O)[O-])cc6F)c6ccc3[nH]6)C=C5)C=C4)cc2)cc1OC
REMARK SMILES IDX 27 1 26 2 25 3 24 4 22 5 23 6 21 8 3 9 4 10 101 11 5 12
REMARK SMILES IDX 100 13 2 14 1 15 102 16 103 17 6 18 7 19 8 21 9 22 10 23
REMARK SMILES IDX 11 24 19 25 12 26 13 27 18 28 20 29 14 30 17 31 15 32 16 33
REMARK SMILES IDX 28 34 29 35 30 36 31 37 32 38 33 40 34 41 35 42 99 43 36 44
REMARK SMILES IDX 98 45 37 46 38 47 39 48 92 49 40 50 97 51 91 52 93 53 41 54
REMARK SMILES IDX 96 55 90 56 89 57 42 59 76 60 55 61 75 62 56 63 59 64 74 65
REMARK SMILES IDX 94 66 57 67 58 68 73 70 95 71 60 72 43 73 44 74 53 75 45 76
REMARK SMILES IDX 46 77 52 78 54 79 47 80 48 81 49 82 50 83 51 84 77 85 78 86
REMARK SMILES IDX 87 87 79 88 80 89 86 90 88 91 81 92 82 93 83 94 84 95 85 96
REMARK SMILES IDX 61 97 62 98 71 99 63 100 64 101 70 102 72 103 65 104 66 105
REMARK SMILES IDX 67 106 68 107 69 108
REMARK H PARENT 24 7 6 20 31 39 93 58 59 69
REMARK Flexibility Score: inf
ROOT
ATOM      1  C   UNL A   1      35.048  31.373  27.770  1.00  0.00     0.002 C 
ENDROOT
BRANCH   1   2
ATOM      2  C   UNL A   1      33.746  30.745  27.257  1.00  0.00     0.021 C 
BRANCH   2   3
ATOM      3  C   UNL A   1      33.846  29.231  27.058  1.00  0.00     0.116 C 
BRANCH   3   4
ATOM      4  N   UNL A   1      32.667  28.583  27.606  1.00  0.00    -0.352 N 
ATOM      5  C   UNL A   1      31.650  27.856  27.039  1.00  0.00     0.253 C 
ATOM      6  O   UNL A   1      30.793  27.414  27.807  1.00  0.00    -0.269 OA
ATOM      7  H   UNL A   1      32.579  28.686  28.580  1.00  0.00     0.163 HD
BRANCH   5   8
ATOM      8  C   UNL A   1      31.584  27.509  25.581  1.00  0.00     0.067 A 
ATOM      9  C   UNL A   1      31.692  26.885  22.841  1.00  0.00     0.162 A 
ATOM     10  C   UNL A   1      31.768  25.871  23.804  1.00  0.00     0.077 A 
ATOM     11  C   UNL A   1      31.516  28.207  23.243  1.00  0.00     0.161 A 
ATOM     12  C   UNL A   1      31.622  26.151  25.167  1.00  0.00     0.058 A 
ATOM     13  C   UNL A   1      31.438  28.500  24.605  1.00  0.00     0.066 A 
BRANCH   9  14
ATOM     14  O   UNL A   1      31.596  26.576  21.512  1.00  0.00    -0.493 OA
ATOM     15  C   UNL A   1      32.552  25.623  21.056  1.00  0.00     0.278 C 
ENDBRANCH   9  14
BRANCH  11  16
ATOM     16  O   UNL A   1      31.385  29.297  22.425  1.00  0.00    -0.493 OA
ATOM     17  C   UNL A   1      30.049  29.652  22.075  1.00  0.00     0.278 C 
ENDBRANCH  11  16
BRANCH  12  18
ATOM     18  N   UNL A   1      31.505  25.128  26.134  1.00  0.00    -0.324 N 
ATOM     19  C   UNL A   1      32.258  24.052  26.499  1.00  0.00     0.244 C 
ATOM     20  H   UNL A   1      30.683  25.210  26.670  1.00  0.00     0.170 HD
ATOM     21  O   UNL A   1      31.949  23.485  27.557  1.00  0.00    -0.273 OA
BRANCH  19  22
ATOM     22  C   UNL A   1      33.505  23.570  25.754  1.00  0.00     0.229 C 
BRANCH  22  23
ATOM     23  N   UNL A   1      33.449  22.215  25.243  1.00  0.00    -0.265 N 
ATOM     24  C   UNL A   1      34.425  21.285  25.457  1.00  0.00     0.262 C 
ATOM     25  C   UNL A   1      32.552  21.787  24.302  1.00  0.00     0.262 C 
ATOM     26  O   UNL A   1      35.468  21.393  26.077  1.00  0.00    -0.269 OA
ATOM     27  C   UNL A   1      34.012  20.078  24.746  1.00  0.00     0.053 A 
ATOM     28  C   UNL A   1      32.859  20.382  24.045  1.00  0.00     0.053 A 
ATOM     29  O   UNL A   1      31.686  22.422  23.732  1.00  0.00    -0.269 OA
ATOM     30  C   UNL A   1      34.578  18.819  24.711  1.00  0.00     0.015 A 
ATOM     31  C   UNL A   1      32.198  19.444  23.279  1.00  0.00     0.015 A 
ATOM     32  C   UNL A   1      33.927  17.849  23.944  1.00  0.00     0.001 A 
ATOM     33  C   UNL A   1      32.746  18.158  23.236  1.00  0.00     0.001 A 
ENDBRANCH  22  23
ENDBRANCH  19  22
ENDBRANCH  12  18
ENDBRANCH   5   8
ENDBRANCH   3   4
ENDBRANCH   2   3
ENDBRANCH   1   2
BRANCH   1  34
ATOM     34  C   UNL A   1      34.861  32.395  28.899  1.00  0.00     0.002 C 
BRANCH  34  35
ATOM     35  C   UNL A   1      36.064  33.310  29.145  1.00  0.00     0.021 C 
BRANCH  35  36
ATOM     36  C   UNL A   1      36.712  33.139  30.515  1.00  0.00     0.116 C 
BRANCH  36  37
ATOM     37  N   UNL A   1      36.309  31.889  31.145  1.00  0.00    -0.352 N 
ATOM     38  C   UNL A   1      36.873  30.643  31.041  1.00  0.00     0.251 C 
ATOM     39  H   UNL A   1      35.519  31.947  31.730  1.00  0.00     0.163 HD
ATOM     40  O   UNL A   1      36.259  29.653  31.427  1.00  0.00    -0.269 OA
BRANCH  38  41
ATOM     41  C   UNL A   1      38.218  30.498  30.447  1.00  0.00     0.039 A 
ATOM     42  C   UNL A   1      39.335  30.471  31.287  1.00  0.00     0.014 A 
ATOM     43  C   UNL A   1      38.373  30.379  29.063  1.00  0.00     0.014 A 
ATOM     44  C   UNL A   1      40.600  30.241  30.742  1.00  0.00     0.010 A 
ATOM     45  C   UNL A   1      39.625  30.086  28.530  1.00  0.00     0.010 A 
ATOM     46  C   UNL A   1      40.748  29.999  29.366  1.00  0.00    -0.014 A 
BRANCH  46  47
ATOM     47  C   UNL A   1      42.055  29.587  28.794  1.00  0.00     0.031 A 
ATOM     48  C   UNL A   1      42.280  28.170  28.343  1.00  0.00     0.074 A 
ATOM     49  C   UNL A   1      43.068  30.478  28.768  1.00  0.00     0.049 A 
ATOM     50  N   UNL A   1      43.379  27.611  27.907  1.00  0.00    -0.248 NA
ATOM     51  C   UNL A   1      41.128  27.257  28.412  1.00  0.00     0.031 C 
ATOM     52  C   UNL A   1      42.983  31.866  29.231  1.00  0.00     0.029 A 
ATOM     53  N   UNL A   1      44.371  30.347  28.358  1.00  0.00    -0.354 N 
ATOM     54  C   UNL A   1      43.059  26.281  27.665  1.00  0.00     0.074 A 
ATOM     55  C   UNL A   1      41.671  26.107  28.037  1.00  0.00     0.031 C 
ATOM     56  C   UNL A   1      44.177  32.458  29.075  1.00  0.00     0.029 A 
ATOM     57  C   UNL A   1      45.125  31.483  28.547  1.00  0.00     0.049 A 
ATOM     58  H   UNL A   1      44.734  29.519  27.969  1.00  0.00     0.167 HD
ATOM     59  C   UNL A   1      43.849  25.302  27.165  1.00  0.00     0.037 A 
ATOM     60  C   UNL A   1      46.438  31.708  28.345  1.00  0.00     0.037 A 
ATOM     61  C   UNL A   1      45.222  25.494  26.775  1.00  0.00     0.049 A 
ATOM     62  C   UNL A   1      47.296  30.598  27.801  1.00  0.00     0.074 A 
ATOM     63  C   UNL A   1      46.077  24.589  26.171  1.00  0.00     0.029 A 
ATOM     64  N   UNL A   1      45.946  26.662  26.966  1.00  0.00    -0.354 N 
ATOM     65  N   UNL A   1      46.949  29.374  27.482  1.00  0.00    -0.248 NA
ATOM     66  C   UNL A   1      48.721  30.894  27.595  1.00  0.00     0.031 C 
ATOM     67  C   UNL A   1      47.335  25.187  26.055  1.00  0.00     0.029 A 
ATOM     68  C   UNL A   1      47.251  26.484  26.533  1.00  0.00     0.049 A 
ATOM     69  H   UNL A   1      45.587  27.493  27.350  1.00  0.00     0.167 HD
ATOM     70  C   UNL A   1      48.111  28.757  27.028  1.00  0.00     0.074 A 
ATOM     71  C   UNL A   1      49.163  29.751  27.088  1.00  0.00     0.031 C 
ATOM     72  C   UNL A   1      48.290  27.481  26.607  1.00  0.00     0.037 A 
BRANCH  59  73
ATOM     73  C   UNL A   1      43.260  23.926  27.007  1.00  0.00     0.058 A 
ATOM     74  C   UNL A   1      42.585  23.539  25.840  1.00  0.00     0.135 A 
ATOM     75  C   UNL A   1      43.448  22.955  28.006  1.00  0.00     0.135 A 
ATOM     76  F   UNL A   1      42.366  24.429  24.858  1.00  0.00    -0.206 F 
ATOM     77  C   UNL A   1      42.103  22.245  25.673  1.00  0.00     0.059 A 
ATOM     78  C   UNL A   1      42.998  21.648  27.850  1.00  0.00     0.059 A 
ATOM     79  F   UNL A   1      44.085  23.272  29.144  1.00  0.00    -0.206 F 
ATOM     80  C   UNL A   1      42.321  21.304  26.681  1.00  0.00     0.060 A 
BRANCH  80  81
ATOM     81  S   UNL A   1      41.719  19.620  26.431  1.00  0.00     0.124 S 
ATOM     82  O   UNL A   1      40.303  19.853  26.168  1.00  0.00    -0.237 OA
ATOM     83  O   UNL A   1      42.511  19.175  25.289  1.00  0.00    -0.237 OA
ATOM     84  O   UNL A   1      42.022  18.959  27.697  1.00  0.00    -0.744 OA
ENDBRANCH  80  81
ENDBRANCH  59  73
BRANCH  60  85
ATOM     85  C   UNL A   1      47.027  33.033  28.681  1.00  0.00     0.058 A 
ATOM     86  C   UNL A   1      47.514  33.309  29.966  1.00  0.00     0.135 A 
ATOM     87  C   UNL A   1      47.113  34.053  27.719  1.00  0.00     0.135 A 
ATOM     88  F   UNL A   1      47.448  32.371  30.924  1.00  0.00    -0.206 F 
ATOM     89  C   UNL A   1      48.047  34.552  30.293  1.00  0.00     0.059 A 
ATOM     90  C   UNL A   1      47.669  35.293  28.013  1.00  0.00     0.059 A 
ATOM     91  F   UNL A   1      46.678  33.837  26.467  1.00  0.00    -0.206 F 
ATOM     92  C   UNL A   1      48.121  35.538  29.309  1.00  0.00     0.060 A 
BRANCH  92  93
ATOM     93  S   UNL A   1      48.846  37.137  29.732  1.00  0.00     0.124 S 
ATOM     94  O   UNL A   1      49.888  36.746  30.672  1.00  0.00    -0.237 OA
ATOM     95  O   UNL A   1      49.304  37.619  28.432  1.00  0.00    -0.237 OA
ATOM     96  O   UNL A   1      47.722  37.873  30.303  1.00  0.00    -0.744 OA
ENDBRANCH  92  93
ENDBRANCH  60  85
BRANCH  72  97
ATOM     97  C   UNL A   1      49.674  27.079  26.178  1.00  0.00     0.058 A 
ATOM     98  C   UNL A   1      50.581  26.508  27.084  1.00  0.00     0.135 A 
ATOM     99  C   UNL A   1      50.073  27.199  24.836  1.00  0.00     0.135 A 
ATOM    100  F   UNL A   1      50.254  26.382  28.379  1.00  0.00    -0.206 F 
ATOM    101  C   UNL A   1      51.840  26.077  26.676  1.00  0.00     0.059 A 
ATOM    102  C   UNL A   1      51.315  26.749  24.401  1.00  0.00     0.059 A 
ATOM    103  F   UNL A   1      49.239  27.733  23.929  1.00  0.00    -0.206 F 
ATOM    104  C   UNL A   1      52.194  26.194  25.330  1.00  0.00     0.060 A 
BRANCH 104 105
ATOM    105  S   UNL A   1      53.808  25.576  24.808  1.00  0.00     0.124 S 
ATOM    106  O   UNL A   1      53.890  26.085  23.444  1.00  0.00    -0.237 OA
ATOM    107  O   UNL A   1      54.707  26.201  25.773  1.00  0.00    -0.237 OA
ATOM    108  O   UNL A   1      53.673  24.128  24.930  1.00  0.00    -0.744 OA
ENDBRANCH 104 105
ENDBRANCH  72  97
ENDBRANCH  46  47
ENDBRANCH  38  41
ENDBRANCH  36  37
ENDBRANCH  35  36
ENDBRANCH  34  35
ENDBRANCH   1  34
TORSDOF 21
ENDMDL
MODEL 3
REMARK VINA RESULT:     -12.0      2.331      8.239
REMARK SMILES COc1cc(NC(=O)CN2C(=O)c3ccccc3C2=O)c(C(=O)NCCCCCCNC(=O)c2ccc(-c3c4nc(c(-c5c(F)cc(S(=O)(=O)[O-])cc5F)c5ccc([nH]5)c(-c5c(F)cc(S(=O)(=O)[O-])cc5F)c5nc(c(-c6c(F)cc(S(=O)(=O)[O-])cc6F)c6ccc3[nH]6)C=C5)C=C4)cc2)cc1OC
REMARK SMILES IDX 27 1 26 2 25 3 24 4 22 5 23 6 21 8 3 9 4 10 101 11 5 12
REMARK SMILES IDX 100 13 2 14 1 15 102 16 103 17 6 18 7 19 8 21 9 22 10 23
REMARK SMILES IDX 11 24 19 25 12 26 13 27 18 28 20 29 14 30 17 31 15 32 16 33
REMARK SMILES IDX 28 34 29 35 30 36 31 37 32 38 33 40 34 41 35 42 99 43 36 44
REMARK SMILES IDX 98 45 37 46 38 47 39 48 92 49 40 50 97 51 91 52 93 53 41 54
REMARK SMILES IDX 96 55 90 56 89 57 42 59 76 60 55 61 75 62 56 63 59 64 74 65
REMARK SMILES IDX 94 66 57 67 58 68 73 70 95 71 60 72 43 73 44 74 53 75 45 76
REMARK SMILES IDX 46 77 52 78 54 79 47 80 48 81 49 82 50 83 51 84 77 85 78 86
REMARK SMILES IDX 87 87 79 88 80 89 86 90 88 91 81 92 82 93 83 94 84 95 85 96
REMARK SMILES IDX 61 97 62 98 71 99 63 100 64 101 70 102 72 103 65 104 66 105
REMARK SMILES IDX 67 106 68 107 69 108
REMARK H PARENT 24 7 6 20 31 39 93 58 59 69
REMARK Flexibility Score: inf
ROOT
ATOM      1  C   UNL A   1      37.030  22.345  25.505  1.00  0.00     0.002 C 
ENDROOT
BRANCH   1   2
ATOM      2  C   UNL A   1      36.907  23.709  24.816  1.00  0.00     0.021 C 
BRANCH   2   3
ATOM      3  C   UNL A   1      35.461  24.200  24.705  1.00  0.00     0.116 C 
BRANCH   3   4
ATOM      4  N   UNL A   1      34.724  23.835  25.902  1.00  0.00    -0.352 N 
ATOM      5  C   UNL A   1      33.604  24.352  26.505  1.00  0.00     0.253 C 
ATOM      6  O   UNL A   1      33.212  23.779  27.524  1.00  0.00    -0.269 OA
ATOM      7  H   UNL A   1      35.104  23.062  26.377  1.00  0.00     0.163 HD
BRANCH   5   8
ATOM      8  C   UNL A   1      32.807  25.493  25.947  1.00  0.00     0.067 A 
ATOM      9  C   UNL A   1      31.418  27.595  24.697  1.00  0.00     0.162 A 
ATOM     10  C   UNL A   1      30.872  26.305  24.734  1.00  0.00     0.077 A 
ATOM     11  C   UNL A   1      32.636  27.847  25.324  1.00  0.00     0.161 A 
ATOM     12  C   UNL A   1      31.503  25.269  25.431  1.00  0.00     0.058 A 
ATOM     13  C   UNL A   1      33.303  26.801  25.963  1.00  0.00     0.066 A 
BRANCH   9  14
ATOM     14  O   UNL A   1      30.684  28.647  24.223  1.00  0.00    -0.493 OA
ATOM     15  C   UNL A   1      30.168  28.463  22.907  1.00  0.00     0.278 C 
ENDBRANCH   9  14
BRANCH  11  16
ATOM     16  O   UNL A   1      33.274  29.055  25.408  1.00  0.00    -0.493 OA
ATOM     17  C   UNL A   1      32.534  30.105  26.027  1.00  0.00     0.278 C 
ENDBRANCH  11  16
BRANCH  12  18
ATOM     18  N   UNL A   1      30.879  24.019  25.641  1.00  0.00    -0.324 N 
ATOM     19  C   UNL A   1      31.044  22.761  25.145  1.00  0.00     0.244 C 
ATOM     20  H   UNL A   1      30.151  24.069  26.302  1.00  0.00     0.170 HD
ATOM     21  O   UNL A   1      30.450  21.845  25.730  1.00  0.00    -0.273 OA
BRANCH  19  22
ATOM     22  C   UNL A   1      31.984  22.397  23.993  1.00  0.00     0.229 C 
BRANCH  22  23
ATOM     23  N   UNL A   1      32.445  21.024  23.965  1.00  0.00    -0.265 N 
ATOM     24  C   UNL A   1      33.304  20.495  24.884  1.00  0.00     0.262 C 
ATOM     25  C   UNL A   1      32.274  20.180  22.901  1.00  0.00     0.262 C 
ATOM     26  O   UNL A   1      33.822  21.029  25.849  1.00  0.00    -0.269 OA
ATOM     27  C   UNL A   1      33.549  19.113  24.478  1.00  0.00     0.053 A 
ATOM     28  C   UNL A   1      32.911  18.917  23.267  1.00  0.00     0.053 A 
ATOM     29  O   UNL A   1      31.747  20.404  21.829  1.00  0.00    -0.269 OA
ATOM     30  C   UNL A   1      34.256  18.106  25.104  1.00  0.00     0.015 A 
ATOM     31  C   UNL A   1      32.932  17.699  22.617  1.00  0.00     0.015 A 
ATOM     32  C   UNL A   1      34.292  16.862  24.467  1.00  0.00     0.001 A 
ATOM     33  C   UNL A   1      33.633  16.661  23.235  1.00  0.00     0.001 A 
ENDBRANCH  22  23
ENDBRANCH  19  22
ENDBRANCH  12  18
ENDBRANCH   5   8
ENDBRANCH   3   4
ENDBRANCH   2   3
ENDBRANCH   1   2
BRANCH   1  34
ATOM     34  C   UNL A   1      37.256  21.166  24.550  1.00  0.00     0.002 C 
BRANCH  34  35
ATOM     35  C   UNL A   1      38.060  20.004  25.141  1.00  0.00     0.021 C 
BRANCH  35  36
ATOM     36  C   UNL A   1      39.375  20.419  25.794  1.00  0.00     0.116 C 
BRANCH  36  37
ATOM     37  N   UNL A   1      40.270  19.283  25.963  1.00  0.00    -0.352 N 
ATOM     38  C   UNL A   1      41.632  19.266  26.127  1.00  0.00     0.251 C 
ATOM     39  H   UNL A   1      39.834  18.399  25.960  1.00  0.00     0.163 HD
ATOM     40  O   UNL A   1      42.256  18.218  25.994  1.00  0.00    -0.269 OA
BRANCH  38  41
ATOM     41  C   UNL A   1      42.343  20.521  26.447  1.00  0.00     0.039 A 
ATOM     42  C   UNL A   1      42.972  21.229  25.420  1.00  0.00     0.014 A 
ATOM     43  C   UNL A   1      42.378  21.000  27.760  1.00  0.00     0.014 A 
ATOM     44  C   UNL A   1      43.566  22.462  25.698  1.00  0.00     0.010 A 
ATOM     45  C   UNL A   1      42.914  22.258  28.022  1.00  0.00     0.010 A 
ATOM     46  C   UNL A   1      43.499  23.008  26.991  1.00  0.00    -0.014 A 
BRANCH  46  47
ATOM     47  C   UNL A   1      43.973  24.387  27.270  1.00  0.00     0.031 A 
ATOM     48  C   UNL A   1      43.001  25.467  27.658  1.00  0.00     0.074 A 
ATOM     49  C   UNL A   1      45.276  24.682  27.081  1.00  0.00     0.049 A 
ATOM     50  N   UNL A   1      43.221  26.742  27.847  1.00  0.00    -0.248 NA
ATOM     51  C   UNL A   1      41.596  25.066  27.834  1.00  0.00     0.031 C 
ATOM     52  C   UNL A   1      46.303  23.728  26.651  1.00  0.00     0.029 A 
ATOM     53  N   UNL A   1      45.958  25.867  27.201  1.00  0.00    -0.354 N 
ATOM     54  C   UNL A   1      41.984  27.300  28.148  1.00  0.00     0.074 A 
ATOM     55  C   UNL A   1      41.012  26.232  28.081  1.00  0.00     0.031 C 
ATOM     56  C   UNL A   1      47.481  24.363  26.549  1.00  0.00     0.029 A 
ATOM     57  C   UNL A   1      47.287  25.776  26.860  1.00  0.00     0.049 A 
ATOM     58  H   UNL A   1      45.536  26.704  27.502  1.00  0.00     0.167 HD
ATOM     59  C   UNL A   1      41.695  28.584  28.466  1.00  0.00     0.037 A 
ATOM     60  C   UNL A   1      48.240  26.726  26.777  1.00  0.00     0.037 A 
ATOM     61  C   UNL A   1      42.678  29.634  28.552  1.00  0.00     0.049 A 
ATOM     62  C   UNL A   1      47.887  28.147  27.121  1.00  0.00     0.074 A 
ATOM     63  C   UNL A   1      42.498  30.945  28.958  1.00  0.00     0.029 A 
ATOM     64  N   UNL A   1      44.016  29.501  28.214  1.00  0.00    -0.354 N 
ATOM     65  N   UNL A   1      46.732  28.636  27.503  1.00  0.00    -0.248 NA
ATOM     66  C   UNL A   1      48.960  29.146  27.019  1.00  0.00     0.031 C 
ATOM     67  C   UNL A   1      43.712  31.620  28.804  1.00  0.00     0.029 A 
ATOM     68  C   UNL A   1      44.663  30.718  28.358  1.00  0.00     0.049 A 
ATOM     69  H   UNL A   1      44.444  28.665  27.918  1.00  0.00     0.167 HD
ATOM     70  C   UNL A   1      46.943  29.998  27.697  1.00  0.00     0.074 A 
ATOM     71  C   UNL A   1      48.341  30.249  27.416  1.00  0.00     0.031 C 
ATOM     72  C   UNL A   1      46.056  30.954  28.067  1.00  0.00     0.037 A 
BRANCH  59  73
ATOM     73  C   UNL A   1      40.260  28.941  28.742  1.00  0.00     0.058 A 
ATOM     74  C   UNL A   1      39.747  28.990  30.047  1.00  0.00     0.135 A 
ATOM     75  C   UNL A   1      39.408  29.319  27.690  1.00  0.00     0.135 A 
ATOM     76  F   UNL A   1      40.513  28.628  31.088  1.00  0.00    -0.206 F 
ATOM     77  C   UNL A   1      38.438  29.387  30.300  1.00  0.00     0.059 A 
ATOM     78  C   UNL A   1      38.103  29.745  27.921  1.00  0.00     0.059 A 
ATOM     79  F   UNL A   1      39.846  29.288  26.421  1.00  0.00    -0.206 F 
ATOM     80  C   UNL A   1      37.626  29.769  29.230  1.00  0.00     0.060 A 
BRANCH  80  81
ATOM     81  S   UNL A   1      35.941  30.315  29.582  1.00  0.00     0.124 S 
ATOM     82  O   UNL A   1      35.731  29.770  30.919  1.00  0.00    -0.237 OA
ATOM     83  O   UNL A   1      36.062  31.767  29.502  1.00  0.00    -0.237 OA
ATOM     84  O   UNL A   1      35.153  29.695  28.521  1.00  0.00    -0.744 OA
ENDBRANCH  80  81
ENDBRANCH  59  73
BRANCH  60  85
ATOM     85  C   UNL A   1      49.612  26.367  26.326  1.00  0.00     0.058 A 
ATOM     86  C   UNL A   1      50.023  26.579  25.002  1.00  0.00     0.135 A 
ATOM     87  C   UNL A   1      50.543  25.803  27.215  1.00  0.00     0.135 A 
ATOM     88  F   UNL A   1      49.170  27.107  24.112  1.00  0.00    -0.206 F 
ATOM     89  C   UNL A   1      51.298  26.228  24.569  1.00  0.00     0.059 A 
ATOM     90  C   UNL A   1      51.832  25.471  26.813  1.00  0.00     0.059 A 
ATOM     91  F   UNL A   1      50.208  25.595  28.498  1.00  0.00    -0.206 F 
ATOM     92  C   UNL A   1      52.196  25.675  25.483  1.00  0.00     0.060 A 
BRANCH  92  93
ATOM     93  S   UNL A   1      53.860  25.253  24.921  1.00  0.00     0.124 S 
ATOM     94  O   UNL A   1      53.814  23.797  24.939  1.00  0.00    -0.237 OA
ATOM     95  O   UNL A   1      53.903  25.876  23.601  1.00  0.00    -0.237 OA
ATOM     96  O   UNL A   1      54.719  25.872  25.926  1.00  0.00    -0.744 OA
ENDBRANCH  92  93
ENDBRANCH  60  85
BRANCH  72  97
ATOM     97  C   UNL A   1      46.564  32.364  28.188  1.00  0.00     0.058 A 
ATOM     98  C   UNL A   1      46.429  33.282  27.135  1.00  0.00     0.135 A 
ATOM     99  C   UNL A   1      47.126  32.823  29.391  1.00  0.00     0.135 A 
ATOM    100  F   UNL A   1      45.909  32.891  25.961  1.00  0.00    -0.206 F 
ATOM    101  C   UNL A   1      46.841  34.604  27.267  1.00  0.00     0.059 A 
ATOM    102  C   UNL A   1      47.519  34.147  29.555  1.00  0.00     0.059 A 
ATOM    103  F   UNL A   1      47.272  31.986  30.431  1.00  0.00    -0.206 F 
ATOM    104  C   UNL A   1      47.378  35.029  28.484  1.00  0.00     0.060 A 
BRANCH 104 105
ATOM    105  S   UNL A   1      47.853  36.762  28.657  1.00  0.00     0.124 S 
ATOM    106  O   UNL A   1      47.984  37.171  27.263  1.00  0.00    -0.237 OA
ATOM    107  O   UNL A   1      46.718  37.325  29.380  1.00  0.00    -0.237 OA
ATOM    108  O   UNL A   1      49.102  36.699  29.411  1.00  0.00    -0.744 OA
ENDBRANCH 104 105
ENDBRANCH  72  97
ENDBRANCH  46  47
ENDBRANCH  38  41
ENDBRANCH  36  37
ENDBRANCH  35  36
ENDBRANCH  34  35
ENDBRANCH   1  34
TORSDOF 21
ENDMDL
