MODEL 1
REMARK VINA RESULT:     -12.1      0.000      0.000
REMARK SMILES O=C(NCCCCCCNC(=O)c1cn(C2CN(C(=O)Nc3ccsc3)C2)nn1)c1ccc(-c2c3nc(c(-c4c(F)cc(S(=O)(=O)[O-])cc4F)c4ccc([nH]4)c(-c4c(F)cc(S(=O)(=O)[O-])cc4F)c4nc(c(-c5c(F)cc(S(=O)(=O)[O-])cc5F)c5ccc2[nH]5)C=C4)C=C3)cc1
REMARK SMILES IDX 6 1 5 2 4 3 3 4 1 5 2 6 30 8 31 9 95 10 32 11 94 12 33 13
REMARK SMILES IDX 34 14 35 15 88 16 36 17 93 18 87 19 89 20 37 21 92 22 86 23
REMARK SMILES IDX 85 24 38 26 72 27 51 28 71 29 52 30 55 31 70 32 90 33 53 34
REMARK SMILES IDX 54 35 69 37 91 38 56 39 39 40 40 41 49 42 41 43 42 44 48 45
REMARK SMILES IDX 50 46 43 47 44 48 45 49 46 50 47 51 73 52 74 53 83 54 75 55
REMARK SMILES IDX 76 56 82 57 84 58 77 59 78 60 79 61 80 62 81 63 57 64 58 65
REMARK SMILES IDX 67 66 59 67 60 68 66 69 68 70 61 71 62 72 63 73 64 74 65 75
REMARK SMILES IDX 7 76 8 77 9 78 10 79 11 80 12 82 13 83 14 84 29 85 15 86
REMARK SMILES IDX 28 87 16 88 17 89 27 90 18 91 19 92 20 93 21 94 22 96 23 97
REMARK SMILES IDX 26 98 24 99 25 100
REMARK H PARENT 3 7 89 25 55 36 10 81 21 95
REMARK Flexibility Score: inf
ROOT
ATOM      1  C   UNL A   1      40.863  22.496  28.056  1.00  0.00     0.002 C 
ENDROOT
BRANCH   1   2
ATOM      2  C   UNL A   1      42.018  21.904  27.235  1.00  0.00     0.021 C 
BRANCH   2   3
ATOM      3  C   UNL A   1      41.799  21.901  25.722  1.00  0.00     0.116 C 
BRANCH   3   4
ATOM      4  N   UNL A   1      42.883  22.505  24.980  1.00  0.00    -0.352 N 
ATOM      5  O   UNL A   1      44.497  23.800  24.235  1.00  0.00    -0.269 OA
ATOM      6  C   UNL A   1      43.550  23.698  25.023  1.00  0.00     0.251 C 
ATOM      7  H   UNL A   1      43.225  21.913  24.272  1.00  0.00     0.163 HD
BRANCH   6   8
ATOM      8  C   UNL A   1      43.217  24.860  25.898  1.00  0.00     0.039 A 
ATOM      9  C   UNL A   1      43.740  25.114  27.166  1.00  0.00     0.014 A 
ATOM     10  C   UNL A   1      42.281  25.773  25.372  1.00  0.00     0.014 A 
ATOM     11  C   UNL A   1      43.316  26.228  27.898  1.00  0.00     0.010 A 
ATOM     12  C   UNL A   1      41.861  26.889  26.096  1.00  0.00     0.010 A 
ATOM     13  C   UNL A   1      42.365  27.109  27.373  1.00  0.00    -0.014 A 
BRANCH  13  14
ATOM     14  C   UNL A   1      42.021  28.307  28.147  1.00  0.00     0.031 A 
ATOM     15  C   UNL A   1      43.043  29.399  28.146  1.00  0.00     0.074 A 
ATOM     16  C   UNL A   1      40.818  28.541  28.712  1.00  0.00     0.049 A 
ATOM     17  N   UNL A   1      43.689  29.905  29.148  1.00  0.00    -0.248 NA
ATOM     18  C   UNL A   1      43.434  29.955  26.843  1.00  0.00     0.031 C 
ATOM     19  C   UNL A   1      39.579  27.776  28.558  1.00  0.00     0.029 A 
ATOM     20  N   UNL A   1      40.435  29.598  29.488  1.00  0.00    -0.354 N 
ATOM     21  C   UNL A   1      44.437  30.965  28.634  1.00  0.00     0.074 A 
ATOM     22  C   UNL A   1      44.331  30.877  27.200  1.00  0.00     0.031 C 
ATOM     23  C   UNL A   1      38.544  28.501  29.044  1.00  0.00     0.029 A 
ATOM     24  C   UNL A   1      39.063  29.706  29.671  1.00  0.00     0.049 A 
ATOM     25  H   UNL A   1      41.077  30.230  29.884  1.00  0.00     0.167 HD
ATOM     26  C   UNL A   1      44.964  31.944  29.423  1.00  0.00     0.037 A 
ATOM     27  C   UNL A   1      38.396  30.737  30.250  1.00  0.00     0.037 A 
ATOM     28  C   UNL A   1      45.009  31.552  30.805  1.00  0.00     0.049 A 
ATOM     29  C   UNL A   1      39.362  31.477  31.100  1.00  0.00     0.074 A 
ATOM     30  C   UNL A   1      45.622  30.533  31.508  1.00  0.00     0.029 A 
ATOM     31  N   UNL A   1      44.081  32.085  31.664  1.00  0.00    -0.354 N 
ATOM     32  N   UNL A   1      39.909  31.002  32.185  1.00  0.00    -0.248 NA
ATOM     33  C   UNL A   1      40.018  32.643  30.530  1.00  0.00     0.031 C 
ATOM     34  C   UNL A   1      44.700  30.190  32.540  1.00  0.00     0.029 A 
ATOM     35  C   UNL A   1      43.605  31.047  32.422  1.00  0.00     0.049 A 
ATOM     36  H   UNL A   1      43.809  33.030  31.724  1.00  0.00     0.167 HD
ATOM     37  C   UNL A   1      41.185  31.541  32.206  1.00  0.00     0.074 A 
ATOM     38  C   UNL A   1      41.156  32.621  31.226  1.00  0.00     0.031 C 
ATOM     39  C   UNL A   1      42.221  30.897  32.819  1.00  0.00     0.037 A 
BRANCH  26  40
ATOM     40  C   UNL A   1      45.177  33.377  28.992  1.00  0.00     0.058 A 
ATOM     41  C   UNL A   1      46.456  33.964  29.100  1.00  0.00     0.135 A 
ATOM     42  C   UNL A   1      44.116  34.274  28.737  1.00  0.00     0.135 A 
ATOM     43  F   UNL A   1      47.536  33.209  29.355  1.00  0.00    -0.206 F 
ATOM     44  C   UNL A   1      46.656  35.345  29.027  1.00  0.00     0.059 A 
ATOM     45  C   UNL A   1      44.301  35.648  28.607  1.00  0.00     0.059 A 
ATOM     46  F   UNL A   1      42.841  33.868  28.699  1.00  0.00    -0.206 F 
ATOM     47  C   UNL A   1      45.566  36.180  28.798  1.00  0.00     0.060 A 
BRANCH  47  48
ATOM     48  S   UNL A   1      45.800  37.967  28.824  1.00  0.00     0.124 S 
ATOM     49  O   UNL A   1      47.127  38.093  28.231  1.00  0.00    -0.237 OA
ATOM     50  O   UNL A   1      44.687  38.433  28.005  1.00  0.00    -0.237 OA
ATOM     51  O   UNL A   1      45.707  38.295  30.243  1.00  0.00    -0.744 OA
ENDBRANCH  47  48
ENDBRANCH  26  40
BRANCH  27  52
ATOM     52  C   UNL A   1      37.073  31.305  29.880  1.00  0.00     0.058 A 
ATOM     53  C   UNL A   1      36.226  31.874  30.848  1.00  0.00     0.135 A 
ATOM     54  C   UNL A   1      36.742  31.563  28.535  1.00  0.00     0.135 A 
ATOM     55  F   UNL A   1      36.479  31.699  32.153  1.00  0.00    -0.206 F 
ATOM     56  C   UNL A   1      35.143  32.692  30.503  1.00  0.00     0.059 A 
ATOM     57  C   UNL A   1      35.665  32.367  28.167  1.00  0.00     0.059 A 
ATOM     58  F   UNL A   1      37.520  31.119  27.535  1.00  0.00    -0.206 F 
ATOM     59  C   UNL A   1      34.883  32.949  29.158  1.00  0.00     0.060 A 
BRANCH  59  60
ATOM     60  S   UNL A   1      33.603  34.147  28.714  1.00  0.00     0.124 S 
ATOM     61  O   UNL A   1      32.716  33.345  27.879  1.00  0.00    -0.237 OA
ATOM     62  O   UNL A   1      33.075  34.533  30.019  1.00  0.00    -0.237 OA
ATOM     63  O   UNL A   1      34.345  35.191  28.012  1.00  0.00    -0.744 OA
ENDBRANCH  59  60
ENDBRANCH  27  52
BRANCH  39  64
ATOM     64  C   UNL A   1      41.915  29.767  33.765  1.00  0.00     0.058 A 
ATOM     65  C   UNL A   1      41.692  28.438  33.364  1.00  0.00     0.135 A 
ATOM     66  C   UNL A   1      42.047  30.008  35.142  1.00  0.00     0.135 A 
ATOM     67  F   UNL A   1      41.649  28.107  32.065  1.00  0.00    -0.206 F 
ATOM     68  C   UNL A   1      41.588  27.400  34.293  1.00  0.00     0.059 A 
ATOM     69  C   UNL A   1      41.978  28.985  36.083  1.00  0.00     0.059 A 
ATOM     70  F   UNL A   1      42.317  31.248  35.584  1.00  0.00    -0.206 F 
ATOM     71  C   UNL A   1      41.745  27.681  35.650  1.00  0.00     0.060 A 
BRANCH  71  72
ATOM     72  S   UNL A   1      41.754  26.317  36.835  1.00  0.00     0.124 S 
ATOM     73  O   UNL A   1      42.824  26.708  37.746  1.00  0.00    -0.237 OA
ATOM     74  O   UNL A   1      40.403  26.364  37.388  1.00  0.00    -0.237 OA
ATOM     75  O   UNL A   1      42.035  25.146  36.007  1.00  0.00    -0.744 OA
ENDBRANCH  71  72
ENDBRANCH  39  64
ENDBRANCH  13  14
ENDBRANCH   6   8
ENDBRANCH   3   4
ENDBRANCH   2   3
ENDBRANCH   1   2
BRANCH   1  76
ATOM     76  C   UNL A   1      40.386  23.892  27.638  1.00  0.00     0.002 C 
BRANCH  76  77
ATOM     77  C   UNL A   1      38.869  24.085  27.598  1.00  0.00     0.021 C 
BRANCH  77  78
ATOM     78  C   UNL A   1      38.235  23.866  26.227  1.00  0.00     0.116 C 
BRANCH  78  79
ATOM     79  N   UNL A   1      38.552  22.556  25.682  1.00  0.00    -0.351 N 
ATOM     80  C   UNL A   1      37.740  21.691  24.985  1.00  0.00     0.273 C 
ATOM     81  H   UNL A   1      39.475  22.245  25.834  1.00  0.00     0.163 HD
ATOM     82  O   UNL A   1      38.121  20.541  24.783  1.00  0.00    -0.267 OA
BRANCH  80  83
ATOM     83  C   UNL A   1      36.458  22.184  24.513  1.00  0.00     0.170 A 
ATOM     84  C   UNL A   1      35.240  22.147  25.164  1.00  0.00     0.145 A 
ATOM     85  N   UNL A   1      36.291  22.800  23.298  1.00  0.00    -0.125 NA
ATOM     86  N   UNL A   1      34.366  22.672  24.260  1.00  0.00    -0.245 N 
ATOM     87  N   UNL A   1      35.002  23.077  23.148  1.00  0.00    -0.066 NA
BRANCH  86  88
ATOM     88  C   UNL A   1      32.964  22.883  24.421  1.00  0.00     0.148 C 
ATOM     89  C   UNL A   1      32.372  22.541  25.800  1.00  0.00     0.150 C 
ATOM     90  C   UNL A   1      32.633  24.348  24.785  1.00  0.00     0.150 C 
ATOM     91  N   UNL A   1      31.602  23.774  25.624  1.00  0.00    -0.320 N 
ATOM     92  C   UNL A   1      30.579  24.222  26.394  1.00  0.00     0.322 C 
ATOM     93  O   UNL A   1      30.072  23.490  27.249  1.00  0.00    -0.248 OA
ATOM     94  N   UNL A   1      30.179  25.519  26.331  1.00  0.00    -0.307 N 
ATOM     95  H   UNL A   1      29.717  25.843  27.138  1.00  0.00     0.171 HD
BRANCH  94  96
ATOM     96  C   UNL A   1      30.311  26.462  25.329  1.00  0.00     0.053 A 
ATOM     97  C   UNL A   1      31.195  27.579  25.288  1.00  0.00     0.038 A 
ATOM     98  C   UNL A   1      29.599  26.357  24.151  1.00  0.00     0.091 A 
ATOM     99  C   UNL A   1      30.978  28.385  24.192  1.00  0.00     0.067 A 
ATOM    100  S   UNL A   1      29.821  27.713  23.129  1.00  0.00    -0.150 S 
ENDBRANCH  94  96
ENDBRANCH  86  88
ENDBRANCH  80  83
ENDBRANCH  78  79
ENDBRANCH  77  78
ENDBRANCH  76  77
ENDBRANCH   1  76
TORSDOF 18
ENDMDL
MODEL 2
REMARK VINA RESULT:     -11.9      3.395      9.594
REMARK SMILES O=C(NCCCCCCNC(=O)c1cn(C2CN(C(=O)Nc3ccsc3)C2)nn1)c1ccc(-c2c3nc(c(-c4c(F)cc(S(=O)(=O)[O-])cc4F)c4ccc([nH]4)c(-c4c(F)cc(S(=O)(=O)[O-])cc4F)c4nc(c(-c5c(F)cc(S(=O)(=O)[O-])cc5F)c5ccc2[nH]5)C=C4)C=C3)cc1
REMARK SMILES IDX 6 1 5 2 4 3 3 4 1 5 2 6 30 8 31 9 95 10 32 11 94 12 33 13
REMARK SMILES IDX 34 14 35 15 88 16 36 17 93 18 87 19 89 20 37 21 92 22 86 23
REMARK SMILES IDX 85 24 38 26 72 27 51 28 71 29 52 30 55 31 70 32 90 33 53 34
REMARK SMILES IDX 54 35 69 37 91 38 56 39 39 40 40 41 49 42 41 43 42 44 48 45
REMARK SMILES IDX 50 46 43 47 44 48 45 49 46 50 47 51 73 52 74 53 83 54 75 55
REMARK SMILES IDX 76 56 82 57 84 58 77 59 78 60 79 61 80 62 81 63 57 64 58 65
REMARK SMILES IDX 67 66 59 67 60 68 66 69 68 70 61 71 62 72 63 73 64 74 65 75
REMARK SMILES IDX 7 76 8 77 9 78 10 79 11 80 12 82 13 83 14 84 29 85 15 86
REMARK SMILES IDX 28 87 16 88 17 89 27 90 18 91 19 92 20 93 21 94 22 96 23 97
REMARK SMILES IDX 26 98 24 99 25 100
REMARK H PARENT 3 7 89 25 55 36 10 81 21 95
REMARK Flexibility Score: inf
ROOT
ATOM      1  C   UNL A   1      31.535  29.752  26.311  1.00  0.00     0.002 C 
ENDROOT
BRANCH   1   2
ATOM      2  C   UNL A   1      32.258  31.060  26.661  1.00  0.00     0.021 C 
BRANCH   2   3
ATOM      3  C   UNL A   1      33.606  30.885  27.360  1.00  0.00     0.116 C 
BRANCH   3   4
ATOM      4  N   UNL A   1      33.778  31.745  28.510  1.00  0.00    -0.352 N 
ATOM      5  O   UNL A   1      34.548  32.879  30.229  1.00  0.00    -0.269 OA
ATOM      6  C   UNL A   1      34.778  31.981  29.411  1.00  0.00     0.251 C 
ATOM      7  H   UNL A   1      32.981  32.295  28.685  1.00  0.00     0.163 HD
BRANCH   6   8
ATOM      8  C   UNL A   1      36.073  31.245  29.501  1.00  0.00     0.039 A 
ATOM      9  C   UNL A   1      36.250  29.867  29.371  1.00  0.00     0.014 A 
ATOM     10  C   UNL A   1      37.212  32.040  29.742  1.00  0.00     0.014 A 
ATOM     11  C   UNL A   1      37.521  29.299  29.511  1.00  0.00     0.010 A 
ATOM     12  C   UNL A   1      38.482  31.478  29.875  1.00  0.00     0.010 A 
ATOM     13  C   UNL A   1      38.637  30.099  29.778  1.00  0.00    -0.014 A 
BRANCH  13  14
ATOM     14  C   UNL A   1      39.956  29.460  29.829  1.00  0.00     0.031 A 
ATOM     15  C   UNL A   1      40.479  29.153  31.196  1.00  0.00     0.074 A 
ATOM     16  C   UNL A   1      40.635  29.007  28.755  1.00  0.00     0.049 A 
ATOM     17  N   UNL A   1      41.550  29.597  31.772  1.00  0.00    -0.248 NA
ATOM     18  C   UNL A   1      39.661  28.279  32.051  1.00  0.00     0.031 C 
ATOM     19  C   UNL A   1      40.172  28.897  27.370  1.00  0.00     0.029 A 
ATOM     20  N   UNL A   1      41.882  28.452  28.710  1.00  0.00    -0.354 N 
ATOM     21  C   UNL A   1      41.644  28.925  32.992  1.00  0.00     0.074 A 
ATOM     22  C   UNL A   1      40.401  28.216  33.160  1.00  0.00     0.031 C 
ATOM     23  C   UNL A   1      41.040  28.128  26.670  1.00  0.00     0.029 A 
ATOM     24  C   UNL A   1      42.184  27.817  27.513  1.00  0.00     0.049 A 
ATOM     25  H   UNL A   1      42.514  28.497  29.464  1.00  0.00     0.167 HD
ATOM     26  C   UNL A   1      42.801  28.863  33.711  1.00  0.00     0.037 A 
ATOM     27  C   UNL A   1      43.271  27.048  27.249  1.00  0.00     0.037 A 
ATOM     28  C   UNL A   1      43.745  29.864  33.295  1.00  0.00     0.049 A 
ATOM     29  C   UNL A   1      44.320  27.398  28.238  1.00  0.00     0.074 A 
ATOM     30  C   UNL A   1      43.743  31.245  33.250  1.00  0.00     0.029 A 
ATOM     31  N   UNL A   1      44.814  29.472  32.529  1.00  0.00    -0.354 N 
ATOM     32  N   UNL A   1      44.938  28.546  28.288  1.00  0.00    -0.248 NA
ATOM     33  C   UNL A   1      44.431  26.577  29.434  1.00  0.00     0.031 C 
ATOM     34  C   UNL A   1      44.483  31.576  32.077  1.00  0.00     0.029 A 
ATOM     35  C   UNL A   1      44.919  30.380  31.506  1.00  0.00     0.049 A 
ATOM     36  H   UNL A   1      45.393  28.691  32.682  1.00  0.00     0.167 HD
ATOM     37  C   UNL A   1      45.164  28.770  29.638  1.00  0.00     0.074 A 
ATOM     38  C   UNL A   1      44.928  27.482  30.280  1.00  0.00     0.031 C 
ATOM     39  C   UNL A   1      45.261  30.034  30.143  1.00  0.00     0.037 A 
BRANCH  26  40
ATOM     40  C   UNL A   1      43.200  27.711  34.603  1.00  0.00     0.058 A 
ATOM     41  C   UNL A   1      43.509  27.943  35.961  1.00  0.00     0.135 A 
ATOM     42  C   UNL A   1      43.557  26.436  34.109  1.00  0.00     0.135 A 
ATOM     43  F   UNL A   1      43.227  29.123  36.534  1.00  0.00    -0.206 F 
ATOM     44  C   UNL A   1      44.181  27.004  36.749  1.00  0.00     0.059 A 
ATOM     45  C   UNL A   1      44.179  25.468  34.891  1.00  0.00     0.059 A 
ATOM     46  F   UNL A   1      43.406  26.112  32.818  1.00  0.00    -0.206 F 
ATOM     47  C   UNL A   1      44.528  25.775  36.196  1.00  0.00     0.060 A 
BRANCH  47  48
ATOM     48  S   UNL A   1      45.500  24.611  37.169  1.00  0.00     0.124 S 
ATOM     49  O   UNL A   1      44.887  24.752  38.485  1.00  0.00    -0.237 OA
ATOM     50  O   UNL A   1      45.250  23.351  36.479  1.00  0.00    -0.237 OA
ATOM     51  O   UNL A   1      46.860  25.127  37.047  1.00  0.00    -0.744 OA
ENDBRANCH  47  48
ENDBRANCH  26  40
BRANCH  27  52
ATOM     52  C   UNL A   1      43.354  25.825  26.407  1.00  0.00     0.058 A 
ATOM     53  C   UNL A   1      44.320  25.702  25.392  1.00  0.00     0.135 A 
ATOM     54  C   UNL A   1      42.682  24.643  26.773  1.00  0.00     0.135 A 
ATOM     55  F   UNL A   1      45.025  26.773  24.997  1.00  0.00    -0.206 F 
ATOM     56  C   UNL A   1      44.637  24.470  24.809  1.00  0.00     0.059 A 
ATOM     57  C   UNL A   1      42.972  23.405  26.200  1.00  0.00     0.059 A 
ATOM     58  F   UNL A   1      41.787  24.639  27.772  1.00  0.00    -0.206 F 
ATOM     59  C   UNL A   1      43.970  23.322  25.236  1.00  0.00     0.060 A 
BRANCH  59  60
ATOM     60  S   UNL A   1      44.499  21.706  24.619  1.00  0.00     0.124 S 
ATOM     61  O   UNL A   1      43.440  20.833  25.112  1.00  0.00    -0.237 OA
ATOM     62  O   UNL A   1      44.529  21.921  23.176  1.00  0.00    -0.237 OA
ATOM     63  O   UNL A   1      45.806  21.517  25.243  1.00  0.00    -0.744 OA
ENDBRANCH  59  60
ENDBRANCH  27  52
BRANCH  39  64
ATOM     64  C   UNL A   1      45.463  31.183  29.193  1.00  0.00     0.058 A 
ATOM     65  C   UNL A   1      46.710  31.575  28.677  1.00  0.00     0.135 A 
ATOM     66  C   UNL A   1      44.321  31.783  28.636  1.00  0.00     0.135 A 
ATOM     67  F   UNL A   1      47.842  30.983  29.085  1.00  0.00    -0.206 F 
ATOM     68  C   UNL A   1      46.817  32.533  27.666  1.00  0.00     0.059 A 
ATOM     69  C   UNL A   1      44.403  32.716  27.606  1.00  0.00     0.059 A 
ATOM     70  F   UNL A   1      43.097  31.410  29.048  1.00  0.00    -0.206 F 
ATOM     71  C   UNL A   1      45.657  33.089  27.127  1.00  0.00     0.060 A 
BRANCH  71  72
ATOM     72  S   UNL A   1      45.793  34.217  25.723  1.00  0.00     0.124 S 
ATOM     73  O   UNL A   1      47.221  34.172  25.428  1.00  0.00    -0.237 OA
ATOM     74  O   UNL A   1      44.921  33.598  24.729  1.00  0.00    -0.237 OA
ATOM     75  O   UNL A   1      45.305  35.487  26.256  1.00  0.00    -0.744 OA
ENDBRANCH  71  72
ENDBRANCH  39  64
ENDBRANCH  13  14
ENDBRANCH   6   8
ENDBRANCH   3   4
ENDBRANCH   2   3
ENDBRANCH   1   2
BRANCH   1  76
ATOM     76  C   UNL A   1      31.792  29.194  24.906  1.00  0.00     0.002 C 
BRANCH  76  77
ATOM     77  C   UNL A   1      30.663  28.349  24.315  1.00  0.00     0.021 C 
BRANCH  77  78
ATOM     78  C   UNL A   1      31.076  27.466  23.141  1.00  0.00     0.116 C 
BRANCH  78  79
ATOM     79  N   UNL A   1      32.180  28.040  22.388  1.00  0.00    -0.351 N 
ATOM     80  C   UNL A   1      33.407  27.488  22.100  1.00  0.00     0.273 C 
ATOM     81  H   UNL A   1      32.028  28.948  22.038  1.00  0.00     0.163 HD
ATOM     82  O   UNL A   1      34.289  28.201  21.628  1.00  0.00    -0.267 OA
BRANCH  80  83
ATOM     83  C   UNL A   1      33.603  26.075  22.367  1.00  0.00     0.170 A 
ATOM     84  C   UNL A   1      34.102  25.486  23.514  1.00  0.00     0.145 A 
ATOM     85  N   UNL A   1      33.283  25.088  21.467  1.00  0.00    -0.125 NA
ATOM     86  N   UNL A   1      34.141  24.158  23.213  1.00  0.00    -0.245 N 
ATOM     87  N   UNL A   1      33.635  23.921  21.990  1.00  0.00    -0.066 NA
BRANCH  86  88
ATOM     88  C   UNL A   1      34.563  23.084  24.052  1.00  0.00     0.148 C 
ATOM     89  C   UNL A   1      34.110  23.142  25.523  1.00  0.00     0.150 C 
ATOM     90  C   UNL A   1      33.626  21.858  23.946  1.00  0.00     0.150 C 
ATOM     91  N   UNL A   1      33.873  21.706  25.365  1.00  0.00    -0.320 N 
ATOM     92  C   UNL A   1      33.574  20.810  26.338  1.00  0.00     0.322 C 
ATOM     93  O   UNL A   1      33.658  21.127  27.527  1.00  0.00    -0.248 OA
ATOM     94  N   UNL A   1      33.053  19.594  26.026  1.00  0.00    -0.307 N 
ATOM     95  H   UNL A   1      32.539  19.172  26.753  1.00  0.00     0.171 HD
BRANCH  94  96
ATOM     96  C   UNL A   1      33.120  18.849  24.864  1.00  0.00     0.053 A 
ATOM     97  C   UNL A   1      32.236  18.887  23.746  1.00  0.00     0.038 A 
ATOM     98  C   UNL A   1      34.174  17.989  24.627  1.00  0.00     0.091 A 
ATOM     99  C   UNL A   1      32.529  17.922  22.807  1.00  0.00     0.067 A 
ATOM    100  S   UNL A   1      33.963  17.076  23.193  1.00  0.00    -0.150 S 
ENDBRANCH  94  96
ENDBRANCH  86  88
ENDBRANCH  80  83
ENDBRANCH  78  79
ENDBRANCH  77  78
ENDBRANCH  76  77
ENDBRANCH   1  76
TORSDOF 18
ENDMDL
MODEL 3
REMARK VINA RESULT:     -11.5      3.297      9.668
REMARK SMILES O=C(NCCCCCCNC(=O)c1cn(C2CN(C(=O)Nc3ccsc3)C2)nn1)c1ccc(-c2c3nc(c(-c4c(F)cc(S(=O)(=O)[O-])cc4F)c4ccc([nH]4)c(-c4c(F)cc(S(=O)(=O)[O-])cc4F)c4nc(c(-c5c(F)cc(S(=O)(=O)[O-])cc5F)c5ccc2[nH]5)C=C4)C=C3)cc1
REMARK SMILES IDX 6 1 5 2 4 3 3 4 1 5 2 6 30 8 31 9 95 10 32 11 94 12 33 13
REMARK SMILES IDX 34 14 35 15 88 16 36 17 93 18 87 19 89 20 37 21 92 22 86 23
REMARK SMILES IDX 85 24 38 26 72 27 51 28 71 29 52 30 55 31 70 32 90 33 53 34
REMARK SMILES IDX 54 35 69 37 91 38 56 39 39 40 40 41 49 42 41 43 42 44 48 45
REMARK SMILES IDX 50 46 43 47 44 48 45 49 46 50 47 51 73 52 74 53 83 54 75 55
REMARK SMILES IDX 76 56 82 57 84 58 77 59 78 60 79 61 80 62 81 63 57 64 58 65
REMARK SMILES IDX 67 66 59 67 60 68 66 69 68 70 61 71 62 72 63 73 64 74 65 75
REMARK SMILES IDX 7 76 8 77 9 78 10 79 11 80 12 82 13 83 14 84 29 85 15 86
REMARK SMILES IDX 28 87 16 88 17 89 27 90 18 91 19 92 20 93 21 94 22 96 23 97
REMARK SMILES IDX 26 98 24 99 25 100
REMARK H PARENT 3 7 89 25 55 36 10 81 21 95
REMARK Flexibility Score: inf
ROOT
ATOM      1  C   UNL A   1      34.667  29.856  27.493  1.00  0.00     0.002 C 
ENDROOT
BRANCH   1   2
ATOM      2  C   UNL A   1      33.587  30.946  27.545  1.00  0.00     0.021 C 
BRANCH   2   3
ATOM      3  C   UNL A   1      34.065  32.303  28.062  1.00  0.00     0.116 C 
BRANCH   3   4
ATOM      4  N   UNL A   1      33.982  32.437  29.499  1.00  0.00    -0.352 N 
ATOM      5  O   UNL A   1      34.386  32.547  31.658  1.00  0.00    -0.269 OA
ATOM      6  C   UNL A   1      34.835  32.236  30.549  1.00  0.00     0.251 C 
ATOM      7  H   UNL A   1      33.096  32.749  29.793  1.00  0.00     0.163 HD
BRANCH   6   8
ATOM      8  C   UNL A   1      36.210  31.664  30.467  1.00  0.00     0.039 A 
ATOM      9  C   UNL A   1      37.401  32.386  30.381  1.00  0.00     0.014 A 
ATOM     10  C   UNL A   1      36.288  30.256  30.477  1.00  0.00     0.014 A 
ATOM     11  C   UNL A   1      38.627  31.721  30.276  1.00  0.00     0.010 A 
ATOM     12  C   UNL A   1      37.510  29.590  30.379  1.00  0.00     0.010 A 
ATOM     13  C   UNL A   1      38.685  30.324  30.259  1.00  0.00    -0.014 A 
BRANCH  13  14
ATOM     14  C   UNL A   1      40.003  29.681  30.234  1.00  0.00     0.031 A 
ATOM     15  C   UNL A   1      40.609  29.385  31.568  1.00  0.00     0.074 A 
ATOM     16  C   UNL A   1      40.612  29.215  29.124  1.00  0.00     0.049 A 
ATOM     17  N   UNL A   1      41.715  29.830  32.072  1.00  0.00    -0.248 NA
ATOM     18  C   UNL A   1      39.843  28.522  32.480  1.00  0.00     0.031 C 
ATOM     19  C   UNL A   1      40.064  29.093  27.771  1.00  0.00     0.029 A 
ATOM     20  N   UNL A   1      41.852  28.654  29.007  1.00  0.00    -0.354 N 
ATOM     21  C   UNL A   1      41.883  29.169  33.291  1.00  0.00     0.074 A 
ATOM     22  C   UNL A   1      40.650  28.467  33.542  1.00  0.00     0.031 C 
ATOM     23  C   UNL A   1      40.884  28.314  27.027  1.00  0.00     0.029 A 
ATOM     24  C   UNL A   1      42.077  28.007  27.800  1.00  0.00     0.049 A 
ATOM     25  H   UNL A   1      42.530  28.704  29.719  1.00  0.00     0.167 HD
ATOM     26  C   UNL A   1      43.082  29.109  33.937  1.00  0.00     0.037 A 
ATOM     27  C   UNL A   1      43.143  27.231  27.476  1.00  0.00     0.037 A 
ATOM     28  C   UNL A   1      44.001  30.103  33.453  1.00  0.00     0.049 A 
ATOM     29  C   UNL A   1      44.253  27.586  28.395  1.00  0.00     0.074 A 
ATOM     30  C   UNL A   1      44.001  31.483  33.395  1.00  0.00     0.029 A 
ATOM     31  N   UNL A   1      45.019  29.699  32.626  1.00  0.00    -0.354 N 
ATOM     32  N   UNL A   1      44.876  28.732  28.395  1.00  0.00    -0.248 NA
ATOM     33  C   UNL A   1      44.435  26.776  29.590  1.00  0.00     0.031 C 
ATOM     34  C   UNL A   1      44.668  31.800  32.175  1.00  0.00     0.029 A 
ATOM     35  C   UNL A   1      45.063  30.597  31.590  1.00  0.00     0.049 A 
ATOM     36  H   UNL A   1      45.604  28.917  32.751  1.00  0.00     0.167 HD
ATOM     37  C   UNL A   1      45.186  28.968  29.726  1.00  0.00     0.074 A 
ATOM     38  C   UNL A   1      44.987  27.687  30.394  1.00  0.00     0.031 C 
ATOM     39  C   UNL A   1      45.319  30.236  30.212  1.00  0.00     0.037 A 
BRANCH  26  40
ATOM     40  C   UNL A   1      43.532  27.964  34.814  1.00  0.00     0.058 A 
ATOM     41  C   UNL A   1      43.961  28.213  36.136  1.00  0.00     0.135 A 
ATOM     42  C   UNL A   1      43.818  26.673  34.315  1.00  0.00     0.135 A 
ATOM     43  F   UNL A   1      43.754  29.409  36.708  1.00  0.00    -0.206 F 
ATOM     44  C   UNL A   1      44.678  27.273  36.881  1.00  0.00     0.059 A 
ATOM     45  C   UNL A   1      44.484  25.705  35.060  1.00  0.00     0.059 A 
ATOM     46  F   UNL A   1      43.549  26.330  33.049  1.00  0.00    -0.206 F 
ATOM     47  C   UNL A   1      44.950  26.027  36.324  1.00  0.00     0.060 A 
BRANCH  47  48
ATOM     48  S   UNL A   1      45.978  24.858  37.233  1.00  0.00     0.124 S 
ATOM     49  O   UNL A   1      45.038  24.365  38.234  1.00  0.00    -0.237 OA
ATOM     50  O   UNL A   1      46.358  23.910  36.192  1.00  0.00    -0.237 OA
ATOM     51  O   UNL A   1      47.063  25.692  37.741  1.00  0.00    -0.744 OA
ENDBRANCH  47  48
ENDBRANCH  26  40
BRANCH  27  52
ATOM     52  C   UNL A   1      43.170  26.000  26.643  1.00  0.00     0.058 A 
ATOM     53  C   UNL A   1      44.013  25.896  25.522  1.00  0.00     0.135 A 
ATOM     54  C   UNL A   1      42.588  24.800  27.098  1.00  0.00     0.135 A 
ATOM     55  F   UNL A   1      44.628  26.984  25.035  1.00  0.00    -0.206 F 
ATOM     56  C   UNL A   1      44.302  24.666  24.918  1.00  0.00     0.059 A 
ATOM     57  C   UNL A   1      42.853  23.566  26.507  1.00  0.00     0.059 A 
ATOM     58  F   UNL A   1      41.818  24.780  28.196  1.00  0.00    -0.206 F 
ATOM     59  C   UNL A   1      43.732  23.502  25.432  1.00  0.00     0.060 A 
BRANCH  59  60
ATOM     60  S   UNL A   1      44.241  21.897  24.773  1.00  0.00     0.124 S 
ATOM     61  O   UNL A   1      44.262  22.154  23.338  1.00  0.00    -0.237 OA
ATOM     62  O   UNL A   1      45.542  21.702  25.406  1.00  0.00    -0.237 OA
ATOM     63  O   UNL A   1      43.189  20.994  25.230  1.00  0.00    -0.744 OA
ENDBRANCH  59  60
ENDBRANCH  27  52
BRANCH  39  64
ATOM     64  C   UNL A   1      45.465  31.376  29.240  1.00  0.00     0.058 A 
ATOM     65  C   UNL A   1      46.690  31.807  28.703  1.00  0.00     0.135 A 
ATOM     66  C   UNL A   1      44.295  31.921  28.686  1.00  0.00     0.135 A 
ATOM     67  F   UNL A   1      47.849  31.267  29.108  1.00  0.00    -0.206 F 
ATOM     68  C   UNL A   1      46.749  32.750  27.674  1.00  0.00     0.059 A 
ATOM     69  C   UNL A   1      44.329  32.839  27.640  1.00  0.00     0.059 A 
ATOM     70  F   UNL A   1      43.091  31.508  29.118  1.00  0.00    -0.206 F 
ATOM     71  C   UNL A   1      45.562  33.251  27.140  1.00  0.00     0.060 A 
BRANCH  71  72
ATOM     72  S   UNL A   1      45.638  34.359  25.715  1.00  0.00     0.124 S 
ATOM     73  O   UNL A   1      45.141  35.612  26.271  1.00  0.00    -0.237 OA
ATOM     74  O   UNL A   1      47.057  34.339  25.369  1.00  0.00    -0.237 OA
ATOM     75  O   UNL A   1      44.762  33.718  24.736  1.00  0.00    -0.744 OA
ENDBRANCH  71  72
ENDBRANCH  39  64
ENDBRANCH  13  14
ENDBRANCH   6   8
ENDBRANCH   3   4
ENDBRANCH   2   3
ENDBRANCH   1   2
BRANCH   1  76
ATOM     76  C   UNL A   1      34.245  28.518  26.873  1.00  0.00     0.002 C 
BRANCH  76  77
ATOM     77  C   UNL A   1      32.743  28.339  26.654  1.00  0.00     0.021 C 
BRANCH  77  78
ATOM     78  C   UNL A   1      32.354  27.046  25.942  1.00  0.00     0.116 C 
BRANCH  78  79
ATOM     79  N   UNL A   1      31.067  26.541  26.392  1.00  0.00    -0.351 N 
ATOM     80  C   UNL A   1      30.636  25.237  26.485  1.00  0.00     0.273 C 
ATOM     81  H   UNL A   1      30.415  27.225  26.668  1.00  0.00     0.163 HD
ATOM     82  O   UNL A   1      29.446  25.011  26.691  1.00  0.00    -0.267 OA
BRANCH  80  83
ATOM     83  C   UNL A   1      31.618  24.178  26.335  1.00  0.00     0.170 A 
ATOM     84  C   UNL A   1      32.220  23.733  25.173  1.00  0.00     0.145 A 
ATOM     85  N   UNL A   1      32.112  23.455  27.392  1.00  0.00    -0.125 NA
ATOM     86  N   UNL A   1      32.995  22.689  25.581  1.00  0.00    -0.245 N 
ATOM     87  N   UNL A   1      32.939  22.535  26.915  1.00  0.00    -0.066 NA
BRANCH  86  88
ATOM     88  C   UNL A   1      33.850  21.871  24.783  1.00  0.00     0.148 C 
ATOM     89  C   UNL A   1      35.342  21.863  25.164  1.00  0.00     0.150 C 
ATOM     90  C   UNL A   1      33.853  20.399  25.254  1.00  0.00     0.150 C 
ATOM     91  N   UNL A   1      35.258  20.423  24.907  1.00  0.00    -0.320 N 
ATOM     92  C   UNL A   1      36.285  19.539  24.842  1.00  0.00     0.322 C 
ATOM     93  O   UNL A   1      37.453  19.936  24.818  1.00  0.00    -0.248 OA
ATOM     94  N   UNL A   1      36.056  18.202  24.935  1.00  0.00    -0.307 N 
ATOM     95  H   UNL A   1      36.830  17.677  25.243  1.00  0.00     0.171 HD
BRANCH  94  96
ATOM     96  C   UNL A   1      34.924  17.455  24.671  1.00  0.00     0.053 A 
ATOM     97  C   UNL A   1      34.274  17.261  23.417  1.00  0.00     0.038 A 
ATOM     98  C   UNL A   1      34.316  16.706  25.659  1.00  0.00     0.091 A 
ATOM     99  C   UNL A   1      33.098  16.553  23.535  1.00  0.00     0.067 A 
ATOM    100  S   UNL A   1      32.857  15.984  25.127  1.00  0.00    -0.150 S 
ENDBRANCH  94  96
ENDBRANCH  86  88
ENDBRANCH  80  83
ENDBRANCH  78  79
ENDBRANCH  77  78
ENDBRANCH  76  77
ENDBRANCH   1  76
TORSDOF 18
ENDMDL
