MODEL 1
REMARK VINA RESULT:      -9.6      0.000      0.000
REMARK SMILES C=CCC(=O)N[C@@](C)(CC)C(=O)NCCCCCCNC(=O)c1ccc(-c2c3nc(c(-c4c(F)cc(S(=O)(=O)[O-])cc4F)c4ccc([nH]4)c(-c4c(F)cc(S(=O)(=O)[O-])cc4F)c4nc(c(-c5c(F)cc(S(=O)(=O)[O-])cc5F)c5ccc2[nH]5)C=C4)C=C3)cc1
REMARK SMILES IDX 16 1 15 2 14 3 13 4 11 5 12 6 7 8 8 9 6 10 4 11 5 12 3 14
REMARK SMILES IDX 2 15 1 16 9 17 10 18 17 19 18 20 19 21 20 22 21 23 22 25
REMARK SMILES IDX 23 26 24 27 88 28 25 29 87 30 26 31 27 32 28 33 81 34 29 35
REMARK SMILES IDX 86 36 80 37 82 38 30 39 85 40 79 41 78 42 31 44 65 45 44 46
REMARK SMILES IDX 64 47 45 48 48 49 63 50 83 51 46 52 47 53 62 55 84 56 49 57
REMARK SMILES IDX 32 58 33 59 42 60 34 61 35 62 41 63 43 64 36 65 37 66 38 67
REMARK SMILES IDX 39 68 40 69 66 70 67 71 76 72 68 73 69 74 75 75 77 76 70 77
REMARK SMILES IDX 71 78 72 79 73 80 74 81 50 82 51 83 60 84 52 85 53 86 59 87
REMARK SMILES IDX 61 88 54 89 55 90 56 91 57 92 58 93
REMARK H PARENT 13 7 6 13 20 24 82 43 48 54
REMARK Flexibility Score: inf
ROOT
ATOM      1  C   UNL A   1      31.712  27.391  24.022  1.00  0.00     0.002 C 
ENDROOT
BRANCH   1   2
ATOM      2  C   UNL A   1      32.952  27.471  23.118  1.00  0.00     0.021 C 
BRANCH   2   3
ATOM      3  C   UNL A   1      33.454  26.112  22.621  1.00  0.00     0.116 C 
BRANCH   3   4
ATOM      4  N   UNL A   1      34.342  25.524  23.607  1.00  0.00    -0.354 N 
ATOM      5  C   UNL A   1      33.997  24.619  24.571  1.00  0.00     0.245 C 
ATOM      6  O   UNL A   1      34.243  24.937  25.737  1.00  0.00    -0.272 OA
ATOM      7  H   UNL A   1      35.285  25.804  23.578  1.00  0.00     0.163 HD
BRANCH   5   8
ATOM      8  C   UNL A   1      33.299  23.279  24.191  1.00  0.00     0.116 C 
ATOM      9  C   UNL A   1      33.373  22.989  22.678  1.00  0.00     0.045 C 
BRANCH   8  10
ATOM     10  N   UNL A   1      33.895  22.097  24.880  1.00  0.00    -0.342 N 
ATOM     11  C   UNL A   1      35.060  21.422  24.680  1.00  0.00     0.224 C 
ATOM     12  O   UNL A   1      35.040  20.203  24.886  1.00  0.00    -0.275 OA
ATOM     13  H   UNL A   1      33.344  21.740  25.614  1.00  0.00     0.164 HD
BRANCH  11  14
ATOM     14  C   UNL A   1      36.372  22.120  24.336  1.00  0.00     0.126 C 
BRANCH  14  15
ATOM     15  C   UNL A   1      37.209  22.517  25.514  1.00  0.00    -0.025 C 
ATOM     16  C   UNL A   1      37.585  23.780  25.762  1.00  0.00     0.004 C 
ENDBRANCH  14  15
ENDBRANCH  11  14
ENDBRANCH   8  10
BRANCH   8  17
ATOM     17  C   UNL A   1      31.805  23.357  24.623  1.00  0.00     0.035 C 
ATOM     18  C   UNL A   1      30.839  23.715  23.495  1.00  0.00     0.007 C 
ENDBRANCH   8  17
ENDBRANCH   5   8
ENDBRANCH   3   4
ENDBRANCH   2   3
ENDBRANCH   1   2
BRANCH   1  19
ATOM     19  C   UNL A   1      31.946  27.783  25.484  1.00  0.00     0.002 C 
BRANCH  19  20
ATOM     20  C   UNL A   1      33.318  28.395  25.772  1.00  0.00     0.021 C 
BRANCH  20  21
ATOM     21  C   UNL A   1      33.638  28.561  27.253  1.00  0.00     0.116 C 
BRANCH  21  22
ATOM     22  N   UNL A   1      33.615  29.955  27.669  1.00  0.00    -0.352 N 
ATOM     23  C   UNL A   1      34.607  30.680  28.281  1.00  0.00     0.251 C 
ATOM     24  H   UNL A   1      32.778  30.442  27.487  1.00  0.00     0.163 HD
ATOM     25  O   UNL A   1      34.378  31.799  28.729  1.00  0.00    -0.269 OA
BRANCH  23  26
ATOM     26  C   UNL A   1      35.949  30.078  28.423  1.00  0.00     0.039 A 
ATOM     27  C   UNL A   1      36.850  30.168  27.359  1.00  0.00     0.014 A 
ATOM     28  C   UNL A   1      36.330  29.482  29.629  1.00  0.00     0.014 A 
ATOM     29  C   UNL A   1      38.165  29.736  27.534  1.00  0.00     0.010 A 
ATOM     30  C   UNL A   1      37.658  29.109  29.822  1.00  0.00     0.010 A 
ATOM     31  C   UNL A   1      38.591  29.249  28.782  1.00  0.00    -0.014 A 
BRANCH  31  32
ATOM     32  C   UNL A   1      40.015  28.916  29.041  1.00  0.00     0.031 A 
ATOM     33  C   UNL A   1      40.954  29.974  29.548  1.00  0.00     0.074 A 
ATOM     34  C   UNL A   1      40.476  27.686  28.737  1.00  0.00     0.049 A 
ATOM     35  N   UNL A   1      42.251  29.917  29.706  1.00  0.00    -0.248 NA
ATOM     36  C   UNL A   1      40.361  31.274  29.905  1.00  0.00     0.031 C 
ATOM     37  C   UNL A   1      39.667  26.583  28.213  1.00  0.00     0.029 A 
ATOM     38  N   UNL A   1      41.742  27.159  28.809  1.00  0.00    -0.354 N 
ATOM     39  C   UNL A   1      42.630  31.169  30.179  1.00  0.00     0.074 A 
ATOM     40  C   UNL A   1      41.433  31.980  30.233  1.00  0.00     0.031 C 
ATOM     41  C   UNL A   1      40.452  25.511  28.020  1.00  0.00     0.029 A 
ATOM     42  C   UNL A   1      41.827  25.861  28.360  1.00  0.00     0.049 A 
ATOM     43  H   UNL A   1      42.516  27.662  29.149  1.00  0.00     0.167 HD
ATOM     44  C   UNL A   1      43.860  31.592  30.555  1.00  0.00     0.037 A 
ATOM     45  C   UNL A   1      42.895  25.053  28.215  1.00  0.00     0.037 A 
ATOM     46  C   UNL A   1      45.043  30.774  30.513  1.00  0.00     0.049 A 
ATOM     47  C   UNL A   1      44.260  25.570  28.584  1.00  0.00     0.074 A 
ATOM     48  C   UNL A   1      46.329  31.100  30.910  1.00  0.00     0.029 A 
ATOM     49  N   UNL A   1      45.089  29.468  30.047  1.00  0.00    -0.354 N 
ATOM     50  N   UNL A   1      44.592  26.741  29.073  1.00  0.00    -0.248 NA
ATOM     51  C   UNL A   1      45.397  24.662  28.373  1.00  0.00     0.031 C 
ATOM     52  C   UNL A   1      47.159  30.007  30.645  1.00  0.00     0.029 A 
ATOM     53  C   UNL A   1      46.385  28.985  30.122  1.00  0.00     0.049 A 
ATOM     54  H   UNL A   1      44.315  28.961  29.712  1.00  0.00     0.167 HD
ATOM     55  C   UNL A   1      45.971  26.702  29.248  1.00  0.00     0.074 A 
ATOM     56  C   UNL A   1      46.410  25.387  28.827  1.00  0.00     0.031 C 
ATOM     57  C   UNL A   1      46.802  27.669  29.708  1.00  0.00     0.037 A 
BRANCH  44  58
ATOM     58  C   UNL A   1      43.992  32.999  31.064  1.00  0.00     0.058 A 
ATOM     59  C   UNL A   1      44.295  34.062  30.199  1.00  0.00     0.135 A 
ATOM     60  C   UNL A   1      43.748  33.301  32.414  1.00  0.00     0.135 A 
ATOM     61  F   UNL A   1      44.553  33.826  28.903  1.00  0.00    -0.206 F 
ATOM     62  C   UNL A   1      44.364  35.374  30.656  1.00  0.00     0.059 A 
ATOM     63  C   UNL A   1      43.786  34.610  32.888  1.00  0.00     0.059 A 
ATOM     64  F   UNL A   1      43.456  32.321  33.284  1.00  0.00    -0.206 F 
ATOM     65  C   UNL A   1      44.103  35.638  32.002  1.00  0.00     0.060 A 
BRANCH  65  66
ATOM     66  S   UNL A   1      44.168  37.351  32.568  1.00  0.00     0.124 S 
ATOM     67  O   UNL A   1      43.164  37.346  33.626  1.00  0.00    -0.237 OA
ATOM     68  O   UNL A   1      45.554  37.480  33.009  1.00  0.00    -0.237 OA
ATOM     69  O   UNL A   1      43.819  38.117  31.376  1.00  0.00    -0.744 OA
ENDBRANCH  65  66
ENDBRANCH  44  58
BRANCH  45  70
ATOM     70  C   UNL A   1      42.732  23.673  27.682  1.00  0.00     0.058 A 
ATOM     71  C   UNL A   1      42.788  23.421  26.304  1.00  0.00     0.135 A 
ATOM     72  C   UNL A   1      42.489  22.585  28.536  1.00  0.00     0.135 A 
ATOM     73  F   UNL A   1      43.012  24.430  25.447  1.00  0.00    -0.206 F 
ATOM     74  C   UNL A   1      42.580  22.147  25.785  1.00  0.00     0.059 A 
ATOM     75  C   UNL A   1      42.303  21.297  28.043  1.00  0.00     0.059 A 
ATOM     76  F   UNL A   1      42.440  22.768  29.864  1.00  0.00    -0.206 F 
ATOM     77  C   UNL A   1      42.335  21.091  26.664  1.00  0.00     0.060 A 
BRANCH  77  78
ATOM     78  S   UNL A   1      42.077  19.438  25.986  1.00  0.00     0.124 S 
ATOM     79  O   UNL A   1      42.572  18.596  27.070  1.00  0.00    -0.237 OA
ATOM     80  O   UNL A   1      40.634  19.416  25.769  1.00  0.00    -0.237 OA
ATOM     81  O   UNL A   1      42.885  19.446  24.770  1.00  0.00    -0.744 OA
ENDBRANCH  77  78
ENDBRANCH  45  70
BRANCH  57  82
ATOM     82  C   UNL A   1      48.265  27.342  29.802  1.00  0.00     0.058 A 
ATOM     83  C   UNL A   1      49.149  27.643  28.753  1.00  0.00     0.135 A 
ATOM     84  C   UNL A   1      48.801  26.795  30.978  1.00  0.00     0.135 A 
ATOM     85  F   UNL A   1      48.684  28.157  27.604  1.00  0.00    -0.206 F 
ATOM     86  C   UNL A   1      50.514  27.405  28.866  1.00  0.00     0.059 A 
ATOM     87  C   UNL A   1      50.167  26.572  31.122  1.00  0.00     0.059 A 
ATOM     88  F   UNL A   1      47.999  26.496  32.011  1.00  0.00    -0.206 F 
ATOM     89  C   UNL A   1      51.015  26.877  30.058  1.00  0.00     0.060 A 
BRANCH  89  90
ATOM     90  S   UNL A   1      52.797  26.636  30.211  1.00  0.00     0.124 S 
ATOM     91  O   UNL A   1      52.867  25.605  31.242  1.00  0.00    -0.237 OA
ATOM     92  O   UNL A   1      53.172  26.213  28.866  1.00  0.00    -0.237 OA
ATOM     93  O   UNL A   1      53.286  27.954  30.606  1.00  0.00    -0.744 OA
ENDBRANCH  89  90
ENDBRANCH  57  82
ENDBRANCH  31  32
ENDBRANCH  23  26
ENDBRANCH  21  22
ENDBRANCH  20  21
ENDBRANCH  19  20
ENDBRANCH   1  19
TORSDOF 20
ENDMDL
MODEL 2
REMARK VINA RESULT:      -9.3      3.973     10.669
REMARK SMILES C=CCC(=O)N[C@@](C)(CC)C(=O)NCCCCCCNC(=O)c1ccc(-c2c3nc(c(-c4c(F)cc(S(=O)(=O)[O-])cc4F)c4ccc([nH]4)c(-c4c(F)cc(S(=O)(=O)[O-])cc4F)c4nc(c(-c5c(F)cc(S(=O)(=O)[O-])cc5F)c5ccc2[nH]5)C=C4)C=C3)cc1
REMARK SMILES IDX 16 1 15 2 14 3 13 4 11 5 12 6 7 8 8 9 6 10 4 11 5 12 3 14
REMARK SMILES IDX 2 15 1 16 9 17 10 18 17 19 18 20 19 21 20 22 21 23 22 25
REMARK SMILES IDX 23 26 24 27 88 28 25 29 87 30 26 31 27 32 28 33 81 34 29 35
REMARK SMILES IDX 86 36 80 37 82 38 30 39 85 40 79 41 78 42 31 44 65 45 44 46
REMARK SMILES IDX 64 47 45 48 48 49 63 50 83 51 46 52 47 53 62 55 84 56 49 57
REMARK SMILES IDX 32 58 33 59 42 60 34 61 35 62 41 63 43 64 36 65 37 66 38 67
REMARK SMILES IDX 39 68 40 69 66 70 67 71 76 72 68 73 69 74 75 75 77 76 70 77
REMARK SMILES IDX 71 78 72 79 73 80 74 81 50 82 51 83 60 84 52 85 53 86 59 87
REMARK SMILES IDX 61 88 54 89 55 90 56 91 57 92 58 93
REMARK H PARENT 13 7 6 13 20 24 82 43 48 54
REMARK Flexibility Score: inf
ROOT
ATOM      1  C   UNL A   1      42.066  22.825  28.725  1.00  0.00     0.002 C 
ENDROOT
BRANCH   1   2
ATOM      2  C   UNL A   1      43.491  23.262  29.098  1.00  0.00     0.021 C 
BRANCH   2   3
ATOM      3  C   UNL A   1      44.546  22.920  28.042  1.00  0.00     0.116 C 
BRANCH   3   4
ATOM      4  N   UNL A   1      45.569  23.949  28.015  1.00  0.00    -0.354 N 
ATOM      5  C   UNL A   1      46.299  24.338  26.928  1.00  0.00     0.245 C 
ATOM      6  O   UNL A   1      47.526  24.270  27.035  1.00  0.00    -0.272 OA
ATOM      7  H   UNL A   1      45.754  24.413  28.863  1.00  0.00     0.163 HD
BRANCH   5   8
ATOM      8  C   UNL A   1      45.591  24.807  25.621  1.00  0.00     0.116 C 
ATOM      9  C   UNL A   1      44.086  25.071  25.833  1.00  0.00     0.045 C 
BRANCH   8  10
ATOM     10  N   UNL A   1      46.169  26.066  25.065  1.00  0.00    -0.342 N 
ATOM     11  C   UNL A   1      45.885  27.377  25.301  1.00  0.00     0.224 C 
ATOM     12  O   UNL A   1      45.996  28.151  24.345  1.00  0.00    -0.275 OA
ATOM     13  H   UNL A   1      46.888  25.922  24.408  1.00  0.00     0.164 HD
BRANCH  11  14
ATOM     14  C   UNL A   1      45.561  27.916  26.691  1.00  0.00     0.126 C 
BRANCH  14  15
ATOM     15  C   UNL A   1      44.949  29.283  26.716  1.00  0.00    -0.025 C 
ATOM     16  C   UNL A   1      44.681  29.952  27.847  1.00  0.00     0.004 C 
ENDBRANCH  14  15
ENDBRANCH  11  14
ENDBRANCH   8  10
BRANCH   8  17
ATOM     17  C   UNL A   1      45.768  23.704  24.537  1.00  0.00     0.035 C 
ATOM     18  C   UNL A   1      44.512  22.879  24.263  1.00  0.00     0.007 C 
ENDBRANCH   8  17
ENDBRANCH   5   8
ENDBRANCH   3   4
ENDBRANCH   2   3
ENDBRANCH   1   2
BRANCH   1  19
ATOM     19  C   UNL A   1      41.956  21.436  28.090  1.00  0.00     0.002 C 
BRANCH  19  20
ATOM     20  C   UNL A   1      40.689  21.207  27.265  1.00  0.00     0.021 C 
BRANCH  20  21
ATOM     21  C   UNL A   1      40.635  21.988  25.957  1.00  0.00     0.116 C 
BRANCH  21  22
ATOM     22  N   UNL A   1      39.278  22.371  25.600  1.00  0.00    -0.352 N 
ATOM     23  C   UNL A   1      38.555  23.456  26.033  1.00  0.00     0.251 C 
ATOM     24  H   UNL A   1      38.817  21.775  24.966  1.00  0.00     0.163 HD
ATOM     25  O   UNL A   1      37.359  23.552  25.778  1.00  0.00    -0.269 OA
BRANCH  23  26
ATOM     26  C   UNL A   1      39.234  24.492  26.839  1.00  0.00     0.039 A 
ATOM     27  C   UNL A   1      40.102  25.384  26.205  1.00  0.00     0.014 A 
ATOM     28  C   UNL A   1      38.961  24.614  28.204  1.00  0.00     0.014 A 
ATOM     29  C   UNL A   1      40.632  26.456  26.927  1.00  0.00     0.010 A 
ATOM     30  C   UNL A   1      39.440  25.717  28.905  1.00  0.00     0.010 A 
ATOM     31  C   UNL A   1      40.266  26.657  28.269  1.00  0.00    -0.014 A 
BRANCH  31  32
ATOM     32  C   UNL A   1      40.698  27.864  29.018  1.00  0.00     0.031 A 
ATOM     33  C   UNL A   1      42.029  27.880  29.714  1.00  0.00     0.074 A 
ATOM     34  C   UNL A   1      39.853  28.908  29.141  1.00  0.00     0.049 A 
ATOM     35  N   UNL A   1      42.525  28.780  30.524  1.00  0.00    -0.248 NA
ATOM     36  C   UNL A   1      42.912  26.724  29.487  1.00  0.00     0.031 C 
ATOM     37  C   UNL A   1      38.522  28.998  28.534  1.00  0.00     0.029 A 
ATOM     38  N   UNL A   1      39.979  30.088  29.831  1.00  0.00    -0.354 N 
ATOM     39  C   UNL A   1      43.774  28.301  30.904  1.00  0.00     0.074 A 
ATOM     40  C   UNL A   1      43.939  27.008  30.276  1.00  0.00     0.031 C 
ATOM     41  C   UNL A   1      37.961  30.171  28.870  1.00  0.00     0.029 A 
ATOM     42  C   UNL A   1      38.868  30.896  29.753  1.00  0.00     0.049 A 
ATOM     43  H   UNL A   1      40.788  30.334  30.335  1.00  0.00     0.167 HD
ATOM     44  C   UNL A   1      44.705  28.897  31.684  1.00  0.00     0.037 A 
ATOM     45  C   UNL A   1      38.600  32.076  30.346  1.00  0.00     0.037 A 
ATOM     46  C   UNL A   1      44.540  30.191  32.293  1.00  0.00     0.049 A 
ATOM     47  C   UNL A   1      39.629  32.688  31.259  1.00  0.00     0.074 A 
ATOM     48  C   UNL A   1      45.442  30.898  33.069  1.00  0.00     0.029 A 
ATOM     49  N   UNL A   1      43.399  30.974  32.195  1.00  0.00    -0.354 N 
ATOM     50  N   UNL A   1      40.824  32.242  31.568  1.00  0.00    -0.248 NA
ATOM     51  C   UNL A   1      39.274  33.957  31.910  1.00  0.00     0.031 C 
ATOM     52  C   UNL A   1      44.832  32.088  33.475  1.00  0.00     0.029 A 
ATOM     53  C   UNL A   1      43.565  32.143  32.918  1.00  0.00     0.049 A 
ATOM     54  H   UNL A   1      42.591  30.733  31.687  1.00  0.00     0.167 HD
ATOM     55  C   UNL A   1      41.368  33.185  32.432  1.00  0.00     0.074 A 
ATOM     56  C   UNL A   1      40.381  34.234  32.584  1.00  0.00     0.031 C 
ATOM     57  C   UNL A   1      42.575  33.182  33.050  1.00  0.00     0.037 A 
BRANCH  44  58
ATOM     58  C   UNL A   1      45.998  28.168  31.914  1.00  0.00     0.058 A 
ATOM     59  C   UNL A   1      46.147  27.267  32.980  1.00  0.00     0.135 A 
ATOM     60  C   UNL A   1      47.076  28.318  31.027  1.00  0.00     0.135 A 
ATOM     61  F   UNL A   1      45.154  27.099  33.867  1.00  0.00    -0.206 F 
ATOM     62  C   UNL A   1      47.323  26.548  33.165  1.00  0.00     0.059 A 
ATOM     63  C   UNL A   1      48.253  27.590  31.178  1.00  0.00     0.059 A 
ATOM     64  F   UNL A   1      46.987  29.169  29.992  1.00  0.00    -0.206 F 
ATOM     65  C   UNL A   1      48.370  26.714  32.256  1.00  0.00     0.060 A 
BRANCH  65  66
ATOM     66  S   UNL A   1      49.877  25.750  32.497  1.00  0.00     0.124 S 
ATOM     67  O   UNL A   1      50.600  26.576  33.457  1.00  0.00    -0.237 OA
ATOM     68  O   UNL A   1      49.359  24.486  33.011  1.00  0.00    -0.237 OA
ATOM     69  O   UNL A   1      50.458  25.688  31.160  1.00  0.00    -0.744 OA
ENDBRANCH  65  66
ENDBRANCH  44  58
BRANCH  45  70
ATOM     70  C   UNL A   1      37.297  32.757  30.117  1.00  0.00     0.058 A 
ATOM     71  C   UNL A   1      37.158  33.730  29.116  1.00  0.00     0.135 A 
ATOM     72  C   UNL A   1      36.174  32.471  30.909  1.00  0.00     0.135 A 
ATOM     73  F   UNL A   1      38.205  34.043  28.336  1.00  0.00    -0.206 F 
ATOM     74  C   UNL A   1      35.964  34.418  28.927  1.00  0.00     0.059 A 
ATOM     75  C   UNL A   1      34.961  33.127  30.723  1.00  0.00     0.059 A 
ATOM     76  F   UNL A   1      36.247  31.538  31.871  1.00  0.00    -0.206 F 
ATOM     77  C   UNL A   1      34.871  34.111  29.738  1.00  0.00     0.060 A 
BRANCH  77  78
ATOM     78  S   UNL A   1      33.320  34.999  29.480  1.00  0.00     0.124 S 
ATOM     79  O   UNL A   1      33.786  36.216  28.825  1.00  0.00    -0.237 OA
ATOM     80  O   UNL A   1      32.570  34.069  28.642  1.00  0.00    -0.237 OA
ATOM     81  O   UNL A   1      32.802  35.167  30.835  1.00  0.00    -0.744 OA
ENDBRANCH  77  78
ENDBRANCH  45  70
BRANCH  57  82
ATOM     82  C   UNL A   1      42.907  34.351  33.933  1.00  0.00     0.058 A 
ATOM     83  C   UNL A   1      42.601  34.343  35.303  1.00  0.00     0.135 A 
ATOM     84  C   UNL A   1      43.605  35.457  33.421  1.00  0.00     0.135 A 
ATOM     85  F   UNL A   1      41.925  33.315  35.838  1.00  0.00    -0.206 F 
ATOM     86  C   UNL A   1      42.970  35.395  36.134  1.00  0.00     0.059 A 
ATOM     87  C   UNL A   1      44.008  36.507  34.239  1.00  0.00     0.059 A 
ATOM     88  F   UNL A   1      43.927  35.509  32.119  1.00  0.00    -0.206 F 
ATOM     89  C   UNL A   1      43.681  36.469  35.594  1.00  0.00     0.060 A 
BRANCH  89  90
ATOM     90  S   UNL A   1      44.210  37.794  36.699  1.00  0.00     0.124 S 
ATOM     91  O   UNL A   1      43.247  37.672  37.789  1.00  0.00    -0.237 OA
ATOM     92  O   UNL A   1      45.580  37.406  37.018  1.00  0.00    -0.237 OA
ATOM     93  O   UNL A   1      44.081  38.995  35.878  1.00  0.00    -0.744 OA
ENDBRANCH  89  90
ENDBRANCH  57  82
ENDBRANCH  31  32
ENDBRANCH  23  26
ENDBRANCH  21  22
ENDBRANCH  20  21
ENDBRANCH  19  20
ENDBRANCH   1  19
TORSDOF 20
ENDMDL
MODEL 3
REMARK VINA RESULT:      -9.2      5.215     10.235
REMARK SMILES C=CCC(=O)N[C@@](C)(CC)C(=O)NCCCCCCNC(=O)c1ccc(-c2c3nc(c(-c4c(F)cc(S(=O)(=O)[O-])cc4F)c4ccc([nH]4)c(-c4c(F)cc(S(=O)(=O)[O-])cc4F)c4nc(c(-c5c(F)cc(S(=O)(=O)[O-])cc5F)c5ccc2[nH]5)C=C4)C=C3)cc1
REMARK SMILES IDX 16 1 15 2 14 3 13 4 11 5 12 6 7 8 8 9 6 10 4 11 5 12 3 14
REMARK SMILES IDX 2 15 1 16 9 17 10 18 17 19 18 20 19 21 20 22 21 23 22 25
REMARK SMILES IDX 23 26 24 27 88 28 25 29 87 30 26 31 27 32 28 33 81 34 29 35
REMARK SMILES IDX 86 36 80 37 82 38 30 39 85 40 79 41 78 42 31 44 65 45 44 46
REMARK SMILES IDX 64 47 45 48 48 49 63 50 83 51 46 52 47 53 62 55 84 56 49 57
REMARK SMILES IDX 32 58 33 59 42 60 34 61 35 62 41 63 43 64 36 65 37 66 38 67
REMARK SMILES IDX 39 68 40 69 66 70 67 71 76 72 68 73 69 74 75 75 77 76 70 77
REMARK SMILES IDX 71 78 72 79 73 80 74 81 50 82 51 83 60 84 52 85 53 86 59 87
REMARK SMILES IDX 61 88 54 89 55 90 56 91 57 92 58 93
REMARK H PARENT 13 7 6 13 20 24 82 43 48 54
REMARK Flexibility Score: inf
ROOT
ATOM      1  C   UNL A   1      39.992  22.668  27.386  1.00  0.00     0.002 C 
ENDROOT
BRANCH   1   2
ATOM      2  C   UNL A   1      39.300  22.126  26.126  1.00  0.00     0.021 C 
BRANCH   2   3
ATOM      3  C   UNL A   1      37.973  22.816  25.796  1.00  0.00     0.116 C 
BRANCH   3   4
ATOM      4  N   UNL A   1      36.868  21.916  26.071  1.00  0.00    -0.354 N 
ATOM      5  C   UNL A   1      35.539  22.232  26.040  1.00  0.00     0.245 C 
ATOM      6  O   UNL A   1      34.899  22.021  27.073  1.00  0.00    -0.272 OA
ATOM      7  H   UNL A   1      37.098  20.987  26.302  1.00  0.00     0.163 HD
BRANCH   5   8
ATOM      8  C   UNL A   1      34.899  22.857  24.763  1.00  0.00     0.116 C 
ATOM      9  C   UNL A   1      35.752  22.612  23.502  1.00  0.00     0.045 C 
BRANCH   8  10
ATOM     10  N   UNL A   1      33.540  22.316  24.469  1.00  0.00    -0.342 N 
ATOM     11  C   UNL A   1      33.120  21.082  24.075  1.00  0.00     0.224 C 
ATOM     12  O   UNL A   1      32.145  21.041  23.318  1.00  0.00    -0.275 OA
ATOM     13  H   UNL A   1      32.814  22.971  24.580  1.00  0.00     0.164 HD
BRANCH  11  14
ATOM     14  C   UNL A   1      33.723  19.790  24.620  1.00  0.00     0.126 C 
BRANCH  14  15
ATOM     15  C   UNL A   1      33.029  18.534  24.190  1.00  0.00    -0.025 C 
ATOM     16  C   UNL A   1      32.526  17.636  25.049  1.00  0.00     0.004 C 
ENDBRANCH  14  15
ENDBRANCH  11  14
ENDBRANCH   8  10
BRANCH   8  17
ATOM     17  C   UNL A   1      34.745  24.390  24.985  1.00  0.00     0.035 C 
ATOM     18  C   UNL A   1      33.418  24.808  25.615  1.00  0.00     0.007 C 
ENDBRANCH   8  17
ENDBRANCH   5   8
ENDBRANCH   3   4
ENDBRANCH   2   3
ENDBRANCH   1   2
BRANCH   1  19
ATOM     19  C   UNL A   1      41.276  21.936  27.789  1.00  0.00     0.002 C 
BRANCH  19  20
ATOM     20  C   UNL A   1      42.466  22.169  26.856  1.00  0.00     0.021 C 
BRANCH  20  21
ATOM     21  C   UNL A   1      43.084  23.559  26.954  1.00  0.00     0.116 C 
BRANCH  21  22
ATOM     22  N   UNL A   1      42.622  24.442  25.894  1.00  0.00    -0.352 N 
ATOM     23  C   UNL A   1      41.991  25.657  26.010  1.00  0.00     0.251 C 
ATOM     24  H   UNL A   1      42.783  24.129  24.975  1.00  0.00     0.163 HD
ATOM     25  O   UNL A   1      41.505  26.205  25.025  1.00  0.00    -0.269 OA
BRANCH  23  26
ATOM     26  C   UNL A   1      41.877  26.279  27.345  1.00  0.00     0.039 A 
ATOM     27  C   UNL A   1      42.807  27.251  27.723  1.00  0.00     0.014 A 
ATOM     28  C   UNL A   1      40.815  25.944  28.191  1.00  0.00     0.014 A 
ATOM     29  C   UNL A   1      42.623  27.949  28.917  1.00  0.00     0.010 A 
ATOM     30  C   UNL A   1      40.599  26.684  29.349  1.00  0.00     0.010 A 
ATOM     31  C   UNL A   1      41.491  27.705  29.715  1.00  0.00    -0.014 A 
BRANCH  31  32
ATOM     32  C   UNL A   1      41.193  28.529  30.913  1.00  0.00     0.031 A 
ATOM     33  C   UNL A   1      40.103  29.563  30.864  1.00  0.00     0.074 A 
ATOM     34  C   UNL A   1      41.962  28.403  32.014  1.00  0.00     0.049 A 
ATOM     35  N   UNL A   1      39.783  30.466  31.753  1.00  0.00    -0.248 NA
ATOM     36  C   UNL A   1      39.277  29.600  29.645  1.00  0.00     0.031 C 
ATOM     37  C   UNL A   1      43.067  27.454  32.173  1.00  0.00     0.029 A 
ATOM     38  N   UNL A   1      41.943  29.087  33.205  1.00  0.00    -0.354 N 
ATOM     39  C   UNL A   1      38.723  31.178  31.205  1.00  0.00     0.074 A 
ATOM     40  C   UNL A   1      38.487  30.636  29.885  1.00  0.00     0.031 C 
ATOM     41  C   UNL A   1      43.612  27.610  33.390  1.00  0.00     0.029 A 
ATOM     42  C   UNL A   1      42.930  28.699  34.081  1.00  0.00     0.049 A 
ATOM     43  H   UNL A   1      41.286  29.790  33.412  1.00  0.00     0.167 HD
ATOM     44  C   UNL A   1      37.998  32.177  31.764  1.00  0.00     0.037 A 
ATOM     45  C   UNL A   1      43.264  29.181  35.294  1.00  0.00     0.037 A 
ATOM     46  C   UNL A   1      38.229  32.701  33.084  1.00  0.00     0.049 A 
ATOM     47  C   UNL A   1      42.481  30.333  35.865  1.00  0.00     0.074 A 
ATOM     48  C   UNL A   1      37.523  33.686  33.753  1.00  0.00     0.029 A 
ATOM     49  N   UNL A   1      39.241  32.286  33.937  1.00  0.00    -0.354 N 
ATOM     50  N   UNL A   1      41.450  30.963  35.351  1.00  0.00    -0.248 NA
ATOM     51  C   UNL A   1      42.907  30.847  37.175  1.00  0.00     0.031 C 
ATOM     52  C   UNL A   1      38.134  33.895  34.993  1.00  0.00     0.029 A 
ATOM     53  C   UNL A   1      39.194  33.012  35.115  1.00  0.00     0.049 A 
ATOM     54  H   UNL A   1      39.896  31.579  33.734  1.00  0.00     0.167 HD
ATOM     55  C   UNL A   1      41.095  31.931  36.284  1.00  0.00     0.074 A 
ATOM     56  C   UNL A   1      42.008  31.795  37.399  1.00  0.00     0.031 C 
ATOM     57  C   UNL A   1      40.106  32.856  36.220  1.00  0.00     0.037 A 
BRANCH  44  58
ATOM     58  C   UNL A   1      36.873  32.761  30.959  1.00  0.00     0.058 A 
ATOM     59  C   UNL A   1      35.536  32.414  31.215  1.00  0.00     0.135 A 
ATOM     60  C   UNL A   1      37.121  33.725  29.968  1.00  0.00     0.135 A 
ATOM     61  F   UNL A   1      35.245  31.486  32.140  1.00  0.00    -0.206 F 
ATOM     62  C   UNL A   1      34.487  32.994  30.510  1.00  0.00     0.059 A 
ATOM     63  C   UNL A   1      36.085  34.336  29.268  1.00  0.00     0.059 A 
ATOM     64  F   UNL A   1      38.381  34.091  29.682  1.00  0.00    -0.206 F 
ATOM     65  C   UNL A   1      34.772  33.958  29.540  1.00  0.00     0.060 A 
BRANCH  65  66
ATOM     66  S   UNL A   1      33.394  34.719  28.657  1.00  0.00     0.124 S 
ATOM     67  O   UNL A   1      32.451  34.963  29.743  1.00  0.00    -0.237 OA
ATOM     68  O   UNL A   1      34.014  35.906  28.077  1.00  0.00    -0.237 OA
ATOM     69  O   UNL A   1      32.995  33.693  27.699  1.00  0.00    -0.744 OA
ENDBRANCH  65  66
ENDBRANCH  44  58
BRANCH  45  70
ATOM     70  C   UNL A   1      44.403  28.596  36.052  1.00  0.00     0.058 A 
ATOM     71  C   UNL A   1      45.706  29.088  35.891  1.00  0.00     0.135 A 
ATOM     72  C   UNL A   1      44.217  27.517  36.932  1.00  0.00     0.135 A 
ATOM     73  F   UNL A   1      45.936  30.114  35.057  1.00  0.00    -0.206 F 
ATOM     74  C   UNL A   1      46.790  28.515  36.549  1.00  0.00     0.059 A 
ATOM     75  C   UNL A   1      45.281  26.943  37.621  1.00  0.00     0.059 A 
ATOM     76  F   UNL A   1      42.988  27.017  37.135  1.00  0.00    -0.206 F 
ATOM     77  C   UNL A   1      46.567  27.440  37.410  1.00  0.00     0.060 A 
BRANCH  77  78
ATOM     78  S   UNL A   1      47.976  26.708  38.269  1.00  0.00     0.124 S 
ATOM     79  O   UNL A   1      47.669  25.285  38.174  1.00  0.00    -0.237 OA
ATOM     80  O   UNL A   1      49.101  27.174  37.466  1.00  0.00    -0.237 OA
ATOM     81  O   UNL A   1      47.888  27.286  39.607  1.00  0.00    -0.744 OA
ENDBRANCH  77  78
ENDBRANCH  45  70
BRANCH  57  82
ATOM     82  C   UNL A   1      39.942  33.781  37.392  1.00  0.00     0.058 A 
ATOM     83  C   UNL A   1      40.563  35.040  37.421  1.00  0.00     0.135 A 
ATOM     84  C   UNL A   1      39.098  33.439  38.460  1.00  0.00     0.135 A 
ATOM     85  F   UNL A   1      41.388  35.410  36.429  1.00  0.00    -0.206 F 
ATOM     86  C   UNL A   1      40.357  35.925  38.473  1.00  0.00     0.059 A 
ATOM     87  C   UNL A   1      38.857  34.319  39.510  1.00  0.00     0.059 A 
ATOM     88  F   UNL A   1      38.477  32.249  38.477  1.00  0.00    -0.206 F 
ATOM     89  C   UNL A   1      39.495  35.559  39.509  1.00  0.00     0.060 A 
BRANCH  89  90
ATOM     90  S   UNL A   1      39.187  36.746  40.834  1.00  0.00     0.124 S 
ATOM     91  O   UNL A   1      38.464  37.797  40.126  1.00  0.00    -0.237 OA
ATOM     92  O   UNL A   1      38.398  35.961  41.778  1.00  0.00    -0.237 OA
ATOM     93  O   UNL A   1      40.527  37.102  41.290  1.00  0.00    -0.744 OA
ENDBRANCH  89  90
ENDBRANCH  57  82
ENDBRANCH  31  32
ENDBRANCH  23  26
ENDBRANCH  21  22
ENDBRANCH  20  21
ENDBRANCH  19  20
ENDBRANCH   1  19
TORSDOF 20
ENDMDL
