MODEL 1
REMARK VINA RESULT:     -12.1      0.000      0.000
REMARK SMILES CCn1ncc(Br)c1C(=O)N[C@H]1C(=O)N2C(C(=O)NCCCCCCNC(=O)c3ccc(-c4c5nc(c(-c6c(F)cc(S(=O)(=O)[O-])cc6F)c6ccc([nH]6)c(-c6c(F)cc(S(=O)(=O)[O-])cc6F)c6nc(c(-c7c(F)cc(S(=O)(=O)[O-])cc7F)c7ccc4[nH]7)C=C6)C=C5)cc3)=C(C)CS[C@H]12
REMARK SMILES IDX 22 1 21 2 20 3 19 4 17 5 18 6 16 8 12 9 13 10 99 11 14 12
REMARK SMILES IDX 15 13 98 14 97 15 95 16 96 17 11 18 9 19 10 20 8 22 3 23
REMARK SMILES IDX 4 24 5 25 6 26 7 27 2 28 1 29 23 30 24 31 25 32 26 33 27 34
REMARK SMILES IDX 28 36 29 37 30 38 94 39 31 40 93 41 32 42 33 43 34 44 87 45
REMARK SMILES IDX 35 46 92 47 86 48 88 49 36 50 91 51 85 52 84 53 37 55 71 56
REMARK SMILES IDX 50 57 70 58 51 59 54 60 69 61 89 62 52 63 53 64 68 66 90 67
REMARK SMILES IDX 55 68 38 69 39 70 48 71 40 72 41 73 47 74 49 75 42 76 43 77
REMARK SMILES IDX 44 78 45 79 46 80 72 81 73 82 82 83 74 84 75 85 81 86 83 87
REMARK SMILES IDX 76 88 77 89 78 90 79 91 80 92 56 93 57 94 66 95 58 96 59 97
REMARK SMILES IDX 65 98 67 99 60 100 61 101 62 102 63 103 64 104
REMARK H PARENT 19 7 11 21 26 35 88 54 54 65
REMARK Flexibility Score: inf
ROOT
ATOM      1  C   UNL A   1      38.740  21.692  25.719  1.00  0.00     0.002 C 
ENDROOT
BRANCH   1   2
ATOM      2  C   UNL A   1      37.831  20.629  25.082  1.00  0.00     0.021 C 
BRANCH   2   3
ATOM      3  C   UNL A   1      36.407  21.014  24.681  1.00  0.00     0.116 C 
BRANCH   3   4
ATOM      4  N   UNL A   1      36.164  22.314  24.083  1.00  0.00    -0.351 N 
ATOM      5  C   UNL A   1      35.118  23.190  24.285  1.00  0.00     0.268 C 
ATOM      6  O   UNL A   1      35.265  24.357  23.916  1.00  0.00    -0.268 OA
ATOM      7  H   UNL A   1      36.844  22.614  23.439  1.00  0.00     0.163 HD
BRANCH   5   8
ATOM      8  C   UNL A   1      33.788  22.788  24.925  1.00  0.00     0.110 C 
ATOM      9  C   UNL A   1      31.040  24.126  23.499  1.00  0.00     0.206 C 
ATOM     10  C   UNL A   1      31.778  22.841  23.253  1.00  0.00     0.253 C 
ATOM     11  C   UNL A   1      31.733  24.077  24.881  1.00  0.00     0.181 C 
ATOM     12  O   UNL A   1      31.524  22.070  22.382  1.00  0.00    -0.272 OA
ATOM     13  N   UNL A   1      32.649  23.139  24.250  1.00  0.00    -0.290 N 
ATOM     14  S   UNL A   1      30.828  23.119  26.165  1.00  0.00    -0.129 SA
ATOM     15  C   UNL A   1      32.261  22.181  26.796  1.00  0.00     0.104 C 
ATOM     16  C   UNL A   1      33.605  22.643  26.262  1.00  0.00    -0.034 C 
ATOM     17  C   UNL A   1      34.597  22.954  27.340  1.00  0.00     0.043 C 
BRANCH   9  18
ATOM     18  N   UNL A   1      31.460  25.136  22.465  1.00  0.00    -0.336 N 
ATOM     19  C   UNL A   1      32.318  26.207  22.774  1.00  0.00     0.271 C 
ATOM     20  O   UNL A   1      33.391  26.151  22.157  1.00  0.00    -0.267 OA
ATOM     21  H   UNL A   1      31.124  25.044  21.544  1.00  0.00     0.164 HD
BRANCH  19  22
ATOM     22  C   UNL A   1      31.846  27.481  23.349  1.00  0.00     0.140 A 
ATOM     23  N   UNL A   1      30.802  28.425  23.129  1.00  0.00    -0.259 N 
ATOM     24  N   UNL A   1      30.656  29.244  24.235  1.00  0.00    -0.180 NA
ATOM     25  C   UNL A   1      31.581  28.890  25.098  1.00  0.00     0.151 A 
ATOM     26  C   UNL A   1      32.324  27.834  24.618  1.00  0.00     0.069 A 
ATOM     27  Br  UNL A   1      33.652  27.035  25.689  1.00  0.00    -0.047 Br
BRANCH  23  28
ATOM     28  C   UNL A   1      29.908  28.989  22.117  1.00  0.00     0.142 C 
ATOM     29  C   UNL A   1      29.328  30.342  21.701  1.00  0.00     0.029 C 
ENDBRANCH  23  28
ENDBRANCH  19  22
ENDBRANCH   9  18
ENDBRANCH   5   8
ENDBRANCH   3   4
ENDBRANCH   2   3
ENDBRANCH   1   2
BRANCH   1  30
ATOM     30  C   UNL A   1      39.992  21.259  26.503  1.00  0.00     0.002 C 
BRANCH  30  31
ATOM     31  C   UNL A   1      40.701  19.949  26.126  1.00  0.00     0.021 C 
BRANCH  31  32
ATOM     32  C   UNL A   1      42.019  19.675  26.838  1.00  0.00     0.116 C 
BRANCH  32  33
ATOM     33  N   UNL A   1      43.173  19.533  25.945  1.00  0.00    -0.352 N 
ATOM     34  C   UNL A   1      43.832  20.526  25.231  1.00  0.00     0.251 C 
ATOM     35  H   UNL A   1      43.525  18.620  25.837  1.00  0.00     0.163 HD
ATOM     36  O   UNL A   1      44.508  20.239  24.248  1.00  0.00    -0.269 OA
BRANCH  34  37
ATOM     37  C   UNL A   1      43.735  21.931  25.685  1.00  0.00     0.039 A 
ATOM     38  C   UNL A   1      42.920  22.883  25.059  1.00  0.00     0.014 A 
ATOM     39  C   UNL A   1      44.512  22.297  26.778  1.00  0.00     0.014 A 
ATOM     40  C   UNL A   1      42.872  24.180  25.581  1.00  0.00     0.010 A 
ATOM     41  C   UNL A   1      44.298  23.487  27.413  1.00  0.00     0.010 A 
ATOM     42  C   UNL A   1      43.569  24.469  26.765  1.00  0.00    -0.014 A 
BRANCH  42  43
ATOM     43  C   UNL A   1      43.421  25.725  27.492  1.00  0.00     0.031 A 
ATOM     44  C   UNL A   1      44.480  26.695  27.115  1.00  0.00     0.074 A 
ATOM     45  C   UNL A   1      42.287  26.050  28.163  1.00  0.00     0.049 A 
ATOM     46  N   UNL A   1      45.525  27.020  27.802  1.00  0.00    -0.248 NA
ATOM     47  C   UNL A   1      44.542  27.152  25.711  1.00  0.00     0.031 C 
ATOM     48  C   UNL A   1      41.066  25.244  28.303  1.00  0.00     0.029 A 
ATOM     49  N   UNL A   1      41.929  27.217  28.776  1.00  0.00    -0.354 N 
ATOM     50  C   UNL A   1      46.160  27.995  27.040  1.00  0.00     0.074 A 
ATOM     51  C   UNL A   1      45.723  27.773  25.691  1.00  0.00     0.031 C 
ATOM     52  C   UNL A   1      40.049  26.016  28.750  1.00  0.00     0.029 A 
ATOM     53  C   UNL A   1      40.560  27.337  29.064  1.00  0.00     0.049 A 
ATOM     54  H   UNL A   1      42.581  27.920  28.999  1.00  0.00     0.167 HD
ATOM     55  C   UNL A   1      46.632  29.126  27.637  1.00  0.00     0.037 A 
ATOM     56  C   UNL A   1      39.908  28.454  29.507  1.00  0.00     0.037 A 
ATOM     57  C   UNL A   1      46.719  28.932  29.070  1.00  0.00     0.049 A 
ATOM     58  C   UNL A   1      40.946  29.356  30.072  1.00  0.00     0.074 A 
ATOM     59  C   UNL A   1      47.318  28.003  29.901  1.00  0.00     0.029 A 
ATOM     60  N   UNL A   1      45.763  29.556  29.835  1.00  0.00    -0.354 N 
ATOM     61  N   UNL A   1      41.638  29.071  31.141  1.00  0.00    -0.248 NA
ATOM     62  C   UNL A   1      41.565  30.303  29.159  1.00  0.00     0.031 C 
ATOM     63  C   UNL A   1      46.383  27.793  30.959  1.00  0.00     0.029 A 
ATOM     64  C   UNL A   1      45.319  28.677  30.785  1.00  0.00     0.049 A 
ATOM     65  H   UNL A   1      45.450  30.481  29.718  1.00  0.00     0.167 HD
ATOM     66  C   UNL A   1      42.941  29.413  30.813  1.00  0.00     0.074 A 
ATOM     67  C   UNL A   1      42.824  30.227  29.600  1.00  0.00     0.031 C 
ATOM     68  C   UNL A   1      43.997  28.746  31.367  1.00  0.00     0.037 A 
BRANCH  55  69
ATOM     69  C   UNL A   1      46.545  30.520  27.029  1.00  0.00     0.058 A 
ATOM     70  C   UNL A   1      47.694  31.339  27.076  1.00  0.00     0.135 A 
ATOM     71  C   UNL A   1      45.350  31.191  26.678  1.00  0.00     0.135 A 
ATOM     72  F   UNL A   1      48.892  30.818  27.385  1.00  0.00    -0.206 F 
ATOM     73  C   UNL A   1      47.642  32.722  26.896  1.00  0.00     0.059 A 
ATOM     74  C   UNL A   1      45.285  32.559  26.447  1.00  0.00     0.059 A 
ATOM     75  F   UNL A   1      44.159  30.588  26.613  1.00  0.00    -0.206 F 
ATOM     76  C   UNL A   1      46.427  33.323  26.594  1.00  0.00     0.060 A 
BRANCH  76  77
ATOM     77  S   UNL A   1      46.340  35.110  26.409  1.00  0.00     0.124 S 
ATOM     78  O   UNL A   1      46.814  35.560  27.712  1.00  0.00    -0.237 OA
ATOM     79  O   UNL A   1      47.239  35.335  25.282  1.00  0.00    -0.237 OA
ATOM     80  O   UNL A   1      44.926  35.349  26.131  1.00  0.00    -0.744 OA
ENDBRANCH  76  77
ENDBRANCH  55  69
BRANCH  56  81
ATOM     81  C   UNL A   1      38.537  28.957  29.175  1.00  0.00     0.058 A 
ATOM     82  C   UNL A   1      37.583  29.230  30.181  1.00  0.00     0.135 A 
ATOM     83  C   UNL A   1      38.239  29.479  27.902  1.00  0.00     0.135 A 
ATOM     84  F   UNL A   1      37.780  28.790  31.434  1.00  0.00    -0.206 F 
ATOM     85  C   UNL A   1      36.445  30.020  29.952  1.00  0.00     0.059 A 
ATOM     86  C   UNL A   1      37.110  30.261  27.649  1.00  0.00     0.059 A 
ATOM     87  F   UNL A   1      39.092  29.325  26.878  1.00  0.00    -0.206 F 
ATOM     88  C   UNL A   1      36.231  30.554  28.683  1.00  0.00     0.060 A 
BRANCH  88  89
ATOM     89  S   UNL A   1      34.881  31.735  28.413  1.00  0.00     0.124 S 
ATOM     90  O   UNL A   1      34.516  32.099  29.778  1.00  0.00    -0.237 OA
ATOM     91  O   UNL A   1      35.532  32.779  27.629  1.00  0.00    -0.237 OA
ATOM     92  O   UNL A   1      33.886  30.949  27.690  1.00  0.00    -0.744 OA
ENDBRANCH  88  89
ENDBRANCH  56  81
BRANCH  68  93
ATOM     93  C   UNL A   1      43.744  27.891  32.583  1.00  0.00     0.058 A 
ATOM     94  C   UNL A   1      43.648  26.486  32.592  1.00  0.00     0.135 A 
ATOM     95  C   UNL A   1      43.709  28.539  33.825  1.00  0.00     0.135 A 
ATOM     96  F   UNL A   1      43.783  25.778  31.461  1.00  0.00    -0.206 F 
ATOM     97  C   UNL A   1      43.462  25.770  33.778  1.00  0.00     0.059 A 
ATOM     98  C   UNL A   1      43.561  27.846  35.020  1.00  0.00     0.059 A 
ATOM     99  F   UNL A   1      43.860  29.873  33.892  1.00  0.00    -0.206 F 
ATOM    100  C   UNL A   1      43.412  26.463  34.988  1.00  0.00     0.060 A 
BRANCH 100 101
ATOM    101  S   UNL A   1      43.180  25.549  36.528  1.00  0.00     0.124 S 
ATOM    102  O   UNL A   1      43.026  24.179  36.049  1.00  0.00    -0.237 OA
ATOM    103  O   UNL A   1      44.412  25.833  37.255  1.00  0.00    -0.237 OA
ATOM    104  O   UNL A   1      41.976  26.147  37.101  1.00  0.00    -0.744 OA
ENDBRANCH 100 101
ENDBRANCH  68  93
ENDBRANCH  42  43
ENDBRANCH  34  37
ENDBRANCH  32  33
ENDBRANCH  31  32
ENDBRANCH  30  31
ENDBRANCH   1  30
TORSDOF 19
ENDMDL
MODEL 2
REMARK VINA RESULT:     -12.0      1.521      2.068
REMARK SMILES CCn1ncc(Br)c1C(=O)N[C@H]1C(=O)N2C(C(=O)NCCCCCCNC(=O)c3ccc(-c4c5nc(c(-c6c(F)cc(S(=O)(=O)[O-])cc6F)c6ccc([nH]6)c(-c6c(F)cc(S(=O)(=O)[O-])cc6F)c6nc(c(-c7c(F)cc(S(=O)(=O)[O-])cc7F)c7ccc4[nH]7)C=C6)C=C5)cc3)=C(C)CS[C@H]12
REMARK SMILES IDX 22 1 21 2 20 3 19 4 17 5 18 6 16 8 12 9 13 10 99 11 14 12
REMARK SMILES IDX 15 13 98 14 97 15 95 16 96 17 11 18 9 19 10 20 8 22 3 23
REMARK SMILES IDX 4 24 5 25 6 26 7 27 2 28 1 29 23 30 24 31 25 32 26 33 27 34
REMARK SMILES IDX 28 36 29 37 30 38 94 39 31 40 93 41 32 42 33 43 34 44 87 45
REMARK SMILES IDX 35 46 92 47 86 48 88 49 36 50 91 51 85 52 84 53 37 55 71 56
REMARK SMILES IDX 50 57 70 58 51 59 54 60 69 61 89 62 52 63 53 64 68 66 90 67
REMARK SMILES IDX 55 68 38 69 39 70 48 71 40 72 41 73 47 74 49 75 42 76 43 77
REMARK SMILES IDX 44 78 45 79 46 80 72 81 73 82 82 83 74 84 75 85 81 86 83 87
REMARK SMILES IDX 76 88 77 89 78 90 79 91 80 92 56 93 57 94 66 95 58 96 59 97
REMARK SMILES IDX 65 98 67 99 60 100 61 101 62 102 63 103 64 104
REMARK H PARENT 19 7 11 21 26 35 88 54 54 65
REMARK Flexibility Score: inf
ROOT
ATOM      1  C   UNL A   1      39.787  21.715  26.145  1.00  0.00     0.002 C 
ENDROOT
BRANCH   1   2
ATOM      2  C   UNL A   1      38.450  21.292  25.518  1.00  0.00     0.021 C 
BRANCH   2   3
ATOM      3  C   UNL A   1      37.313  22.310  25.439  1.00  0.00     0.116 C 
BRANCH   3   4
ATOM      4  N   UNL A   1      36.252  22.270  26.429  1.00  0.00    -0.351 N 
ATOM      5  C   UNL A   1      34.993  21.715  26.343  1.00  0.00     0.268 C 
ATOM      6  O   UNL A   1      34.375  21.523  27.393  1.00  0.00    -0.268 OA
ATOM      7  H   UNL A   1      36.462  22.702  27.287  1.00  0.00     0.163 HD
BRANCH   5   8
ATOM      8  C   UNL A   1      34.320  21.341  25.021  1.00  0.00     0.110 C 
ATOM      9  C   UNL A   1      33.728  23.917  22.926  1.00  0.00     0.206 C 
ATOM     10  C   UNL A   1      34.895  22.982  23.067  1.00  0.00     0.253 C 
ATOM     11  C   UNL A   1      32.945  22.801  23.654  1.00  0.00     0.181 C 
ATOM     12  O   UNL A   1      35.913  23.071  22.455  1.00  0.00    -0.272 OA
ATOM     13  N   UNL A   1      34.256  22.320  24.064  1.00  0.00    -0.290 N 
ATOM     14  S   UNL A   1      32.249  21.501  22.552  1.00  0.00    -0.129 SA
ATOM     15  C   UNL A   1      32.781  20.062  23.540  1.00  0.00     0.104 C 
ATOM     16  C   UNL A   1      33.344  20.405  24.907  1.00  0.00    -0.034 C 
ATOM     17  C   UNL A   1      32.676  19.668  26.026  1.00  0.00     0.043 C 
BRANCH   9  18
ATOM     18  N   UNL A   1      34.052  25.210  23.627  1.00  0.00    -0.336 N 
ATOM     19  C   UNL A   1      33.726  25.427  24.978  1.00  0.00     0.271 C 
ATOM     20  O   UNL A   1      34.728  25.591  25.689  1.00  0.00    -0.267 OA
ATOM     21  H   UNL A   1      34.505  25.925  23.124  1.00  0.00     0.164 HD
BRANCH  19  22
ATOM     22  C   UNL A   1      32.401  25.899  25.424  1.00  0.00     0.140 A 
ATOM     23  N   UNL A   1      31.222  25.358  26.012  1.00  0.00    -0.259 N 
ATOM     24  N   UNL A   1      30.442  26.372  26.541  1.00  0.00    -0.180 NA
ATOM     25  C   UNL A   1      31.049  27.504  26.267  1.00  0.00     0.151 A 
ATOM     26  C   UNL A   1      32.233  27.279  25.599  1.00  0.00     0.069 A 
ATOM     27  Br  UNL A   1      33.379  28.713  25.177  1.00  0.00    -0.047 Br
BRANCH  23  28
ATOM     28  C   UNL A   1      30.412  24.147  26.144  1.00  0.00     0.142 C 
ATOM     29  C   UNL A   1      30.370  22.858  26.967  1.00  0.00     0.029 C 
ENDBRANCH  23  28
ENDBRANCH  19  22
ENDBRANCH   9  18
ENDBRANCH   5   8
ENDBRANCH   3   4
ENDBRANCH   2   3
ENDBRANCH   1   2
BRANCH   1  30
ATOM     30  C   UNL A   1      40.617  20.691  26.942  1.00  0.00     0.002 C 
BRANCH  30  31
ATOM     31  C   UNL A   1      41.368  19.582  26.190  1.00  0.00     0.021 C 
BRANCH  31  32
ATOM     32  C   UNL A   1      42.773  19.270  26.689  1.00  0.00     0.116 C 
BRANCH  32  33
ATOM     33  N   UNL A   1      43.795  19.228  25.640  1.00  0.00    -0.352 N 
ATOM     34  C   UNL A   1      44.268  20.276  24.859  1.00  0.00     0.251 C 
ATOM     35  H   UNL A   1      44.196  18.346  25.464  1.00  0.00     0.163 HD
ATOM     36  O   UNL A   1      44.816  20.052  23.785  1.00  0.00    -0.269 OA
BRANCH  34  37
ATOM     37  C   UNL A   1      44.130  21.665  25.352  1.00  0.00     0.039 A 
ATOM     38  C   UNL A   1      43.162  22.555  24.869  1.00  0.00     0.014 A 
ATOM     39  C   UNL A   1      45.027  22.081  26.329  1.00  0.00     0.014 A 
ATOM     40  C   UNL A   1      43.091  23.840  25.419  1.00  0.00     0.010 A 
ATOM     41  C   UNL A   1      44.817  23.244  27.013  1.00  0.00     0.010 A 
ATOM     42  C   UNL A   1      43.929  24.172  26.496  1.00  0.00    -0.014 A 
BRANCH  42  43
ATOM     43  C   UNL A   1      43.792  25.405  27.264  1.00  0.00     0.031 A 
ATOM     44  C   UNL A   1      44.857  26.379  26.914  1.00  0.00     0.074 A 
ATOM     45  C   UNL A   1      42.662  25.717  27.948  1.00  0.00     0.049 A 
ATOM     46  N   UNL A   1      45.906  26.674  27.608  1.00  0.00    -0.248 NA
ATOM     47  C   UNL A   1      44.918  26.879  25.525  1.00  0.00     0.031 C 
ATOM     48  C   UNL A   1      41.436  24.915  28.066  1.00  0.00     0.029 A 
ATOM     49  N   UNL A   1      42.315  26.867  28.599  1.00  0.00    -0.354 N 
ATOM     50  C   UNL A   1      46.546  27.668  26.875  1.00  0.00     0.074 A 
ATOM     51  C   UNL A   1      46.104  27.492  25.520  1.00  0.00     0.031 C 
ATOM     52  C   UNL A   1      40.426  25.681  28.540  1.00  0.00     0.029 A 
ATOM     53  C   UNL A   1      40.947  26.987  28.895  1.00  0.00     0.049 A 
ATOM     54  H   UNL A   1      42.972  27.557  28.841  1.00  0.00     0.167 HD
ATOM     55  C   UNL A   1      47.028  28.776  27.506  1.00  0.00     0.037 A 
ATOM     56  C   UNL A   1      40.305  28.094  29.374  1.00  0.00     0.037 A 
ATOM     57  C   UNL A   1      47.118  28.537  28.932  1.00  0.00     0.049 A 
ATOM     58  C   UNL A   1      41.351  28.970  29.964  1.00  0.00     0.074 A 
ATOM     59  C   UNL A   1      47.713  27.577  29.731  1.00  0.00     0.029 A 
ATOM     60  N   UNL A   1      46.169  29.142  29.718  1.00  0.00    -0.354 N 
ATOM     61  N   UNL A   1      42.044  28.647  31.021  1.00  0.00    -0.248 NA
ATOM     62  C   UNL A   1      41.975  29.941  29.080  1.00  0.00     0.031 C 
ATOM     63  C   UNL A   1      46.779  27.341  30.785  1.00  0.00     0.029 A 
ATOM     64  C   UNL A   1      45.721  28.238  30.642  1.00  0.00     0.049 A 
ATOM     65  H   UNL A   1      45.862  30.073  29.632  1.00  0.00     0.167 HD
ATOM     66  C   UNL A   1      43.349  28.990  30.700  1.00  0.00     0.074 A 
ATOM     67  C   UNL A   1      43.234  29.842  29.514  1.00  0.00     0.031 C 
ATOM     68  C   UNL A   1      44.402  28.297  31.230  1.00  0.00     0.037 A 
BRANCH  55  69
ATOM     69  C   UNL A   1      46.950  30.189  26.942  1.00  0.00     0.058 A 
ATOM     70  C   UNL A   1      48.110  30.992  26.995  1.00  0.00     0.135 A 
ATOM     71  C   UNL A   1      45.758  30.885  26.631  1.00  0.00     0.135 A 
ATOM     72  F   UNL A   1      49.306  30.447  27.270  1.00  0.00    -0.206 F 
ATOM     73  C   UNL A   1      48.073  32.381  26.859  1.00  0.00     0.059 A 
ATOM     74  C   UNL A   1      45.708  32.261  26.443  1.00  0.00     0.059 A 
ATOM     75  F   UNL A   1      44.559  30.300  26.567  1.00  0.00    -0.206 F 
ATOM     76  C   UNL A   1      46.861  33.006  26.594  1.00  0.00     0.060 A 
BRANCH  76  77
ATOM     77  S   UNL A   1      46.795  34.798  26.466  1.00  0.00     0.124 S 
ATOM     78  O   UNL A   1      47.352  35.016  25.137  1.00  0.00    -0.237 OA
ATOM     79  O   UNL A   1      45.366  35.052  26.616  1.00  0.00    -0.237 OA
ATOM     80  O   UNL A   1      47.624  35.243  27.583  1.00  0.00    -0.744 OA
ENDBRANCH  76  77
ENDBRANCH  55  69
BRANCH  56  81
ATOM     81  C   UNL A   1      38.937  28.618  29.063  1.00  0.00     0.058 A 
ATOM     82  C   UNL A   1      37.947  28.752  30.063  1.00  0.00     0.135 A 
ATOM     83  C   UNL A   1      38.670  29.290  27.855  1.00  0.00     0.135 A 
ATOM     84  F   UNL A   1      38.113  28.162  31.257  1.00  0.00    -0.206 F 
ATOM     85  C   UNL A   1      36.804  29.550  29.896  1.00  0.00     0.059 A 
ATOM     86  C   UNL A   1      37.537  30.083  27.664  1.00  0.00     0.059 A 
ATOM     87  F   UNL A   1      39.556  29.276  26.848  1.00  0.00    -0.206 F 
ATOM     88  C   UNL A   1      36.621  30.235  28.697  1.00  0.00     0.060 A 
BRANCH  88  89
ATOM     89  S   UNL A   1      35.261  31.423  28.532  1.00  0.00     0.124 S 
ATOM     90  O   UNL A   1      34.199  30.596  27.970  1.00  0.00    -0.237 OA
ATOM     91  O   UNL A   1      35.064  31.866  29.908  1.00  0.00    -0.237 OA
ATOM     92  O   UNL A   1      35.806  32.435  27.630  1.00  0.00    -0.744 OA
ENDBRANCH  88  89
ENDBRANCH  56  81
BRANCH  68  93
ATOM     93  C   UNL A   1      44.145  27.407  32.419  1.00  0.00     0.058 A 
ATOM     94  C   UNL A   1      43.965  26.011  32.374  1.00  0.00     0.135 A 
ATOM     95  C   UNL A   1      44.199  28.001  33.687  1.00  0.00     0.135 A 
ATOM     96  F   UNL A   1      44.012  25.346  31.210  1.00  0.00    -0.206 F 
ATOM     97  C   UNL A   1      43.784  25.256  33.536  1.00  0.00     0.059 A 
ATOM     98  C   UNL A   1      44.057  27.266  34.858  1.00  0.00     0.059 A 
ATOM     99  F   UNL A   1      44.434  29.319  33.803  1.00  0.00    -0.206 F 
ATOM    100  C   UNL A   1      43.823  25.897  34.775  1.00  0.00     0.060 A 
BRANCH 100 101
ATOM    101  S   UNL A   1      43.597  24.932  36.284  1.00  0.00     0.124 S 
ATOM    102  O   UNL A   1      42.214  25.236  36.637  1.00  0.00    -0.237 OA
ATOM    103  O   UNL A   1      43.852  23.569  35.830  1.00  0.00    -0.237 OA
ATOM    104  O   UNL A   1      44.605  25.477  37.191  1.00  0.00    -0.744 OA
ENDBRANCH 100 101
ENDBRANCH  68  93
ENDBRANCH  42  43
ENDBRANCH  34  37
ENDBRANCH  32  33
ENDBRANCH  31  32
ENDBRANCH  30  31
ENDBRANCH   1  30
TORSDOF 19
ENDMDL
MODEL 3
REMARK VINA RESULT:     -11.5      2.015      2.552
REMARK SMILES CCn1ncc(Br)c1C(=O)N[C@H]1C(=O)N2C(C(=O)NCCCCCCNC(=O)c3ccc(-c4c5nc(c(-c6c(F)cc(S(=O)(=O)[O-])cc6F)c6ccc([nH]6)c(-c6c(F)cc(S(=O)(=O)[O-])cc6F)c6nc(c(-c7c(F)cc(S(=O)(=O)[O-])cc7F)c7ccc4[nH]7)C=C6)C=C5)cc3)=C(C)CS[C@H]12
REMARK SMILES IDX 22 1 21 2 20 3 19 4 17 5 18 6 16 8 12 9 13 10 99 11 14 12
REMARK SMILES IDX 15 13 98 14 97 15 95 16 96 17 11 18 9 19 10 20 8 22 3 23
REMARK SMILES IDX 4 24 5 25 6 26 7 27 2 28 1 29 23 30 24 31 25 32 26 33 27 34
REMARK SMILES IDX 28 36 29 37 30 38 94 39 31 40 93 41 32 42 33 43 34 44 87 45
REMARK SMILES IDX 35 46 92 47 86 48 88 49 36 50 91 51 85 52 84 53 37 55 71 56
REMARK SMILES IDX 50 57 70 58 51 59 54 60 69 61 89 62 52 63 53 64 68 66 90 67
REMARK SMILES IDX 55 68 38 69 39 70 48 71 40 72 41 73 47 74 49 75 42 76 43 77
REMARK SMILES IDX 44 78 45 79 46 80 72 81 73 82 82 83 74 84 75 85 81 86 83 87
REMARK SMILES IDX 76 88 77 89 78 90 79 91 80 92 56 93 57 94 66 95 58 96 59 97
REMARK SMILES IDX 65 98 67 99 60 100 61 101 62 102 63 103 64 104
REMARK H PARENT 19 7 11 21 26 35 88 54 54 65
REMARK Flexibility Score: inf
ROOT
ATOM      1  C   UNL A   1      38.834  24.048  26.367  1.00  0.00     0.002 C 
ENDROOT
BRANCH   1   2
ATOM      2  C   UNL A   1      37.365  23.918  25.937  1.00  0.00     0.021 C 
BRANCH   2   3
ATOM      3  C   UNL A   1      36.727  22.530  25.885  1.00  0.00     0.116 C 
BRANCH   3   4
ATOM      4  N   UNL A   1      35.619  22.223  26.771  1.00  0.00    -0.351 N 
ATOM      5  C   UNL A   1      34.461  21.519  26.516  1.00  0.00     0.268 C 
ATOM      6  O   UNL A   1      33.808  21.115  27.480  1.00  0.00    -0.268 OA
ATOM      7  H   UNL A   1      35.706  22.567  27.688  1.00  0.00     0.163 HD
BRANCH   5   8
ATOM      8  C   UNL A   1      33.938  21.230  25.107  1.00  0.00     0.110 C 
ATOM      9  C   UNL A   1      32.247  23.758  23.649  1.00  0.00     0.206 C 
ATOM     10  C   UNL A   1      33.700  23.375  23.631  1.00  0.00     0.253 C 
ATOM     11  C   UNL A   1      32.024  22.281  24.048  1.00  0.00     0.181 C 
ATOM     12  O   UNL A   1      34.562  24.015  23.115  1.00  0.00    -0.272 OA
ATOM     13  N   UNL A   1      33.435  22.294  24.407  1.00  0.00    -0.290 N 
ATOM     14  S   UNL A   1      31.870  21.114  22.634  1.00  0.00    -0.129 SA
ATOM     15  C   UNL A   1      32.990  19.827  23.282  1.00  0.00     0.104 C 
ATOM     16  C   UNL A   1      33.427  20.034  24.721  1.00  0.00    -0.034 C 
ATOM     17  C   UNL A   1      33.171  18.846  25.596  1.00  0.00     0.043 C 
BRANCH   9  18
ATOM     18  N   UNL A   1      32.046  24.863  24.652  1.00  0.00    -0.336 N 
ATOM     19  C   UNL A   1      31.600  26.141  24.273  1.00  0.00     0.271 C 
ATOM     20  O   UNL A   1      30.501  26.428  24.767  1.00  0.00    -0.267 OA
ATOM     21  H   UNL A   1      32.233  24.684  25.602  1.00  0.00     0.164 HD
BRANCH  19  22
ATOM     22  C   UNL A   1      32.503  27.200  23.782  1.00  0.00     0.140 A 
ATOM     23  N   UNL A   1      33.401  28.167  24.319  1.00  0.00    -0.259 N 
ATOM     24  N   UNL A   1      34.246  28.637  23.330  1.00  0.00    -0.180 NA
ATOM     25  C   UNL A   1      33.887  28.053  22.209  1.00  0.00     0.151 A 
ATOM     26  C   UNL A   1      32.845  27.178  22.423  1.00  0.00     0.069 A 
ATOM     27  Br  UNL A   1      32.193  26.108  21.017  1.00  0.00    -0.047 Br
BRANCH  23  28
ATOM     28  C   UNL A   1      33.688  28.995  25.491  1.00  0.00     0.142 C 
ATOM     29  C   UNL A   1      33.843  28.854  27.006  1.00  0.00     0.029 C 
ENDBRANCH  23  28
ENDBRANCH  19  22
ENDBRANCH   9  18
ENDBRANCH   5   8
ENDBRANCH   3   4
ENDBRANCH   2   3
ENDBRANCH   1   2
BRANCH   1  30
ATOM     30  C   UNL A   1      39.500  22.914  27.167  1.00  0.00     0.002 C 
BRANCH  30  31
ATOM     31  C   UNL A   1      40.240  21.796  26.417  1.00  0.00     0.021 C 
BRANCH  31  32
ATOM     32  C   UNL A   1      41.548  21.325  27.039  1.00  0.00     0.116 C 
BRANCH  32  33
ATOM     33  N   UNL A   1      42.685  21.300  26.115  1.00  0.00    -0.352 N 
ATOM     34  C   UNL A   1      43.303  22.373  25.484  1.00  0.00     0.251 C 
ATOM     35  H   UNL A   1      43.058  20.411  25.915  1.00  0.00     0.163 HD
ATOM     36  O   UNL A   1      43.964  22.198  24.465  1.00  0.00    -0.269 OA
BRANCH  34  37
ATOM     37  C   UNL A   1      43.180  23.726  26.070  1.00  0.00     0.039 A 
ATOM     38  C   UNL A   1      42.462  24.762  25.458  1.00  0.00     0.014 A 
ATOM     39  C   UNL A   1      43.829  23.954  27.278  1.00  0.00     0.014 A 
ATOM     40  C   UNL A   1      42.378  26.000  26.105  1.00  0.00     0.010 A 
ATOM     41  C   UNL A   1      43.565  25.078  28.006  1.00  0.00     0.010 A 
ATOM     42  C   UNL A   1      42.936  26.144  27.385  1.00  0.00    -0.014 A 
BRANCH  42  43
ATOM     43  C   UNL A   1      42.727  27.322  28.220  1.00  0.00     0.031 A 
ATOM     44  C   UNL A   1      43.807  28.322  28.022  1.00  0.00     0.074 A 
ATOM     45  C   UNL A   1      41.544  27.582  28.831  1.00  0.00     0.049 A 
ATOM     46  N   UNL A   1      44.795  28.575  28.815  1.00  0.00    -0.248 NA
ATOM     47  C   UNL A   1      43.973  28.915  26.678  1.00  0.00     0.031 C 
ATOM     48  C   UNL A   1      40.320  26.770  28.797  1.00  0.00     0.029 A 
ATOM     49  N   UNL A   1      41.135  28.685  29.527  1.00  0.00    -0.354 N 
ATOM     50  C   UNL A   1      45.481  29.618  28.203  1.00  0.00     0.074 A 
ATOM     51  C   UNL A   1      45.149  29.532  26.809  1.00  0.00     0.031 C 
ATOM     52  C   UNL A   1      39.268  27.497  29.240  1.00  0.00     0.029 A 
ATOM     53  C   UNL A   1      39.747  28.779  29.721  1.00  0.00     0.049 A 
ATOM     54  H   UNL A   1      41.764  29.360  29.867  1.00  0.00     0.167 HD
ATOM     55  C   UNL A   1      45.901  30.684  28.942  1.00  0.00     0.037 A 
ATOM     56  C   UNL A   1      39.058  29.848  30.220  1.00  0.00     0.037 A 
ATOM     57  C   UNL A   1      45.880  30.350  30.352  1.00  0.00     0.049 A 
ATOM     58  C   UNL A   1      40.046  30.688  30.948  1.00  0.00     0.074 A 
ATOM     59  C   UNL A   1      46.419  29.341  31.130  1.00  0.00     0.029 A 
ATOM     60  N   UNL A   1      44.866  30.897  31.099  1.00  0.00    -0.354 N 
ATOM     61  N   UNL A   1      40.656  30.297  32.034  1.00  0.00    -0.248 NA
ATOM     62  C   UNL A   1      40.728  31.718  30.183  1.00  0.00     0.031 C 
ATOM     63  C   UNL A   1      45.408  29.031  32.088  1.00  0.00     0.029 A 
ATOM     64  C   UNL A   1      44.355  29.931  31.922  1.00  0.00     0.049 A 
ATOM     65  H   UNL A   1      44.558  31.830  31.050  1.00  0.00     0.167 HD
ATOM     66  C   UNL A   1      41.979  30.666  31.841  1.00  0.00     0.074 A 
ATOM     67  C   UNL A   1      41.950  31.596  30.709  1.00  0.00     0.031 C 
ATOM     68  C   UNL A   1      42.993  29.945  32.406  1.00  0.00     0.037 A 
BRANCH  55  69
ATOM     69  C   UNL A   1      45.854  32.131  28.470  1.00  0.00     0.058 A 
ATOM     70  C   UNL A   1      46.996  32.935  28.673  1.00  0.00     0.135 A 
ATOM     71  C   UNL A   1      44.684  32.840  28.108  1.00  0.00     0.135 A 
ATOM     72  F   UNL A   1      48.171  32.379  29.009  1.00  0.00    -0.206 F 
ATOM     73  C   UNL A   1      46.955  34.330  28.627  1.00  0.00     0.059 A 
ATOM     74  C   UNL A   1      44.634  34.225  28.008  1.00  0.00     0.059 A 
ATOM     75  F   UNL A   1      43.501  32.254  27.905  1.00  0.00    -0.206 F 
ATOM     76  C   UNL A   1      45.763  34.964  28.305  1.00  0.00     0.060 A 
BRANCH  76  77
ATOM     77  S   UNL A   1      45.687  36.761  28.291  1.00  0.00     0.124 S 
ATOM     78  O   UNL A   1      44.762  37.021  29.387  1.00  0.00    -0.237 OA
ATOM     79  O   UNL A   1      47.082  37.117  28.526  1.00  0.00    -0.237 OA
ATOM     80  O   UNL A   1      45.187  37.064  26.952  1.00  0.00    -0.744 OA
ENDBRANCH  76  77
ENDBRANCH  55  69
BRANCH  56  81
ATOM     81  C   UNL A   1      37.714  30.386  29.837  1.00  0.00     0.058 A 
ATOM     82  C   UNL A   1      36.898  31.075  30.762  1.00  0.00     0.135 A 
ATOM     83  C   UNL A   1      37.337  30.513  28.486  1.00  0.00     0.135 A 
ATOM     84  F   UNL A   1      37.181  31.030  32.074  1.00  0.00    -0.206 F 
ATOM     85  C   UNL A   1      35.822  31.885  30.367  1.00  0.00     0.059 A 
ATOM     86  C   UNL A   1      36.266  31.308  28.071  1.00  0.00     0.059 A 
ATOM     87  F   UNL A   1      38.061  29.943  27.512  1.00  0.00    -0.206 F 
ATOM     88  C   UNL A   1      35.529  32.016  29.011  1.00  0.00     0.060 A 
BRANCH  88  89
ATOM     89  S   UNL A   1      34.276  33.208  28.465  1.00  0.00     0.124 S 
ATOM     90  O   UNL A   1      35.057  34.108  27.624  1.00  0.00    -0.237 OA
ATOM     91  O   UNL A   1      33.318  32.356  27.769  1.00  0.00    -0.237 OA
ATOM     92  O   UNL A   1      33.793  33.785  29.717  1.00  0.00    -0.744 OA
ENDBRANCH  88  89
ENDBRANCH  56  81
BRANCH  68  93
ATOM     93  C   UNL A   1      42.652  28.975  33.509  1.00  0.00     0.058 A 
ATOM     94  C   UNL A   1      42.357  27.609  33.337  1.00  0.00     0.135 A 
ATOM     95  C   UNL A   1      42.742  29.446  34.826  1.00  0.00     0.135 A 
ATOM     96  F   UNL A   1      42.361  27.050  32.118  1.00  0.00    -0.206 F 
ATOM     97  C   UNL A   1      42.102  26.770  34.426  1.00  0.00     0.059 A 
ATOM     98  C   UNL A   1      42.528  28.623  35.925  1.00  0.00     0.059 A 
ATOM     99  F   UNL A   1      43.084  30.724  35.061  1.00  0.00    -0.206 F 
ATOM    100  C   UNL A   1      42.183  27.292  35.717  1.00  0.00     0.060 A 
BRANCH 100 101
ATOM    101  S   UNL A   1      41.863  26.216  37.132  1.00  0.00     0.124 S 
ATOM    102  O   UNL A   1      42.976  26.540  38.019  1.00  0.00    -0.237 OA
ATOM    103  O   UNL A   1      40.546  26.661  37.577  1.00  0.00    -0.237 OA
ATOM    104  O   UNL A   1      41.897  24.874  36.556  1.00  0.00    -0.744 OA
ENDBRANCH 100 101
ENDBRANCH  68  93
ENDBRANCH  42  43
ENDBRANCH  34  37
ENDBRANCH  32  33
ENDBRANCH  31  32
ENDBRANCH  30  31
ENDBRANCH   1  30
TORSDOF 19
ENDMDL
