MODEL 1
REMARK VINA RESULT:     -12.3      0.000      0.000
REMARK SMILES O=C(NCCCCCCNC(=O)c1ccccc1/C=N\NC(=S)NCc1ccccc1)c1ccc(-c2c3nc(c(-c4c(F)cc(S(=O)(=O)[O-])cc4F)c4ccc([nH]4)c(-c4c(F)cc(S(=O)(=O)[O-])cc4F)c4nc(c(-c5c(F)cc(S(=O)(=O)[O-])cc5F)c5ccc2[nH]5)C=C4)C=C3)cc1
REMARK SMILES IDX 8 1 7 2 6 3 5 4 4 5 3 6 1 7 2 8 32 10 33 11 97 12 34 13
REMARK SMILES IDX 96 14 35 15 36 16 37 17 90 18 38 19 95 20 89 21 91 22 39 23
REMARK SMILES IDX 94 24 88 25 87 26 40 28 74 29 53 30 73 31 54 32 57 33 72 34
REMARK SMILES IDX 92 35 55 36 56 37 71 39 93 40 58 41 41 42 42 43 51 44 43 45
REMARK SMILES IDX 44 46 50 47 52 48 45 49 46 50 47 51 48 52 49 53 75 54 76 55
REMARK SMILES IDX 85 56 77 57 78 58 84 59 86 60 79 61 80 62 81 63 82 64 83 65
REMARK SMILES IDX 59 66 60 67 69 68 61 69 62 70 68 71 70 72 63 73 64 74 65 75
REMARK SMILES IDX 66 76 67 77 9 78 10 79 11 80 12 82 13 83 14 84 18 85 15 86
REMARK SMILES IDX 17 87 16 88 19 89 20 90 21 91 22 93 23 94 24 95 25 97 26 98
REMARK SMILES IDX 27 99 31 100 28 101 30 102 29 103
REMARK H PARENT 3 9 91 27 57 38 10 81 21 92 24 96
REMARK Flexibility Score: inf
ROOT
ATOM      1  C   UNL A   1      36.266  23.253  24.258  1.00  0.00     0.021 C 
ENDROOT
BRANCH   1   2
ATOM      2  C   UNL A   1      36.405  23.610  25.740  1.00  0.00     0.002 C 
BRANCH   2   3
ATOM      3  C   UNL A   1      37.811  24.020  26.199  1.00  0.00     0.002 C 
BRANCH   3   4
ATOM      4  C   UNL A   1      38.805  22.872  26.396  1.00  0.00     0.021 C 
BRANCH   4   5
ATOM      5  C   UNL A   1      40.110  23.279  27.066  1.00  0.00     0.116 C 
BRANCH   5   6
ATOM      6  N   UNL A   1      41.042  23.873  26.117  1.00  0.00    -0.352 N 
ATOM      7  O   UNL A   1      42.123  25.535  25.049  1.00  0.00    -0.269 OA
ATOM      8  C   UNL A   1      41.539  25.152  26.058  1.00  0.00     0.251 C 
ATOM      9  H   UNL A   1      41.364  23.266  25.412  1.00  0.00     0.163 HD
BRANCH   8  10
ATOM     10  C   UNL A   1      41.369  26.061  27.213  1.00  0.00     0.039 A 
ATOM     11  C   UNL A   1      40.404  25.789  28.182  1.00  0.00     0.014 A 
ATOM     12  C   UNL A   1      42.199  27.179  27.347  1.00  0.00     0.014 A 
ATOM     13  C   UNL A   1      40.166  26.703  29.196  1.00  0.00     0.010 A 
ATOM     14  C   UNL A   1      42.030  28.046  28.433  1.00  0.00     0.010 A 
ATOM     15  C   UNL A   1      40.998  27.825  29.357  1.00  0.00    -0.014 A 
BRANCH  15  16
ATOM     16  C   UNL A   1      40.809  28.673  30.561  1.00  0.00     0.031 A 
ATOM     17  C   UNL A   1      41.707  28.554  31.760  1.00  0.00     0.074 A 
ATOM     18  C   UNL A   1      39.841  29.611  30.524  1.00  0.00     0.049 A 
ATOM     19  N   UNL A   1      41.711  29.275  32.854  1.00  0.00    -0.248 NA
ATOM     20  C   UNL A   1      42.726  27.493  31.740  1.00  0.00     0.031 C 
ATOM     21  C   UNL A   1      38.893  29.794  29.418  1.00  0.00     0.029 A 
ATOM     22  N   UNL A   1      39.509  30.605  31.407  1.00  0.00    -0.354 N 
ATOM     23  C   UNL A   1      42.723  28.756  33.652  1.00  0.00     0.074 A 
ATOM     24  C   UNL A   1      43.293  27.637  32.932  1.00  0.00     0.031 C 
ATOM     25  C   UNL A   1      38.133  30.871  29.661  1.00  0.00     0.029 A 
ATOM     26  C   UNL A   1      38.485  31.410  30.968  1.00  0.00     0.049 A 
ATOM     27  H   UNL A   1      39.961  30.729  32.273  1.00  0.00     0.167 HD
ATOM     28  C   UNL A   1      43.144  29.186  34.867  1.00  0.00     0.037 A 
ATOM     29  C   UNL A   1      37.879  32.457  31.557  1.00  0.00     0.037 A 
ATOM     30  C   UNL A   1      42.567  30.305  35.572  1.00  0.00     0.049 A 
ATOM     31  C   UNL A   1      38.359  32.900  32.908  1.00  0.00     0.074 A 
ATOM     32  C   UNL A   1      42.927  30.824  36.804  1.00  0.00     0.029 A 
ATOM     33  N   UNL A   1      41.512  31.079  35.110  1.00  0.00    -0.354 N 
ATOM     34  N   UNL A   1      39.334  32.409  33.635  1.00  0.00    -0.248 NA
ATOM     35  C   UNL A   1      37.658  34.034  33.520  1.00  0.00     0.031 C 
ATOM     36  C   UNL A   1      42.065  31.885  37.104  1.00  0.00     0.029 A 
ATOM     37  C   UNL A   1      41.199  32.061  36.038  1.00  0.00     0.049 A 
ATOM     38  H   UNL A   1      41.052  30.951  34.249  1.00  0.00     0.167 HD
ATOM     39  C   UNL A   1      39.367  33.179  34.791  1.00  0.00     0.074 A 
ATOM     40  C   UNL A   1      38.339  34.190  34.646  1.00  0.00     0.031 C 
ATOM     41  C   UNL A   1      40.166  33.053  35.879  1.00  0.00     0.037 A 
BRANCH  28  42
ATOM     42  C   UNL A   1      44.281  28.450  35.524  1.00  0.00     0.058 A 
ATOM     43  C   UNL A   1      44.054  27.372  36.395  1.00  0.00     0.135 A 
ATOM     44  C   UNL A   1      45.614  28.770  35.216  1.00  0.00     0.135 A 
ATOM     45  F   UNL A   1      42.800  27.032  36.736  1.00  0.00    -0.206 F 
ATOM     46  C   UNL A   1      45.105  26.644  36.944  1.00  0.00     0.059 A 
ATOM     47  C   UNL A   1      46.681  28.041  35.735  1.00  0.00     0.059 A 
ATOM     48  F   UNL A   1      45.890  29.792  34.391  1.00  0.00    -0.206 F 
ATOM     49  C   UNL A   1      46.416  26.982  36.602  1.00  0.00     0.060 A 
BRANCH  49  50
ATOM     50  S   UNL A   1      47.766  26.002  37.295  1.00  0.00     0.124 S 
ATOM     51  O   UNL A   1      47.046  24.846  37.821  1.00  0.00    -0.237 OA
ATOM     52  O   UNL A   1      48.600  25.750  36.124  1.00  0.00    -0.237 OA
ATOM     53  O   UNL A   1      48.349  26.887  38.299  1.00  0.00    -0.744 OA
ENDBRANCH  49  50
ENDBRANCH  28  42
BRANCH  29  54
ATOM     54  C   UNL A   1      36.736  33.130  30.884  1.00  0.00     0.058 A 
ATOM     55  C   UNL A   1      35.416  32.938  31.316  1.00  0.00     0.135 A 
ATOM     56  C   UNL A   1      36.949  33.984  29.790  1.00  0.00     0.135 A 
ATOM     57  F   UNL A   1      35.161  32.132  32.358  1.00  0.00    -0.206 F 
ATOM     58  C   UNL A   1      34.345  33.545  30.670  1.00  0.00     0.059 A 
ATOM     59  C   UNL A   1      35.897  34.629  29.150  1.00  0.00     0.059 A 
ATOM     60  F   UNL A   1      38.195  34.220  29.351  1.00  0.00    -0.206 F 
ATOM     61  C   UNL A   1      34.596  34.387  29.586  1.00  0.00     0.060 A 
BRANCH  61  62
ATOM     62  S   UNL A   1      33.203  35.188  28.763  1.00  0.00     0.124 S 
ATOM     63  O   UNL A   1      32.672  34.095  27.958  1.00  0.00    -0.237 OA
ATOM     64  O   UNL A   1      32.380  35.611  29.893  1.00  0.00    -0.237 OA
ATOM     65  O   UNL A   1      33.834  36.274  28.018  1.00  0.00    -0.744 OA
ENDBRANCH  61  62
ENDBRANCH  29  54
BRANCH  41  66
ATOM     66  C   UNL A   1      39.960  34.050  36.986  1.00  0.00     0.058 A 
ATOM     67  C   UNL A   1      39.128  33.770  38.082  1.00  0.00     0.135 A 
ATOM     68  C   UNL A   1      40.600  35.298  36.950  1.00  0.00     0.135 A 
ATOM     69  F   UNL A   1      38.487  32.594  38.160  1.00  0.00    -0.206 F 
ATOM     70  C   UNL A   1      38.903  34.710  39.081  1.00  0.00     0.059 A 
ATOM     71  C   UNL A   1      40.414  36.243  37.954  1.00  0.00     0.059 A 
ATOM     72  F   UNL A   1      41.415  35.612  35.929  1.00  0.00    -0.206 F 
ATOM     73  C   UNL A   1      39.546  35.947  39.005  1.00  0.00     0.060 A 
BRANCH  73  74
ATOM     74  S   UNL A   1      39.242  37.162  40.304  1.00  0.00     0.124 S 
ATOM     75  O   UNL A   1      40.602  37.524  40.691  1.00  0.00    -0.237 OA
ATOM     76  O   UNL A   1      38.488  38.193  39.597  1.00  0.00    -0.237 OA
ATOM     77  O   UNL A   1      38.483  36.412  41.299  1.00  0.00    -0.744 OA
ENDBRANCH  73  74
ENDBRANCH  41  66
ENDBRANCH  15  16
ENDBRANCH   8  10
ENDBRANCH   5   6
ENDBRANCH   4   5
ENDBRANCH   3   4
ENDBRANCH   2   3
ENDBRANCH   1   2
BRANCH   1  78
ATOM     78  C   UNL A   1      34.828  23.126  23.756  1.00  0.00     0.116 C 
BRANCH  78  79
ATOM     79  N   UNL A   1      34.444  24.045  22.693  1.00  0.00    -0.352 N 
ATOM     80  C   UNL A   1      33.774  25.253  22.704  1.00  0.00     0.251 C 
ATOM     81  H   UNL A   1      34.714  23.747  21.794  1.00  0.00     0.163 HD
ATOM     82  O   UNL A   1      33.654  25.889  21.661  1.00  0.00    -0.269 OA
BRANCH  80  83
ATOM     83  C   UNL A   1      32.996  25.688  23.886  1.00  0.00     0.048 A 
ATOM     84  C   UNL A   1      34.036  26.290  25.251  1.00  0.00     0.014 A 
ATOM     85  C   UNL A   1      31.306  26.299  23.724  1.00  0.00     0.007 A 
ATOM     86  C   UNL A   1      33.378  27.487  26.444  1.00  0.00     0.001 A 
ATOM     87  C   UNL A   1      30.627  27.503  24.928  1.00  0.00     0.010 A 
ATOM     88  C   UNL A   1      31.667  28.065  26.296  1.00  0.00     0.001 A 
BRANCH  85  89
ATOM     89  C   UNL A   1      30.348  25.398  23.160  1.00  0.00     0.142 C 
ATOM     90  N   UNL A   1      30.057  24.342  23.830  1.00  0.00    -0.181 NA
BRANCH  90  91
ATOM     91  N   UNL A   1      30.798  24.084  24.961  1.00  0.00    -0.254 N 
ATOM     92  H   UNL A   1      30.836  24.843  25.587  1.00  0.00     0.193 HD
BRANCH  91  93
ATOM     93  C   UNL A   1      31.487  22.989  25.390  1.00  0.00     0.187 C 
ATOM     94  S   UNL A   1      32.307  23.183  26.857  1.00  0.00    -0.039 S 
BRANCH  93  95
ATOM     95  N   UNL A   1      31.631  21.725  24.763  1.00  0.00    -0.357 N 
ATOM     96  H   UNL A   1      30.705  21.465  24.550  1.00  0.00     0.163 HD
BRANCH  95  97
ATOM     97  C   UNL A   1      32.762  20.128  24.055  1.00  0.00     0.151 C 
BRANCH  97  98
ATOM     98  C   UNL A   1      32.758  18.468  24.188  1.00  0.00    -0.029 A 
ATOM     99  C   UNL A   1      33.442  17.695  23.224  1.00  0.00     0.005 A 
ATOM    100  C   UNL A   1      32.546  17.913  25.469  1.00  0.00     0.005 A 
ATOM    101  C   UNL A   1      33.926  16.427  23.546  1.00  0.00     0.000 A 
ATOM    102  C   UNL A   1      33.048  16.652  25.785  1.00  0.00     0.000 A 
ATOM    103  C   UNL A   1      33.750  15.918  24.831  1.00  0.00     0.000 A 
ENDBRANCH  97  98
ENDBRANCH  95  97
ENDBRANCH  93  95
ENDBRANCH  91  93
ENDBRANCH  90  91
ENDBRANCH  85  89
ENDBRANCH  80  83
ENDBRANCH  78  79
ENDBRANCH   1  78
TORSDOF 22
ENDMDL
MODEL 2
REMARK VINA RESULT:     -11.9      5.925      8.013
REMARK SMILES O=C(NCCCCCCNC(=O)c1ccccc1/C=N\NC(=S)NCc1ccccc1)c1ccc(-c2c3nc(c(-c4c(F)cc(S(=O)(=O)[O-])cc4F)c4ccc([nH]4)c(-c4c(F)cc(S(=O)(=O)[O-])cc4F)c4nc(c(-c5c(F)cc(S(=O)(=O)[O-])cc5F)c5ccc2[nH]5)C=C4)C=C3)cc1
REMARK SMILES IDX 8 1 7 2 6 3 5 4 4 5 3 6 1 7 2 8 32 10 33 11 97 12 34 13
REMARK SMILES IDX 96 14 35 15 36 16 37 17 90 18 38 19 95 20 89 21 91 22 39 23
REMARK SMILES IDX 94 24 88 25 87 26 40 28 74 29 53 30 73 31 54 32 57 33 72 34
REMARK SMILES IDX 92 35 55 36 56 37 71 39 93 40 58 41 41 42 42 43 51 44 43 45
REMARK SMILES IDX 44 46 50 47 52 48 45 49 46 50 47 51 48 52 49 53 75 54 76 55
REMARK SMILES IDX 85 56 77 57 78 58 84 59 86 60 79 61 80 62 81 63 82 64 83 65
REMARK SMILES IDX 59 66 60 67 69 68 61 69 62 70 68 71 70 72 63 73 64 74 65 75
REMARK SMILES IDX 66 76 67 77 9 78 10 79 11 80 12 82 13 83 14 84 18 85 15 86
REMARK SMILES IDX 17 87 16 88 19 89 20 90 21 91 22 93 23 94 24 95 25 97 26 98
REMARK SMILES IDX 27 99 31 100 28 101 30 102 29 103
REMARK H PARENT 3 9 91 27 57 38 10 81 21 92 24 96
REMARK Flexibility Score: inf
ROOT
ATOM      1  C   UNL A   1      36.535  22.481  24.203  1.00  0.00     0.021 C 
ENDROOT
BRANCH   1   2
ATOM      2  C   UNL A   1      37.052  22.455  25.643  1.00  0.00     0.002 C 
BRANCH   2   3
ATOM      3  C   UNL A   1      38.563  22.245  25.806  1.00  0.00     0.002 C 
BRANCH   3   4
ATOM      4  C   UNL A   1      39.080  20.847  25.454  1.00  0.00     0.021 C 
BRANCH   4   5
ATOM      5  C   UNL A   1      39.697  20.093  26.623  1.00  0.00     0.116 C 
BRANCH   5   6
ATOM      6  N   UNL A   1      40.811  19.256  26.199  1.00  0.00    -0.352 N 
ATOM      7  O   UNL A   1      42.812  18.794  25.274  1.00  0.00    -0.269 OA
ATOM      8  C   UNL A   1      42.087  19.611  25.833  1.00  0.00     0.251 C 
ATOM      9  H   UNL A   1      40.621  18.290  26.170  1.00  0.00     0.163 HD
BRANCH   8  10
ATOM     10  C   UNL A   1      42.581  20.976  26.116  1.00  0.00     0.039 A 
ATOM     11  C   UNL A   1      42.805  21.381  27.432  1.00  0.00     0.014 A 
ATOM     12  C   UNL A   1      42.850  21.853  25.059  1.00  0.00     0.014 A 
ATOM     13  C   UNL A   1      43.153  22.696  27.701  1.00  0.00     0.010 A 
ATOM     14  C   UNL A   1      43.306  23.148  25.328  1.00  0.00     0.010 A 
ATOM     15  C   UNL A   1      43.442  23.587  26.653  1.00  0.00    -0.014 A 
BRANCH  15  16
ATOM     16  C   UNL A   1      43.979  24.927  27.000  1.00  0.00     0.031 A 
ATOM     17  C   UNL A   1      45.422  25.284  26.772  1.00  0.00     0.074 A 
ATOM     18  C   UNL A   1      43.114  25.851  27.466  1.00  0.00     0.049 A 
ATOM     19  N   UNL A   1      46.019  26.435  26.957  1.00  0.00    -0.248 NA
ATOM     20  C   UNL A   1      46.313  24.220  26.284  1.00  0.00     0.031 C 
ATOM     21  C   UNL A   1      41.695  25.602  27.751  1.00  0.00     0.029 A 
ATOM     22  N   UNL A   1      43.276  27.181  27.750  1.00  0.00    -0.354 N 
ATOM     23  C   UNL A   1      47.350  26.236  26.613  1.00  0.00     0.074 A 
ATOM     24  C   UNL A   1      47.483  24.844  26.238  1.00  0.00     0.031 C 
ATOM     25  C   UNL A   1      41.107  26.752  28.107  1.00  0.00     0.029 A 
ATOM     26  C   UNL A   1      42.116  27.802  28.148  1.00  0.00     0.049 A 
ATOM     27  H   UNL A   1      44.140  27.647  27.678  1.00  0.00     0.167 HD
ATOM     28  C   UNL A   1      48.362  27.138  26.599  1.00  0.00     0.037 A 
ATOM     29  C   UNL A   1      41.887  29.073  28.525  1.00  0.00     0.037 A 
ATOM     30  C   UNL A   1      48.213  28.524  26.973  1.00  0.00     0.049 A 
ATOM     31  C   UNL A   1      43.031  30.045  28.512  1.00  0.00     0.074 A 
ATOM     32  C   UNL A   1      49.175  29.520  26.985  1.00  0.00     0.029 A 
ATOM     33  N   UNL A   1      47.030  29.112  27.398  1.00  0.00    -0.354 N 
ATOM     34  N   UNL A   1      44.278  29.841  28.160  1.00  0.00    -0.248 NA
ATOM     35  C   UNL A   1      42.741  31.415  28.948  1.00  0.00     0.031 C 
ATOM     36  C   UNL A   1      48.584  30.698  27.456  1.00  0.00     0.029 A 
ATOM     37  C   UNL A   1      47.241  30.451  27.690  1.00  0.00     0.049 A 
ATOM     38  H   UNL A   1      46.166  28.646  27.482  1.00  0.00     0.167 HD
ATOM     39  C   UNL A   1      44.921  31.061  28.329  1.00  0.00     0.074 A 
ATOM     40  C   UNL A   1      43.915  32.003  28.776  1.00  0.00     0.031 C 
ATOM     41  C   UNL A   1      46.228  31.371  28.143  1.00  0.00     0.037 A 
BRANCH  28  42
ATOM     42  C   UNL A   1      49.725  26.667  26.170  1.00  0.00     0.058 A 
ATOM     43  C   UNL A   1      50.163  26.796  24.843  1.00  0.00     0.135 A 
ATOM     44  C   UNL A   1      50.636  26.156  27.110  1.00  0.00     0.135 A 
ATOM     45  F   UNL A   1      49.330  27.264  23.899  1.00  0.00    -0.206 F 
ATOM     46  C   UNL A   1      51.451  26.429  24.460  1.00  0.00     0.059 A 
ATOM     47  C   UNL A   1      51.936  25.805  26.756  1.00  0.00     0.059 A 
ATOM     48  F   UNL A   1      50.270  26.009  28.393  1.00  0.00    -0.206 F 
ATOM     49  C   UNL A   1      52.332  25.940  25.426  1.00  0.00     0.060 A 
BRANCH  49  50
ATOM     50  S   UNL A   1      54.010  25.504  24.918  1.00  0.00     0.124 S 
ATOM     51  O   UNL A   1      54.180  26.336  23.730  1.00  0.00    -0.237 OA
ATOM     52  O   UNL A   1      54.798  25.894  26.083  1.00  0.00    -0.237 OA
ATOM     53  O   UNL A   1      53.929  24.068  24.670  1.00  0.00    -0.744 OA
ENDBRANCH  49  50
ENDBRANCH  28  42
BRANCH  29  54
ATOM     54  C   UNL A   1      40.530  29.483  28.975  1.00  0.00     0.058 A 
ATOM     55  C   UNL A   1      39.465  29.602  28.072  1.00  0.00     0.135 A 
ATOM     56  C   UNL A   1      40.276  29.764  30.327  1.00  0.00     0.135 A 
ATOM     57  F   UNL A   1      39.657  29.344  26.769  1.00  0.00    -0.206 F 
ATOM     58  C   UNL A   1      38.202  30.013  28.487  1.00  0.00     0.059 A 
ATOM     59  C   UNL A   1      39.014  30.142  30.772  1.00  0.00     0.059 A 
ATOM     60  F   UNL A   1      41.256  29.643  31.236  1.00  0.00    -0.206 F 
ATOM     61  C   UNL A   1      37.988  30.282  29.840  1.00  0.00     0.060 A 
BRANCH  61  62
ATOM     62  S   UNL A   1      36.343  30.795  30.376  1.00  0.00     0.124 S 
ATOM     63  O   UNL A   1      35.949  29.675  31.221  1.00  0.00    -0.237 OA
ATOM     64  O   UNL A   1      36.622  32.052  31.066  1.00  0.00    -0.237 OA
ATOM     65  O   UNL A   1      35.608  30.930  29.121  1.00  0.00    -0.744 OA
ENDBRANCH  61  62
ENDBRANCH  29  54
BRANCH  41  66
ATOM     66  C   UNL A   1      46.629  32.795  28.410  1.00  0.00     0.058 A 
ATOM     67  C   UNL A   1      47.026  33.218  29.689  1.00  0.00     0.135 A 
ATOM     68  C   UNL A   1      46.613  33.747  27.379  1.00  0.00     0.135 A 
ATOM     69  F   UNL A   1      47.052  32.350  30.711  1.00  0.00    -0.206 F 
ATOM     70  C   UNL A   1      47.352  34.546  29.945  1.00  0.00     0.059 A 
ATOM     71  C   UNL A   1      46.964  35.074  27.606  1.00  0.00     0.059 A 
ATOM     72  F   UNL A   1      46.249  33.391  26.136  1.00  0.00    -0.206 F 
ATOM     73  C   UNL A   1      47.313  35.468  28.897  1.00  0.00     0.060 A 
BRANCH  73  74
ATOM     74  S   UNL A   1      47.731  37.189  29.242  1.00  0.00     0.124 S 
ATOM     75  O   UNL A   1      48.653  37.046  30.365  1.00  0.00    -0.237 OA
ATOM     76  O   UNL A   1      48.327  37.624  27.983  1.00  0.00    -0.237 OA
ATOM     77  O   UNL A   1      46.442  37.794  29.561  1.00  0.00    -0.744 OA
ENDBRANCH  73  74
ENDBRANCH  41  66
ENDBRANCH  15  16
ENDBRANCH   8  10
ENDBRANCH   5   6
ENDBRANCH   4   5
ENDBRANCH   3   4
ENDBRANCH   2   3
ENDBRANCH   1   2
BRANCH   1  78
ATOM     78  C   UNL A   1      35.062  22.862  24.051  1.00  0.00     0.116 C 
BRANCH  78  79
ATOM     79  N   UNL A   1      34.757  23.799  22.978  1.00  0.00    -0.352 N 
ATOM     80  C   UNL A   1      34.065  24.994  22.955  1.00  0.00     0.251 C 
ATOM     81  H   UNL A   1      35.111  23.526  22.101  1.00  0.00     0.163 HD
ATOM     82  O   UNL A   1      34.026  25.652  21.919  1.00  0.00    -0.269 OA
BRANCH  80  83
ATOM     83  C   UNL A   1      33.177  25.389  24.071  1.00  0.00     0.048 A 
ATOM     84  C   UNL A   1      34.056  26.213  25.433  1.00  0.00     0.014 A 
ATOM     85  C   UNL A   1      31.430  25.748  23.799  1.00  0.00     0.007 A 
ATOM     86  C   UNL A   1      33.182  27.379  26.515  1.00  0.00     0.001 A 
ATOM     87  C   UNL A   1      30.534  26.918  24.890  1.00  0.00     0.010 A 
ATOM     88  C   UNL A   1      31.418  27.702  26.257  1.00  0.00     0.001 A 
BRANCH  85  89
ATOM     89  C   UNL A   1      30.633  24.689  23.259  1.00  0.00     0.142 C 
ATOM     90  N   UNL A   1      30.466  23.642  23.982  1.00  0.00    -0.181 NA
BRANCH  90  91
ATOM     91  N   UNL A   1      31.187  23.555  25.152  1.00  0.00    -0.254 N 
ATOM     92  H   UNL A   1      31.275  24.415  25.623  1.00  0.00     0.193 HD
BRANCH  91  93
ATOM     93  C   UNL A   1      31.802  22.519  25.789  1.00  0.00     0.187 C 
ATOM     94  S   UNL A   1      32.681  22.943  27.170  1.00  0.00    -0.039 S 
BRANCH  93  95
ATOM     95  N   UNL A   1      31.827  21.145  25.437  1.00  0.00    -0.357 N 
ATOM     96  H   UNL A   1      31.522  20.692  26.257  1.00  0.00     0.163 HD
BRANCH  95  97
ATOM     97  C   UNL A   1      32.167  19.580  24.108  1.00  0.00     0.151 C 
BRANCH  97  98
ATOM     98  C   UNL A   1      32.648  17.988  24.186  1.00  0.00    -0.029 A 
ATOM     99  C   UNL A   1      33.703  17.543  23.359  1.00  0.00     0.005 A 
ATOM    100  C   UNL A   1      32.382  17.280  25.379  1.00  0.00     0.005 A 
ATOM    101  C   UNL A   1      34.484  16.450  23.735  1.00  0.00     0.000 A 
ATOM    102  C   UNL A   1      33.179  16.199  25.752  1.00  0.00     0.000 A 
ATOM    103  C   UNL A   1      34.237  15.796  24.941  1.00  0.00     0.000 A 
ENDBRANCH  97  98
ENDBRANCH  95  97
ENDBRANCH  93  95
ENDBRANCH  91  93
ENDBRANCH  90  91
ENDBRANCH  85  89
ENDBRANCH  80  83
ENDBRANCH  78  79
ENDBRANCH   1  78
TORSDOF 22
ENDMDL
MODEL 3
REMARK VINA RESULT:     -11.8      6.158     11.443
REMARK SMILES O=C(NCCCCCCNC(=O)c1ccccc1/C=N\NC(=S)NCc1ccccc1)c1ccc(-c2c3nc(c(-c4c(F)cc(S(=O)(=O)[O-])cc4F)c4ccc([nH]4)c(-c4c(F)cc(S(=O)(=O)[O-])cc4F)c4nc(c(-c5c(F)cc(S(=O)(=O)[O-])cc5F)c5ccc2[nH]5)C=C4)C=C3)cc1
REMARK SMILES IDX 8 1 7 2 6 3 5 4 4 5 3 6 1 7 2 8 32 10 33 11 97 12 34 13
REMARK SMILES IDX 96 14 35 15 36 16 37 17 90 18 38 19 95 20 89 21 91 22 39 23
REMARK SMILES IDX 94 24 88 25 87 26 40 28 74 29 53 30 73 31 54 32 57 33 72 34
REMARK SMILES IDX 92 35 55 36 56 37 71 39 93 40 58 41 41 42 42 43 51 44 43 45
REMARK SMILES IDX 44 46 50 47 52 48 45 49 46 50 47 51 48 52 49 53 75 54 76 55
REMARK SMILES IDX 85 56 77 57 78 58 84 59 86 60 79 61 80 62 81 63 82 64 83 65
REMARK SMILES IDX 59 66 60 67 69 68 61 69 62 70 68 71 70 72 63 73 64 74 65 75
REMARK SMILES IDX 66 76 67 77 9 78 10 79 11 80 12 82 13 83 14 84 18 85 15 86
REMARK SMILES IDX 17 87 16 88 19 89 20 90 21 91 22 93 23 94 24 95 25 97 26 98
REMARK SMILES IDX 27 99 31 100 28 101 30 102 29 103
REMARK H PARENT 3 9 91 27 57 38 10 81 21 92 24 96
REMARK Flexibility Score: inf
ROOT
ATOM      1  C   UNL A   1      35.093  30.164  27.367  1.00  0.00     0.021 C 
ENDROOT
BRANCH   1   2
ATOM      2  C   UNL A   1      36.596  29.971  27.581  1.00  0.00     0.002 C 
BRANCH   2   3
ATOM      3  C   UNL A   1      37.034  29.683  29.023  1.00  0.00     0.002 C 
BRANCH   3   4
ATOM      4  C   UNL A   1      36.005  30.020  30.107  1.00  0.00     0.021 C 
BRANCH   4   5
ATOM      5  C   UNL A   1      36.558  29.996  31.525  1.00  0.00     0.116 C 
BRANCH   5   6
ATOM      6  N   UNL A   1      36.824  31.338  32.025  1.00  0.00    -0.352 N 
ATOM      7  O   UNL A   1      38.060  33.015  32.882  1.00  0.00    -0.269 OA
ATOM      8  C   UNL A   1      38.023  31.978  32.227  1.00  0.00     0.251 C 
ATOM      9  H   UNL A   1      36.025  31.867  32.251  1.00  0.00     0.163 HD
BRANCH   8  10
ATOM     10  C   UNL A   1      39.265  31.412  31.655  1.00  0.00     0.039 A 
ATOM     11  C   UNL A   1      40.065  30.565  32.421  1.00  0.00     0.014 A 
ATOM     12  C   UNL A   1      39.620  31.706  30.335  1.00  0.00     0.014 A 
ATOM     13  C   UNL A   1      41.285  30.133  31.925  1.00  0.00     0.010 A 
ATOM     14  C   UNL A   1      40.801  31.181  29.798  1.00  0.00     0.010 A 
ATOM     15  C   UNL A   1      41.654  30.405  30.596  1.00  0.00    -0.014 A 
BRANCH  15  16
ATOM     16  C   UNL A   1      42.887  29.770  30.065  1.00  0.00     0.031 A 
ATOM     17  C   UNL A   1      42.870  28.393  29.463  1.00  0.00     0.074 A 
ATOM     18  C   UNL A   1      44.023  30.497  30.074  1.00  0.00     0.049 A 
ATOM     19  N   UNL A   1      43.850  27.737  28.893  1.00  0.00    -0.248 NA
ATOM     20  C   UNL A   1      41.601  27.649  29.509  1.00  0.00     0.031 C 
ATOM     21  C   UNL A   1      44.157  31.836  30.661  1.00  0.00     0.029 A 
ATOM     22  N   UNL A   1      45.265  30.242  29.554  1.00  0.00    -0.354 N 
ATOM     23  C   UNL A   1      43.323  26.508  28.516  1.00  0.00     0.074 A 
ATOM     24  C   UNL A   1      41.942  26.494  28.951  1.00  0.00     0.031 C 
ATOM     25  C   UNL A   1      45.386  32.306  30.413  1.00  0.00     0.029 A 
ATOM     26  C   UNL A   1      46.151  31.280  29.718  1.00  0.00     0.049 A 
ATOM     27  H   UNL A   1      45.499  29.396  29.108  1.00  0.00     0.167 HD
ATOM     28  C   UNL A   1      43.934  25.494  27.857  1.00  0.00     0.037 A 
ATOM     29  C   UNL A   1      47.445  31.391  29.367  1.00  0.00     0.037 A 
ATOM     30  C   UNL A   1      45.312  25.524  27.427  1.00  0.00     0.049 A 
ATOM     31  C   UNL A   1      48.097  30.245  28.649  1.00  0.00     0.074 A 
ATOM     32  C   UNL A   1      46.022  24.550  26.745  1.00  0.00     0.029 A 
ATOM     33  N   UNL A   1      46.188  26.580  27.635  1.00  0.00    -0.354 N 
ATOM     34  N   UNL A   1      47.572  29.101  28.281  1.00  0.00    -0.248 NA
ATOM     35  C   UNL A   1      49.513  30.402  28.301  1.00  0.00     0.031 C 
ATOM     36  C   UNL A   1      47.336  25.001  26.577  1.00  0.00     0.029 A 
ATOM     37  C   UNL A   1      47.434  26.276  27.109  1.00  0.00     0.049 A 
ATOM     38  H   UNL A   1      45.959  27.423  28.090  1.00  0.00     0.167 HD
ATOM     39  C   UNL A   1      48.595  28.401  27.654  1.00  0.00     0.074 A 
ATOM     40  C   UNL A   1      49.756  29.269  27.658  1.00  0.00     0.031 C 
ATOM     41  C   UNL A   1      48.580  27.150  27.132  1.00  0.00     0.037 A 
BRANCH  28  42
ATOM     42  C   UNL A   1      43.129  24.259  27.554  1.00  0.00     0.058 A 
ATOM     43  C   UNL A   1      42.579  24.033  26.282  1.00  0.00     0.135 A 
ATOM     44  C   UNL A   1      42.973  23.251  28.520  1.00  0.00     0.135 A 
ATOM     45  F   UNL A   1      42.684  24.969  25.325  1.00  0.00    -0.206 F 
ATOM     46  C   UNL A   1      41.898  22.857  25.981  1.00  0.00     0.059 A 
ATOM     47  C   UNL A   1      42.316  22.056  28.234  1.00  0.00     0.059 A 
ATOM     48  F   UNL A   1      43.477  23.414  29.754  1.00  0.00    -0.206 F 
ATOM     49  C   UNL A   1      41.777  21.871  26.962  1.00  0.00     0.060 A 
BRANCH  49  50
ATOM     50  S   UNL A   1      40.922  20.337  26.540  1.00  0.00     0.124 S 
ATOM     51  O   UNL A   1      39.649  20.843  26.035  1.00  0.00    -0.237 OA
ATOM     52  O   UNL A   1      41.811  19.751  25.542  1.00  0.00    -0.237 OA
ATOM     53  O   UNL A   1      40.853  19.625  27.812  1.00  0.00    -0.744 OA
ENDBRANCH  49  50
ENDBRANCH  28  42
BRANCH  29  54
ATOM     54  C   UNL A   1      48.209  32.617  29.718  1.00  0.00     0.058 A 
ATOM     55  C   UNL A   1      48.876  32.737  30.946  1.00  0.00     0.135 A 
ATOM     56  C   UNL A   1      48.286  33.697  28.824  1.00  0.00     0.135 A 
ATOM     57  F   UNL A   1      48.834  31.731  31.834  1.00  0.00    -0.206 F 
ATOM     58  C   UNL A   1      49.567  33.894  31.288  1.00  0.00     0.059 A 
ATOM     59  C   UNL A   1      49.000  34.850  29.129  1.00  0.00     0.059 A 
ATOM     60  F   UNL A   1      47.685  33.624  27.627  1.00  0.00    -0.206 F 
ATOM     61  C   UNL A   1      49.622  34.946  30.372  1.00  0.00     0.060 A 
BRANCH  61  62
ATOM     62  S   UNL A   1      50.537  36.438  30.812  1.00  0.00     0.124 S 
ATOM     63  O   UNL A   1      49.666  37.028  31.821  1.00  0.00    -0.237 OA
ATOM     64  O   UNL A   1      51.801  35.892  31.297  1.00  0.00    -0.237 OA
ATOM     65  O   UNL A   1      50.622  37.164  29.547  1.00  0.00    -0.744 OA
ENDBRANCH  61  62
ENDBRANCH  29  54
BRANCH  41  66
ATOM     66  C   UNL A   1      49.859  26.662  26.510  1.00  0.00     0.058 A 
ATOM     67  C   UNL A   1      50.793  25.913  27.244  1.00  0.00     0.135 A 
ATOM     68  C   UNL A   1      50.155  26.948  25.169  1.00  0.00     0.135 A 
ATOM     69  F   UNL A   1      50.562  25.619  28.533  1.00  0.00    -0.206 F 
ATOM     70  C   UNL A   1      51.997  25.502  26.681  1.00  0.00     0.059 A 
ATOM     71  C   UNL A   1      51.339  26.521  24.576  1.00  0.00     0.059 A 
ATOM     72  F   UNL A   1      49.291  27.653  24.420  1.00  0.00    -0.206 F 
ATOM     73  C   UNL A   1      52.263  25.816  25.348  1.00  0.00     0.060 A 
BRANCH  73  74
ATOM     74  S   UNL A   1      53.831  25.284  24.630  1.00  0.00     0.124 S 
ATOM     75  O   UNL A   1      53.665  25.684  23.236  1.00  0.00    -0.237 OA
ATOM     76  O   UNL A   1      54.804  26.053  25.399  1.00  0.00    -0.237 OA
ATOM     77  O   UNL A   1      53.844  23.845  24.874  1.00  0.00    -0.744 OA
ENDBRANCH  73  74
ENDBRANCH  41  66
ENDBRANCH  15  16
ENDBRANCH   8  10
ENDBRANCH   5   6
ENDBRANCH   4   5
ENDBRANCH   3   4
ENDBRANCH   2   3
ENDBRANCH   1   2
BRANCH   1  78
ATOM     78  C   UNL A   1      34.324  28.894  27.000  1.00  0.00     0.116 C 
BRANCH  78  79
ATOM     79  N   UNL A   1      33.056  28.699  27.689  1.00  0.00    -0.352 N 
ATOM     80  C   UNL A   1      31.850  28.159  27.285  1.00  0.00     0.251 C 
ATOM     81  H   UNL A   1      33.059  29.012  28.623  1.00  0.00     0.163 HD
ATOM     82  O   UNL A   1      30.943  28.022  28.101  1.00  0.00    -0.269 OA
BRANCH  80  83
ATOM     83  C   UNL A   1      31.541  27.960  25.851  1.00  0.00     0.048 A 
ATOM     84  C   UNL A   1      32.286  29.220  24.772  1.00  0.00     0.014 A 
ATOM     85  C   UNL A   1      31.189  26.320  25.186  1.00  0.00     0.007 A 
ATOM     86  C   UNL A   1      32.663  28.835  23.040  1.00  0.00     0.001 A 
ATOM     87  C   UNL A   1      31.559  25.922  23.435  1.00  0.00     0.010 A 
ATOM     88  C   UNL A   1      32.270  27.198  22.371  1.00  0.00     0.001 A 
BRANCH  85  89
ATOM     89  C   UNL A   1      30.067  25.628  25.743  1.00  0.00     0.142 C 
ATOM     90  N   UNL A   1      30.301  24.733  26.632  1.00  0.00    -0.181 NA
BRANCH  90  91
ATOM     91  N   UNL A   1      31.616  24.403  26.871  1.00  0.00    -0.254 N 
ATOM     92  H   UNL A   1      32.056  24.993  27.525  1.00  0.00     0.193 HD
BRANCH  91  93
ATOM     93  C   UNL A   1      32.430  23.425  26.385  1.00  0.00     0.187 C 
ATOM     94  S   UNL A   1      33.916  23.960  25.777  1.00  0.00    -0.039 S 
BRANCH  93  95
ATOM     95  N   UNL A   1      32.192  22.030  26.295  1.00  0.00    -0.357 N 
ATOM     96  H   UNL A   1      31.267  21.932  26.618  1.00  0.00     0.163 HD
BRANCH  95  97
ATOM     97  C   UNL A   1      32.762  20.079  25.842  1.00  0.00     0.151 C 
BRANCH  97  98
ATOM     98  C   UNL A   1      33.332  19.244  24.519  1.00  0.00    -0.029 A 
ATOM     99  C   UNL A   1      34.488  18.444  24.652  1.00  0.00     0.005 A 
ATOM    100  C   UNL A   1      32.413  18.935  23.493  1.00  0.00     0.005 A 
ATOM    101  C   UNL A   1      34.695  17.353  23.808  1.00  0.00     0.000 A 
ATOM    102  C   UNL A   1      32.621  17.832  22.666  1.00  0.00     0.000 A 
ATOM    103  C   UNL A   1      33.751  17.034  22.834  1.00  0.00     0.000 A 
ENDBRANCH  97  98
ENDBRANCH  95  97
ENDBRANCH  93  95
ENDBRANCH  91  93
ENDBRANCH  90  91
ENDBRANCH  85  89
ENDBRANCH  80  83
ENDBRANCH  78  79
ENDBRANCH   1  78
TORSDOF 22
ENDMDL
