MODEL 1
REMARK VINA RESULT:      -9.7      0.000      0.000
REMARK SMILES C[C@@H](C(=O)NCCCCCCNC(=O)c1ccc(-c2c3nc(c(-c4c(F)cc(S(=O)(=O)[O-])cc4F)c4ccc([nH]4)c(-c4c(F)cc(S(=O)(=O)[O-])cc4F)c4nc(c(-c5c(F)cc(S(=O)(=O)[O-])cc5F)c5ccc2[nH]5)C=C4)C=C3)cc1)c1cccc(C(=O)c2ccccc2)c1
REMARK SMILES IDX 8 1 7 2 6 3 5 4 3 5 4 6 2 8 1 9 81 10 82 11 94 12 83 13
REMARK SMILES IDX 85 14 84 15 86 16 87 17 88 18 89 19 93 20 90 21 92 22 91 23
REMARK SMILES IDX 9 24 10 25 11 26 12 27 13 28 14 30 15 31 16 32 80 33 17 34
REMARK SMILES IDX 79 35 18 36 19 37 20 38 73 39 21 40 78 41 72 42 74 43 22 44
REMARK SMILES IDX 77 45 71 46 70 47 23 49 57 50 36 51 56 52 37 53 40 54 55 55
REMARK SMILES IDX 75 56 38 57 39 58 54 60 76 61 41 62 24 63 25 64 34 65 26 66
REMARK SMILES IDX 27 67 33 68 35 69 28 70 29 71 30 72 31 73 32 74 58 75 59 76
REMARK SMILES IDX 68 77 60 78 61 79 67 80 69 81 62 82 63 83 64 84 65 85 66 86
REMARK SMILES IDX 42 87 43 88 52 89 44 90 45 91 51 92 53 93 46 94 47 95 48 96
REMARK SMILES IDX 49 97 50 98
REMARK H PARENT 5 7 12 29 74 48 40 59
REMARK Flexibility Score: inf
ROOT
ATOM      1  C   UNL A   1      33.102  34.854  29.989  1.00  0.00     0.002 C 
ENDROOT
BRANCH   1   2
ATOM      2  C   UNL A   1      33.503  36.120  30.762  1.00  0.00     0.021 C 
BRANCH   2   3
ATOM      3  C   UNL A   1      33.203  36.056  32.265  1.00  0.00     0.116 C 
BRANCH   3   4
ATOM      4  N   UNL A   1      33.279  34.682  32.715  1.00  0.00    -0.356 N 
ATOM      5  C   UNL A   1      34.347  33.835  32.643  1.00  0.00     0.227 C 
ATOM      6  O   UNL A   1      34.091  32.636  32.515  1.00  0.00    -0.274 OA
ATOM      7  H   UNL A   1      32.462  34.314  33.123  1.00  0.00     0.163 HD
BRANCH   5   8
ATOM      8  C   UNL A   1      35.779  34.404  32.750  1.00  0.00     0.105 C 
ATOM      9  C   UNL A   1      36.457  34.240  31.381  1.00  0.00     0.023 C 
BRANCH   8  10
ATOM     10  C   UNL A   1      36.621  33.772  33.874  1.00  0.00    -0.035 A 
ATOM     11  C   UNL A   1      36.209  33.827  35.216  1.00  0.00     0.004 A 
ATOM     12  C   UNL A   1      37.835  33.119  33.600  1.00  0.00     0.016 A 
ATOM     13  C   UNL A   1      37.037  33.373  36.246  1.00  0.00     0.001 A 
ATOM     14  C   UNL A   1      38.711  32.735  34.625  1.00  0.00     0.023 A 
ATOM     15  C   UNL A   1      38.298  32.858  35.953  1.00  0.00     0.012 A 
BRANCH  14  16
ATOM     16  C   UNL A   1      40.074  32.196  34.345  1.00  0.00     0.193 C 
ATOM     17  O   UNL A   1      41.067  32.878  34.590  1.00  0.00    -0.289 OA
BRANCH  16  18
ATOM     18  C   UNL A   1      40.276  30.831  33.798  1.00  0.00     0.022 A 
ATOM     19  C   UNL A   1      41.581  30.330  33.751  1.00  0.00     0.012 A 
ATOM     20  C   UNL A   1      39.209  30.050  33.340  1.00  0.00     0.012 A 
ATOM     21  C   UNL A   1      41.811  29.030  33.299  1.00  0.00     0.001 A 
ATOM     22  C   UNL A   1      39.444  28.747  32.895  1.00  0.00     0.001 A 
ATOM     23  C   UNL A   1      40.743  28.236  32.881  1.00  0.00     0.000 A 
ENDBRANCH  16  18
ENDBRANCH  14  16
ENDBRANCH   8  10
ENDBRANCH   5   8
ENDBRANCH   3   4
ENDBRANCH   2   3
ENDBRANCH   1   2
BRANCH   1  24
ATOM     24  C   UNL A   1      33.364  34.913  28.483  1.00  0.00     0.002 C 
BRANCH  24  25
ATOM     25  C   UNL A   1      34.281  33.808  27.956  1.00  0.00     0.021 C 
BRANCH  25  26
ATOM     26  C   UNL A   1      34.449  32.631  28.909  1.00  0.00     0.116 C 
BRANCH  26  27
ATOM     27  N   UNL A   1      33.806  31.428  28.402  1.00  0.00    -0.352 N 
ATOM     28  C   UNL A   1      34.386  30.245  28.019  1.00  0.00     0.251 C 
ATOM     29  H   UNL A   1      32.826  31.468  28.325  1.00  0.00     0.163 HD
ATOM     30  O   UNL A   1      33.732  29.401  27.413  1.00  0.00    -0.269 OA
BRANCH  28  31
ATOM     31  C   UNL A   1      35.812  30.007  28.327  1.00  0.00     0.039 A 
ATOM     32  C   UNL A   1      36.179  29.650  29.626  1.00  0.00     0.014 A 
ATOM     33  C   UNL A   1      36.778  30.120  27.324  1.00  0.00     0.014 A 
ATOM     34  C   UNL A   1      37.515  29.353  29.906  1.00  0.00     0.010 A 
ATOM     35  C   UNL A   1      38.092  29.747  27.586  1.00  0.00     0.010 A 
ATOM     36  C   UNL A   1      38.476  29.371  28.883  1.00  0.00    -0.014 A 
BRANCH  36  37
ATOM     37  C   UNL A   1      39.898  29.029  29.141  1.00  0.00     0.031 A 
ATOM     38  C   UNL A   1      40.829  30.079  29.687  1.00  0.00     0.074 A 
ATOM     39  C   UNL A   1      40.369  27.811  28.814  1.00  0.00     0.049 A 
ATOM     40  N   UNL A   1      42.121  30.022  29.875  1.00  0.00    -0.248 NA
ATOM     41  C   UNL A   1      40.228  31.378  30.035  1.00  0.00     0.031 C 
ATOM     42  C   UNL A   1      39.575  26.722  28.242  1.00  0.00     0.029 A 
ATOM     43  N   UNL A   1      41.635  27.288  28.898  1.00  0.00    -0.354 N 
ATOM     44  C   UNL A   1      42.492  31.278  30.341  1.00  0.00     0.074 A 
ATOM     45  C   UNL A   1      41.297  32.093  30.352  1.00  0.00     0.031 C 
ATOM     46  C   UNL A   1      40.368  25.657  28.041  1.00  0.00     0.029 A 
ATOM     47  C   UNL A   1      41.733  26.000  28.427  1.00  0.00     0.049 A 
ATOM     48  H   UNL A   1      42.401  27.788  29.261  1.00  0.00     0.167 HD
ATOM     49  C   UNL A   1      43.711  31.707  30.746  1.00  0.00     0.037 A 
ATOM     50  C   UNL A   1      42.804  25.191  28.305  1.00  0.00     0.037 A 
ATOM     51  C   UNL A   1      44.890  30.880  30.752  1.00  0.00     0.049 A 
ATOM     52  C   UNL A   1      44.153  25.689  28.753  1.00  0.00     0.074 A 
ATOM     53  C   UNL A   1      46.162  31.200  31.192  1.00  0.00     0.029 A 
ATOM     54  N   UNL A   1      44.943  29.571  30.293  1.00  0.00    -0.354 N 
ATOM     55  N   UNL A   1      44.477  26.861  29.243  1.00  0.00    -0.248 NA
ATOM     56  C   UNL A   1      45.280  24.753  28.639  1.00  0.00     0.031 C 
ATOM     57  C   UNL A   1      46.995  30.102  30.952  1.00  0.00     0.029 A 
ATOM     58  C   UNL A   1      46.230  29.077  30.419  1.00  0.00     0.049 A 
ATOM     59  H   UNL A   1      44.178  29.069  29.931  1.00  0.00     0.167 HD
ATOM     60  C   UNL A   1      45.837  26.793  29.528  1.00  0.00     0.074 A 
ATOM     61  C   UNL A   1      46.273  25.462  29.158  1.00  0.00     0.031 C 
ATOM     62  C   UNL A   1      46.648  27.745  30.055  1.00  0.00     0.037 A 
BRANCH  49  63
ATOM     63  C   UNL A   1      43.828  33.136  31.205  1.00  0.00     0.058 A 
ATOM     64  C   UNL A   1      43.867  34.205  30.295  1.00  0.00     0.135 A 
ATOM     65  C   UNL A   1      43.892  33.442  32.574  1.00  0.00     0.135 A 
ATOM     66  F   UNL A   1      43.824  33.973  28.974  1.00  0.00    -0.206 F 
ATOM     67  C   UNL A   1      44.009  35.521  30.724  1.00  0.00     0.059 A 
ATOM     68  C   UNL A   1      43.999  34.754  33.027  1.00  0.00     0.059 A 
ATOM     69  F   UNL A   1      43.857  32.460  33.489  1.00  0.00    -0.206 F 
ATOM     70  C   UNL A   1      44.079  35.785  32.092  1.00  0.00     0.060 A 
BRANCH  70  71
ATOM     71  S   UNL A   1      44.281  37.496  32.631  1.00  0.00     0.124 S 
ATOM     72  O   UNL A   1      44.010  38.223  31.394  1.00  0.00    -0.237 OA
ATOM     73  O   UNL A   1      43.266  37.617  33.672  1.00  0.00    -0.237 OA
ATOM     74  O   UNL A   1      45.663  37.545  33.098  1.00  0.00    -0.744 OA
ENDBRANCH  70  71
ENDBRANCH  49  63
BRANCH  50  75
ATOM     75  C   UNL A   1      42.635  23.820  27.754  1.00  0.00     0.058 A 
ATOM     76  C   UNL A   1      42.482  22.715  28.605  1.00  0.00     0.135 A 
ATOM     77  C   UNL A   1      42.587  23.591  26.370  1.00  0.00     0.135 A 
ATOM     78  F   UNL A   1      42.529  22.881  29.935  1.00  0.00    -0.206 F 
ATOM     79  C   UNL A   1      42.295  21.430  28.105  1.00  0.00     0.059 A 
ATOM     80  C   UNL A   1      42.373  22.319  25.847  1.00  0.00     0.059 A 
ATOM     81  F   UNL A   1      42.711  24.616  25.514  1.00  0.00    -0.206 F 
ATOM     82  C   UNL A   1      42.234  21.244  26.723  1.00  0.00     0.060 A 
BRANCH  82  83
ATOM     83  S   UNL A   1      41.920  19.583  26.086  1.00  0.00     0.124 S 
ATOM     84  O   UNL A   1      42.850  19.516  24.965  1.00  0.00    -0.237 OA
ATOM     85  O   UNL A   1      42.246  18.748  27.239  1.00  0.00    -0.237 OA
ATOM     86  O   UNL A   1      40.505  19.622  25.730  1.00  0.00    -0.744 OA
ENDBRANCH  82  83
ENDBRANCH  50  75
BRANCH  62  87
ATOM     87  C   UNL A   1      48.083  27.375  30.312  1.00  0.00     0.058 A 
ATOM     88  C   UNL A   1      49.095  27.623  29.370  1.00  0.00     0.135 A 
ATOM     89  C   UNL A   1      48.460  26.828  31.549  1.00  0.00     0.135 A 
ATOM     90  F   UNL A   1      48.789  28.137  28.169  1.00  0.00    -0.206 F 
ATOM     91  C   UNL A   1      50.427  27.326  29.641  1.00  0.00     0.059 A 
ATOM     92  C   UNL A   1      49.789  26.552  31.853  1.00  0.00     0.059 A 
ATOM     93  F   UNL A   1      47.534  26.580  32.489  1.00  0.00    -0.206 F 
ATOM     94  C   UNL A   1      50.765  26.796  30.888  1.00  0.00     0.060 A 
BRANCH  94  95
ATOM     95  S   UNL A   1      52.502  26.460  31.243  1.00  0.00     0.124 S 
ATOM     96  O   UNL A   1      53.099  26.560  29.916  1.00  0.00    -0.237 OA
ATOM     97  O   UNL A   1      52.842  27.532  32.174  1.00  0.00    -0.237 OA
ATOM     98  O   UNL A   1      52.479  25.119  31.822  1.00  0.00    -0.744 OA
ENDBRANCH  94  95
ENDBRANCH  62  87
ENDBRANCH  36  37
ENDBRANCH  28  31
ENDBRANCH  26  27
ENDBRANCH  25  26
ENDBRANCH  24  25
ENDBRANCH   1  24
TORSDOF 19
ENDMDL
MODEL 2
REMARK VINA RESULT:      -9.5      4.784     12.145
REMARK SMILES C[C@@H](C(=O)NCCCCCCNC(=O)c1ccc(-c2c3nc(c(-c4c(F)cc(S(=O)(=O)[O-])cc4F)c4ccc([nH]4)c(-c4c(F)cc(S(=O)(=O)[O-])cc4F)c4nc(c(-c5c(F)cc(S(=O)(=O)[O-])cc5F)c5ccc2[nH]5)C=C4)C=C3)cc1)c1cccc(C(=O)c2ccccc2)c1
REMARK SMILES IDX 8 1 7 2 6 3 5 4 3 5 4 6 2 8 1 9 81 10 82 11 94 12 83 13
REMARK SMILES IDX 85 14 84 15 86 16 87 17 88 18 89 19 93 20 90 21 92 22 91 23
REMARK SMILES IDX 9 24 10 25 11 26 12 27 13 28 14 30 15 31 16 32 80 33 17 34
REMARK SMILES IDX 79 35 18 36 19 37 20 38 73 39 21 40 78 41 72 42 74 43 22 44
REMARK SMILES IDX 77 45 71 46 70 47 23 49 57 50 36 51 56 52 37 53 40 54 55 55
REMARK SMILES IDX 75 56 38 57 39 58 54 60 76 61 41 62 24 63 25 64 34 65 26 66
REMARK SMILES IDX 27 67 33 68 35 69 28 70 29 71 30 72 31 73 32 74 58 75 59 76
REMARK SMILES IDX 68 77 60 78 61 79 67 80 69 81 62 82 63 83 64 84 65 85 66 86
REMARK SMILES IDX 42 87 43 88 52 89 44 90 45 91 51 92 53 93 46 94 47 95 48 96
REMARK SMILES IDX 49 97 50 98
REMARK H PARENT 5 7 12 29 74 48 40 59
REMARK Flexibility Score: inf
ROOT
ATOM      1  C   UNL A   1      41.124  22.378  28.306  1.00  0.00     0.002 C 
ENDROOT
BRANCH   1   2
ATOM      2  C   UNL A   1      40.533  21.420  27.259  1.00  0.00     0.021 C 
BRANCH   2   3
ATOM      3  C   UNL A   1      39.964  22.123  26.020  1.00  0.00     0.116 C 
BRANCH   3   4
ATOM      4  N   UNL A   1      38.781  21.422  25.568  1.00  0.00    -0.356 N 
ATOM      5  C   UNL A   1      37.499  21.889  25.515  1.00  0.00     0.227 C 
ATOM      6  O   UNL A   1      36.603  21.058  25.676  1.00  0.00    -0.274 OA
ATOM      7  H   UNL A   1      38.916  20.496  25.260  1.00  0.00     0.163 HD
BRANCH   5   8
ATOM      8  C   UNL A   1      37.244  23.387  25.239  1.00  0.00     0.105 C 
ATOM      9  C   UNL A   1      37.617  24.173  26.506  1.00  0.00     0.023 C 
BRANCH   8  10
ATOM     10  C   UNL A   1      35.809  23.705  24.782  1.00  0.00    -0.035 A 
ATOM     11  C   UNL A   1      35.360  23.366  23.494  1.00  0.00     0.004 A 
ATOM     12  C   UNL A   1      34.895  24.347  25.634  1.00  0.00     0.016 A 
ATOM     13  C   UNL A   1      34.105  23.773  23.035  1.00  0.00     0.001 A 
ATOM     14  C   UNL A   1      33.667  24.833  25.162  1.00  0.00     0.023 A 
ATOM     15  C   UNL A   1      33.274  24.533  23.857  1.00  0.00     0.012 A 
BRANCH  14  16
ATOM     16  C   UNL A   1      32.763  25.664  26.011  1.00  0.00     0.193 C 
ATOM     17  O   UNL A   1      32.007  25.123  26.815  1.00  0.00    -0.289 OA
BRANCH  16  18
ATOM     18  C   UNL A   1      32.768  27.146  25.937  1.00  0.00     0.022 A 
ATOM     19  C   UNL A   1      31.673  27.776  25.337  1.00  0.00     0.012 A 
ATOM     20  C   UNL A   1      33.824  27.911  26.446  1.00  0.00     0.012 A 
ATOM     21  C   UNL A   1      31.607  29.170  25.297  1.00  0.00     0.001 A 
ATOM     22  C   UNL A   1      33.750  29.305  26.410  1.00  0.00     0.001 A 
ATOM     23  C   UNL A   1      32.641  29.933  25.842  1.00  0.00     0.000 A 
ENDBRANCH  16  18
ENDBRANCH  14  16
ENDBRANCH   8  10
ENDBRANCH   5   8
ENDBRANCH   3   4
ENDBRANCH   2   3
ENDBRANCH   1   2
BRANCH   1  24
ATOM     24  C   UNL A   1      42.633  22.244  28.516  1.00  0.00     0.002 C 
BRANCH  24  25
ATOM     25  C   UNL A   1      43.475  22.535  27.273  1.00  0.00     0.021 C 
BRANCH  25  26
ATOM     26  C   UNL A   1      43.697  24.019  27.005  1.00  0.00     0.116 C 
BRANCH  26  27
ATOM     27  N   UNL A   1      42.882  24.498  25.898  1.00  0.00    -0.352 N 
ATOM     28  C   UNL A   1      41.912  25.469  25.908  1.00  0.00     0.251 C 
ATOM     29  H   UNL A   1      43.049  24.069  25.029  1.00  0.00     0.163 HD
ATOM     30  O   UNL A   1      41.166  25.610  24.943  1.00  0.00    -0.269 OA
BRANCH  28  31
ATOM     31  C   UNL A   1      41.766  26.331  27.100  1.00  0.00     0.039 A 
ATOM     32  C   UNL A   1      42.508  27.509  27.186  1.00  0.00     0.014 A 
ATOM     33  C   UNL A   1      40.879  25.977  28.120  1.00  0.00     0.014 A 
ATOM     34  C   UNL A   1      42.320  28.364  28.275  1.00  0.00     0.010 A 
ATOM     35  C   UNL A   1      40.634  26.865  29.161  1.00  0.00     0.010 A 
ATOM     36  C   UNL A   1      41.361  28.062  29.256  1.00  0.00    -0.014 A 
BRANCH  36  37
ATOM     37  C   UNL A   1      41.114  28.965  30.409  1.00  0.00     0.031 A 
ATOM     38  C   UNL A   1      41.922  28.802  31.669  1.00  0.00     0.074 A 
ATOM     39  C   UNL A   1      40.118  29.870  30.355  1.00  0.00     0.049 A 
ATOM     40  N   UNL A   1      41.788  29.406  32.820  1.00  0.00    -0.248 NA
ATOM     41  C   UNL A   1      43.002  27.802  31.635  1.00  0.00     0.031 C 
ATOM     42  C   UNL A   1      39.241  30.096  29.205  1.00  0.00     0.029 A 
ATOM     43  N   UNL A   1      39.663  30.758  31.298  1.00  0.00    -0.354 N 
ATOM     44  C   UNL A   1      42.750  28.845  33.654  1.00  0.00     0.074 A 
ATOM     45  C   UNL A   1      43.420  27.814  32.892  1.00  0.00     0.031 C 
ATOM     46  C   UNL A   1      38.365  31.069  29.504  1.00  0.00     0.029 A 
ATOM     47  C   UNL A   1      38.587  31.505  30.879  1.00  0.00     0.049 A 
ATOM     48  H   UNL A   1      40.069  30.852  32.189  1.00  0.00     0.167 HD
ATOM     49  C   UNL A   1      43.062  29.176  34.930  1.00  0.00     0.037 A 
ATOM     50  C   UNL A   1      37.853  32.426  31.534  1.00  0.00     0.037 A 
ATOM     51  C   UNL A   1      42.404  30.220  35.672  1.00  0.00     0.049 A 
ATOM     52  C   UNL A   1      38.212  32.774  32.954  1.00  0.00     0.074 A 
ATOM     53  C   UNL A   1      42.679  30.670  36.951  1.00  0.00     0.029 A 
ATOM     54  N   UNL A   1      41.336  30.972  35.203  1.00  0.00    -0.354 N 
ATOM     55  N   UNL A   1      39.159  32.274  33.711  1.00  0.00    -0.248 NA
ATOM     56  C   UNL A   1      37.407  33.815  33.608  1.00  0.00     0.031 C 
ATOM     57  C   UNL A   1      41.745  31.660  37.274  1.00  0.00     0.029 A 
ATOM     58  C   UNL A   1      40.927  31.869  36.175  1.00  0.00     0.049 A 
ATOM     59  H   UNL A   1      40.930  30.882  34.312  1.00  0.00     0.167 HD
ATOM     60  C   UNL A   1      39.087  32.963  34.917  1.00  0.00     0.074 A 
ATOM     61  C   UNL A   1      38.005  33.917  34.788  1.00  0.00     0.031 C 
ATOM     62  C   UNL A   1      39.853  32.822  36.029  1.00  0.00     0.037 A 
BRANCH  49  63
ATOM     63  C   UNL A   1      44.158  28.392  35.602  1.00  0.00     0.058 A 
ATOM     64  C   UNL A   1      43.883  27.270  36.401  1.00  0.00     0.135 A 
ATOM     65  C   UNL A   1      45.503  28.761  35.438  1.00  0.00     0.135 A 
ATOM     66  F   UNL A   1      42.615  26.879  36.606  1.00  0.00    -0.206 F 
ATOM     67  C   UNL A   1      44.896  26.569  37.047  1.00  0.00     0.059 A 
ATOM     68  C   UNL A   1      46.536  28.054  36.047  1.00  0.00     0.059 A 
ATOM     69  F   UNL A   1      45.825  29.823  34.683  1.00  0.00    -0.206 F 
ATOM     70  C   UNL A   1      46.220  26.972  36.867  1.00  0.00     0.060 A 
BRANCH  70  71
ATOM     71  S   UNL A   1      47.522  26.064  37.726  1.00  0.00     0.124 S 
ATOM     72  O   UNL A   1      47.546  26.745  39.018  1.00  0.00    -0.237 OA
ATOM     73  O   UNL A   1      46.998  24.702  37.738  1.00  0.00    -0.237 OA
ATOM     74  O   UNL A   1      48.696  26.274  36.885  1.00  0.00    -0.744 OA
ENDBRANCH  70  71
ENDBRANCH  49  63
BRANCH  50  75
ATOM     75  C   UNL A   1      36.722  33.098  30.840  1.00  0.00     0.058 A 
ATOM     76  C   UNL A   1      35.392  32.762  31.137  1.00  0.00     0.135 A 
ATOM     77  C   UNL A   1      36.944  34.111  29.895  1.00  0.00     0.135 A 
ATOM     78  F   UNL A   1      35.128  31.794  32.028  1.00  0.00    -0.206 F 
ATOM     79  C   UNL A   1      34.323  33.401  30.517  1.00  0.00     0.059 A 
ATOM     80  C   UNL A   1      35.891  34.783  29.282  1.00  0.00     0.059 A 
ATOM     81  F   UNL A   1      38.196  34.482  29.588  1.00  0.00    -0.206 F 
ATOM     82  C   UNL A   1      34.583  34.416  29.596  1.00  0.00     0.060 A 
BRANCH  82  83
ATOM     83  S   UNL A   1      33.187  35.287  28.850  1.00  0.00     0.124 S 
ATOM     84  O   UNL A   1      32.521  34.210  28.126  1.00  0.00    -0.237 OA
ATOM     85  O   UNL A   1      32.485  35.798  30.024  1.00  0.00    -0.237 OA
ATOM     86  O   UNL A   1      33.829  36.302  28.021  1.00  0.00    -0.744 OA
ENDBRANCH  82  83
ENDBRANCH  50  75
BRANCH  62  87
ATOM     87  C   UNL A   1      39.587  33.749  37.182  1.00  0.00     0.058 A 
ATOM     88  C   UNL A   1      38.718  33.403  38.229  1.00  0.00     0.135 A 
ATOM     89  C   UNL A   1      40.269  34.974  37.274  1.00  0.00     0.135 A 
ATOM     90  F   UNL A   1      38.036  32.248  38.188  1.00  0.00    -0.206 F 
ATOM     91  C   UNL A   1      38.522  34.246  39.319  1.00  0.00     0.059 A 
ATOM     92  C   UNL A   1      40.112  35.819  38.368  1.00  0.00     0.059 A 
ATOM     93  F   UNL A   1      41.118  35.349  36.305  1.00  0.00    -0.206 F 
ATOM     94  C   UNL A   1      39.228  35.450  39.382  1.00  0.00     0.060 A 
BRANCH  94  95
ATOM     95  S   UNL A   1      39.000  36.512  40.823  1.00  0.00     0.124 S 
ATOM     96  O   UNL A   1      38.502  37.738  40.210  1.00  0.00    -0.237 OA
ATOM     97  O   UNL A   1      38.031  35.759  41.614  1.00  0.00    -0.237 OA
ATOM     98  O   UNL A   1      40.339  36.597  41.400  1.00  0.00    -0.744 OA
ENDBRANCH  94  95
ENDBRANCH  62  87
ENDBRANCH  36  37
ENDBRANCH  28  31
ENDBRANCH  26  27
ENDBRANCH  25  26
ENDBRANCH  24  25
ENDBRANCH   1  24
TORSDOF 19
ENDMDL
MODEL 3
REMARK VINA RESULT:      -9.5      3.242     10.756
REMARK SMILES C[C@@H](C(=O)NCCCCCCNC(=O)c1ccc(-c2c3nc(c(-c4c(F)cc(S(=O)(=O)[O-])cc4F)c4ccc([nH]4)c(-c4c(F)cc(S(=O)(=O)[O-])cc4F)c4nc(c(-c5c(F)cc(S(=O)(=O)[O-])cc5F)c5ccc2[nH]5)C=C4)C=C3)cc1)c1cccc(C(=O)c2ccccc2)c1
REMARK SMILES IDX 8 1 7 2 6 3 5 4 3 5 4 6 2 8 1 9 81 10 82 11 94 12 83 13
REMARK SMILES IDX 85 14 84 15 86 16 87 17 88 18 89 19 93 20 90 21 92 22 91 23
REMARK SMILES IDX 9 24 10 25 11 26 12 27 13 28 14 30 15 31 16 32 80 33 17 34
REMARK SMILES IDX 79 35 18 36 19 37 20 38 73 39 21 40 78 41 72 42 74 43 22 44
REMARK SMILES IDX 77 45 71 46 70 47 23 49 57 50 36 51 56 52 37 53 40 54 55 55
REMARK SMILES IDX 75 56 38 57 39 58 54 60 76 61 41 62 24 63 25 64 34 65 26 66
REMARK SMILES IDX 27 67 33 68 35 69 28 70 29 71 30 72 31 73 32 74 58 75 59 76
REMARK SMILES IDX 68 77 60 78 61 79 67 80 69 81 62 82 63 83 64 84 65 85 66 86
REMARK SMILES IDX 42 87 43 88 52 89 44 90 45 91 51 92 53 93 46 94 47 95 48 96
REMARK SMILES IDX 49 97 50 98
REMARK H PARENT 5 7 12 29 74 48 40 59
REMARK Flexibility Score: inf
ROOT
ATOM      1  C   UNL A   1      43.509  23.790  26.156  1.00  0.00     0.002 C 
ENDROOT
BRANCH   1   2
ATOM      2  C   UNL A   1      44.970  23.978  26.593  1.00  0.00     0.021 C 
BRANCH   2   3
ATOM      3  C   UNL A   1      45.139  24.823  27.862  1.00  0.00     0.116 C 
BRANCH   3   4
ATOM      4  N   UNL A   1      46.311  25.663  27.731  1.00  0.00    -0.356 N 
ATOM      5  C   UNL A   1      46.746  26.326  26.620  1.00  0.00     0.227 C 
ATOM      6  O   UNL A   1      47.965  26.479  26.511  1.00  0.00    -0.274 OA
ATOM      7  H   UNL A   1      46.861  25.770  28.541  1.00  0.00     0.163 HD
BRANCH   5   8
ATOM      8  C   UNL A   1      45.717  26.859  25.598  1.00  0.00     0.105 C 
ATOM      9  C   UNL A   1      46.492  27.449  24.410  1.00  0.00     0.023 C 
BRANCH   8  10
ATOM     10  C   UNL A   1      44.723  27.877  26.184  1.00  0.00    -0.035 A 
ATOM     11  C   UNL A   1      43.367  27.871  25.815  1.00  0.00     0.004 A 
ATOM     12  C   UNL A   1      45.134  28.854  27.108  1.00  0.00     0.016 A 
ATOM     13  C   UNL A   1      42.496  28.876  26.243  1.00  0.00     0.001 A 
ATOM     14  C   UNL A   1      44.295  29.914  27.479  1.00  0.00     0.023 A 
ATOM     15  C   UNL A   1      42.967  29.913  27.047  1.00  0.00     0.012 A 
BRANCH  14  16
ATOM     16  C   UNL A   1      44.773  31.047  28.324  1.00  0.00     0.193 C 
ATOM     17  O   UNL A   1      45.715  30.882  29.096  1.00  0.00    -0.289 OA
BRANCH  16  18
ATOM     18  C   UNL A   1      44.160  32.396  28.240  1.00  0.00     0.022 A 
ATOM     19  C   UNL A   1      43.270  32.775  29.250  1.00  0.00     0.012 A 
ATOM     20  C   UNL A   1      44.449  33.279  27.194  1.00  0.00     0.012 A 
ATOM     21  C   UNL A   1      42.714  34.055  29.243  1.00  0.00     0.001 A 
ATOM     22  C   UNL A   1      43.896  34.561  27.195  1.00  0.00     0.001 A 
ATOM     23  C   UNL A   1      43.035  34.950  28.222  1.00  0.00     0.000 A 
ENDBRANCH  16  18
ENDBRANCH  14  16
ENDBRANCH   8  10
ENDBRANCH   5   8
ENDBRANCH   3   4
ENDBRANCH   2   3
ENDBRANCH   1   2
BRANCH   1  24
ATOM     24  C   UNL A   1      42.774  22.644  26.853  1.00  0.00     0.002 C 
BRANCH  24  25
ATOM     25  C   UNL A   1      41.760  21.913  25.973  1.00  0.00     0.021 C 
BRANCH  25  26
ATOM     26  C   UNL A   1      40.442  21.599  26.670  1.00  0.00     0.116 C 
BRANCH  26  27
ATOM     27  N   UNL A   1      39.297  22.028  25.880  1.00  0.00    -0.352 N 
ATOM     28  C   UNL A   1      38.608  23.213  25.945  1.00  0.00     0.251 C 
ATOM     29  H   UNL A   1      38.974  21.382  25.211  1.00  0.00     0.163 HD
ATOM     30  O   UNL A   1      37.534  23.339  25.362  1.00  0.00    -0.269 OA
BRANCH  28  31
ATOM     31  C   UNL A   1      39.165  24.329  26.738  1.00  0.00     0.039 A 
ATOM     32  C   UNL A   1      39.953  25.290  26.105  1.00  0.00     0.014 A 
ATOM     33  C   UNL A   1      38.888  24.428  28.104  1.00  0.00     0.014 A 
ATOM     34  C   UNL A   1      40.421  26.386  26.835  1.00  0.00     0.010 A 
ATOM     35  C   UNL A   1      39.287  25.558  28.809  1.00  0.00     0.010 A 
ATOM     36  C   UNL A   1      40.068  26.543  28.184  1.00  0.00    -0.014 A 
BRANCH  36  37
ATOM     37  C   UNL A   1      40.523  27.712  28.979  1.00  0.00     0.031 A 
ATOM     38  C   UNL A   1      41.863  27.671  29.664  1.00  0.00     0.074 A 
ATOM     39  C   UNL A   1      39.706  28.769  29.152  1.00  0.00     0.049 A 
ATOM     40  N   UNL A   1      42.395  28.532  30.492  1.00  0.00    -0.248 NA
ATOM     41  C   UNL A   1      42.699  26.487  29.408  1.00  0.00     0.031 C 
ATOM     42  C   UNL A   1      38.369  28.909  28.571  1.00  0.00     0.029 A 
ATOM     43  N   UNL A   1      39.873  29.921  29.880  1.00  0.00    -0.354 N 
ATOM     44  C   UNL A   1      43.616  27.985  30.872  1.00  0.00     0.074 A 
ATOM     45  C   UNL A   1      43.718  26.694  30.229  1.00  0.00     0.031 C 
ATOM     46  C   UNL A   1      37.844  30.085  28.954  1.00  0.00     0.029 A 
ATOM     47  C   UNL A   1      38.786  30.762  29.840  1.00  0.00     0.049 A 
ATOM     48  H   UNL A   1      40.693  30.125  30.383  1.00  0.00     0.167 HD
ATOM     49  C   UNL A   1      44.575  28.521  31.665  1.00  0.00     0.037 A 
ATOM     50  C   UNL A   1      38.566  31.938  30.459  1.00  0.00     0.037 A 
ATOM     51  C   UNL A   1      44.472  29.818  32.281  1.00  0.00     0.049 A 
ATOM     52  C   UNL A   1      39.641  32.513  31.343  1.00  0.00     0.074 A 
ATOM     53  C   UNL A   1      45.408  30.476  33.059  1.00  0.00     0.029 A 
ATOM     54  N   UNL A   1      43.366  30.652  32.195  1.00  0.00    -0.354 N 
ATOM     55  N   UNL A   1      40.813  32.009  31.648  1.00  0.00    -0.248 NA
ATOM     56  C   UNL A   1      39.368  33.818  31.960  1.00  0.00     0.031 C 
ATOM     57  C   UNL A   1      44.849  31.685  33.485  1.00  0.00     0.029 A 
ATOM     58  C   UNL A   1      43.588  31.809  32.922  1.00  0.00     0.049 A 
ATOM     59  H   UNL A   1      42.546  30.450  31.691  1.00  0.00     0.167 HD
ATOM     60  C   UNL A   1      41.432  32.950  32.465  1.00  0.00     0.074 A 
ATOM     61  C   UNL A   1      40.504  34.055  32.603  1.00  0.00     0.031 C 
ATOM     62  C   UNL A   1      42.658  32.906  33.042  1.00  0.00     0.037 A 
BRANCH  49  63
ATOM     63  C   UNL A   1      45.810  27.697  31.914  1.00  0.00     0.058 A 
ATOM     64  C   UNL A   1      45.953  26.907  33.066  1.00  0.00     0.135 A 
ATOM     65  C   UNL A   1      46.861  27.689  30.983  1.00  0.00     0.135 A 
ATOM     66  F   UNL A   1      44.987  26.886  33.998  1.00  0.00    -0.206 F 
ATOM     67  C   UNL A   1      47.111  26.174  33.308  1.00  0.00     0.059 A 
ATOM     68  C   UNL A   1      48.015  26.936  31.188  1.00  0.00     0.059 A 
ATOM     69  F   UNL A   1      46.779  28.424  29.863  1.00  0.00    -0.206 F 
ATOM     70  C   UNL A   1      48.139  26.199  32.364  1.00  0.00     0.060 A 
BRANCH  70  71
ATOM     71  S   UNL A   1      49.641  25.257  32.700  1.00  0.00     0.124 S 
ATOM     72  O   UNL A   1      50.009  24.812  31.359  1.00  0.00    -0.237 OA
ATOM     73  O   UNL A   1      50.514  26.263  33.295  1.00  0.00    -0.237 OA
ATOM     74  O   UNL A   1      49.189  24.207  33.607  1.00  0.00    -0.744 OA
ENDBRANCH  70  71
ENDBRANCH  49  63
BRANCH  50  75
ATOM     75  C   UNL A   1      37.282  32.657  30.244  1.00  0.00     0.058 A 
ATOM     76  C   UNL A   1      36.177  32.426  31.077  1.00  0.00     0.135 A 
ATOM     77  C   UNL A   1      37.144  33.615  29.227  1.00  0.00     0.135 A 
ATOM     78  F   UNL A   1      36.257  31.515  32.058  1.00  0.00    -0.206 F 
ATOM     79  C   UNL A   1      34.978  33.112  30.905  1.00  0.00     0.059 A 
ATOM     80  C   UNL A   1      35.965  34.333  29.053  1.00  0.00     0.059 A 
ATOM     81  F   UNL A   1      38.176  33.886  28.413  1.00  0.00    -0.206 F 
ATOM     82  C   UNL A   1      34.885  34.069  29.894  1.00  0.00     0.060 A 
BRANCH  82  83
ATOM     83  S   UNL A   1      33.348  35.003  29.726  1.00  0.00     0.124 S 
ATOM     84  O   UNL A   1      33.832  36.277  29.209  1.00  0.00    -0.237 OA
ATOM     85  O   UNL A   1      32.591  34.178  28.790  1.00  0.00    -0.237 OA
ATOM     86  O   UNL A   1      32.824  35.033  31.089  1.00  0.00    -0.744 OA
ENDBRANCH  82  83
ENDBRANCH  50  75
BRANCH  62  87
ATOM     87  C   UNL A   1      43.099  34.103  33.840  1.00  0.00     0.058 A 
ATOM     88  C   UNL A   1      43.505  35.298  33.224  1.00  0.00     0.135 A 
ATOM     89  C   UNL A   1      43.045  34.074  35.243  1.00  0.00     0.135 A 
ATOM     90  F   UNL A   1      43.581  35.377  31.886  1.00  0.00    -0.206 F 
ATOM     91  C   UNL A   1      43.858  36.416  33.972  1.00  0.00     0.059 A 
ATOM     92  C   UNL A   1      43.364  35.190  36.011  1.00  0.00     0.059 A 
ATOM     93  F   UNL A   1      42.655  32.960  35.882  1.00  0.00    -0.206 F 
ATOM     94  C   UNL A   1      43.779  36.354  35.366  1.00  0.00     0.060 A 
BRANCH  94  95
ATOM     95  S   UNL A   1      44.194  37.827  36.322  1.00  0.00     0.124 S 
ATOM     96  O   UNL A   1      44.060  38.878  35.319  1.00  0.00    -0.237 OA
ATOM     97  O   UNL A   1      43.177  37.815  37.369  1.00  0.00    -0.237 OA
ATOM     98  O   UNL A   1      45.557  37.565  36.778  1.00  0.00    -0.744 OA
ENDBRANCH  94  95
ENDBRANCH  62  87
ENDBRANCH  36  37
ENDBRANCH  28  31
ENDBRANCH  26  27
ENDBRANCH  25  26
ENDBRANCH  24  25
ENDBRANCH   1  24
TORSDOF 19
ENDMDL
