MODEL 1
REMARK VINA RESULT:     -10.9      0.000      0.000
REMARK SMILES C[NH2+][C@]1(C(=O)NCCCCCCNC(=O)c2ccc(-c3c4nc(c(-c5c(F)cc(S(=O)(=O)[O-])cc5F)c5ccc([nH]5)c(-c5c(F)cc(S(=O)(=O)[O-])cc5F)c5nc(c(-c6c(F)cc(S(=O)(=O)[O-])cc6F)c6ccc3[nH]6)C=C5)C=C4)cc2)CCC[C@H]1CCOC1C[C@@H](C)C[C@H](C)C1
REMARK SMILES IDX 9 1 8 2 7 3 6 4 4 5 5 6 3 8 82 9 85 10 83 11 84 12 2 13 1 14
REMARK SMILES IDX 86 17 87 18 88 19 89 20 90 21 96 22 91 23 94 24 92 25 93 26
REMARK SMILES IDX 95 27 10 28 11 29 12 30 13 31 14 32 15 34 16 35 17 36 81 37
REMARK SMILES IDX 18 38 80 39 19 40 20 41 21 42 74 43 22 44 79 45 73 46 75 47
REMARK SMILES IDX 23 48 78 49 72 50 71 51 24 53 58 54 37 55 57 56 38 57 41 58
REMARK SMILES IDX 56 59 76 60 39 61 40 62 55 64 77 65 42 66 25 67 26 68 35 69
REMARK SMILES IDX 27 70 28 71 34 72 36 73 29 74 30 75 31 76 32 77 33 78 59 79
REMARK SMILES IDX 60 80 69 81 61 82 62 83 68 84 70 85 63 86 64 87 65 88 66 89
REMARK SMILES IDX 67 90 43 91 44 92 53 93 45 94 46 95 52 96 54 97 47 98 48 99
REMARK SMILES IDX 49 100 50 101 51 102
REMARK H PARENT 6 7 2 15 2 16 13 33 75 52 41 63
REMARK Flexibility Score: inf
ROOT
ATOM      1  C   UNL A   1      38.401  23.222  26.560  1.00  0.00     0.002 C 
ENDROOT
BRANCH   1   2
ATOM      2  C   UNL A   1      37.574  23.702  25.362  1.00  0.00     0.021 C 
BRANCH   2   3
ATOM      3  C   UNL A   1      36.112  23.908  25.689  1.00  0.00     0.116 C 
BRANCH   3   4
ATOM      4  N   UNL A   1      35.588  22.867  26.510  1.00  0.00    -0.351 N 
ATOM      5  C   UNL A   1      34.363  22.315  26.476  1.00  0.00     0.281 C 
ATOM      6  O   UNL A   1      34.172  21.421  27.319  1.00  0.00    -0.268 OA
ATOM      7  H   UNL A   1      36.204  22.505  27.187  1.00  0.00     0.163 HD
BRANCH   5   8
ATOM      8  C   UNL A   1      33.167  22.799  25.557  1.00  0.00     0.178 C 
ATOM      9  C   UNL A   1      31.936  21.968  25.995  1.00  0.00     0.079 C 
ATOM     10  C   UNL A   1      32.624  24.309  25.459  1.00  0.00     0.063 C 
ATOM     11  C   UNL A   1      30.724  22.716  25.483  1.00  0.00     0.008 C 
ATOM     12  C   UNL A   1      31.089  24.169  25.708  1.00  0.00     0.011 C 
BRANCH   8  13
ATOM     13  N   UNL A   1      33.647  22.383  24.186  1.00  0.00    -0.336 N 
ATOM     14  C   UNL A   1      33.720  23.304  23.077  1.00  0.00     0.331 C 
ATOM     15  H   UNL A   1      34.592  22.021  24.316  1.00  0.00     0.346 HD
ATOM     16  H   UNL A   1      32.904  21.752  23.887  1.00  0.00     0.346 HD
ENDBRANCH   8  13
BRANCH  10  17
ATOM     17  C   UNL A   1      33.061  25.674  26.171  1.00  0.00     0.039 C 
BRANCH  17  18
ATOM     18  C   UNL A   1      32.176  26.899  26.639  1.00  0.00     0.161 C 
BRANCH  18  19
ATOM     19  O   UNL A   1      31.585  27.776  25.679  1.00  0.00    -0.378 OA
BRANCH  19  20
ATOM     20  C   UNL A   1      32.081  29.001  25.125  1.00  0.00     0.118 C 
ATOM     21  C   UNL A   1      33.193  29.080  24.077  1.00  0.00     0.035 C 
ATOM     22  C   UNL A   1      30.892  29.819  24.632  1.00  0.00     0.035 C 
ATOM     23  C   UNL A   1      32.811  28.603  22.679  1.00  0.00    -0.011 C 
ATOM     24  C   UNL A   1      30.321  29.090  23.433  1.00  0.00    -0.011 C 
ATOM     25  C   UNL A   1      33.240  27.146  22.556  1.00  0.00     0.008 C 
ATOM     26  C   UNL A   1      31.353  29.013  22.286  1.00  0.00     0.006 C 
ATOM     27  C   UNL A   1      28.926  29.581  23.064  1.00  0.00     0.008 C 
ENDBRANCH  19  20
ENDBRANCH  18  19
ENDBRANCH  17  18
ENDBRANCH  10  17
ENDBRANCH   5   8
ENDBRANCH   3   4
ENDBRANCH   2   3
ENDBRANCH   1   2
BRANCH   1  28
ATOM     28  C   UNL A   1      39.435  22.120  26.280  1.00  0.00     0.002 C 
BRANCH  28  29
ATOM     29  C   UNL A   1      40.517  21.912  27.343  1.00  0.00     0.021 C 
BRANCH  29  30
ATOM     30  C   UNL A   1      41.562  23.015  27.446  1.00  0.00     0.116 C 
BRANCH  30  31
ATOM     31  N   UNL A   1      41.672  23.819  26.247  1.00  0.00    -0.352 N 
ATOM     32  C   UNL A   1      41.624  25.189  26.127  1.00  0.00     0.251 C 
ATOM     33  H   UNL A   1      41.798  23.321  25.407  1.00  0.00     0.163 HD
ATOM     34  O   UNL A   1      41.659  25.710  25.026  1.00  0.00    -0.269 OA
BRANCH  32  35
ATOM     35  C   UNL A   1      41.483  26.011  27.350  1.00  0.00     0.039 A 
ATOM     36  C   UNL A   1      42.485  26.938  27.638  1.00  0.00     0.014 A 
ATOM     37  C   UNL A   1      40.366  25.895  28.180  1.00  0.00     0.014 A 
ATOM     38  C   UNL A   1      42.340  27.788  28.736  1.00  0.00     0.010 A 
ATOM     39  C   UNL A   1      40.185  26.796  29.225  1.00  0.00     0.010 A 
ATOM     40  C   UNL A   1      41.174  27.747  29.518  1.00  0.00    -0.014 A 
BRANCH  40  41
ATOM     41  C   UNL A   1      40.980  28.691  30.648  1.00  0.00     0.031 A 
ATOM     42  C   UNL A   1      41.817  28.561  31.890  1.00  0.00     0.074 A 
ATOM     43  C   UNL A   1      40.017  29.631  30.571  1.00  0.00     0.049 A 
ATOM     44  N   UNL A   1      41.767  29.258  32.996  1.00  0.00    -0.248 NA
ATOM     45  C   UNL A   1      42.825  27.488  31.906  1.00  0.00     0.031 C 
ATOM     46  C   UNL A   1      39.109  29.818  29.438  1.00  0.00     0.029 A 
ATOM     47  N   UNL A   1      39.635  30.598  31.465  1.00  0.00    -0.354 N 
ATOM     48  C   UNL A   1      42.724  28.704  33.838  1.00  0.00     0.074 A 
ATOM     49  C   UNL A   1      43.297  27.575  33.140  1.00  0.00     0.031 C 
ATOM     50  C   UNL A   1      38.290  30.850  29.696  1.00  0.00     0.029 A 
ATOM     51  C   UNL A   1      38.586  31.372  31.026  1.00  0.00     0.049 A 
ATOM     52  H   UNL A   1      40.070  30.726  32.339  1.00  0.00     0.167 HD
ATOM     53  C   UNL A   1      43.106  29.115  35.071  1.00  0.00     0.037 A 
ATOM     54  C   UNL A   1      37.928  32.380  31.633  1.00  0.00     0.037 A 
ATOM     55  C   UNL A   1      42.539  30.252  35.749  1.00  0.00     0.049 A 
ATOM     56  C   UNL A   1      38.366  32.816  33.004  1.00  0.00     0.074 A 
ATOM     57  C   UNL A   1      42.896  30.789  36.973  1.00  0.00     0.029 A 
ATOM     58  N   UNL A   1      41.491  31.023  35.265  1.00  0.00    -0.354 N 
ATOM     59  N   UNL A   1      39.324  32.328  33.757  1.00  0.00    -0.248 NA
ATOM     60  C   UNL A   1      37.642  33.942  33.608  1.00  0.00     0.031 C 
ATOM     61  C   UNL A   1      42.026  31.847  37.256  1.00  0.00     0.029 A 
ATOM     62  C   UNL A   1      41.169  32.013  36.179  1.00  0.00     0.049 A 
ATOM     63  H   UNL A   1      41.042  30.887  34.399  1.00  0.00     0.167 HD
ATOM     64  C   UNL A   1      39.335  33.104  34.910  1.00  0.00     0.074 A 
ATOM     65  C   UNL A   1      38.298  34.103  34.749  1.00  0.00     0.031 C 
ATOM     66  C   UNL A   1      40.133  33.002  36.003  1.00  0.00     0.037 A 
BRANCH  53  67
ATOM     67  C   UNL A   1      44.182  28.327  35.768  1.00  0.00     0.058 A 
ATOM     68  C   UNL A   1      45.546  28.608  35.581  1.00  0.00     0.135 A 
ATOM     69  C   UNL A   1      43.847  27.291  36.656  1.00  0.00     0.135 A 
ATOM     70  F   UNL A   1      45.928  29.576  34.733  1.00  0.00    -0.206 F 
ATOM     71  C   UNL A   1      46.537  27.868  36.220  1.00  0.00     0.059 A 
ATOM     72  C   UNL A   1      44.820  26.561  37.332  1.00  0.00     0.059 A 
ATOM     73  F   UNL A   1      42.560  26.979  36.875  1.00  0.00    -0.206 F 
ATOM     74  C   UNL A   1      46.164  26.846  37.093  1.00  0.00     0.060 A 
BRANCH  74  75
ATOM     75  S   UNL A   1      47.462  25.895  37.911  1.00  0.00     0.124 S 
ATOM     76  O   UNL A   1      48.637  26.718  37.643  1.00  0.00    -0.237 OA
ATOM     77  O   UNL A   1      47.006  25.873  39.297  1.00  0.00    -0.237 OA
ATOM     78  O   UNL A   1      47.427  24.609  37.222  1.00  0.00    -0.744 OA
ENDBRANCH  74  75
ENDBRANCH  53  67
BRANCH  54  79
ATOM     79  C   UNL A   1      36.795  33.050  30.937  1.00  0.00     0.058 A 
ATOM     80  C   UNL A   1      37.020  34.036  29.965  1.00  0.00     0.135 A 
ATOM     81  C   UNL A   1      35.464  32.701  31.217  1.00  0.00     0.135 A 
ATOM     82  F   UNL A   1      38.273  34.408  29.666  1.00  0.00    -0.206 F 
ATOM     83  C   UNL A   1      35.967  34.665  29.308  1.00  0.00     0.059 A 
ATOM     84  C   UNL A   1      34.396  33.295  30.551  1.00  0.00     0.059 A 
ATOM     85  F   UNL A   1      35.194  31.752  32.126  1.00  0.00    -0.206 F 
ATOM     86  C   UNL A   1      34.658  34.282  29.604  1.00  0.00     0.060 A 
BRANCH  86  87
ATOM     87  S   UNL A   1      33.303  35.070  28.707  1.00  0.00     0.124 S 
ATOM     88  O   UNL A   1      32.706  33.932  28.018  1.00  0.00    -0.237 OA
ATOM     89  O   UNL A   1      32.514  35.648  29.790  1.00  0.00    -0.237 OA
ATOM     90  O   UNL A   1      33.984  36.038  27.852  1.00  0.00    -0.744 OA
ENDBRANCH  86  87
ENDBRANCH  54  79
BRANCH  66  91
ATOM     91  C   UNL A   1      39.943  34.015  37.099  1.00  0.00     0.058 A 
ATOM     92  C   UNL A   1      40.555  35.278  37.057  1.00  0.00     0.135 A 
ATOM     93  C   UNL A   1      39.089  33.738  38.180  1.00  0.00     0.135 A 
ATOM     94  F   UNL A   1      41.385  35.593  36.050  1.00  0.00    -0.206 F 
ATOM     95  C   UNL A   1      40.347  36.220  38.058  1.00  0.00     0.059 A 
ATOM     96  C   UNL A   1      38.842  34.676  39.176  1.00  0.00     0.059 A 
ATOM     97  F   UNL A   1      38.471  32.550  38.264  1.00  0.00    -0.206 F 
ATOM     98  C   UNL A   1      39.484  35.911  39.113  1.00  0.00     0.060 A 
BRANCH  98  99
ATOM     99  S   UNL A   1      39.195  37.158  40.386  1.00  0.00     0.124 S 
ATOM    100  O   UNL A   1      38.270  38.060  39.709  1.00  0.00    -0.237 OA
ATOM    101  O   UNL A   1      38.627  36.366  41.474  1.00  0.00    -0.237 OA
ATOM    102  O   UNL A   1      40.527  37.698  40.641  1.00  0.00    -0.744 OA
ENDBRANCH  98  99
ENDBRANCH  66  91
ENDBRANCH  40  41
ENDBRANCH  32  35
ENDBRANCH  30  31
ENDBRANCH  29  30
ENDBRANCH  28  29
ENDBRANCH   1  28
TORSDOF 21
ENDMDL
MODEL 2
REMARK VINA RESULT:     -10.7      1.155      8.295
REMARK SMILES C[NH2+][C@]1(C(=O)NCCCCCCNC(=O)c2ccc(-c3c4nc(c(-c5c(F)cc(S(=O)(=O)[O-])cc5F)c5ccc([nH]5)c(-c5c(F)cc(S(=O)(=O)[O-])cc5F)c5nc(c(-c6c(F)cc(S(=O)(=O)[O-])cc6F)c6ccc3[nH]6)C=C5)C=C4)cc2)CCC[C@H]1CCOC1C[C@@H](C)C[C@H](C)C1
REMARK SMILES IDX 9 1 8 2 7 3 6 4 4 5 5 6 3 8 82 9 85 10 83 11 84 12 2 13 1 14
REMARK SMILES IDX 86 17 87 18 88 19 89 20 90 21 96 22 91 23 94 24 92 25 93 26
REMARK SMILES IDX 95 27 10 28 11 29 12 30 13 31 14 32 15 34 16 35 17 36 81 37
REMARK SMILES IDX 18 38 80 39 19 40 20 41 21 42 74 43 22 44 79 45 73 46 75 47
REMARK SMILES IDX 23 48 78 49 72 50 71 51 24 53 58 54 37 55 57 56 38 57 41 58
REMARK SMILES IDX 56 59 76 60 39 61 40 62 55 64 77 65 42 66 25 67 26 68 35 69
REMARK SMILES IDX 27 70 28 71 34 72 36 73 29 74 30 75 31 76 32 77 33 78 59 79
REMARK SMILES IDX 60 80 69 81 61 82 62 83 68 84 70 85 63 86 64 87 65 88 66 89
REMARK SMILES IDX 67 90 43 91 44 92 53 93 45 94 46 95 52 96 54 97 47 98 48 99
REMARK SMILES IDX 49 100 50 101 51 102
REMARK H PARENT 6 7 2 15 2 16 13 33 75 52 41 63
REMARK Flexibility Score: inf
ROOT
ATOM      1  C   UNL A   1      38.594  22.990  25.734  1.00  0.00     0.002 C 
ENDROOT
BRANCH   1   2
ATOM      2  C   UNL A   1      37.265  23.679  25.408  1.00  0.00     0.021 C 
BRANCH   2   3
ATOM      3  C   UNL A   1      36.451  22.946  24.364  1.00  0.00     0.116 C 
BRANCH   3   4
ATOM      4  N   UNL A   1      36.531  21.531  24.511  1.00  0.00    -0.351 N 
ATOM      5  C   UNL A   1      35.581  20.681  24.938  1.00  0.00     0.281 C 
ATOM      6  O   UNL A   1      35.928  19.488  24.974  1.00  0.00    -0.268 OA
ATOM      7  H   UNL A   1      37.394  21.123  24.268  1.00  0.00     0.163 HD
BRANCH   5   8
ATOM      8  C   UNL A   1      34.157  21.104  25.489  1.00  0.00     0.178 C 
ATOM      9  C   UNL A   1      34.431  21.986  26.731  1.00  0.00     0.079 C 
ATOM     10  C   UNL A   1      33.041  21.909  24.656  1.00  0.00     0.063 C 
ATOM     11  C   UNL A   1      33.154  22.761  26.982  1.00  0.00     0.008 C 
ATOM     12  C   UNL A   1      32.676  23.108  25.588  1.00  0.00     0.011 C 
BRANCH   8  13
ATOM     13  N   UNL A   1      33.574  19.768  25.885  1.00  0.00    -0.336 N 
ATOM     14  C   UNL A   1      32.540  19.114  25.117  1.00  0.00     0.331 C 
ATOM     15  H   UNL A   1      34.357  19.116  25.919  1.00  0.00     0.346 HD
ATOM     16  H   UNL A   1      33.079  20.003  26.745  1.00  0.00     0.346 HD
ENDBRANCH   8  13
BRANCH  10  17
ATOM     17  C   UNL A   1      32.998  22.484  23.163  1.00  0.00     0.039 C 
BRANCH  17  18
ATOM     18  C   UNL A   1      33.200  23.963  22.643  1.00  0.00     0.161 C 
BRANCH  18  19
ATOM     19  O   UNL A   1      32.134  24.911  22.715  1.00  0.00    -0.378 OA
BRANCH  19  20
ATOM     20  C   UNL A   1      32.156  26.333  22.542  1.00  0.00     0.118 C 
ATOM     21  C   UNL A   1      30.906  27.217  22.541  1.00  0.00     0.035 C 
ATOM     22  C   UNL A   1      33.162  26.920  23.527  1.00  0.00     0.035 C 
ATOM     23  C   UNL A   1      30.227  27.393  23.896  1.00  0.00    -0.011 C 
ATOM     24  C   UNL A   1      32.580  26.737  24.914  1.00  0.00    -0.011 C 
ATOM     25  C   UNL A   1      29.106  26.363  23.986  1.00  0.00     0.008 C 
ATOM     26  C   UNL A   1      31.255  27.517  25.068  1.00  0.00     0.006 C 
ATOM     27  C   UNL A   1      33.619  26.934  26.011  1.00  0.00     0.008 C 
ENDBRANCH  19  20
ENDBRANCH  18  19
ENDBRANCH  17  18
ENDBRANCH  10  17
ENDBRANCH   5   8
ENDBRANCH   3   4
ENDBRANCH   2   3
ENDBRANCH   1   2
BRANCH   1  28
ATOM     28  C   UNL A   1      39.189  23.276  27.122  1.00  0.00     0.002 C 
BRANCH  28  29
ATOM     29  C   UNL A   1      40.495  22.554  27.466  1.00  0.00     0.021 C 
BRANCH  29  30
ATOM     30  C   UNL A   1      41.770  23.357  27.252  1.00  0.00     0.116 C 
BRANCH  30  31
ATOM     31  N   UNL A   1      41.713  24.233  26.100  1.00  0.00    -0.352 N 
ATOM     32  C   UNL A   1      41.527  25.596  26.069  1.00  0.00     0.251 C 
ATOM     33  H   UNL A   1      41.822  23.796  25.224  1.00  0.00     0.163 HD
ATOM     34  O   UNL A   1      41.430  26.178  25.002  1.00  0.00    -0.269 OA
BRANCH  32  35
ATOM     35  C   UNL A   1      41.402  26.332  27.347  1.00  0.00     0.039 A 
ATOM     36  C   UNL A   1      42.384  27.271  27.664  1.00  0.00     0.014 A 
ATOM     37  C   UNL A   1      40.317  26.124  28.202  1.00  0.00     0.014 A 
ATOM     38  C   UNL A   1      42.250  28.042  28.819  1.00  0.00     0.010 A 
ATOM     39  C   UNL A   1      40.143  26.950  29.309  1.00  0.00     0.010 A 
ATOM     40  C   UNL A   1      41.112  27.911  29.634  1.00  0.00    -0.014 A 
BRANCH  40  41
ATOM     41  C   UNL A   1      40.927  28.773  30.829  1.00  0.00     0.031 A 
ATOM     42  C   UNL A   1      39.849  29.820  30.844  1.00  0.00     0.074 A 
ATOM     43  C   UNL A   1      41.765  28.644  31.878  1.00  0.00     0.049 A 
ATOM     44  N   UNL A   1      39.560  30.695  31.773  1.00  0.00    -0.248 NA
ATOM     45  C   UNL A   1      38.998  29.918  29.646  1.00  0.00     0.031 C 
ATOM     46  C   UNL A   1      42.881  27.698  31.955  1.00  0.00     0.029 A 
ATOM     47  N   UNL A   1      41.815  29.312  33.073  1.00  0.00    -0.354 N 
ATOM     48  C   UNL A   1      38.507  31.450  31.270  1.00  0.00     0.074 A 
ATOM     49  C   UNL A   1      38.247  30.971  29.930  1.00  0.00     0.031 C 
ATOM     50  C   UNL A   1      43.491  27.834  33.143  1.00  0.00     0.029 A 
ATOM     51  C   UNL A   1      42.837  28.900  33.895  1.00  0.00     0.049 A 
ATOM     52  H   UNL A   1      41.178  30.021  33.320  1.00  0.00     0.167 HD
ATOM     53  C   UNL A   1      37.806  32.436  31.879  1.00  0.00     0.037 A 
ATOM     54  C   UNL A   1      43.215  29.340  35.112  1.00  0.00     0.037 A 
ATOM     55  C   UNL A   1      38.064  32.892  33.220  1.00  0.00     0.049 A 
ATOM     56  C   UNL A   1      42.424  30.439  35.767  1.00  0.00     0.074 A 
ATOM     57  C   UNL A   1      37.373  33.842  33.953  1.00  0.00     0.029 A 
ATOM     58  N   UNL A   1      39.096  32.438  34.028  1.00  0.00    -0.354 N 
ATOM     59  N   UNL A   1      41.383  31.092  35.307  1.00  0.00    -0.248 NA
ATOM     60  C   UNL A   1      42.852  30.859  37.108  1.00  0.00     0.031 C 
ATOM     61  C   UNL A   1      38.024  34.004  35.180  1.00  0.00     0.029 A 
ATOM     62  C   UNL A   1      39.081  33.108  35.240  1.00  0.00     0.049 A 
ATOM     63  H   UNL A   1      39.745  31.741  33.777  1.00  0.00     0.167 HD
ATOM     64  C   UNL A   1      41.015  31.980  36.312  1.00  0.00     0.074 A 
ATOM     65  C   UNL A   1      41.936  31.770  37.411  1.00  0.00     0.031 C 
ATOM     66  C   UNL A   1      40.005  32.885  36.326  1.00  0.00     0.037 A 
BRANCH  53  67
ATOM     67  C   UNL A   1      36.699  33.091  31.097  1.00  0.00     0.058 A 
ATOM     68  C   UNL A   1      35.345  32.819  31.359  1.00  0.00     0.135 A 
ATOM     69  C   UNL A   1      36.993  34.024  30.089  1.00  0.00     0.135 A 
ATOM     70  F   UNL A   1      35.004  31.925  32.300  1.00  0.00    -0.206 F 
ATOM     71  C   UNL A   1      34.326  33.420  30.626  1.00  0.00     0.059 A 
ATOM     72  C   UNL A   1      35.989  34.663  29.367  1.00  0.00     0.059 A 
ATOM     73  F   UNL A   1      38.267  34.324  29.796  1.00  0.00    -0.206 F 
ATOM     74  C   UNL A   1      34.658  34.341  29.631  1.00  0.00     0.060 A 
BRANCH  74  75
ATOM     75  S   UNL A   1      33.324  35.108  28.688  1.00  0.00     0.124 S 
ATOM     76  O   UNL A   1      32.507  35.680  29.754  1.00  0.00    -0.237 OA
ATOM     77  O   UNL A   1      34.043  36.067  27.856  1.00  0.00    -0.237 OA
ATOM     78  O   UNL A   1      32.724  33.986  27.972  1.00  0.00    -0.744 OA
ENDBRANCH  74  75
ENDBRANCH  53  67
BRANCH  54  79
ATOM     79  C   UNL A   1      44.390  28.727  35.790  1.00  0.00     0.058 A 
ATOM     80  C   UNL A   1      44.239  27.644  36.669  1.00  0.00     0.135 A 
ATOM     81  C   UNL A   1      45.690  29.202  35.556  1.00  0.00     0.135 A 
ATOM     82  F   UNL A   1      43.017  27.158  36.930  1.00  0.00    -0.206 F 
ATOM     83  C   UNL A   1      45.333  27.063  37.304  1.00  0.00     0.059 A 
ATOM     84  C   UNL A   1      46.802  28.618  36.156  1.00  0.00     0.059 A 
ATOM     85  F   UNL A   1      45.892  30.224  34.711  1.00  0.00    -0.206 F 
ATOM     86  C   UNL A   1      46.611  27.555  37.036  1.00  0.00     0.060 A 
BRANCH  86  87
ATOM     87  S   UNL A   1      48.027  26.759  37.827  1.00  0.00     0.124 S 
ATOM     88  O   UNL A   1      48.064  27.439  39.116  1.00  0.00    -0.237 OA
ATOM     89  O   UNL A   1      47.615  25.359  37.853  1.00  0.00    -0.237 OA
ATOM     90  O   UNL A   1      49.131  27.062  36.921  1.00  0.00    -0.744 OA
ENDBRANCH  86  87
ENDBRANCH  54  79
BRANCH  66  91
ATOM     91  C   UNL A   1      39.817  33.697  37.579  1.00  0.00     0.058 A 
ATOM     92  C   UNL A   1      40.472  34.924  37.774  1.00  0.00     0.135 A 
ATOM     93  C   UNL A   1      38.924  33.266  38.575  1.00  0.00     0.135 A 
ATOM     94  F   UNL A   1      41.340  35.378  36.857  1.00  0.00    -0.206 F 
ATOM     95  C   UNL A   1      40.267  35.682  38.921  1.00  0.00     0.059 A 
ATOM     96  C   UNL A   1      38.680  34.024  39.715  1.00  0.00     0.059 A 
ATOM     97  F   UNL A   1      38.264  32.106  38.435  1.00  0.00    -0.206 F 
ATOM     98  C   UNL A   1      39.365  35.225  39.885  1.00  0.00     0.060 A 
BRANCH  98  99
ATOM     99  S   UNL A   1      39.081  36.239  41.352  1.00  0.00     0.124 S 
ATOM    100  O   UNL A   1      40.327  36.048  42.087  1.00  0.00    -0.237 OA
ATOM    101  O   UNL A   1      38.880  37.567  40.779  1.00  0.00    -0.237 OA
ATOM    102  O   UNL A   1      37.896  35.638  41.957  1.00  0.00    -0.744 OA
ENDBRANCH  98  99
ENDBRANCH  66  91
ENDBRANCH  40  41
ENDBRANCH  32  35
ENDBRANCH  30  31
ENDBRANCH  29  30
ENDBRANCH  28  29
ENDBRANCH   1  28
TORSDOF 21
ENDMDL
MODEL 3
REMARK VINA RESULT:     -10.6      5.986      8.309
REMARK SMILES C[NH2+][C@]1(C(=O)NCCCCCCNC(=O)c2ccc(-c3c4nc(c(-c5c(F)cc(S(=O)(=O)[O-])cc5F)c5ccc([nH]5)c(-c5c(F)cc(S(=O)(=O)[O-])cc5F)c5nc(c(-c6c(F)cc(S(=O)(=O)[O-])cc6F)c6ccc3[nH]6)C=C5)C=C4)cc2)CCC[C@H]1CCOC1C[C@@H](C)C[C@H](C)C1
REMARK SMILES IDX 9 1 8 2 7 3 6 4 4 5 5 6 3 8 82 9 85 10 83 11 84 12 2 13 1 14
REMARK SMILES IDX 86 17 87 18 88 19 89 20 90 21 96 22 91 23 94 24 92 25 93 26
REMARK SMILES IDX 95 27 10 28 11 29 12 30 13 31 14 32 15 34 16 35 17 36 81 37
REMARK SMILES IDX 18 38 80 39 19 40 20 41 21 42 74 43 22 44 79 45 73 46 75 47
REMARK SMILES IDX 23 48 78 49 72 50 71 51 24 53 58 54 37 55 57 56 38 57 41 58
REMARK SMILES IDX 56 59 76 60 39 61 40 62 55 64 77 65 42 66 25 67 26 68 35 69
REMARK SMILES IDX 27 70 28 71 34 72 36 73 29 74 30 75 31 76 32 77 33 78 59 79
REMARK SMILES IDX 60 80 69 81 61 82 62 83 68 84 70 85 63 86 64 87 65 88 66 89
REMARK SMILES IDX 67 90 43 91 44 92 53 93 45 94 46 95 52 96 54 97 47 98 48 99
REMARK SMILES IDX 49 100 50 101 51 102
REMARK H PARENT 6 7 2 15 2 16 13 33 75 52 41 63
REMARK Flexibility Score: inf
ROOT
ATOM      1  C   UNL A   1      36.223  21.858  23.894  1.00  0.00     0.002 C 
ENDROOT
BRANCH   1   2
ATOM      2  C   UNL A   1      35.488  23.167  23.586  1.00  0.00     0.021 C 
BRANCH   2   3
ATOM      3  C   UNL A   1      34.040  22.965  23.200  1.00  0.00     0.116 C 
BRANCH   3   4
ATOM      4  N   UNL A   1      33.479  21.798  23.797  1.00  0.00    -0.351 N 
ATOM      5  C   UNL A   1      32.540  21.721  24.755  1.00  0.00     0.281 C 
ATOM      6  O   UNL A   1      32.239  20.563  25.097  1.00  0.00    -0.268 OA
ATOM      7  H   UNL A   1      33.823  20.938  23.463  1.00  0.00     0.163 HD
BRANCH   5   8
ATOM      8  C   UNL A   1      31.917  22.956  25.527  1.00  0.00     0.178 C 
ATOM      9  C   UNL A   1      33.101  23.642  26.251  1.00  0.00     0.079 C 
ATOM     10  C   UNL A   1      31.104  24.164  24.842  1.00  0.00     0.063 C 
ATOM     11  C   UNL A   1      32.629  25.040  26.590  1.00  0.00     0.008 C 
ATOM     12  C   UNL A   1      31.825  25.443  25.372  1.00  0.00     0.011 C 
BRANCH   8  13
ATOM     13  N   UNL A   1      30.998  22.270  26.510  1.00  0.00    -0.336 N 
ATOM     14  C   UNL A   1      29.710  22.812  26.877  1.00  0.00     0.331 C 
ATOM     15  H   UNL A   1      30.816  21.342  26.128  1.00  0.00     0.346 HD
ATOM     16  H   UNL A   1      31.519  22.361  27.382  1.00  0.00     0.346 HD
ENDBRANCH   8  13
BRANCH  10  17
ATOM     17  C   UNL A   1      30.697  24.484  23.328  1.00  0.00     0.039 C 
BRANCH  17  18
ATOM     18  C   UNL A   1      31.037  25.743  22.435  1.00  0.00     0.161 C 
BRANCH  18  19
ATOM     19  O   UNL A   1      30.629  27.052  22.838  1.00  0.00    -0.378 OA
BRANCH  19  20
ATOM     20  C   UNL A   1      31.070  28.334  22.376  1.00  0.00     0.118 C 
ATOM     21  C   UNL A   1      30.138  29.414  21.822  1.00  0.00     0.035 C 
ATOM     22  C   UNL A   1      31.943  28.959  23.460  1.00  0.00     0.035 C 
ATOM     23  C   UNL A   1      29.238  30.094  22.849  1.00  0.00    -0.011 C 
ATOM     24  C   UNL A   1      31.032  29.292  24.623  1.00  0.00    -0.011 C 
ATOM     25  C   UNL A   1      27.893  29.377  22.831  1.00  0.00     0.008 C 
ATOM     26  C   UNL A   1      29.965  30.333  24.214  1.00  0.00     0.006 C 
ATOM     27  C   UNL A   1      31.805  29.576  25.905  1.00  0.00     0.008 C 
ENDBRANCH  19  20
ENDBRANCH  18  19
ENDBRANCH  17  18
ENDBRANCH  10  17
ENDBRANCH   5   8
ENDBRANCH   3   4
ENDBRANCH   2   3
ENDBRANCH   1   2
BRANCH   1  28
ATOM     28  C   UNL A   1      37.389  21.946  24.891  1.00  0.00     0.002 C 
BRANCH  28  29
ATOM     29  C   UNL A   1      38.167  20.653  25.148  1.00  0.00     0.021 C 
BRANCH  29  30
ATOM     30  C   UNL A   1      39.302  20.754  26.158  1.00  0.00     0.116 C 
BRANCH  30  31
ATOM     31  N   UNL A   1      40.258  19.670  26.060  1.00  0.00    -0.352 N 
ATOM     32  C   UNL A   1      41.630  19.730  26.140  1.00  0.00     0.251 C 
ATOM     33  H   UNL A   1      39.877  18.774  25.918  1.00  0.00     0.163 HD
ATOM     34  O   UNL A   1      42.300  18.726  25.962  1.00  0.00    -0.269 OA
BRANCH  32  35
ATOM     35  C   UNL A   1      42.278  21.035  26.399  1.00  0.00     0.039 A 
ATOM     36  C   UNL A   1      42.568  21.854  25.307  1.00  0.00     0.014 A 
ATOM     37  C   UNL A   1      42.563  21.461  27.698  1.00  0.00     0.014 A 
ATOM     38  C   UNL A   1      43.100  23.125  25.523  1.00  0.00     0.010 A 
ATOM     39  C   UNL A   1      43.017  22.758  27.917  1.00  0.00     0.010 A 
ATOM     40  C   UNL A   1      43.297  23.601  26.831  1.00  0.00    -0.014 A 
BRANCH  40  41
ATOM     41  C   UNL A   1      43.800  24.977  27.073  1.00  0.00     0.031 A 
ATOM     42  C   UNL A   1      45.256  25.293  26.874  1.00  0.00     0.074 A 
ATOM     43  C   UNL A   1      42.953  25.925  27.521  1.00  0.00     0.049 A 
ATOM     44  N   UNL A   1      45.892  26.419  27.075  1.00  0.00    -0.248 NA
ATOM     45  C   UNL A   1      46.120  24.194  26.414  1.00  0.00     0.031 C 
ATOM     46  C   UNL A   1      41.530  25.722  27.801  1.00  0.00     0.029 A 
ATOM     47  N   UNL A   1      43.165  27.245  27.828  1.00  0.00    -0.354 N 
ATOM     48  C   UNL A   1      47.225  26.161  26.778  1.00  0.00     0.074 A 
ATOM     49  C   UNL A   1      47.319  24.758  26.442  1.00  0.00     0.031 C 
ATOM     50  C   UNL A   1      40.993  26.880  28.218  1.00  0.00     0.029 A 
ATOM     51  C   UNL A   1      42.039  27.896  28.273  1.00  0.00     0.049 A 
ATOM     52  H   UNL A   1      44.041  27.684  27.738  1.00  0.00     0.167 HD
ATOM     53  C   UNL A   1      48.271  27.021  26.764  1.00  0.00     0.037 A 
ATOM     54  C   UNL A   1      41.870  29.166  28.692  1.00  0.00     0.037 A 
ATOM     55  C   UNL A   1      48.162  28.421  27.085  1.00  0.00     0.049 A 
ATOM     56  C   UNL A   1      43.047  30.103  28.673  1.00  0.00     0.074 A 
ATOM     57  C   UNL A   1      49.147  29.392  27.043  1.00  0.00     0.029 A 
ATOM     58  N   UNL A   1      47.001  29.049  27.514  1.00  0.00    -0.354 N 
ATOM     59  N   UNL A   1      44.287  29.861  28.317  1.00  0.00    -0.248 NA
ATOM     60  C   UNL A   1      42.804  31.486  29.104  1.00  0.00     0.031 C 
ATOM     61  C   UNL A   1      48.597  30.592  27.503  1.00  0.00     0.029 A 
ATOM     62  C   UNL A   1      47.251  30.387  27.769  1.00  0.00     0.049 A 
ATOM     63  H   UNL A   1      46.127  28.608  27.622  1.00  0.00     0.167 HD
ATOM     64  C   UNL A   1      44.965  31.067  28.456  1.00  0.00     0.074 A 
ATOM     65  C   UNL A   1      43.994  32.040  28.914  1.00  0.00     0.031 C 
ATOM     66  C   UNL A   1      46.272  31.345  28.223  1.00  0.00     0.037 A 
BRANCH  53  67
ATOM     67  C   UNL A   1      49.624  26.472  26.398  1.00  0.00     0.058 A 
ATOM     68  C   UNL A   1      50.131  26.564  25.091  1.00  0.00     0.135 A 
ATOM     69  C   UNL A   1      50.436  25.866  27.371  1.00  0.00     0.135 A 
ATOM     70  F   UNL A   1      49.395  27.118  24.115  1.00  0.00    -0.206 F 
ATOM     71  C   UNL A   1      51.378  26.045  24.755  1.00  0.00     0.059 A 
ATOM     72  C   UNL A   1      51.700  25.370  27.065  1.00  0.00     0.059 A 
ATOM     73  F   UNL A   1      50.003  25.751  28.636  1.00  0.00    -0.206 F 
ATOM     74  C   UNL A   1      52.155  25.449  25.749  1.00  0.00     0.060 A 
BRANCH  74  75
ATOM     75  S   UNL A   1      53.768  24.777  25.295  1.00  0.00     0.124 S 
ATOM     76  O   UNL A   1      53.436  23.381  25.029  1.00  0.00    -0.237 OA
ATOM     77  O   UNL A   1      54.121  25.578  24.128  1.00  0.00    -0.237 OA
ATOM     78  O   UNL A   1      54.582  25.014  26.484  1.00  0.00    -0.744 OA
ENDBRANCH  74  75
ENDBRANCH  53  67
BRANCH  54  79
ATOM     79  C   UNL A   1      40.530  29.623  29.151  1.00  0.00     0.058 A 
ATOM     80  C   UNL A   1      39.488  29.851  28.239  1.00  0.00     0.135 A 
ATOM     81  C   UNL A   1      40.259  29.822  30.514  1.00  0.00     0.135 A 
ATOM     82  F   UNL A   1      39.698  29.681  26.926  1.00  0.00    -0.206 F 
ATOM     83  C   UNL A   1      38.231  30.274  28.660  1.00  0.00     0.059 A 
ATOM     84  C   UNL A   1      39.001  30.216  30.961  1.00  0.00     0.059 A 
ATOM     85  F   UNL A   1      41.215  29.602  31.430  1.00  0.00    -0.206 F 
ATOM     86  C   UNL A   1      37.996  30.449  30.025  1.00  0.00     0.060 A 
BRANCH  86  87
ATOM     87  S   UNL A   1      36.346  30.949  30.562  1.00  0.00     0.124 S 
ATOM     88  O   UNL A   1      36.564  32.345  30.922  1.00  0.00    -0.237 OA
ATOM     89  O   UNL A   1      35.550  30.715  29.362  1.00  0.00    -0.237 OA
ATOM     90  O   UNL A   1      36.067  30.046  31.676  1.00  0.00    -0.744 OA
ENDBRANCH  86  87
ENDBRANCH  54  79
BRANCH  66  91
ATOM     91  C   UNL A   1      46.727  32.765  28.425  1.00  0.00     0.058 A 
ATOM     92  C   UNL A   1      47.306  33.194  29.630  1.00  0.00     0.135 A 
ATOM     93  C   UNL A   1      46.633  33.695  27.376  1.00  0.00     0.135 A 
ATOM     94  F   UNL A   1      47.415  32.348  30.666  1.00  0.00    -0.206 F 
ATOM     95  C   UNL A   1      47.754  34.500  29.796  1.00  0.00     0.059 A 
ATOM     96  C   UNL A   1      47.103  34.997  27.510  1.00  0.00     0.059 A 
ATOM     97  F   UNL A   1      46.097  33.335  26.200  1.00  0.00    -0.206 F 
ATOM     98  C   UNL A   1      47.651  35.394  28.728  1.00  0.00     0.060 A 
BRANCH  98  99
ATOM     99  S   UNL A   1      48.269  37.077  28.947  1.00  0.00     0.124 S 
ATOM    100  O   UNL A   1      49.591  36.985  28.336  1.00  0.00    -0.237 OA
ATOM    101  O   UNL A   1      47.285  37.868  28.214  1.00  0.00    -0.237 OA
ATOM    102  O   UNL A   1      48.258  37.257  30.395  1.00  0.00    -0.744 OA
ENDBRANCH  98  99
ENDBRANCH  66  91
ENDBRANCH  40  41
ENDBRANCH  32  35
ENDBRANCH  30  31
ENDBRANCH  29  30
ENDBRANCH  28  29
ENDBRANCH   1  28
TORSDOF 21
ENDMDL
