MODEL 1
REMARK VINA RESULT:     -11.9      0.000      0.000
REMARK SMILES CSc1nc2nnc(C(=O)NCCCCCCNC(=O)c3ccc(-c4c5nc(c(-c6c(F)cc(S(=O)(=O)[O-])cc6F)c6ccc([nH]6)c(-c6c(F)cc(S(=O)(=O)[O-])cc6F)c6nc(c(-c7c(F)cc(S(=O)(=O)[O-])cc7F)c7ccc4[nH]7)C=C6)C=C5)cc3)c(O)n2n1
REMARK SMILES IDX 15 1 14 2 13 3 12 4 11 5 9 6 10 7 8 9 3 10 4 11 90 12 5 13
REMARK SMILES IDX 89 14 6 15 87 16 7 17 2 18 1 19 88 20 16 22 17 23 18 24
REMARK SMILES IDX 19 25 20 27 21 28 22 29 86 30 23 31 85 32 24 33 25 34 26 35
REMARK SMILES IDX 79 36 27 37 84 38 78 39 80 40 28 41 83 42 77 43 76 44 29 46
REMARK SMILES IDX 63 47 42 48 62 49 43 50 46 51 61 52 81 53 44 54 45 55 60 57
REMARK SMILES IDX 82 58 47 59 30 60 31 61 40 62 32 63 33 64 39 65 41 66 34 67
REMARK SMILES IDX 35 68 36 69 37 70 38 71 64 72 65 73 74 74 66 75 67 76 73 77
REMARK SMILES IDX 75 78 68 79 69 80 70 81 71 82 72 83 48 84 49 85 58 86 50 87
REMARK SMILES IDX 51 88 57 89 59 90 52 91 53 92 54 93 55 94 56 95
REMARK H PARENT 11 8 88 21 18 26 80 45 46 56
REMARK Flexibility Score: inf
ROOT
ATOM      1  C   UNL A   1      37.877  23.392  25.906  1.00  0.00     0.002 C 
ENDROOT
BRANCH   1   2
ATOM      2  C   UNL A   1      36.882  23.268  24.743  1.00  0.00     0.002 C 
BRANCH   2   3
ATOM      3  C   UNL A   1      35.622  24.135  24.834  1.00  0.00     0.021 C 
BRANCH   3   4
ATOM      4  C   UNL A   1      34.499  23.557  25.694  1.00  0.00     0.116 C 
BRANCH   4   5
ATOM      5  N   UNL A   1      33.187  23.957  25.205  1.00  0.00    -0.350 N 
ATOM      6  C   UNL A   1      32.184  23.291  24.573  1.00  0.00     0.277 C 
ATOM      7  O   UNL A   1      31.192  23.954  24.244  1.00  0.00    -0.267 OA
ATOM      8  H   UNL A   1      32.984  24.908  25.365  1.00  0.00     0.163 HD
BRANCH   6   9
ATOM      9  C   UNL A   1      32.217  21.816  24.284  1.00  0.00     0.212 A 
ATOM     10  C   UNL A   1      32.631  17.525  24.904  1.00  0.00     0.210 A 
ATOM     11  N   UNL A   1      32.517  17.894  23.601  1.00  0.00    -0.182 NA
ATOM     12  N   UNL A   1      32.586  18.514  25.795  1.00  0.00    -0.134 NA
ATOM     13  C   UNL A   1      32.371  19.199  23.671  1.00  0.00     0.275 A 
ATOM     14  N   UNL A   1      32.427  19.603  24.999  1.00  0.00    -0.159 N 
ATOM     15  N   UNL A   1      32.220  20.133  22.691  1.00  0.00    -0.108 NA
ATOM     16  C   UNL A   1      32.354  20.960  25.327  1.00  0.00     0.249 A 
ATOM     17  N   UNL A   1      32.157  21.356  22.983  1.00  0.00    -0.136 NA
BRANCH  10  18
ATOM     18  S   UNL A   1      32.902  15.871  25.378  1.00  0.00    -0.088 SA
ATOM     19  C   UNL A   1      34.706  15.828  25.330  1.00  0.00     0.094 C 
ENDBRANCH  10  18
BRANCH  16  20
ATOM     20  O   UNL A   1      32.449  21.327  26.663  1.00  0.00    -0.491 OA
ATOM     21  H   UNL A   1      32.269  22.209  26.922  1.00  0.00     0.295 HD
ENDBRANCH  16  20
ENDBRANCH   6   9
ENDBRANCH   4   5
ENDBRANCH   3   4
ENDBRANCH   2   3
ENDBRANCH   1   2
BRANCH   1  22
ATOM     22  C   UNL A   1      38.812  22.197  26.140  1.00  0.00     0.021 C 
BRANCH  22  23
ATOM     23  C   UNL A   1      40.035  22.521  26.986  1.00  0.00     0.116 C 
BRANCH  23  24
ATOM     24  N   UNL A   1      41.289  22.275  26.277  1.00  0.00    -0.352 N 
ATOM     25  C   UNL A   1      42.158  23.209  25.752  1.00  0.00     0.251 C 
ATOM     26  H   UNL A   1      41.545  21.331  26.160  1.00  0.00     0.163 HD
ATOM     27  O   UNL A   1      42.956  22.893  24.870  1.00  0.00    -0.269 OA
BRANCH  25  28
ATOM     28  C   UNL A   1      42.115  24.588  26.266  1.00  0.00     0.039 A 
ATOM     29  C   UNL A   1      41.353  25.577  25.638  1.00  0.00     0.014 A 
ATOM     30  C   UNL A   1      42.842  24.878  27.419  1.00  0.00     0.014 A 
ATOM     31  C   UNL A   1      41.267  26.835  26.230  1.00  0.00     0.010 A 
ATOM     32  C   UNL A   1      42.639  26.065  28.077  1.00  0.00     0.010 A 
ATOM     33  C   UNL A   1      41.896  27.067  27.464  1.00  0.00    -0.014 A 
BRANCH  33  34
ATOM     34  C   UNL A   1      41.680  28.316  28.191  1.00  0.00     0.031 A 
ATOM     35  C   UNL A   1      42.754  29.328  27.991  1.00  0.00     0.074 A 
ATOM     36  C   UNL A   1      40.515  28.617  28.807  1.00  0.00     0.049 A 
ATOM     37  N   UNL A   1      43.625  29.741  28.851  1.00  0.00    -0.248 NA
ATOM     38  C   UNL A   1      42.995  29.825  26.624  1.00  0.00     0.031 C 
ATOM     39  C   UNL A   1      39.269  27.836  28.816  1.00  0.00     0.029 A 
ATOM     40  N   UNL A   1      40.158  29.746  29.479  1.00  0.00    -0.354 N 
ATOM     41  C   UNL A   1      44.363  30.729  28.203  1.00  0.00     0.074 A 
ATOM     42  C   UNL A   1      44.075  30.590  26.801  1.00  0.00     0.031 C 
ATOM     43  C   UNL A   1      38.248  28.608  29.251  1.00  0.00     0.029 A 
ATOM     44  C   UNL A   1      38.792  29.864  29.726  1.00  0.00     0.049 A 
ATOM     45  H   UNL A   1      40.813  30.424  29.769  1.00  0.00     0.167 HD
ATOM     46  C   UNL A   1      44.934  31.750  28.902  1.00  0.00     0.037 A 
ATOM     47  C   UNL A   1      38.154  30.920  30.289  1.00  0.00     0.037 A 
ATOM     48  C   UNL A   1      44.931  31.464  30.314  1.00  0.00     0.049 A 
ATOM     49  C   UNL A   1      39.176  31.659  31.068  1.00  0.00     0.074 A 
ATOM     50  C   UNL A   1      45.562  30.566  31.146  1.00  0.00     0.029 A 
ATOM     51  N   UNL A   1      43.842  31.947  30.993  1.00  0.00    -0.354 N 
ATOM     52  N   UNL A   1      39.789  31.166  32.109  1.00  0.00    -0.248 NA
ATOM     53  C   UNL A   1      39.807  32.825  30.468  1.00  0.00     0.031 C 
ATOM     54  C   UNL A   1      44.633  30.298  32.195  1.00  0.00     0.029 A 
ATOM     55  C   UNL A   1      43.493  31.079  31.994  1.00  0.00     0.049 A 
ATOM     56  H   UNL A   1      43.379  32.793  30.792  1.00  0.00     0.167 HD
ATOM     57  C   UNL A   1      41.072  31.678  32.036  1.00  0.00     0.074 A 
ATOM     58  C   UNL A   1      40.975  32.806  31.115  1.00  0.00     0.031 C 
ATOM     59  C   UNL A   1      42.138  30.960  32.496  1.00  0.00     0.037 A 
BRANCH  46  60
ATOM     60  C   UNL A   1      45.084  33.173  28.395  1.00  0.00     0.058 A 
ATOM     61  C   UNL A   1      46.375  33.739  28.299  1.00  0.00     0.135 A 
ATOM     62  C   UNL A   1      44.015  34.090  28.286  1.00  0.00     0.135 A 
ATOM     63  F   UNL A   1      47.469  32.967  28.405  1.00  0.00    -0.206 F 
ATOM     64  C   UNL A   1      46.585  35.114  28.168  1.00  0.00     0.059 A 
ATOM     65  C   UNL A   1      44.201  35.456  28.101  1.00  0.00     0.059 A 
ATOM     66  F   UNL A   1      42.739  33.725  28.453  1.00  0.00    -0.206 F 
ATOM     67  C   UNL A   1      45.488  35.965  28.080  1.00  0.00     0.060 A 
BRANCH  67  68
ATOM     68  S   UNL A   1      45.752  37.746  27.992  1.00  0.00     0.124 S 
ATOM     69  O   UNL A   1      46.224  38.039  29.340  1.00  0.00    -0.237 OA
ATOM     70  O   UNL A   1      46.744  37.851  26.928  1.00  0.00    -0.237 OA
ATOM     71  O   UNL A   1      44.427  38.264  27.661  1.00  0.00    -0.744 OA
ENDBRANCH  67  68
ENDBRANCH  46  60
BRANCH  47  72
ATOM     72  C   UNL A   1      36.819  31.495  29.970  1.00  0.00     0.058 A 
ATOM     73  C   UNL A   1      36.034  32.100  30.970  1.00  0.00     0.135 A 
ATOM     74  C   UNL A   1      36.428  31.744  28.640  1.00  0.00     0.135 A 
ATOM     75  F   UNL A   1      36.336  31.921  32.264  1.00  0.00    -0.206 F 
ATOM     76  C   UNL A   1      34.977  32.966  30.670  1.00  0.00     0.059 A 
ATOM     77  C   UNL A   1      35.371  32.597  28.316  1.00  0.00     0.059 A 
ATOM     78  F   UNL A   1      37.124  31.240  27.610  1.00  0.00    -0.206 F 
ATOM     79  C   UNL A   1      34.672  33.232  29.336  1.00  0.00     0.060 A 
BRANCH  79  80
ATOM     80  S   UNL A   1      33.445  34.503  28.946  1.00  0.00     0.124 S 
ATOM     81  O   UNL A   1      32.880  34.794  30.259  1.00  0.00    -0.237 OA
ATOM     82  O   UNL A   1      34.268  35.554  28.358  1.00  0.00    -0.237 OA
ATOM     83  O   UNL A   1      32.543  33.828  28.015  1.00  0.00    -0.744 OA
ENDBRANCH  79  80
ENDBRANCH  47  72
BRANCH  59  84
ATOM     84  C   UNL A   1      41.866  29.841  33.466  1.00  0.00     0.058 A 
ATOM     85  C   UNL A   1      41.677  28.494  33.111  1.00  0.00     0.135 A 
ATOM     86  C   UNL A   1      41.941  30.136  34.835  1.00  0.00     0.135 A 
ATOM     87  F   UNL A   1      41.668  28.114  31.826  1.00  0.00    -0.206 F 
ATOM     88  C   UNL A   1      41.551  27.490  34.074  1.00  0.00     0.059 A 
ATOM     89  C   UNL A   1      41.851  29.149  35.812  1.00  0.00     0.059 A 
ATOM     90  F   UNL A   1      42.168  31.398  35.237  1.00  0.00    -0.206 F 
ATOM     91  C   UNL A   1      41.650  27.828  35.424  1.00  0.00     0.060 A 
BRANCH  91  92
ATOM     92  S   UNL A   1      41.591  26.517  36.666  1.00  0.00     0.124 S 
ATOM     93  O   UNL A   1      40.403  26.874  37.434  1.00  0.00    -0.237 OA
ATOM     94  O   UNL A   1      41.479  25.312  35.849  1.00  0.00    -0.237 OA
ATOM     95  O   UNL A   1      42.859  26.662  37.376  1.00  0.00    -0.744 OA
ENDBRANCH  91  92
ENDBRANCH  59  84
ENDBRANCH  33  34
ENDBRANCH  25  28
ENDBRANCH  23  24
ENDBRANCH  22  23
ENDBRANCH   1  22
TORSDOF 18
ENDMDL
MODEL 2
REMARK VINA RESULT:     -11.9      2.408      3.786
REMARK SMILES CSc1nc2nnc(C(=O)NCCCCCCNC(=O)c3ccc(-c4c5nc(c(-c6c(F)cc(S(=O)(=O)[O-])cc6F)c6ccc([nH]6)c(-c6c(F)cc(S(=O)(=O)[O-])cc6F)c6nc(c(-c7c(F)cc(S(=O)(=O)[O-])cc7F)c7ccc4[nH]7)C=C6)C=C5)cc3)c(O)n2n1
REMARK SMILES IDX 15 1 14 2 13 3 12 4 11 5 9 6 10 7 8 9 3 10 4 11 90 12 5 13
REMARK SMILES IDX 89 14 6 15 87 16 7 17 2 18 1 19 88 20 16 22 17 23 18 24
REMARK SMILES IDX 19 25 20 27 21 28 22 29 86 30 23 31 85 32 24 33 25 34 26 35
REMARK SMILES IDX 79 36 27 37 84 38 78 39 80 40 28 41 83 42 77 43 76 44 29 46
REMARK SMILES IDX 63 47 42 48 62 49 43 50 46 51 61 52 81 53 44 54 45 55 60 57
REMARK SMILES IDX 82 58 47 59 30 60 31 61 40 62 32 63 33 64 39 65 41 66 34 67
REMARK SMILES IDX 35 68 36 69 37 70 38 71 64 72 65 73 74 74 66 75 67 76 73 77
REMARK SMILES IDX 75 78 68 79 69 80 70 81 71 82 72 83 48 84 49 85 58 86 50 87
REMARK SMILES IDX 51 88 57 89 59 90 52 91 53 92 54 93 55 94 56 95
REMARK H PARENT 11 8 88 21 18 26 80 45 46 56
REMARK Flexibility Score: inf
ROOT
ATOM      1  C   UNL A   1      37.870  23.612  26.278  1.00  0.00     0.002 C 
ENDROOT
BRANCH   1   2
ATOM      2  C   UNL A   1      36.725  23.741  25.262  1.00  0.00     0.002 C 
BRANCH   2   3
ATOM      3  C   UNL A   1      35.370  23.169  25.693  1.00  0.00     0.021 C 
BRANCH   3   4
ATOM      4  C   UNL A   1      34.156  24.001  25.285  1.00  0.00     0.116 C 
BRANCH   4   5
ATOM      5  N   UNL A   1      33.010  23.739  26.144  1.00  0.00    -0.350 N 
ATOM      6  C   UNL A   1      31.921  24.473  26.496  1.00  0.00     0.277 C 
ATOM      7  O   UNL A   1      31.138  23.959  27.304  1.00  0.00    -0.267 OA
ATOM      8  H   UNL A   1      33.028  22.845  26.556  1.00  0.00     0.163 HD
BRANCH   6   9
ATOM      9  C   UNL A   1      31.624  25.840  25.943  1.00  0.00     0.212 A 
ATOM     10  C   UNL A   1      29.968  28.959  23.394  1.00  0.00     0.210 A 
ATOM     11  N   UNL A   1      30.910  29.394  24.273  1.00  0.00    -0.182 NA
ATOM     12  N   UNL A   1      29.679  27.660  23.448  1.00  0.00    -0.134 NA
ATOM     13  C   UNL A   1      31.224  28.306  24.938  1.00  0.00     0.275 A 
ATOM     14  N   UNL A   1      30.498  27.230  24.442  1.00  0.00    -0.159 N 
ATOM     15  N   UNL A   1      32.120  28.104  25.944  1.00  0.00    -0.108 NA
ATOM     16  C   UNL A   1      30.703  25.945  24.953  1.00  0.00     0.249 A 
ATOM     17  N   UNL A   1      32.309  26.946  26.404  1.00  0.00    -0.136 NA
BRANCH  10  18
ATOM     18  S   UNL A   1      29.242  30.016  22.216  1.00  0.00    -0.088 SA
ATOM     19  C   UNL A   1      28.525  31.256  23.314  1.00  0.00     0.094 C 
ENDBRANCH  10  18
BRANCH  16  20
ATOM     20  O   UNL A   1      29.983  24.890  24.406  1.00  0.00    -0.491 OA
ATOM     21  H   UNL A   1      29.047  24.894  24.440  1.00  0.00     0.295 HD
ENDBRANCH  16  20
ENDBRANCH   6   9
ENDBRANCH   4   5
ENDBRANCH   3   4
ENDBRANCH   2   3
ENDBRANCH   1   2
BRANCH   1  22
ATOM     22  C   UNL A   1      38.829  22.429  26.085  1.00  0.00     0.021 C 
BRANCH  22  23
ATOM     23  C   UNL A   1      40.067  22.481  26.969  1.00  0.00     0.116 C 
BRANCH  23  24
ATOM     24  N   UNL A   1      41.301  22.256  26.220  1.00  0.00    -0.352 N 
ATOM     25  C   UNL A   1      42.143  23.205  25.677  1.00  0.00     0.251 C 
ATOM     26  H   UNL A   1      41.565  21.316  26.088  1.00  0.00     0.163 HD
ATOM     27  O   UNL A   1      42.917  22.906  24.769  1.00  0.00    -0.269 OA
BRANCH  25  28
ATOM     28  C   UNL A   1      42.099  24.580  26.204  1.00  0.00     0.039 A 
ATOM     29  C   UNL A   1      41.307  25.564  25.607  1.00  0.00     0.014 A 
ATOM     30  C   UNL A   1      42.856  24.868  27.338  1.00  0.00     0.014 A 
ATOM     31  C   UNL A   1      41.224  26.817  26.212  1.00  0.00     0.010 A 
ATOM     32  C   UNL A   1      42.658  26.047  28.011  1.00  0.00     0.010 A 
ATOM     33  C   UNL A   1      41.886  27.046  27.429  1.00  0.00    -0.014 A 
BRANCH  33  34
ATOM     34  C   UNL A   1      41.677  28.286  28.172  1.00  0.00     0.031 A 
ATOM     35  C   UNL A   1      42.757  29.295  27.986  1.00  0.00     0.074 A 
ATOM     36  C   UNL A   1      40.513  28.586  28.791  1.00  0.00     0.049 A 
ATOM     37  N   UNL A   1      43.630  29.691  28.852  1.00  0.00    -0.248 NA
ATOM     38  C   UNL A   1      43.002  29.808  26.626  1.00  0.00     0.031 C 
ATOM     39  C   UNL A   1      39.262  27.813  28.788  1.00  0.00     0.029 A 
ATOM     40  N   UNL A   1      40.163  29.708  29.478  1.00  0.00    -0.354 N 
ATOM     41  C   UNL A   1      44.375  30.682  28.218  1.00  0.00     0.074 A 
ATOM     42  C   UNL A   1      44.087  30.564  26.814  1.00  0.00     0.031 C 
ATOM     43  C   UNL A   1      38.246  28.584  29.233  1.00  0.00     0.029 A 
ATOM     44  C   UNL A   1      38.797  29.831  29.726  1.00  0.00     0.049 A 
ATOM     45  H   UNL A   1      40.821  30.378  29.777  1.00  0.00     0.167 HD
ATOM     46  C   UNL A   1      44.951  31.691  28.931  1.00  0.00     0.037 A 
ATOM     47  C   UNL A   1      38.165  30.883  30.302  1.00  0.00     0.037 A 
ATOM     48  C   UNL A   1      44.945  31.386  30.339  1.00  0.00     0.049 A 
ATOM     49  C   UNL A   1      39.190  31.606  31.091  1.00  0.00     0.074 A 
ATOM     50  C   UNL A   1      45.570  30.474  31.159  1.00  0.00     0.029 A 
ATOM     51  N   UNL A   1      43.858  31.867  31.024  1.00  0.00    -0.354 N 
ATOM     52  N   UNL A   1      39.800  31.095  32.127  1.00  0.00    -0.248 NA
ATOM     53  C   UNL A   1      39.829  32.776  30.507  1.00  0.00     0.031 C 
ATOM     54  C   UNL A   1      44.639  30.197  32.204  1.00  0.00     0.029 A 
ATOM     55  C   UNL A   1      43.504  30.987  32.012  1.00  0.00     0.049 A 
ATOM     56  H   UNL A   1      43.400  32.718  30.834  1.00  0.00     0.167 HD
ATOM     57  C   UNL A   1      41.086  31.601  32.061  1.00  0.00     0.074 A 
ATOM     58  C   UNL A   1      40.996  32.741  31.155  1.00  0.00     0.031 C 
ATOM     59  C   UNL A   1      42.147  30.870  32.512  1.00  0.00     0.037 A 
BRANCH  46  60
ATOM     60  C   UNL A   1      45.109  33.119  28.443  1.00  0.00     0.058 A 
ATOM     61  C   UNL A   1      46.404  33.678  28.352  1.00  0.00     0.135 A 
ATOM     62  C   UNL A   1      44.047  34.045  28.349  1.00  0.00     0.135 A 
ATOM     63  F   UNL A   1      47.493  32.897  28.446  1.00  0.00    -0.206 F 
ATOM     64  C   UNL A   1      46.623  35.053  28.240  1.00  0.00     0.059 A 
ATOM     65  C   UNL A   1      44.242  35.413  28.183  1.00  0.00     0.059 A 
ATOM     66  F   UNL A   1      42.769  33.687  28.514  1.00  0.00    -0.206 F 
ATOM     67  C   UNL A   1      45.533  35.913  28.165  1.00  0.00     0.060 A 
BRANCH  67  68
ATOM     68  S   UNL A   1      45.808  37.693  28.101  1.00  0.00     0.124 S 
ATOM     69  O   UNL A   1      45.863  37.929  26.663  1.00  0.00    -0.237 OA
ATOM     70  O   UNL A   1      44.629  38.205  28.791  1.00  0.00    -0.237 OA
ATOM     71  O   UNL A   1      47.070  37.862  28.818  1.00  0.00    -0.744 OA
ENDBRANCH  67  68
ENDBRANCH  46  60
BRANCH  47  72
ATOM     72  C   UNL A   1      36.834  31.470  29.989  1.00  0.00     0.058 A 
ATOM     73  C   UNL A   1      36.062  32.088  30.992  1.00  0.00     0.135 A 
ATOM     74  C   UNL A   1      36.436  31.718  28.661  1.00  0.00     0.135 A 
ATOM     75  F   UNL A   1      36.371  31.911  32.285  1.00  0.00    -0.206 F 
ATOM     76  C   UNL A   1      35.011  32.963  30.695  1.00  0.00     0.059 A 
ATOM     77  C   UNL A   1      35.385  32.580  28.341  1.00  0.00     0.059 A 
ATOM     78  F   UNL A   1      37.119  31.202  27.628  1.00  0.00    -0.206 F 
ATOM     79  C   UNL A   1      34.700  33.226  29.363  1.00  0.00     0.060 A 
BRANCH  79  80
ATOM     80  S   UNL A   1      33.483  34.508  28.975  1.00  0.00     0.124 S 
ATOM     81  O   UNL A   1      34.318  35.554  28.397  1.00  0.00    -0.237 OA
ATOM     82  O   UNL A   1      32.593  33.817  28.049  1.00  0.00    -0.237 OA
ATOM     83  O   UNL A   1      32.900  34.825  30.277  1.00  0.00    -0.744 OA
ENDBRANCH  79  80
ENDBRANCH  47  72
BRANCH  59  84
ATOM     84  C   UNL A   1      41.868  29.740  33.467  1.00  0.00     0.058 A 
ATOM     85  C   UNL A   1      41.658  28.401  33.092  1.00  0.00     0.135 A 
ATOM     86  C   UNL A   1      41.957  30.013  34.840  1.00  0.00     0.135 A 
ATOM     87  F   UNL A   1      41.635  28.040  31.802  1.00  0.00    -0.206 F 
ATOM     88  C   UNL A   1      41.527  27.384  34.041  1.00  0.00     0.059 A 
ATOM     89  C   UNL A   1      41.861  29.012  35.802  1.00  0.00     0.059 A 
ATOM     90  F   UNL A   1      42.203  31.266  35.259  1.00  0.00    -0.206 F 
ATOM     91  C   UNL A   1      41.640  27.699  35.395  1.00  0.00     0.060 A 
BRANCH  91  92
ATOM     92  S   UNL A   1      41.572  26.371  36.617  1.00  0.00     0.124 S 
ATOM     93  O   UNL A   1      41.219  25.216  35.799  1.00  0.00    -0.237 OA
ATOM     94  O   UNL A   1      42.928  26.372  37.160  1.00  0.00    -0.237 OA
ATOM     95  O   UNL A   1      40.538  26.816  37.548  1.00  0.00    -0.744 OA
ENDBRANCH  91  92
ENDBRANCH  59  84
ENDBRANCH  33  34
ENDBRANCH  25  28
ENDBRANCH  23  24
ENDBRANCH  22  23
ENDBRANCH   1  22
TORSDOF 18
ENDMDL
MODEL 3
REMARK VINA RESULT:     -11.8      3.751     10.047
REMARK SMILES CSc1nc2nnc(C(=O)NCCCCCCNC(=O)c3ccc(-c4c5nc(c(-c6c(F)cc(S(=O)(=O)[O-])cc6F)c6ccc([nH]6)c(-c6c(F)cc(S(=O)(=O)[O-])cc6F)c6nc(c(-c7c(F)cc(S(=O)(=O)[O-])cc7F)c7ccc4[nH]7)C=C6)C=C5)cc3)c(O)n2n1
REMARK SMILES IDX 15 1 14 2 13 3 12 4 11 5 9 6 10 7 8 9 3 10 4 11 90 12 5 13
REMARK SMILES IDX 89 14 6 15 87 16 7 17 2 18 1 19 88 20 16 22 17 23 18 24
REMARK SMILES IDX 19 25 20 27 21 28 22 29 86 30 23 31 85 32 24 33 25 34 26 35
REMARK SMILES IDX 79 36 27 37 84 38 78 39 80 40 28 41 83 42 77 43 76 44 29 46
REMARK SMILES IDX 63 47 42 48 62 49 43 50 46 51 61 52 81 53 44 54 45 55 60 57
REMARK SMILES IDX 82 58 47 59 30 60 31 61 40 62 32 63 33 64 39 65 41 66 34 67
REMARK SMILES IDX 35 68 36 69 37 70 38 71 64 72 65 73 74 74 66 75 67 76 73 77
REMARK SMILES IDX 75 78 68 79 69 80 70 81 71 82 72 83 48 84 49 85 58 86 50 87
REMARK SMILES IDX 51 88 57 89 59 90 52 91 53 92 54 93 55 94 56 95
REMARK H PARENT 11 8 88 21 18 26 80 45 46 56
REMARK Flexibility Score: inf
ROOT
ATOM      1  C   UNL A   1      32.587  28.722  27.550  1.00  0.00     0.002 C 
ENDROOT
BRANCH   1   2
ATOM      2  C   UNL A   1      31.688  27.769  26.749  1.00  0.00     0.002 C 
BRANCH   2   3
ATOM      3  C   UNL A   1      32.264  26.378  26.461  1.00  0.00     0.021 C 
BRANCH   3   4
ATOM      4  C   UNL A   1      33.127  26.281  25.203  1.00  0.00     0.116 C 
BRANCH   4   5
ATOM      5  N   UNL A   1      32.658  25.232  24.308  1.00  0.00    -0.350 N 
ATOM      6  C   UNL A   1      31.582  25.121  23.486  1.00  0.00     0.277 C 
ATOM      7  O   UNL A   1      31.448  24.049  22.881  1.00  0.00    -0.267 OA
ATOM      8  H   UNL A   1      33.242  24.439  24.298  1.00  0.00     0.163 HD
BRANCH   6   9
ATOM      9  C   UNL A   1      30.584  26.224  23.266  1.00  0.00     0.212 A 
ATOM     10  C   UNL A   1      28.902  30.041  22.012  1.00  0.00     0.210 A 
ATOM     11  N   UNL A   1      28.076  29.293  22.791  1.00  0.00    -0.182 NA
ATOM     12  N   UNL A   1      30.087  29.500  21.735  1.00  0.00    -0.134 NA
ATOM     13  C   UNL A   1      28.774  28.201  23.006  1.00  0.00     0.275 A 
ATOM     14  N   UNL A   1      30.012  28.310  22.385  1.00  0.00    -0.159 N 
ATOM     15  N   UNL A   1      28.481  27.083  23.726  1.00  0.00    -0.108 NA
ATOM     16  C   UNL A   1      30.961  27.292  22.519  1.00  0.00     0.249 A 
ATOM     17  N   UNL A   1      29.335  26.165  23.851  1.00  0.00    -0.136 NA
BRANCH  10  18
ATOM     18  S   UNL A   1      28.473  31.642  21.477  1.00  0.00    -0.088 SA
ATOM     19  C   UNL A   1      28.547  32.523  23.050  1.00  0.00     0.094 C 
ENDBRANCH  10  18
BRANCH  16  20
ATOM     20  O   UNL A   1      32.200  27.454  21.913  1.00  0.00    -0.491 OA
ATOM     21  H   UNL A   1      32.278  27.399  20.981  1.00  0.00     0.295 HD
ENDBRANCH  16  20
ENDBRANCH   6   9
ENDBRANCH   4   5
ENDBRANCH   3   4
ENDBRANCH   2   3
ENDBRANCH   1   2
BRANCH   1  22
ATOM     22  C   UNL A   1      32.791  30.127  26.965  1.00  0.00     0.021 C 
BRANCH  22  23
ATOM     23  C   UNL A   1      34.151  30.737  27.272  1.00  0.00     0.116 C 
BRANCH  23  24
ATOM     24  N   UNL A   1      34.112  31.650  28.413  1.00  0.00    -0.352 N 
ATOM     25  C   UNL A   1      34.984  31.702  29.480  1.00  0.00     0.251 C 
ATOM     26  H   UNL A   1      33.377  32.306  28.420  1.00  0.00     0.163 HD
ATOM     27  O   UNL A   1      34.645  32.233  30.537  1.00  0.00    -0.269 OA
BRANCH  25  28
ATOM     28  C   UNL A   1      36.326  31.113  29.333  1.00  0.00     0.039 A 
ATOM     29  C   UNL A   1      37.450  31.910  29.105  1.00  0.00     0.014 A 
ATOM     30  C   UNL A   1      36.448  29.731  29.452  1.00  0.00     0.014 A 
ATOM     31  C   UNL A   1      38.707  31.308  29.080  1.00  0.00     0.010 A 
ATOM     32  C   UNL A   1      37.690  29.161  29.576  1.00  0.00     0.010 A 
ATOM     33  C   UNL A   1      38.822  29.933  29.339  1.00  0.00    -0.014 A 
BRANCH  33  34
ATOM     34  C   UNL A   1      40.134  29.307  29.492  1.00  0.00     0.031 A 
ATOM     35  C   UNL A   1      40.564  29.138  30.908  1.00  0.00     0.074 A 
ATOM     36  C   UNL A   1      40.799  28.731  28.466  1.00  0.00     0.049 A 
ATOM     37  N   UNL A   1      41.513  29.756  31.528  1.00  0.00    -0.248 NA
ATOM     38  C   UNL A   1      39.736  28.296  31.790  1.00  0.00     0.031 C 
ATOM     39  C   UNL A   1      40.344  28.557  27.078  1.00  0.00     0.029 A 
ATOM     40  N   UNL A   1      41.995  28.082  28.465  1.00  0.00    -0.354 N 
ATOM     41  C   UNL A   1      41.560  29.203  32.805  1.00  0.00     0.074 A 
ATOM     42  C   UNL A   1      40.331  28.474  32.971  1.00  0.00     0.031 C 
ATOM     43  C   UNL A   1      41.134  27.661  26.446  1.00  0.00     0.029 A 
ATOM     44  C   UNL A   1      42.252  27.343  27.312  1.00  0.00     0.049 A 
ATOM     45  H   UNL A   1      42.629  28.131  29.219  1.00  0.00     0.167 HD
ATOM     46  C   UNL A   1      42.726  29.164  33.511  1.00  0.00     0.037 A 
ATOM     47  C   UNL A   1      43.313  26.531  27.084  1.00  0.00     0.037 A 
ATOM     48  C   UNL A   1      43.715  30.019  32.905  1.00  0.00     0.049 A 
ATOM     49  C   UNL A   1      44.386  26.977  28.004  1.00  0.00     0.074 A 
ATOM     50  C   UNL A   1      43.884  31.375  32.736  1.00  0.00     0.029 A 
ATOM     51  N   UNL A   1      44.538  29.394  32.003  1.00  0.00    -0.354 N 
ATOM     52  N   UNL A   1      44.959  28.148  27.935  1.00  0.00    -0.248 NA
ATOM     53  C   UNL A   1      44.574  26.264  29.259  1.00  0.00     0.031 C 
ATOM     54  C   UNL A   1      44.578  31.523  31.498  1.00  0.00     0.029 A 
ATOM     55  C   UNL A   1      44.851  30.253  30.984  1.00  0.00     0.049 A 
ATOM     56  H   UNL A   1      44.856  28.465  32.077  1.00  0.00     0.167 HD
ATOM     57  C   UNL A   1      45.208  28.494  29.251  1.00  0.00     0.074 A 
ATOM     58  C   UNL A   1      45.103  27.244  29.996  1.00  0.00     0.031 C 
ATOM     59  C   UNL A   1      45.180  29.801  29.646  1.00  0.00     0.037 A 
BRANCH  46  60
ATOM     60  C   UNL A   1      43.133  28.048  34.455  1.00  0.00     0.058 A 
ATOM     61  C   UNL A   1      43.402  28.354  35.808  1.00  0.00     0.135 A 
ATOM     62  C   UNL A   1      43.554  26.768  34.032  1.00  0.00     0.135 A 
ATOM     63  F   UNL A   1      43.063  29.549  36.320  1.00  0.00    -0.206 F 
ATOM     64  C   UNL A   1      44.090  27.480  36.654  1.00  0.00     0.059 A 
ATOM     65  C   UNL A   1      44.192  25.861  34.873  1.00  0.00     0.059 A 
ATOM     66  F   UNL A   1      43.459  26.368  32.760  1.00  0.00    -0.206 F 
ATOM     67  C   UNL A   1      44.489  26.238  36.171  1.00  0.00     0.060 A 
BRANCH  67  68
ATOM     68  S   UNL A   1      45.447  25.140  37.232  1.00  0.00     0.124 S 
ATOM     69  O   UNL A   1      46.661  25.920  37.441  1.00  0.00    -0.237 OA
ATOM     70  O   UNL A   1      44.568  24.997  38.388  1.00  0.00    -0.237 OA
ATOM     71  O   UNL A   1      45.601  23.938  36.416  1.00  0.00    -0.744 OA
ENDBRANCH  67  68
ENDBRANCH  46  60
BRANCH  47  72
ATOM     72  C   UNL A   1      43.370  25.235  26.355  1.00  0.00     0.058 A 
ATOM     73  C   UNL A   1      44.283  25.038  25.300  1.00  0.00     0.135 A 
ATOM     74  C   UNL A   1      42.763  24.075  26.874  1.00  0.00     0.135 A 
ATOM     75  F   UNL A   1      44.911  26.086  24.748  1.00  0.00    -0.206 F 
ATOM     76  C   UNL A   1      44.634  23.763  24.845  1.00  0.00     0.059 A 
ATOM     77  C   UNL A   1      43.091  22.793  26.428  1.00  0.00     0.059 A 
ATOM     78  F   UNL A   1      41.900  24.148  27.899  1.00  0.00    -0.206 F 
ATOM     79  C   UNL A   1      44.054  22.643  25.437  1.00  0.00     0.060 A 
BRANCH  79  80
ATOM     80  S   UNL A   1      44.655  20.995  24.994  1.00  0.00     0.124 S 
ATOM     81  O   UNL A   1      46.019  21.020  25.510  1.00  0.00    -0.237 OA
ATOM     82  O   UNL A   1      43.720  20.127  25.701  1.00  0.00    -0.237 OA
ATOM     83  O   UNL A   1      44.541  20.974  23.537  1.00  0.00    -0.744 OA
ENDBRANCH  79  80
ENDBRANCH  47  72
BRANCH  59  84
ATOM     84  C   UNL A   1      45.325  30.859  28.585  1.00  0.00     0.058 A 
ATOM     85  C   UNL A   1      44.259  31.456  27.890  1.00  0.00     0.135 A 
ATOM     86  C   UNL A   1      46.606  31.389  28.368  1.00  0.00     0.135 A 
ATOM     87  F   UNL A   1      42.994  31.063  28.096  1.00  0.00    -0.206 F 
ATOM     88  C   UNL A   1      44.461  32.520  27.007  1.00  0.00     0.059 A 
ATOM     89  C   UNL A   1      46.826  32.467  27.517  1.00  0.00     0.059 A 
ATOM     90  F   UNL A   1      47.659  30.891  29.037  1.00  0.00    -0.206 F 
ATOM     91  C   UNL A   1      45.749  33.025  26.835  1.00  0.00     0.060 A 
BRANCH  91  92
ATOM     92  S   UNL A   1      45.996  34.465  25.773  1.00  0.00     0.124 S 
ATOM     93  O   UNL A   1      47.415  34.372  25.450  1.00  0.00    -0.237 OA
ATOM     94  O   UNL A   1      45.076  34.204  24.668  1.00  0.00    -0.237 OA
ATOM     95  O   UNL A   1      45.623  35.589  26.628  1.00  0.00    -0.744 OA
ENDBRANCH  91  92
ENDBRANCH  59  84
ENDBRANCH  33  34
ENDBRANCH  25  28
ENDBRANCH  23  24
ENDBRANCH  22  23
ENDBRANCH   1  22
TORSDOF 18
ENDMDL
