MODEL 1
REMARK VINA RESULT:     -13.3      0.000      0.000
REMARK SMILES Cc1ccc(C(F)(F)F)cc1/C=C/C(=O)NCCCCCCNC(=O)c1ccc(-c2c3nc(c(-c4c(F)cc(S(=O)(=O)[O-])cc4F)c4ccc([nH]4)c(-c4c(F)cc(S(=O)(=O)[O-])cc4F)c4nc(c(-c5c(F)cc(S(=O)(=O)[O-])cc5F)c5ccc2[nH]5)C=C4)C=C3)cc1
REMARK SMILES IDX 20 1 19 2 18 3 17 4 16 5 14 6 15 7 13 9 12 10 11 11 1 12
REMARK SMILES IDX 2 13 3 14 4 15 10 16 5 17 6 18 7 19 8 20 9 21 21 22 22 23
REMARK SMILES IDX 23 24 24 25 25 27 26 28 27 29 91 30 28 31 90 32 29 33 30 34
REMARK SMILES IDX 31 35 84 36 32 37 89 38 83 39 85 40 33 41 88 42 82 43 81 44
REMARK SMILES IDX 34 46 68 47 47 48 67 49 48 50 51 51 66 52 86 53 49 54 50 55
REMARK SMILES IDX 65 57 87 58 52 59 35 60 36 61 45 62 37 63 38 64 44 65 46 66
REMARK SMILES IDX 39 67 40 68 41 69 42 70 43 71 69 72 70 73 79 74 71 75 72 76
REMARK SMILES IDX 78 77 80 78 73 79 74 80 75 81 76 82 77 83 53 84 54 85 63 86
REMARK SMILES IDX 55 87 56 88 62 89 64 90 57 91 58 92 59 93 60 94 61 95
REMARK H PARENT 16 8 23 26 85 45 51 56
REMARK Flexibility Score: inf
ROOT
ATOM      1  C   UNL A   1      33.181  28.473  25.315  1.00  0.00     0.002 C 
ENDROOT
BRANCH   1   2
ATOM      2  C   UNL A   1      32.953  26.983  25.623  1.00  0.00     0.002 C 
BRANCH   2   3
ATOM      3  C   UNL A   1      31.649  26.626  26.350  1.00  0.00     0.021 C 
BRANCH   3   4
ATOM      4  C   UNL A   1      30.685  25.759  25.542  1.00  0.00     0.116 C 
BRANCH   4   5
ATOM      5  N   UNL A   1      29.985  24.804  26.382  1.00  0.00    -0.353 N 
ATOM      6  C   UNL A   1      30.342  23.545  26.753  1.00  0.00     0.243 C 
ATOM      7  O   UNL A   1      29.718  22.954  27.631  1.00  0.00    -0.270 OA
ATOM      8  H   UNL A   1      29.120  25.114  26.737  1.00  0.00     0.163 HD
BRANCH   6   9
ATOM      9  C   UNL A   1      31.537  22.903  26.166  1.00  0.00     0.072 C 
ATOM     10  C   UNL A   1      32.703  22.769  26.819  1.00  0.00     0.014 C 
BRANCH  10  11
ATOM     11  C   UNL A   1      33.902  22.199  26.182  1.00  0.00    -0.022 A 
ATOM     12  C   UNL A   1      32.641  20.106  25.399  1.00  0.00     0.045 C 
ATOM     13  C   UNL A   1      33.879  20.954  25.523  1.00  0.00    -0.044 A 
ATOM     14  C   UNL A   1      35.073  20.443  24.985  1.00  0.00     0.004 A 
ATOM     15  C   UNL A   1      36.268  21.158  25.072  1.00  0.00     0.013 A 
ATOM     16  C   UNL A   1      35.117  22.903  26.273  1.00  0.00     0.021 A 
ATOM     17  C   UNL A   1      36.302  22.402  25.712  1.00  0.00     0.056 A 
BRANCH  17  18
ATOM     18  C   UNL A   1      37.596  23.166  25.809  1.00  0.00     0.416 C 
ATOM     19  F   UNL A   1      38.686  22.351  25.862  1.00  0.00    -0.166 F 
ATOM     20  F   UNL A   1      37.799  23.987  24.738  1.00  0.00    -0.166 F 
ATOM     21  F   UNL A   1      37.677  23.971  26.906  1.00  0.00    -0.166 F 
ENDBRANCH  17  18
ENDBRANCH  10  11
ENDBRANCH   6   9
ENDBRANCH   4   5
ENDBRANCH   3   4
ENDBRANCH   2   3
ENDBRANCH   1   2
BRANCH   1  22
ATOM     22  C   UNL A   1      33.161  29.422  26.516  1.00  0.00     0.021 C 
BRANCH  22  23
ATOM     23  C   UNL A   1      34.375  29.272  27.428  1.00  0.00     0.116 C 
BRANCH  23  24
ATOM     24  N   UNL A   1      34.914  30.545  27.871  1.00  0.00    -0.352 N 
ATOM     25  C   UNL A   1      36.002  30.741  28.711  1.00  0.00     0.251 C 
ATOM     26  H   UNL A   1      34.460  31.354  27.542  1.00  0.00     0.163 HD
ATOM     27  O   UNL A   1      36.186  31.761  29.330  1.00  0.00    -0.269 OA
BRANCH  25  28
ATOM     28  C   UNL A   1      37.028  29.673  28.685  1.00  0.00     0.039 A 
ATOM     29  C   UNL A   1      37.250  28.978  29.879  1.00  0.00     0.014 A 
ATOM     30  C   UNL A   1      37.900  29.557  27.606  1.00  0.00     0.014 A 
ATOM     31  C   UNL A   1      38.436  28.266  30.045  1.00  0.00     0.010 A 
ATOM     32  C   UNL A   1      39.107  28.908  27.801  1.00  0.00     0.010 A 
ATOM     33  C   UNL A   1      39.394  28.295  29.033  1.00  0.00    -0.014 A 
BRANCH  33  34
ATOM     34  C   UNL A   1      40.756  27.786  29.194  1.00  0.00     0.031 A 
ATOM     35  C   UNL A   1      41.124  26.441  28.690  1.00  0.00     0.074 A 
ATOM     36  C   UNL A   1      41.709  28.574  29.739  1.00  0.00     0.049 A 
ATOM     37  N   UNL A   1      42.192  25.797  29.027  1.00  0.00    -0.248 NA
ATOM     38  C   UNL A   1      40.271  25.692  27.774  1.00  0.00     0.031 C 
ATOM     39  C   UNL A   1      43.155  28.374  29.688  1.00  0.00     0.029 A 
ATOM     40  N   UNL A   1      41.536  29.614  30.656  1.00  0.00    -0.354 N 
ATOM     41  C   UNL A   1      42.290  24.680  28.229  1.00  0.00     0.074 A 
ATOM     42  C   UNL A   1      41.054  24.651  27.477  1.00  0.00     0.031 C 
ATOM     43  C   UNL A   1      43.722  29.049  30.698  1.00  0.00     0.029 A 
ATOM     44  C   UNL A   1      42.652  29.585  31.519  1.00  0.00     0.049 A 
ATOM     45  H   UNL A   1      40.780  30.243  30.693  1.00  0.00     0.167 HD
ATOM     46  C   UNL A   1      43.441  23.948  28.218  1.00  0.00     0.037 A 
ATOM     47  C   UNL A   1      42.493  29.342  32.854  1.00  0.00     0.037 A 
ATOM     48  C   UNL A   1      44.397  24.424  29.212  1.00  0.00     0.049 A 
ATOM     49  C   UNL A   1      43.138  28.061  33.346  1.00  0.00     0.074 A 
ATOM     50  C   UNL A   1      45.483  25.284  29.177  1.00  0.00     0.029 A 
ATOM     51  N   UNL A   1      44.118  24.214  30.549  1.00  0.00    -0.354 N 
ATOM     52  N   UNL A   1      43.787  27.220  32.587  1.00  0.00    -0.248 NA
ATOM     53  C   UNL A   1      43.034  27.592  34.730  1.00  0.00     0.031 C 
ATOM     54  C   UNL A   1      45.812  25.637  30.516  1.00  0.00     0.029 A 
ATOM     55  C   UNL A   1      44.929  24.987  31.359  1.00  0.00     0.049 A 
ATOM     56  H   UNL A   1      43.430  23.595  30.882  1.00  0.00     0.167 HD
ATOM     57  C   UNL A   1      44.108  26.109  33.320  1.00  0.00     0.074 A 
ATOM     58  C   UNL A   1      43.644  26.396  34.664  1.00  0.00     0.031 C 
ATOM     59  C   UNL A   1      44.685  24.999  32.786  1.00  0.00     0.037 A 
BRANCH  46  60
ATOM     60  C   UNL A   1      43.770  22.934  27.149  1.00  0.00     0.058 A 
ATOM     61  C   UNL A   1      42.999  21.760  27.011  1.00  0.00     0.135 A 
ATOM     62  C   UNL A   1      44.865  23.031  26.268  1.00  0.00     0.135 A 
ATOM     63  F   UNL A   1      41.881  21.568  27.726  1.00  0.00    -0.206 F 
ATOM     64  C   UNL A   1      43.353  20.716  26.155  1.00  0.00     0.059 A 
ATOM     65  C   UNL A   1      45.276  21.977  25.447  1.00  0.00     0.059 A 
ATOM     66  F   UNL A   1      45.558  24.173  26.151  1.00  0.00    -0.206 F 
ATOM     67  C   UNL A   1      44.518  20.814  25.407  1.00  0.00     0.060 A 
BRANCH  67  68
ATOM     68  S   UNL A   1      45.033  19.401  24.413  1.00  0.00     0.124 S 
ATOM     69  O   UNL A   1      46.489  19.491  24.475  1.00  0.00    -0.237 OA
ATOM     70  O   UNL A   1      44.434  18.286  25.138  1.00  0.00    -0.237 OA
ATOM     71  O   UNL A   1      44.455  19.681  23.100  1.00  0.00    -0.744 OA
ENDBRANCH  67  68
ENDBRANCH  46  60
BRANCH  47  72
ATOM     72  C   UNL A   1      41.247  29.947  33.398  1.00  0.00     0.058 A 
ATOM     73  C   UNL A   1      41.224  31.345  33.578  1.00  0.00     0.135 A 
ATOM     74  C   UNL A   1      40.017  29.281  33.327  1.00  0.00     0.135 A 
ATOM     75  F   UNL A   1      42.377  32.029  33.674  1.00  0.00    -0.206 F 
ATOM     76  C   UNL A   1      40.041  32.070  33.506  1.00  0.00     0.059 A 
ATOM     77  C   UNL A   1      38.816  29.989  33.271  1.00  0.00     0.059 A 
ATOM     78  F   UNL A   1      39.976  27.950  33.165  1.00  0.00    -0.206 F 
ATOM     79  C   UNL A   1      38.850  31.384  33.282  1.00  0.00     0.060 A 
BRANCH  79  80
ATOM     80  S   UNL A   1      37.387  32.352  32.840  1.00  0.00     0.124 S 
ATOM     81  O   UNL A   1      36.447  31.313  32.437  1.00  0.00    -0.237 OA
ATOM     82  O   UNL A   1      37.079  33.030  34.098  1.00  0.00    -0.237 OA
ATOM     83  O   UNL A   1      37.871  33.216  31.768  1.00  0.00    -0.744 OA
ENDBRANCH  79  80
ENDBRANCH  47  72
BRANCH  59  84
ATOM     84  C   UNL A   1      45.061  23.822  33.621  1.00  0.00     0.058 A 
ATOM     85  C   UNL A   1      46.391  23.607  34.015  1.00  0.00     0.135 A 
ATOM     86  C   UNL A   1      44.128  22.819  33.939  1.00  0.00     0.135 A 
ATOM     87  F   UNL A   1      47.340  24.512  33.727  1.00  0.00    -0.206 F 
ATOM     88  C   UNL A   1      46.775  22.459  34.703  1.00  0.00     0.059 A 
ATOM     89  C   UNL A   1      44.494  21.650  34.599  1.00  0.00     0.059 A 
ATOM     90  F   UNL A   1      42.830  22.965  33.627  1.00  0.00    -0.206 F 
ATOM     91  C   UNL A   1      45.821  21.484  34.988  1.00  0.00     0.060 A 
BRANCH  91  92
ATOM     92  S   UNL A   1      46.317  19.973  35.839  1.00  0.00     0.124 S 
ATOM     93  O   UNL A   1      45.795  18.923  34.970  1.00  0.00    -0.237 OA
ATOM     94  O   UNL A   1      47.770  20.113  35.852  1.00  0.00    -0.237 OA
ATOM     95  O   UNL A   1      45.657  20.090  37.134  1.00  0.00    -0.744 OA
ENDBRANCH  91  92
ENDBRANCH  59  84
ENDBRANCH  33  34
ENDBRANCH  25  28
ENDBRANCH  23  24
ENDBRANCH  22  23
ENDBRANCH   1  22
TORSDOF 18
ENDMDL
MODEL 2
REMARK VINA RESULT:     -13.3      1.504      2.202
REMARK SMILES Cc1ccc(C(F)(F)F)cc1/C=C/C(=O)NCCCCCCNC(=O)c1ccc(-c2c3nc(c(-c4c(F)cc(S(=O)(=O)[O-])cc4F)c4ccc([nH]4)c(-c4c(F)cc(S(=O)(=O)[O-])cc4F)c4nc(c(-c5c(F)cc(S(=O)(=O)[O-])cc5F)c5ccc2[nH]5)C=C4)C=C3)cc1
REMARK SMILES IDX 20 1 19 2 18 3 17 4 16 5 14 6 15 7 13 9 12 10 11 11 1 12
REMARK SMILES IDX 2 13 3 14 4 15 10 16 5 17 6 18 7 19 8 20 9 21 21 22 22 23
REMARK SMILES IDX 23 24 24 25 25 27 26 28 27 29 91 30 28 31 90 32 29 33 30 34
REMARK SMILES IDX 31 35 84 36 32 37 89 38 83 39 85 40 33 41 88 42 82 43 81 44
REMARK SMILES IDX 34 46 68 47 47 48 67 49 48 50 51 51 66 52 86 53 49 54 50 55
REMARK SMILES IDX 65 57 87 58 52 59 35 60 36 61 45 62 37 63 38 64 44 65 46 66
REMARK SMILES IDX 39 67 40 68 41 69 42 70 43 71 69 72 70 73 79 74 71 75 72 76
REMARK SMILES IDX 78 77 80 78 73 79 74 80 75 81 76 82 77 83 53 84 54 85 63 86
REMARK SMILES IDX 55 87 56 88 62 89 64 90 57 91 58 92 59 93 60 94 61 95
REMARK H PARENT 16 8 23 26 85 45 51 56
REMARK Flexibility Score: inf
ROOT
ATOM      1  C   UNL A   1      32.385  28.589  26.164  1.00  0.00     0.002 C 
ENDROOT
BRANCH   1   2
ATOM      2  C   UNL A   1      31.565  29.036  24.941  1.00  0.00     0.002 C 
BRANCH   2   3
ATOM      3  C   UNL A   1      32.122  28.649  23.565  1.00  0.00     0.021 C 
BRANCH   3   4
ATOM      4  C   UNL A   1      31.289  27.618  22.805  1.00  0.00     0.116 C 
BRANCH   4   5
ATOM      5  N   UNL A   1      31.984  27.121  21.631  1.00  0.00    -0.353 N 
ATOM      6  C   UNL A   1      32.685  25.970  21.455  1.00  0.00     0.243 C 
ATOM      7  O   UNL A   1      33.040  25.621  20.332  1.00  0.00    -0.270 OA
ATOM      8  H   UNL A   1      31.939  27.708  20.841  1.00  0.00     0.163 HD
BRANCH   6   9
ATOM      9  C   UNL A   1      32.958  25.079  22.603  1.00  0.00     0.072 C 
ATOM     10  C   UNL A   1      34.043  25.190  23.386  1.00  0.00     0.014 C 
BRANCH  10  11
ATOM     11  C   UNL A   1      34.333  24.239  24.472  1.00  0.00    -0.022 A 
ATOM     12  C   UNL A   1      32.451  25.165  25.950  1.00  0.00     0.045 C 
ATOM     13  C   UNL A   1      33.596  24.228  25.673  1.00  0.00    -0.044 A 
ATOM     14  C   UNL A   1      33.961  23.330  26.692  1.00  0.00     0.004 A 
ATOM     15  C   UNL A   1      35.021  22.439  26.522  1.00  0.00     0.013 A 
ATOM     16  C   UNL A   1      35.407  23.343  24.320  1.00  0.00     0.021 A 
ATOM     17  C   UNL A   1      35.753  22.431  25.329  1.00  0.00     0.056 A 
BRANCH  17  18
ATOM     18  C   UNL A   1      36.902  21.472  25.154  1.00  0.00     0.416 C 
ATOM     19  F   UNL A   1      36.528  20.171  25.303  1.00  0.00    -0.166 F 
ATOM     20  F   UNL A   1      37.465  21.554  23.914  1.00  0.00    -0.166 F 
ATOM     21  F   UNL A   1      37.923  21.671  26.033  1.00  0.00    -0.166 F 
ENDBRANCH  17  18
ENDBRANCH  10  11
ENDBRANCH   6   9
ENDBRANCH   4   5
ENDBRANCH   3   4
ENDBRANCH   2   3
ENDBRANCH   1   2
BRANCH   1  22
ATOM     22  C   UNL A   1      33.775  29.212  26.309  1.00  0.00     0.021 C 
BRANCH  22  23
ATOM     23  C   UNL A   1      34.281  29.239  27.748  1.00  0.00     0.116 C 
BRANCH  23  24
ATOM     24  N   UNL A   1      34.846  30.521  28.128  1.00  0.00    -0.352 N 
ATOM     25  C   UNL A   1      35.996  30.735  28.874  1.00  0.00     0.251 C 
ATOM     26  H   UNL A   1      34.361  31.323  27.825  1.00  0.00     0.163 HD
ATOM     27  O   UNL A   1      36.223  31.766  29.462  1.00  0.00    -0.269 OA
BRANCH  25  28
ATOM     28  C   UNL A   1      37.024  29.673  28.781  1.00  0.00     0.039 A 
ATOM     29  C   UNL A   1      37.249  28.906  29.929  1.00  0.00     0.014 A 
ATOM     30  C   UNL A   1      37.894  29.625  27.696  1.00  0.00     0.014 A 
ATOM     31  C   UNL A   1      38.437  28.187  30.050  1.00  0.00     0.010 A 
ATOM     32  C   UNL A   1      39.102  28.967  27.848  1.00  0.00     0.010 A 
ATOM     33  C   UNL A   1      39.393  28.279  29.039  1.00  0.00    -0.014 A 
BRANCH  33  34
ATOM     34  C   UNL A   1      40.756  27.764  29.166  1.00  0.00     0.031 A 
ATOM     35  C   UNL A   1      41.104  26.417  28.654  1.00  0.00     0.074 A 
ATOM     36  C   UNL A   1      41.726  28.547  29.687  1.00  0.00     0.049 A 
ATOM     37  N   UNL A   1      42.177  25.768  28.964  1.00  0.00    -0.248 NA
ATOM     38  C   UNL A   1      40.224  25.672  27.760  1.00  0.00     0.031 C 
ATOM     39  C   UNL A   1      43.170  28.340  29.599  1.00  0.00     0.029 A 
ATOM     40  N   UNL A   1      41.581  29.588  30.607  1.00  0.00    -0.354 N 
ATOM     41  C   UNL A   1      42.249  24.650  28.165  1.00  0.00     0.074 A 
ATOM     42  C   UNL A   1      40.995  24.626  27.444  1.00  0.00     0.031 C 
ATOM     43  C   UNL A   1      43.765  29.013  30.594  1.00  0.00     0.029 A 
ATOM     44  C   UNL A   1      42.719  29.555  31.441  1.00  0.00     0.049 A 
ATOM     45  H   UNL A   1      40.830  30.222  30.663  1.00  0.00     0.167 HD
ATOM     46  C   UNL A   1      43.396  23.912  28.125  1.00  0.00     0.037 A 
ATOM     47  C   UNL A   1      42.592  29.313  32.780  1.00  0.00     0.037 A 
ATOM     48  C   UNL A   1      44.379  24.383  29.094  1.00  0.00     0.049 A 
ATOM     49  C   UNL A   1      43.243  28.028  33.256  1.00  0.00     0.074 A 
ATOM     50  C   UNL A   1      45.468  25.238  29.031  1.00  0.00     0.029 A 
ATOM     51  N   UNL A   1      44.133  24.175  30.438  1.00  0.00    -0.354 N 
ATOM     52  N   UNL A   1      43.868  27.184  32.482  1.00  0.00    -0.248 NA
ATOM     53  C   UNL A   1      43.171  27.561  34.643  1.00  0.00     0.031 C 
ATOM     54  C   UNL A   1      45.833  25.590  30.362  1.00  0.00     0.029 A 
ATOM     55  C   UNL A   1      44.968  24.945  31.226  1.00  0.00     0.049 A 
ATOM     56  H   UNL A   1      43.450  23.560  30.789  1.00  0.00     0.167 HD
ATOM     57  C   UNL A   1      44.202  26.072  33.207  1.00  0.00     0.074 A 
ATOM     58  C   UNL A   1      43.774  26.362  34.562  1.00  0.00     0.031 C 
ATOM     59  C   UNL A   1      44.760  24.959  32.660  1.00  0.00     0.037 A 
BRANCH  46  60
ATOM     60  C   UNL A   1      43.693  22.896  27.048  1.00  0.00     0.058 A 
ATOM     61  C   UNL A   1      42.953  21.697  26.969  1.00  0.00     0.135 A 
ATOM     62  C   UNL A   1      44.730  23.016  26.103  1.00  0.00     0.135 A 
ATOM     63  F   UNL A   1      41.886  21.480  27.751  1.00  0.00    -0.206 F 
ATOM     64  C   UNL A   1      43.288  20.654  26.104  1.00  0.00     0.059 A 
ATOM     65  C   UNL A   1      45.124  21.966  25.270  1.00  0.00     0.059 A 
ATOM     66  F   UNL A   1      45.378  24.178  25.933  1.00  0.00    -0.206 F 
ATOM     67  C   UNL A   1      44.403  20.779  25.286  1.00  0.00     0.060 A 
BRANCH  67  68
ATOM     68  S   UNL A   1      44.902  19.371  24.278  1.00  0.00     0.124 S 
ATOM     69  O   UNL A   1      44.194  18.265  24.917  1.00  0.00    -0.237 OA
ATOM     70  O   UNL A   1      44.417  19.756  22.957  1.00  0.00    -0.237 OA
ATOM     71  O   UNL A   1      46.355  19.342  24.432  1.00  0.00    -0.744 OA
ENDBRANCH  67  68
ENDBRANCH  46  60
BRANCH  47  72
ATOM     72  C   UNL A   1      41.363  29.925  33.355  1.00  0.00     0.058 A 
ATOM     73  C   UNL A   1      41.408  31.294  33.684  1.00  0.00     0.135 A 
ATOM     74  C   UNL A   1      40.103  29.339  33.182  1.00  0.00     0.135 A 
ATOM     75  F   UNL A   1      42.592  31.899  33.883  1.00  0.00    -0.206 F 
ATOM     76  C   UNL A   1      40.268  32.087  33.662  1.00  0.00     0.059 A 
ATOM     77  C   UNL A   1      38.944  30.114  33.172  1.00  0.00     0.059 A 
ATOM     78  F   UNL A   1      39.997  28.037  32.876  1.00  0.00    -0.206 F 
ATOM     79  C   UNL A   1      39.050  31.497  33.336  1.00  0.00     0.060 A 
BRANCH  79  80
ATOM     80  S   UNL A   1      37.654  32.586  32.964  1.00  0.00     0.124 S 
ATOM     81  O   UNL A   1      37.814  33.635  33.964  1.00  0.00    -0.237 OA
ATOM     82  O   UNL A   1      37.937  32.980  31.584  1.00  0.00    -0.237 OA
ATOM     83  O   UNL A   1      36.497  31.716  33.140  1.00  0.00    -0.744 OA
ENDBRANCH  79  80
ENDBRANCH  47  72
BRANCH  59  84
ATOM     84  C   UNL A   1      45.151  23.780  33.486  1.00  0.00     0.058 A 
ATOM     85  C   UNL A   1      44.208  22.807  33.853  1.00  0.00     0.135 A 
ATOM     86  C   UNL A   1      46.442  23.661  34.032  1.00  0.00     0.135 A 
ATOM     87  F   UNL A   1      42.950  22.870  33.387  1.00  0.00    -0.206 F 
ATOM     88  C   UNL A   1      44.532  21.760  34.711  1.00  0.00     0.059 A 
ATOM     89  C   UNL A   1      46.779  22.640  34.915  1.00  0.00     0.059 A 
ATOM     90  F   UNL A   1      47.409  24.532  33.703  1.00  0.00    -0.206 F 
ATOM     91  C   UNL A   1      45.820  21.686  35.240  1.00  0.00     0.060 A 
BRANCH  91  92
ATOM     92  S   UNL A   1      46.236  20.358  36.387  1.00  0.00     0.124 S 
ATOM     93  O   UNL A   1      45.771  20.877  37.669  1.00  0.00    -0.237 OA
ATOM     94  O   UNL A   1      45.460  19.248  35.839  1.00  0.00    -0.237 OA
ATOM     95  O   UNL A   1      47.684  20.245  36.253  1.00  0.00    -0.744 OA
ENDBRANCH  91  92
ENDBRANCH  59  84
ENDBRANCH  33  34
ENDBRANCH  25  28
ENDBRANCH  23  24
ENDBRANCH  22  23
ENDBRANCH   1  22
TORSDOF 18
ENDMDL
MODEL 3
REMARK VINA RESULT:     -13.2      1.580      2.198
REMARK SMILES Cc1ccc(C(F)(F)F)cc1/C=C/C(=O)NCCCCCCNC(=O)c1ccc(-c2c3nc(c(-c4c(F)cc(S(=O)(=O)[O-])cc4F)c4ccc([nH]4)c(-c4c(F)cc(S(=O)(=O)[O-])cc4F)c4nc(c(-c5c(F)cc(S(=O)(=O)[O-])cc5F)c5ccc2[nH]5)C=C4)C=C3)cc1
REMARK SMILES IDX 20 1 19 2 18 3 17 4 16 5 14 6 15 7 13 9 12 10 11 11 1 12
REMARK SMILES IDX 2 13 3 14 4 15 10 16 5 17 6 18 7 19 8 20 9 21 21 22 22 23
REMARK SMILES IDX 23 24 24 25 25 27 26 28 27 29 91 30 28 31 90 32 29 33 30 34
REMARK SMILES IDX 31 35 84 36 32 37 89 38 83 39 85 40 33 41 88 42 82 43 81 44
REMARK SMILES IDX 34 46 68 47 47 48 67 49 48 50 51 51 66 52 86 53 49 54 50 55
REMARK SMILES IDX 65 57 87 58 52 59 35 60 36 61 45 62 37 63 38 64 44 65 46 66
REMARK SMILES IDX 39 67 40 68 41 69 42 70 43 71 69 72 70 73 79 74 71 75 72 76
REMARK SMILES IDX 78 77 80 78 73 79 74 80 75 81 76 82 77 83 53 84 54 85 63 86
REMARK SMILES IDX 55 87 56 88 62 89 64 90 57 91 58 92 59 93 60 94 61 95
REMARK H PARENT 16 8 23 26 85 45 51 56
REMARK Flexibility Score: inf
ROOT
ATOM      1  C   UNL A   1      32.358  29.096  25.615  1.00  0.00     0.002 C 
ENDROOT
BRANCH   1   2
ATOM      2  C   UNL A   1      32.337  27.558  25.661  1.00  0.00     0.002 C 
BRANCH   2   3
ATOM      3  C   UNL A   1      31.149  26.911  26.385  1.00  0.00     0.021 C 
BRANCH   3   4
ATOM      4  C   UNL A   1      30.422  25.833  25.583  1.00  0.00     0.116 C 
BRANCH   4   5
ATOM      5  N   UNL A   1      29.709  24.907  26.444  1.00  0.00    -0.353 N 
ATOM      6  C   UNL A   1      30.001  23.620  26.771  1.00  0.00     0.243 C 
ATOM      7  O   UNL A   1      29.390  23.051  27.672  1.00  0.00    -0.270 OA
ATOM      8  H   UNL A   1      28.889  25.266  26.856  1.00  0.00     0.163 HD
BRANCH   6   9
ATOM      9  C   UNL A   1      31.115  22.914  26.102  1.00  0.00     0.072 C 
ATOM     10  C   UNL A   1      32.210  22.480  26.746  1.00  0.00     0.014 C 
BRANCH  10  11
ATOM     11  C   UNL A   1      33.341  21.852  26.042  1.00  0.00    -0.022 A 
ATOM     12  C   UNL A   1      34.731  24.008  26.096  1.00  0.00     0.045 C 
ATOM     13  C   UNL A   1      34.517  22.563  25.732  1.00  0.00    -0.044 A 
ATOM     14  C   UNL A   1      35.536  21.919  25.009  1.00  0.00     0.004 A 
ATOM     15  C   UNL A   1      35.411  20.585  24.618  1.00  0.00     0.013 A 
ATOM     16  C   UNL A   1      33.224  20.512  25.630  1.00  0.00     0.021 A 
ATOM     17  C   UNL A   1      34.254  19.863  24.931  1.00  0.00     0.056 A 
BRANCH  17  18
ATOM     18  C   UNL A   1      34.120  18.426  24.500  1.00  0.00     0.416 C 
ATOM     19  F   UNL A   1      33.462  17.661  25.415  1.00  0.00    -0.166 F 
ATOM     20  F   UNL A   1      33.420  18.294  23.336  1.00  0.00    -0.166 F 
ATOM     21  F   UNL A   1      35.313  17.805  24.281  1.00  0.00    -0.166 F 
ENDBRANCH  17  18
ENDBRANCH  10  11
ENDBRANCH   6   9
ENDBRANCH   4   5
ENDBRANCH   3   4
ENDBRANCH   2   3
ENDBRANCH   1   2
BRANCH   1  22
ATOM     22  C   UNL A   1      32.718  29.806  26.922  1.00  0.00     0.021 C 
BRANCH  22  23
ATOM     23  C   UNL A   1      34.191  29.676  27.298  1.00  0.00     0.116 C 
BRANCH  23  24
ATOM     24  N   UNL A   1      34.755  30.908  27.819  1.00  0.00    -0.352 N 
ATOM     25  C   UNL A   1      35.839  31.028  28.677  1.00  0.00     0.251 C 
ATOM     26  H   UNL A   1      34.323  31.746  27.534  1.00  0.00     0.163 HD
ATOM     27  O   UNL A   1      36.041  32.006  29.357  1.00  0.00    -0.269 OA
BRANCH  25  28
ATOM     28  C   UNL A   1      36.840  29.940  28.596  1.00  0.00     0.039 A 
ATOM     29  C   UNL A   1      37.038  29.174  29.750  1.00  0.00     0.014 A 
ATOM     30  C   UNL A   1      37.717  29.864  27.518  1.00  0.00     0.014 A 
ATOM     31  C   UNL A   1      38.206  28.425  29.883  1.00  0.00     0.010 A 
ATOM     32  C   UNL A   1      38.907  29.177  27.682  1.00  0.00     0.010 A 
ATOM     33  C   UNL A   1      39.172  28.489  28.879  1.00  0.00    -0.014 A 
BRANCH  33  34
ATOM     34  C   UNL A   1      40.520  27.940  29.019  1.00  0.00     0.031 A 
ATOM     35  C   UNL A   1      40.812  26.543  28.614  1.00  0.00     0.074 A 
ATOM     36  C   UNL A   1      41.528  28.730  29.448  1.00  0.00     0.049 A 
ATOM     37  N   UNL A   1      41.871  25.886  28.954  1.00  0.00    -0.248 NA
ATOM     38  C   UNL A   1      39.886  25.756  27.807  1.00  0.00     0.031 C 
ATOM     39  C   UNL A   1      42.961  28.468  29.346  1.00  0.00     0.029 A 
ATOM     40  N   UNL A   1      41.440  29.849  30.280  1.00  0.00    -0.354 N 
ATOM     41  C   UNL A   1      41.887  24.703  28.251  1.00  0.00     0.074 A 
ATOM     42  C   UNL A   1      40.615  24.662  27.564  1.00  0.00     0.031 C 
ATOM     43  C   UNL A   1      43.603  29.201  30.266  1.00  0.00     0.029 A 
ATOM     44  C   UNL A   1      42.596  29.847  31.088  1.00  0.00     0.049 A 
ATOM     45  H   UNL A   1      40.710  30.511  30.299  1.00  0.00     0.167 HD
ATOM     46  C   UNL A   1      43.008  23.926  28.248  1.00  0.00     0.037 A 
ATOM     47  C   UNL A   1      42.496  29.723  32.445  1.00  0.00     0.037 A 
ATOM     48  C   UNL A   1      44.031  24.444  29.151  1.00  0.00     0.049 A 
ATOM     49  C   UNL A   1      43.118  28.462  33.014  1.00  0.00     0.074 A 
ATOM     50  C   UNL A   1      45.144  25.252  28.992  1.00  0.00     0.029 A 
ATOM     51  N   UNL A   1      43.812  24.358  30.514  1.00  0.00    -0.354 N 
ATOM     52  N   UNL A   1      43.695  27.535  32.301  1.00  0.00    -0.248 NA
ATOM     53  C   UNL A   1      43.066  28.115  34.437  1.00  0.00     0.031 C 
ATOM     54  C   UNL A   1      45.554  25.702  30.279  1.00  0.00     0.029 A 
ATOM     55  C   UNL A   1      44.691  25.162  31.215  1.00  0.00     0.049 A 
ATOM     56  H   UNL A   1      43.119  23.798  30.931  1.00  0.00     0.167 HD
ATOM     57  C   UNL A   1      44.012  26.477  33.110  1.00  0.00     0.074 A 
ATOM     58  C   UNL A   1      43.628  26.895  34.444  1.00  0.00     0.031 C 
ATOM     59  C   UNL A   1      44.520  25.304  32.646  1.00  0.00     0.037 A 
BRANCH  46  60
ATOM     60  C   UNL A   1      43.245  22.814  27.255  1.00  0.00     0.058 A 
ATOM     61  C   UNL A   1      42.490  21.623  27.317  1.00  0.00     0.135 A 
ATOM     62  C   UNL A   1      44.239  22.834  26.258  1.00  0.00     0.135 A 
ATOM     63  F   UNL A   1      41.457  21.492  28.162  1.00  0.00    -0.206 F 
ATOM     64  C   UNL A   1      42.774  20.502  26.535  1.00  0.00     0.059 A 
ATOM     65  C   UNL A   1      44.584  21.707  25.506  1.00  0.00     0.059 A 
ATOM     66  F   UNL A   1      44.891  23.966  25.955  1.00  0.00    -0.206 F 
ATOM     67  C   UNL A   1      43.852  20.538  25.661  1.00  0.00     0.060 A 
BRANCH  67  68
ATOM     68  S   UNL A   1      44.289  19.038  24.762  1.00  0.00     0.124 S 
ATOM     69  O   UNL A   1      45.577  18.686  25.354  1.00  0.00    -0.237 OA
ATOM     70  O   UNL A   1      43.177  18.153  25.090  1.00  0.00    -0.237 OA
ATOM     71  O   UNL A   1      44.352  19.482  23.372  1.00  0.00    -0.744 OA
ENDBRANCH  67  68
ENDBRANCH  46  60
BRANCH  47  72
ATOM     72  C   UNL A   1      41.302  30.423  32.994  1.00  0.00     0.058 A 
ATOM     73  C   UNL A   1      40.160  29.646  33.273  1.00  0.00     0.135 A 
ATOM     74  C   UNL A   1      41.409  31.670  33.621  1.00  0.00     0.135 A 
ATOM     75  F   UNL A   1      39.999  28.450  32.680  1.00  0.00    -0.206 F 
ATOM     76  C   UNL A   1      39.258  30.005  34.266  1.00  0.00     0.059 A 
ATOM     77  C   UNL A   1      40.504  32.059  34.610  1.00  0.00     0.059 A 
ATOM     78  F   UNL A   1      42.469  32.458  33.388  1.00  0.00    -0.206 F 
ATOM     79  C   UNL A   1      39.480  31.182  34.975  1.00  0.00     0.060 A 
BRANCH  79  80
ATOM     80  S   UNL A   1      38.517  31.457  36.482  1.00  0.00     0.124 S 
ATOM     81  O   UNL A   1      39.501  32.078  37.362  1.00  0.00    -0.237 OA
ATOM     82  O   UNL A   1      37.452  32.338  36.005  1.00  0.00    -0.237 OA
ATOM     83  O   UNL A   1      38.095  30.112  36.856  1.00  0.00    -0.744 OA
ENDBRANCH  79  80
ENDBRANCH  47  72
BRANCH  59  84
ATOM     84  C   UNL A   1      44.894  24.185  33.560  1.00  0.00     0.058 A 
ATOM     85  C   UNL A   1      46.215  24.025  34.007  1.00  0.00     0.135 A 
ATOM     86  C   UNL A   1      43.972  23.181  33.907  1.00  0.00     0.135 A 
ATOM     87  F   UNL A   1      47.153  24.933  33.695  1.00  0.00    -0.206 F 
ATOM     88  C   UNL A   1      46.601  22.928  34.772  1.00  0.00     0.059 A 
ATOM     89  C   UNL A   1      44.343  22.062  34.645  1.00  0.00     0.059 A 
ATOM     90  F   UNL A   1      42.683  23.279  33.547  1.00  0.00    -0.206 F 
ATOM     91  C   UNL A   1      45.659  21.949  35.084  1.00  0.00     0.060 A 
BRANCH  91  92
ATOM     92  S   UNL A   1      46.160  20.502  36.037  1.00  0.00     0.124 S 
ATOM     93  O   UNL A   1      47.598  20.435  35.796  1.00  0.00    -0.237 OA
ATOM     94  O   UNL A   1      45.766  20.895  37.387  1.00  0.00    -0.237 OA
ATOM     95  O   UNL A   1      45.381  19.424  35.438  1.00  0.00    -0.744 OA
ENDBRANCH  91  92
ENDBRANCH  59  84
ENDBRANCH  33  34
ENDBRANCH  25  28
ENDBRANCH  23  24
ENDBRANCH  22  23
ENDBRANCH   1  22
TORSDOF 18
ENDMDL
