MODEL 1
REMARK VINA RESULT:     -12.2      0.000      0.000
REMARK SMILES C[C@@H](C(=O)NCCCCCCNC(=O)c1ccc(-c2c3nc(c(-c4c(F)cc(S(=O)(=O)[O-])cc4F)c4ccc([nH]4)c(-c4c(F)cc(S(=O)(=O)[O-])cc4F)c4nc(c(-c5c(F)cc(S(=O)(=O)[O-])cc5F)c5ccc2[nH]5)C=C4)C=C3)cc1)c1ccc(-c2ccc3[nH]ccc3c2)cc1
REMARK SMILES IDX 9 1 8 2 7 3 6 4 5 5 3 6 4 7 2 9 1 10 81 11 82 12 95 13 83 14
REMARK SMILES IDX 94 15 84 16 85 17 86 18 93 19 87 20 92 21 88 22 91 23 89 24
REMARK SMILES IDX 90 25 10 27 11 28 12 29 13 30 14 32 15 33 16 34 80 35 17 36
REMARK SMILES IDX 79 37 18 38 19 39 20 40 73 41 21 42 78 43 72 44 74 45 22 46
REMARK SMILES IDX 77 47 71 48 70 49 23 51 57 52 36 53 56 54 37 55 40 56 55 57
REMARK SMILES IDX 75 58 38 59 39 60 54 62 76 63 41 64 24 65 25 66 34 67 26 68
REMARK SMILES IDX 27 69 33 70 35 71 28 72 29 73 30 74 31 75 32 76 58 77 59 78
REMARK SMILES IDX 68 79 60 80 61 81 67 82 69 83 62 84 63 85 64 86 65 87 66 88
REMARK SMILES IDX 42 89 43 90 52 91 44 92 45 93 51 94 53 95 46 96 47 97 48 98
REMARK SMILES IDX 49 99 50 100
REMARK H PARENT 5 8 89 26 12 31 74 50 40 61
REMARK Flexibility Score: inf
ROOT
ATOM      1  C   UNL A   1      33.608  27.564  24.470  1.00  0.00     0.002 C 
ENDROOT
BRANCH   1   2
ATOM      2  C   UNL A   1      33.696  26.042  24.334  1.00  0.00     0.002 C 
BRANCH   2   3
ATOM      3  C   UNL A   1      34.426  25.331  25.483  1.00  0.00     0.021 C 
BRANCH   3   4
ATOM      4  C   UNL A   1      34.374  23.804  25.405  1.00  0.00     0.116 C 
BRANCH   4   5
ATOM      5  N   UNL A   1      34.013  23.244  26.688  1.00  0.00    -0.356 N 
ATOM      6  C   UNL A   1      32.860  22.658  27.112  1.00  0.00     0.227 C 
ATOM      7  O   UNL A   1      32.833  22.354  28.306  1.00  0.00    -0.274 OA
ATOM      8  H   UNL A   1      34.721  23.296  27.371  1.00  0.00     0.163 HD
BRANCH   6   9
ATOM      9  C   UNL A   1      31.732  22.352  26.106  1.00  0.00     0.105 C 
ATOM     10  C   UNL A   1      32.135  21.394  24.982  1.00  0.00     0.023 C 
BRANCH   9  11
ATOM     11  C   UNL A   1      31.100  23.574  25.440  1.00  0.00    -0.036 A 
ATOM     12  C   UNL A   1      30.579  24.593  26.252  1.00  0.00     0.005 A 
ATOM     13  C   UNL A   1      30.920  23.673  24.054  1.00  0.00     0.005 A 
ATOM     14  C   UNL A   1      29.933  25.695  25.688  1.00  0.00     0.009 A 
ATOM     15  C   UNL A   1      30.299  24.787  23.489  1.00  0.00     0.009 A 
ATOM     16  C   UNL A   1      29.802  25.813  24.299  1.00  0.00    -0.018 A 
BRANCH  16  17
ATOM     17  C   UNL A   1      29.181  26.995  23.703  1.00  0.00    -0.018 A 
ATOM     18  C   UNL A   1      27.792  27.166  23.774  1.00  0.00     0.011 A 
ATOM     19  C   UNL A   1      29.966  27.969  23.059  1.00  0.00     0.019 A 
ATOM     20  C   UNL A   1      27.160  28.296  23.247  1.00  0.00     0.027 A 
ATOM     21  C   UNL A   1      29.348  29.096  22.483  1.00  0.00    -0.000 A 
ATOM     22  C   UNL A   1      27.967  29.243  22.610  1.00  0.00     0.045 A 
ATOM     23  C   UNL A   1      29.819  30.202  21.724  1.00  0.00     0.028 A 
ATOM     24  N   UNL A   1      27.631  30.433  22.010  1.00  0.00    -0.361 N 
ATOM     25  C   UNL A   1      28.735  30.997  21.428  1.00  0.00     0.083 A 
ATOM     26  H   UNL A   1      26.727  30.824  21.999  1.00  0.00     0.166 HD
ENDBRANCH  16  17
ENDBRANCH   9  11
ENDBRANCH   6   9
ENDBRANCH   4   5
ENDBRANCH   3   4
ENDBRANCH   2   3
ENDBRANCH   1   2
BRANCH   1  27
ATOM     27  C   UNL A   1      32.865  28.050  25.716  1.00  0.00     0.021 C 
BRANCH  27  28
ATOM     28  C   UNL A   1      33.772  28.378  26.894  1.00  0.00     0.116 C 
BRANCH  28  29
ATOM     29  N   UNL A   1      33.588  29.744  27.354  1.00  0.00    -0.352 N 
ATOM     30  C   UNL A   1      34.439  30.522  28.102  1.00  0.00     0.251 C 
ATOM     31  H   UNL A   1      32.739  30.170  27.096  1.00  0.00     0.163 HD
ATOM     32  O   UNL A   1      34.044  31.575  28.589  1.00  0.00    -0.269 OA
BRANCH  30  33
ATOM     33  C   UNL A   1      35.828  30.068  28.323  1.00  0.00     0.039 A 
ATOM     34  C   UNL A   1      36.739  30.129  27.268  1.00  0.00     0.014 A 
ATOM     35  C   UNL A   1      36.228  29.589  29.575  1.00  0.00     0.014 A 
ATOM     36  C   UNL A   1      38.068  29.756  27.483  1.00  0.00     0.010 A 
ATOM     37  C   UNL A   1      37.567  29.299  29.808  1.00  0.00     0.010 A 
ATOM     38  C   UNL A   1      38.499  29.365  28.762  1.00  0.00    -0.014 A 
BRANCH  38  39
ATOM     39  C   UNL A   1      39.915  29.001  29.021  1.00  0.00     0.031 A 
ATOM     40  C   UNL A   1      40.855  30.015  29.614  1.00  0.00     0.074 A 
ATOM     41  C   UNL A   1      40.368  27.783  28.669  1.00  0.00     0.049 A 
ATOM     42  N   UNL A   1      42.135  29.909  29.866  1.00  0.00    -0.248 NA
ATOM     43  C   UNL A   1      40.288  31.334  29.939  1.00  0.00     0.031 C 
ATOM     44  C   UNL A   1      39.564  26.728  28.046  1.00  0.00     0.029 A 
ATOM     45  N   UNL A   1      41.618  27.225  28.779  1.00  0.00    -0.354 N 
ATOM     46  C   UNL A   1      42.527  31.147  30.362  1.00  0.00     0.074 A 
ATOM     47  C   UNL A   1      41.364  32.007  30.315  1.00  0.00     0.031 C 
ATOM     48  C   UNL A   1      40.331  25.643  27.860  1.00  0.00     0.029 A 
ATOM     49  C   UNL A   1      41.691  25.935  28.308  1.00  0.00     0.049 A 
ATOM     50  H   UNL A   1      42.389  27.704  29.158  1.00  0.00     0.167 HD
ATOM     51  C   UNL A   1      43.737  31.526  30.837  1.00  0.00     0.037 A 
ATOM     52  C   UNL A   1      42.733  25.086  28.242  1.00  0.00     0.037 A 
ATOM     53  C   UNL A   1      44.884  30.657  30.894  1.00  0.00     0.049 A 
ATOM     54  C   UNL A   1      44.074  25.530  28.761  1.00  0.00     0.074 A 
ATOM     55  C   UNL A   1      46.142  30.923  31.408  1.00  0.00     0.029 A 
ATOM     56  N   UNL A   1      44.918  29.356  30.411  1.00  0.00    -0.354 N 
ATOM     57  N   UNL A   1      44.413  26.683  29.288  1.00  0.00    -0.248 NA
ATOM     58  C   UNL A   1      45.171  24.558  28.683  1.00  0.00     0.031 C 
ATOM     59  C   UNL A   1      46.950  29.804  31.183  1.00  0.00     0.029 A 
ATOM     60  C   UNL A   1      46.181  28.816  30.590  1.00  0.00     0.049 A 
ATOM     61  H   UNL A   1      44.154  28.886  30.002  1.00  0.00     0.167 HD
ATOM     62  C   UNL A   1      45.755  26.563  29.636  1.00  0.00     0.074 A 
ATOM     63  C   UNL A   1      46.162  25.223  29.263  1.00  0.00     0.031 C 
ATOM     64  C   UNL A   1      46.572  27.478  30.216  1.00  0.00     0.037 A 
BRANCH  51  65
ATOM     65  C   UNL A   1      43.880  32.948  31.318  1.00  0.00     0.058 A 
ATOM     66  C   UNL A   1      44.275  33.986  30.458  1.00  0.00     0.135 A 
ATOM     67  C   UNL A   1      43.621  33.276  32.658  1.00  0.00     0.135 A 
ATOM     68  F   UNL A   1      44.548  33.731  29.168  1.00  0.00    -0.206 F 
ATOM     69  C   UNL A   1      44.459  35.285  30.920  1.00  0.00     0.059 A 
ATOM     70  C   UNL A   1      43.763  34.575  33.135  1.00  0.00     0.059 A 
ATOM     71  F   UNL A   1      43.236  32.326  33.527  1.00  0.00    -0.206 F 
ATOM     72  C   UNL A   1      44.206  35.569  32.264  1.00  0.00     0.060 A 
BRANCH  72  73
ATOM     73  S   UNL A   1      44.479  37.252  32.855  1.00  0.00     0.124 S 
ATOM     74  O   UNL A   1      43.355  37.424  33.769  1.00  0.00    -0.237 OA
ATOM     75  O   UNL A   1      45.794  37.155  33.479  1.00  0.00    -0.237 OA
ATOM     76  O   UNL A   1      44.424  38.053  31.636  1.00  0.00    -0.744 OA
ENDBRANCH  72  73
ENDBRANCH  51  65
BRANCH  52  77
ATOM     77  C   UNL A   1      42.534  23.716  27.700  1.00  0.00     0.058 A 
ATOM     78  C   UNL A   1      42.540  23.481  26.318  1.00  0.00     0.135 A 
ATOM     79  C   UNL A   1      42.376  22.609  28.549  1.00  0.00     0.135 A 
ATOM     80  F   UNL A   1      42.681  24.507  25.464  1.00  0.00    -0.206 F 
ATOM     81  C   UNL A   1      42.393  22.201  25.793  1.00  0.00     0.059 A 
ATOM     82  C   UNL A   1      42.253  21.315  28.051  1.00  0.00     0.059 A 
ATOM     83  F   UNL A   1      42.379  22.777  29.882  1.00  0.00    -0.206 F 
ATOM     84  C   UNL A   1      42.258  21.123  26.670  1.00  0.00     0.060 A 
BRANCH  84  85
ATOM     85  S   UNL A   1      42.143  19.458  25.979  1.00  0.00     0.124 S 
ATOM     86  O   UNL A   1      40.706  19.322  25.775  1.00  0.00    -0.237 OA
ATOM     87  O   UNL A   1      42.953  19.573  24.770  1.00  0.00    -0.237 OA
ATOM     88  O   UNL A   1      42.714  18.619  27.028  1.00  0.00    -0.744 OA
ENDBRANCH  84  85
ENDBRANCH  52  77
BRANCH  64  89
ATOM     89  C   UNL A   1      47.982  27.051  30.526  1.00  0.00     0.058 A 
ATOM     90  C   UNL A   1      49.049  27.318  29.653  1.00  0.00     0.135 A 
ATOM     91  C   UNL A   1      48.277  26.414  31.743  1.00  0.00     0.135 A 
ATOM     92  F   UNL A   1      48.824  27.919  28.474  1.00  0.00    -0.206 F 
ATOM     93  C   UNL A   1      50.353  26.945  29.964  1.00  0.00     0.059 A 
ATOM     94  C   UNL A   1      49.577  26.061  32.089  1.00  0.00     0.059 A 
ATOM     95  F   UNL A   1      47.296  26.143  32.620  1.00  0.00    -0.206 F 
ATOM     96  C   UNL A   1      50.607  26.320  31.187  1.00  0.00     0.060 A 
BRANCH  96  97
ATOM     97  S   UNL A   1      52.308  25.873  31.592  1.00  0.00     0.124 S 
ATOM     98  O   UNL A   1      52.143  24.518  32.103  1.00  0.00    -0.237 OA
ATOM     99  O   UNL A   1      52.977  25.988  30.300  1.00  0.00    -0.237 OA
ATOM    100  O   UNL A   1      52.696  26.874  32.582  1.00  0.00    -0.744 OA
ENDBRANCH  96  97
ENDBRANCH  64  89
ENDBRANCH  38  39
ENDBRANCH  30  33
ENDBRANCH  28  29
ENDBRANCH  27  28
ENDBRANCH   1  27
TORSDOF 18
ENDMDL
MODEL 2
REMARK VINA RESULT:     -11.7      2.648      3.334
REMARK SMILES C[C@@H](C(=O)NCCCCCCNC(=O)c1ccc(-c2c3nc(c(-c4c(F)cc(S(=O)(=O)[O-])cc4F)c4ccc([nH]4)c(-c4c(F)cc(S(=O)(=O)[O-])cc4F)c4nc(c(-c5c(F)cc(S(=O)(=O)[O-])cc5F)c5ccc2[nH]5)C=C4)C=C3)cc1)c1ccc(-c2ccc3[nH]ccc3c2)cc1
REMARK SMILES IDX 9 1 8 2 7 3 6 4 5 5 3 6 4 7 2 9 1 10 81 11 82 12 95 13 83 14
REMARK SMILES IDX 94 15 84 16 85 17 86 18 93 19 87 20 92 21 88 22 91 23 89 24
REMARK SMILES IDX 90 25 10 27 11 28 12 29 13 30 14 32 15 33 16 34 80 35 17 36
REMARK SMILES IDX 79 37 18 38 19 39 20 40 73 41 21 42 78 43 72 44 74 45 22 46
REMARK SMILES IDX 77 47 71 48 70 49 23 51 57 52 36 53 56 54 37 55 40 56 55 57
REMARK SMILES IDX 75 58 38 59 39 60 54 62 76 63 41 64 24 65 25 66 34 67 26 68
REMARK SMILES IDX 27 69 33 70 35 71 28 72 29 73 30 74 31 75 32 76 58 77 59 78
REMARK SMILES IDX 68 79 60 80 61 81 67 82 69 83 62 84 63 85 64 86 65 87 66 88
REMARK SMILES IDX 42 89 43 90 52 91 44 92 45 93 51 94 53 95 46 96 47 97 48 98
REMARK SMILES IDX 49 99 50 100
REMARK H PARENT 5 8 89 26 12 31 74 50 40 61
REMARK Flexibility Score: inf
ROOT
ATOM      1  C   UNL A   1      33.531  26.518  24.891  1.00  0.00     0.002 C 
ENDROOT
BRANCH   1   2
ATOM      2  C   UNL A   1      34.195  25.425  25.732  1.00  0.00     0.002 C 
BRANCH   2   3
ATOM      3  C   UNL A   1      35.026  24.410  24.935  1.00  0.00     0.021 C 
BRANCH   3   4
ATOM      4  C   UNL A   1      34.585  22.957  25.124  1.00  0.00     0.116 C 
BRANCH   4   5
ATOM      5  N   UNL A   1      34.147  22.733  26.483  1.00  0.00    -0.356 N 
ATOM      6  C   UNL A   1      32.912  22.463  26.988  1.00  0.00     0.227 C 
ATOM      7  O   UNL A   1      32.847  22.408  28.218  1.00  0.00    -0.274 OA
ATOM      8  H   UNL A   1      34.863  22.787  27.158  1.00  0.00     0.163 HD
BRANCH   6   9
ATOM      9  C   UNL A   1      31.732  22.178  26.036  1.00  0.00     0.105 C 
ATOM     10  C   UNL A   1      32.084  21.275  24.852  1.00  0.00     0.023 C 
BRANCH   9  11
ATOM     11  C   UNL A   1      31.043  23.416  25.461  1.00  0.00    -0.036 A 
ATOM     12  C   UNL A   1      31.014  23.587  24.069  1.00  0.00     0.005 A 
ATOM     13  C   UNL A   1      30.532  24.442  26.267  1.00  0.00     0.005 A 
ATOM     14  C   UNL A   1      30.454  24.735  23.503  1.00  0.00     0.009 A 
ATOM     15  C   UNL A   1      29.950  25.576  25.702  1.00  0.00     0.009 A 
ATOM     16  C   UNL A   1      29.900  25.734  24.313  1.00  0.00    -0.018 A 
BRANCH  16  17
ATOM     17  C   UNL A   1      29.258  26.907  23.722  1.00  0.00    -0.018 A 
ATOM     18  C   UNL A   1      27.872  27.079  23.838  1.00  0.00     0.011 A 
ATOM     19  C   UNL A   1      30.019  27.872  23.037  1.00  0.00     0.019 A 
ATOM     20  C   UNL A   1      27.221  28.201  23.318  1.00  0.00     0.027 A 
ATOM     21  C   UNL A   1      29.381  28.991  22.467  1.00  0.00    -0.000 A 
ATOM     22  C   UNL A   1      28.005  29.138  22.640  1.00  0.00     0.045 A 
ATOM     23  C   UNL A   1      29.823  30.085  21.676  1.00  0.00     0.028 A 
ATOM     24  N   UNL A   1      27.647  30.320  22.035  1.00  0.00    -0.361 N 
ATOM     25  C   UNL A   1      28.729  30.876  21.407  1.00  0.00     0.083 A 
ATOM     26  H   UNL A   1      26.743  30.711  22.050  1.00  0.00     0.166 HD
ENDBRANCH  16  17
ENDBRANCH   9  11
ENDBRANCH   6   9
ENDBRANCH   4   5
ENDBRANCH   3   4
ENDBRANCH   2   3
ENDBRANCH   1   2
BRANCH   1  27
ATOM     27  C   UNL A   1      33.099  27.755  25.681  1.00  0.00     0.021 C 
BRANCH  27  28
ATOM     28  C   UNL A   1      34.250  28.660  26.100  1.00  0.00     0.116 C 
BRANCH  28  29
ATOM     29  N   UNL A   1      33.796  30.006  26.404  1.00  0.00    -0.352 N 
ATOM     30  C   UNL A   1      34.244  30.866  27.377  1.00  0.00     0.251 C 
ATOM     31  H   UNL A   1      33.068  30.348  25.837  1.00  0.00     0.163 HD
ATOM     32  O   UNL A   1      33.610  31.880  27.643  1.00  0.00    -0.269 OA
BRANCH  30  33
ATOM     33  C   UNL A   1      35.487  30.545  28.109  1.00  0.00     0.039 A 
ATOM     34  C   UNL A   1      35.427  29.680  29.203  1.00  0.00     0.014 A 
ATOM     35  C   UNL A   1      36.710  31.092  27.707  1.00  0.00     0.014 A 
ATOM     36  C   UNL A   1      36.605  29.325  29.865  1.00  0.00     0.010 A 
ATOM     37  C   UNL A   1      37.888  30.672  28.314  1.00  0.00     0.010 A 
ATOM     38  C   UNL A   1      37.847  29.796  29.408  1.00  0.00    -0.014 A 
BRANCH  38  39
ATOM     39  C   UNL A   1      39.115  29.400  30.074  1.00  0.00     0.031 A 
ATOM     40  C   UNL A   1      39.570  30.120  31.314  1.00  0.00     0.074 A 
ATOM     41  C   UNL A   1      39.882  28.435  29.531  1.00  0.00     0.049 A 
ATOM     42  N   UNL A   1      40.667  29.959  32.009  1.00  0.00    -0.248 NA
ATOM     43  C   UNL A   1      38.690  31.184  31.823  1.00  0.00     0.031 C 
ATOM     44  C   UNL A   1      39.569  27.694  28.307  1.00  0.00     0.029 A 
ATOM     45  N   UNL A   1      41.087  27.916  29.933  1.00  0.00    -0.354 N 
ATOM     46  C   UNL A   1      40.616  30.907  33.023  1.00  0.00     0.074 A 
ATOM     47  C   UNL A   1      39.411  31.682  32.815  1.00  0.00     0.031 C 
ATOM     48  C   UNL A   1      40.539  26.795  28.077  1.00  0.00     0.029 A 
ATOM     49  C   UNL A   1      41.564  26.923  29.111  1.00  0.00     0.049 A 
ATOM     50  H   UNL A   1      41.566  28.226  30.736  1.00  0.00     0.167 HD
ATOM     51  C   UNL A   1      41.479  31.100  34.049  1.00  0.00     0.037 A 
ATOM     52  C   UNL A   1      42.698  26.201  29.178  1.00  0.00     0.037 A 
ATOM     53  C   UNL A   1      42.667  30.314  34.256  1.00  0.00     0.049 A 
ATOM     54  C   UNL A   1      43.652  26.439  30.317  1.00  0.00     0.074 A 
ATOM     55  C   UNL A   1      43.581  30.389  35.293  1.00  0.00     0.029 A 
ATOM     56  N   UNL A   1      43.114  29.314  33.402  1.00  0.00    -0.354 N 
ATOM     57  N   UNL A   1      43.557  27.296  31.306  1.00  0.00    -0.248 NA
ATOM     58  C   UNL A   1      44.863  25.610  30.353  1.00  0.00     0.031 C 
ATOM     59  C   UNL A   1      44.608  29.475  35.037  1.00  0.00     0.029 A 
ATOM     60  C   UNL A   1      44.304  28.784  33.875  1.00  0.00     0.049 A 
ATOM     61  H   UNL A   1      42.653  29.024  32.582  1.00  0.00     0.167 HD
ATOM     62  C   UNL A   1      44.678  27.086  32.102  1.00  0.00     0.074 A 
ATOM     63  C   UNL A   1      45.434  26.017  31.479  1.00  0.00     0.031 C 
ATOM     64  C   UNL A   1      45.045  27.716  33.246  1.00  0.00     0.037 A 
BRANCH  51  65
ATOM     65  C   UNL A   1      41.171  32.216  35.014  1.00  0.00     0.058 A 
ATOM     66  C   UNL A   1      41.749  33.491  34.885  1.00  0.00     0.135 A 
ATOM     67  C   UNL A   1      40.288  32.008  36.086  1.00  0.00     0.135 A 
ATOM     68  F   UNL A   1      42.611  33.746  33.887  1.00  0.00    -0.206 F 
ATOM     69  C   UNL A   1      41.504  34.499  35.811  1.00  0.00     0.059 A 
ATOM     70  C   UNL A   1      40.000  33.013  37.004  1.00  0.00     0.059 A 
ATOM     71  F   UNL A   1      39.702  30.812  36.259  1.00  0.00    -0.206 F 
ATOM     72  C   UNL A   1      40.632  34.249  36.872  1.00  0.00     0.060 A 
BRANCH  72  73
ATOM     73  S   UNL A   1      40.350  35.558  38.082  1.00  0.00     0.124 S 
ATOM     74  O   UNL A   1      41.684  35.721  38.650  1.00  0.00    -0.237 OA
ATOM     75  O   UNL A   1      39.878  36.658  37.248  1.00  0.00    -0.237 OA
ATOM     76  O   UNL A   1      39.353  34.982  38.979  1.00  0.00    -0.744 OA
ENDBRANCH  72  73
ENDBRANCH  51  65
BRANCH  52  77
ATOM     77  C   UNL A   1      42.967  25.154  28.157  1.00  0.00     0.058 A 
ATOM     78  C   UNL A   1      43.520  25.489  26.912  1.00  0.00     0.135 A 
ATOM     79  C   UNL A   1      42.717  23.797  28.416  1.00  0.00     0.135 A 
ATOM     80  F   UNL A   1      43.770  26.773  26.614  1.00  0.00    -0.206 F 
ATOM     81  C   UNL A   1      43.813  24.520  25.958  1.00  0.00     0.059 A 
ATOM     82  C   UNL A   1      43.025  22.806  27.488  1.00  0.00     0.059 A 
ATOM     83  F   UNL A   1      42.202  23.421  29.597  1.00  0.00    -0.206 F 
ATOM     84  C   UNL A   1      43.569  23.179  26.260  1.00  0.00     0.060 A 
BRANCH  84  85
ATOM     85  S   UNL A   1      44.024  21.924  25.044  1.00  0.00     0.124 S 
ATOM     86  O   UNL A   1      43.034  20.886  25.309  1.00  0.00    -0.237 OA
ATOM     87  O   UNL A   1      43.869  22.648  23.786  1.00  0.00    -0.237 OA
ATOM     88  O   UNL A   1      45.399  21.592  25.401  1.00  0.00    -0.744 OA
ENDBRANCH  84  85
ENDBRANCH  52  77
BRANCH  64  89
ATOM     89  C   UNL A   1      46.300  27.242  33.929  1.00  0.00     0.058 A 
ATOM     90  C   UNL A   1      46.286  26.200  34.870  1.00  0.00     0.135 A 
ATOM     91  C   UNL A   1      47.543  27.803  33.592  1.00  0.00     0.135 A 
ATOM     92  F   UNL A   1      45.126  25.632  35.234  1.00  0.00    -0.206 F 
ATOM     93  C   UNL A   1      47.457  25.749  35.472  1.00  0.00     0.059 A 
ATOM     94  C   UNL A   1      48.729  27.347  34.158  1.00  0.00     0.059 A 
ATOM     95  F   UNL A   1      47.616  28.795  32.690  1.00  0.00    -0.206 F 
ATOM     96  C   UNL A   1      48.674  26.328  35.107  1.00  0.00     0.060 A 
BRANCH  96  97
ATOM     97  S   UNL A   1      50.189  25.710  35.871  1.00  0.00     0.124 S 
ATOM     98  O   UNL A   1      50.010  24.268  35.755  1.00  0.00    -0.237 OA
ATOM     99  O   UNL A   1      51.225  26.291  35.023  1.00  0.00    -0.237 OA
ATOM    100  O   UNL A   1      50.127  26.244  37.228  1.00  0.00    -0.744 OA
ENDBRANCH  96  97
ENDBRANCH  64  89
ENDBRANCH  38  39
ENDBRANCH  30  33
ENDBRANCH  28  29
ENDBRANCH  27  28
ENDBRANCH   1  27
TORSDOF 18
ENDMDL
MODEL 3
REMARK VINA RESULT:     -11.6      4.444      7.987
REMARK SMILES C[C@@H](C(=O)NCCCCCCNC(=O)c1ccc(-c2c3nc(c(-c4c(F)cc(S(=O)(=O)[O-])cc4F)c4ccc([nH]4)c(-c4c(F)cc(S(=O)(=O)[O-])cc4F)c4nc(c(-c5c(F)cc(S(=O)(=O)[O-])cc5F)c5ccc2[nH]5)C=C4)C=C3)cc1)c1ccc(-c2ccc3[nH]ccc3c2)cc1
REMARK SMILES IDX 9 1 8 2 7 3 6 4 5 5 3 6 4 7 2 9 1 10 81 11 82 12 95 13 83 14
REMARK SMILES IDX 94 15 84 16 85 17 86 18 93 19 87 20 92 21 88 22 91 23 89 24
REMARK SMILES IDX 90 25 10 27 11 28 12 29 13 30 14 32 15 33 16 34 80 35 17 36
REMARK SMILES IDX 79 37 18 38 19 39 20 40 73 41 21 42 78 43 72 44 74 45 22 46
REMARK SMILES IDX 77 47 71 48 70 49 23 51 57 52 36 53 56 54 37 55 40 56 55 57
REMARK SMILES IDX 75 58 38 59 39 60 54 62 76 63 41 64 24 65 25 66 34 67 26 68
REMARK SMILES IDX 27 69 33 70 35 71 28 72 29 73 30 74 31 75 32 76 58 77 59 78
REMARK SMILES IDX 68 79 60 80 61 81 67 82 69 83 62 84 63 85 64 86 65 87 66 88
REMARK SMILES IDX 42 89 43 90 52 91 44 92 45 93 51 94 53 95 46 96 47 97 48 98
REMARK SMILES IDX 49 99 50 100
REMARK H PARENT 5 8 89 26 12 31 74 50 40 61
REMARK Flexibility Score: inf
ROOT
ATOM      1  C   UNL A   1      33.963  35.126  28.546  1.00  0.00     0.002 C 
ENDROOT
BRANCH   1   2
ATOM      2  C   UNL A   1      32.927  36.102  29.107  1.00  0.00     0.002 C 
BRANCH   2   3
ATOM      3  C   UNL A   1      33.256  36.666  30.496  1.00  0.00     0.021 C 
BRANCH   3   4
ATOM      4  C   UNL A   1      32.863  35.745  31.653  1.00  0.00     0.116 C 
BRANCH   4   5
ATOM      5  N   UNL A   1      33.878  35.765  32.683  1.00  0.00    -0.356 N 
ATOM      6  C   UNL A   1      34.935  34.937  32.909  1.00  0.00     0.227 C 
ATOM      7  O   UNL A   1      35.577  35.174  33.934  1.00  0.00    -0.274 OA
ATOM      8  H   UNL A   1      33.788  36.502  33.330  1.00  0.00     0.163 HD
BRANCH   6   9
ATOM      9  C   UNL A   1      35.299  33.848  31.880  1.00  0.00     0.105 C 
ATOM     10  C   UNL A   1      35.149  32.417  32.401  1.00  0.00     0.023 C 
BRANCH   9  11
ATOM     11  C   UNL A   1      36.701  33.957  31.282  1.00  0.00    -0.036 A 
ATOM     12  C   UNL A   1      37.733  34.489  32.069  1.00  0.00     0.005 A 
ATOM     13  C   UNL A   1      36.980  33.649  29.942  1.00  0.00     0.005 A 
ATOM     14  C   UNL A   1      39.014  34.668  31.541  1.00  0.00     0.009 A 
ATOM     15  C   UNL A   1      38.264  33.804  29.423  1.00  0.00     0.009 A 
ATOM     16  C   UNL A   1      39.298  34.311  30.217  1.00  0.00    -0.018 A 
BRANCH  16  17
ATOM     17  C   UNL A   1      40.652  34.440  29.680  1.00  0.00    -0.018 A 
ATOM     18  C   UNL A   1      41.669  33.591  30.138  1.00  0.00     0.011 A 
ATOM     19  C   UNL A   1      40.946  35.408  28.703  1.00  0.00     0.019 A 
ATOM     20  C   UNL A   1      42.969  33.657  29.629  1.00  0.00     0.027 A 
ATOM     21  C   UNL A   1      42.259  35.522  28.205  1.00  0.00    -0.000 A 
ATOM     22  C   UNL A   1      43.230  34.632  28.663  1.00  0.00     0.045 A 
ATOM     23  C   UNL A   1      42.897  36.406  27.293  1.00  0.00     0.028 A 
ATOM     24  N   UNL A   1      44.394  34.926  27.993  1.00  0.00    -0.361 N 
ATOM     25  C   UNL A   1      44.217  36.027  27.199  1.00  0.00     0.083 A 
ATOM     26  H   UNL A   1      45.234  34.418  28.072  1.00  0.00     0.166 HD
ENDBRANCH  16  17
ENDBRANCH   9  11
ENDBRANCH   6   9
ENDBRANCH   4   5
ENDBRANCH   3   4
ENDBRANCH   2   3
ENDBRANCH   1   2
BRANCH   1  27
ATOM     27  C   UNL A   1      33.378  33.822  28.000  1.00  0.00     0.021 C 
BRANCH  27  28
ATOM     28  C   UNL A   1      34.156  32.575  28.399  1.00  0.00     0.116 C 
BRANCH  28  29
ATOM     29  N   UNL A   1      33.751  31.414  27.624  1.00  0.00    -0.352 N 
ATOM     30  C   UNL A   1      34.476  30.287  27.321  1.00  0.00     0.251 C 
ATOM     31  H   UNL A   1      32.835  31.440  27.266  1.00  0.00     0.163 HD
ATOM     32  O   UNL A   1      34.067  29.499  26.476  1.00  0.00    -0.269 OA
BRANCH  30  33
ATOM     33  C   UNL A   1      35.759  30.045  28.014  1.00  0.00     0.039 A 
ATOM     34  C   UNL A   1      35.744  29.535  29.313  1.00  0.00     0.014 A 
ATOM     35  C   UNL A   1      36.974  30.314  27.375  1.00  0.00     0.014 A 
ATOM     36  C   UNL A   1      36.952  29.249  29.954  1.00  0.00     0.010 A 
ATOM     37  C   UNL A   1      38.170  29.951  27.982  1.00  0.00     0.010 A 
ATOM     38  C   UNL A   1      38.173  29.428  29.284  1.00  0.00    -0.014 A 
BRANCH  38  39
ATOM     39  C   UNL A   1      39.466  29.093  29.933  1.00  0.00     0.031 A 
ATOM     40  C   UNL A   1      39.917  29.856  31.149  1.00  0.00     0.074 A 
ATOM     41  C   UNL A   1      40.259  28.146  29.396  1.00  0.00     0.049 A 
ATOM     42  N   UNL A   1      41.032  29.751  31.826  1.00  0.00    -0.248 NA
ATOM     43  C   UNL A   1      39.007  30.897  31.652  1.00  0.00     0.031 C 
ATOM     44  C   UNL A   1      39.953  27.368  28.193  1.00  0.00     0.029 A 
ATOM     45  N   UNL A   1      41.490  27.681  29.786  1.00  0.00    -0.354 N 
ATOM     46  C   UNL A   1      40.963  30.718  32.821  1.00  0.00     0.074 A 
ATOM     47  C   UNL A   1      39.727  31.442  32.621  1.00  0.00     0.031 C 
ATOM     48  C   UNL A   1      40.951  26.501  27.964  1.00  0.00     0.029 A 
ATOM     49  C   UNL A   1      41.989  26.689  28.975  1.00  0.00     0.049 A 
ATOM     50  H   UNL A   1      41.971  28.026  30.573  1.00  0.00     0.167 HD
ATOM     51  C   UNL A   1      41.837  30.965  33.826  1.00  0.00     0.037 A 
ATOM     52  C   UNL A   1      43.150  26.011  29.036  1.00  0.00     0.037 A 
ATOM     53  C   UNL A   1      43.058  30.227  34.027  1.00  0.00     0.049 A 
ATOM     54  C   UNL A   1      44.115  26.309  30.152  1.00  0.00     0.074 A 
ATOM     55  C   UNL A   1      43.986  30.358  35.045  1.00  0.00     0.029 A 
ATOM     56  N   UNL A   1      43.526  29.226  33.186  1.00  0.00    -0.354 N 
ATOM     57  N   UNL A   1      44.006  27.182  31.124  1.00  0.00    -0.248 NA
ATOM     58  C   UNL A   1      45.357  25.526  30.182  1.00  0.00     0.031 C 
ATOM     59  C   UNL A   1      45.042  29.478  34.788  1.00  0.00     0.029 A 
ATOM     60  C   UNL A   1      44.743  28.751  33.647  1.00  0.00     0.049 A 
ATOM     61  H   UNL A   1      43.061  28.902  32.381  1.00  0.00     0.167 HD
ATOM     62  C   UNL A   1      45.149  27.031  31.902  1.00  0.00     0.074 A 
ATOM     63  C   UNL A   1      45.932  25.978  31.288  1.00  0.00     0.031 C 
ATOM     64  C   UNL A   1      45.512  27.699  33.026  1.00  0.00     0.037 A 
BRANCH  51  65
ATOM     65  C   UNL A   1      41.506  32.089  34.774  1.00  0.00     0.058 A 
ATOM     66  C   UNL A   1      40.771  31.874  35.953  1.00  0.00     0.135 A 
ATOM     67  C   UNL A   1      41.926  33.400  34.500  1.00  0.00     0.135 A 
ATOM     68  F   UNL A   1      40.331  30.644  36.262  1.00  0.00    -0.206 F 
ATOM     69  C   UNL A   1      40.421  32.925  36.795  1.00  0.00     0.059 A 
ATOM     70  C   UNL A   1      41.618  34.461  35.346  1.00  0.00     0.059 A 
ATOM     71  F   UNL A   1      42.635  33.666  33.391  1.00  0.00    -0.206 F 
ATOM     72  C   UNL A   1      40.844  34.217  36.479  1.00  0.00     0.060 A 
BRANCH  72  73
ATOM     73  S   UNL A   1      40.355  35.573  37.565  1.00  0.00     0.124 S 
ATOM     74  O   UNL A   1      39.229  34.980  38.280  1.00  0.00    -0.237 OA
ATOM     75  O   UNL A   1      41.562  35.792  38.355  1.00  0.00    -0.237 OA
ATOM     76  O   UNL A   1      40.013  36.645  36.637  1.00  0.00    -0.744 OA
ENDBRANCH  72  73
ENDBRANCH  51  65
BRANCH  52  77
ATOM     77  C   UNL A   1      43.439  24.953  28.031  1.00  0.00     0.058 A 
ATOM     78  C   UNL A   1      44.184  25.241  26.878  1.00  0.00     0.135 A 
ATOM     79  C   UNL A   1      43.015  23.629  28.220  1.00  0.00     0.135 A 
ATOM     80  F   UNL A   1      44.607  26.494  26.649  1.00  0.00    -0.206 F 
ATOM     81  C   UNL A   1      44.497  24.257  25.946  1.00  0.00     0.059 A 
ATOM     82  C   UNL A   1      43.336  22.620  27.316  1.00  0.00     0.059 A 
ATOM     83  F   UNL A   1      42.312  23.296  29.315  1.00  0.00    -0.206 F 
ATOM     84  C   UNL A   1      44.075  22.947  26.178  1.00  0.00     0.060 A 
BRANCH  84  85
ATOM     85  S   UNL A   1      44.551  21.664  25.000  1.00  0.00     0.124 S 
ATOM     86  O   UNL A   1      45.948  21.445  25.352  1.00  0.00    -0.237 OA
ATOM     87  O   UNL A   1      43.629  20.583  25.337  1.00  0.00    -0.237 OA
ATOM     88  O   UNL A   1      44.317  22.294  23.704  1.00  0.00    -0.744 OA
ENDBRANCH  84  85
ENDBRANCH  52  77
BRANCH  64  89
ATOM     89  C   UNL A   1      46.797  27.286  33.695  1.00  0.00     0.058 A 
ATOM     90  C   UNL A   1      46.840  26.257  34.649  1.00  0.00     0.135 A 
ATOM     91  C   UNL A   1      48.010  27.893  33.332  1.00  0.00     0.135 A 
ATOM     92  F   UNL A   1      45.710  25.646  35.038  1.00  0.00    -0.206 F 
ATOM     93  C   UNL A   1      48.038  25.863  35.238  1.00  0.00     0.059 A 
ATOM     94  C   UNL A   1      49.223  27.495  33.884  1.00  0.00     0.059 A 
ATOM     95  F   UNL A   1      48.027  28.876  32.416  1.00  0.00    -0.206 F 
ATOM     96  C   UNL A   1      49.224  26.487  34.846  1.00  0.00     0.060 A 
BRANCH  96  97
ATOM     97  S   UNL A   1      50.775  25.942  35.593  1.00  0.00     0.124 S 
ATOM     98  O   UNL A   1      50.579  26.321  36.987  1.00  0.00    -0.237 OA
ATOM     99  O   UNL A   1      50.768  24.509  35.318  1.00  0.00    -0.237 OA
ATOM    100  O   UNL A   1      51.788  26.707  34.871  1.00  0.00    -0.744 OA
ENDBRANCH  96  97
ENDBRANCH  64  89
ENDBRANCH  38  39
ENDBRANCH  30  33
ENDBRANCH  28  29
ENDBRANCH  27  28
ENDBRANCH   1  27
TORSDOF 18
ENDMDL
