MODEL 1
REMARK VINA RESULT:     -11.9      0.000      0.000
REMARK SMILES CCc1ccnc(C(=O)c2[nH]c3ccc(OC(F)(F)F)cc3c2CC(=O)NCCCCCCNC(=O)c2ccc(-c3c4nc(c(-c5c(F)cc(S(=O)(=O)[O-])cc5F)c5ccc([nH]5)c(-c5c(F)cc(S(=O)(=O)[O-])cc5F)c5nc(c(-c6c(F)cc(S(=O)(=O)[O-])cc6F)c6ccc3[nH]6)C=C5)C=C4)cc2)c1
REMARK SMILES IDX 30 1 29 2 28 3 27 4 25 5 26 6 24 8 23 9 10 10 11 11 12 12
REMARK SMILES IDX 22 14 13 15 21 16 14 17 15 18 8 19 9 20 7 21 3 22 4 23
REMARK SMILES IDX 103 24 5 25 6 26 2 27 1 28 16 29 17 30 18 31 19 32 20 33
REMARK SMILES IDX 31 34 32 35 33 36 34 37 35 38 36 40 37 41 38 42 102 43 39 44
REMARK SMILES IDX 101 45 40 46 41 47 42 48 95 49 43 50 100 51 94 52 96 53
REMARK SMILES IDX 44 54 99 55 93 56 92 57 45 59 79 60 58 61 78 62 59 63 62 64
REMARK SMILES IDX 77 65 97 66 60 67 61 68 76 70 98 71 63 72 46 73 47 74 56 75
REMARK SMILES IDX 48 76 49 77 55 78 57 79 50 80 51 81 52 82 53 83 54 84 80 85
REMARK SMILES IDX 81 86 90 87 82 88 83 89 89 90 91 91 84 92 85 93 86 94 87 95
REMARK SMILES IDX 88 96 64 97 65 98 74 99 66 100 67 101 73 102 75 103 68 104
REMARK SMILES IDX 69 105 70 106 71 107 72 108
REMARK H PARENT 27 7 11 13 34 39 96 58 62 69
REMARK Flexibility Score: inf
ROOT
ATOM      1  C   UNL A   1      32.009  27.954  27.624  1.00  0.00     0.002 C 
ENDROOT
BRANCH   1   2
ATOM      2  C   UNL A   1      32.065  26.701  26.740  1.00  0.00     0.021 C 
BRANCH   2   3
ATOM      3  C   UNL A   1      30.706  26.066  26.442  1.00  0.00     0.116 C 
BRANCH   3   4
ATOM      4  N   UNL A   1      30.769  24.618  26.399  1.00  0.00    -0.356 N 
ATOM      5  C   UNL A   1      30.687  23.777  25.328  1.00  0.00     0.224 C 
ATOM      6  O   UNL A   1      30.883  22.573  25.518  1.00  0.00    -0.275 OA
ATOM      7  H   UNL A   1      30.891  24.178  27.271  1.00  0.00     0.163 HD
BRANCH   5   8
ATOM      8  C   UNL A   1      30.494  24.318  23.919  1.00  0.00     0.138 C 
BRANCH   8   9
ATOM      9  C   UNL A   1      31.685  25.012  23.324  1.00  0.00    -0.002 A 
ATOM     10  C   UNL A   1      32.846  24.431  22.823  1.00  0.00     0.093 A 
ATOM     11  N   UNL A   1      33.619  25.443  22.300  1.00  0.00    -0.352 N 
ATOM     12  C   UNL A   1      33.072  26.669  22.586  1.00  0.00     0.046 A 
ATOM     13  H   UNL A   1      34.450  25.307  21.790  1.00  0.00     0.167 HD
ATOM     14  C   UNL A   1      31.865  26.435  23.237  1.00  0.00     0.008 A 
ATOM     15  C   UNL A   1      33.543  27.955  22.307  1.00  0.00     0.030 A 
ATOM     16  C   UNL A   1      31.101  27.550  23.641  1.00  0.00     0.057 A 
ATOM     17  C   UNL A   1      32.761  29.044  22.717  1.00  0.00     0.049 A 
ATOM     18  C   UNL A   1      31.551  28.853  23.379  1.00  0.00     0.130 A 
BRANCH  10  19
ATOM     19  C   UNL A   1      33.221  23.030  22.749  1.00  0.00     0.227 C 
ATOM     20  O   UNL A   1      32.829  22.316  21.833  1.00  0.00    -0.285 OA
BRANCH  19  21
ATOM     21  C   UNL A   1      34.143  22.480  23.816  1.00  0.00     0.113 A 
ATOM     22  C   UNL A   1      36.237  22.413  25.011  1.00  0.00    -0.044 A 
ATOM     23  C   UNL A   1      35.733  21.343  25.750  1.00  0.00     0.024 A 
ATOM     24  C   UNL A   1      35.420  22.999  24.036  1.00  0.00     0.036 A 
ATOM     25  C   UNL A   1      34.448  20.900  25.481  1.00  0.00     0.112 A 
ATOM     26  N   UNL A   1      33.655  21.433  24.532  1.00  0.00    -0.253 NA
BRANCH  22  27
ATOM     27  C   UNL A   1      37.649  22.898  25.226  1.00  0.00     0.032 C 
ATOM     28  C   UNL A   1      37.702  24.034  26.238  1.00  0.00     0.009 C 
ENDBRANCH  22  27
ENDBRANCH  19  21
ENDBRANCH  10  19
BRANCH  18  29
ATOM     29  O   UNL A   1      30.705  29.830  23.825  1.00  0.00    -0.406 OA
BRANCH  29  30
ATOM     30  C   UNL A   1      29.601  30.179  23.006  1.00  0.00     0.573 C 
ATOM     31  F   UNL A   1      29.231  31.460  23.220  1.00  0.00    -0.132 F 
ATOM     32  F   UNL A   1      29.890  30.001  21.702  1.00  0.00    -0.132 F 
ATOM     33  F   UNL A   1      28.559  29.382  23.327  1.00  0.00    -0.132 F 
ENDBRANCH  29  30
ENDBRANCH  18  29
ENDBRANCH   8   9
ENDBRANCH   5   8
ENDBRANCH   3   4
ENDBRANCH   2   3
ENDBRANCH   1   2
BRANCH   1  34
ATOM     34  C   UNL A   1      32.505  29.252  26.977  1.00  0.00     0.002 C 
BRANCH  34  35
ATOM     35  C   UNL A   1      33.965  29.257  26.513  1.00  0.00     0.021 C 
BRANCH  35  36
ATOM     36  C   UNL A   1      35.004  28.961  27.595  1.00  0.00     0.116 C 
BRANCH  36  37
ATOM     37  N   UNL A   1      35.015  29.967  28.643  1.00  0.00    -0.352 N 
ATOM     38  C   UNL A   1      36.051  30.397  29.436  1.00  0.00     0.251 C 
ATOM     39  H   UNL A   1      34.151  30.409  28.809  1.00  0.00     0.163 HD
ATOM     40  O   UNL A   1      35.822  31.152  30.376  1.00  0.00    -0.269 OA
BRANCH  38  41
ATOM     41  C   UNL A   1      37.439  29.942  29.183  1.00  0.00     0.039 A 
ATOM     42  C   UNL A   1      37.886  29.863  27.859  1.00  0.00     0.014 A 
ATOM     43  C   UNL A   1      38.282  29.548  30.227  1.00  0.00     0.014 A 
ATOM     44  C   UNL A   1      39.191  29.443  27.583  1.00  0.00     0.010 A 
ATOM     45  C   UNL A   1      39.596  29.161  29.953  1.00  0.00     0.010 A 
ATOM     46  C   UNL A   1      40.062  29.109  28.631  1.00  0.00    -0.014 A 
BRANCH  46  47
ATOM     47  C   UNL A   1      41.466  28.709  28.360  1.00  0.00     0.031 A 
ATOM     48  C   UNL A   1      42.563  29.735  28.360  1.00  0.00     0.074 A 
ATOM     49  C   UNL A   1      41.746  27.427  28.054  1.00  0.00     0.049 A 
ATOM     50  N   UNL A   1      43.827  29.591  28.060  1.00  0.00    -0.248 NA
ATOM     51  C   UNL A   1      42.183  31.107  28.732  1.00  0.00     0.031 C 
ATOM     52  C   UNL A   1      40.768  26.340  27.988  1.00  0.00     0.029 A 
ATOM     53  N   UNL A   1      42.935  26.827  27.729  1.00  0.00    -0.354 N 
ATOM     54  C   UNL A   1      44.392  30.854  28.177  1.00  0.00     0.074 A 
ATOM     55  C   UNL A   1      43.328  31.756  28.567  1.00  0.00     0.031 C 
ATOM     56  C   UNL A   1      41.398  25.204  27.649  1.00  0.00     0.029 A 
ATOM     57  C   UNL A   1      42.817  25.486  27.452  1.00  0.00     0.049 A 
ATOM     58  H   UNL A   1      43.792  27.310  27.696  1.00  0.00     0.167 HD
ATOM     59  C   UNL A   1      45.679  31.229  27.983  1.00  0.00     0.037 A 
ATOM     60  C   UNL A   1      43.746  24.587  27.076  1.00  0.00     0.037 A 
ATOM     61  C   UNL A   1      46.748  30.333  27.629  1.00  0.00     0.049 A 
ATOM     62  C   UNL A   1      45.175  25.016  26.908  1.00  0.00     0.074 A 
ATOM     63  C   UNL A   1      48.093  30.617  27.457  1.00  0.00     0.029 A 
ATOM     64  N   UNL A   1      46.595  28.974  27.402  1.00  0.00    -0.354 N 
ATOM     65  N   UNL A   1      45.694  26.211  27.049  1.00  0.00    -0.248 NA
ATOM     66  C   UNL A   1      46.143  23.975  26.535  1.00  0.00     0.031 C 
ATOM     67  C   UNL A   1      48.750  29.429  27.113  1.00  0.00     0.029 A 
ATOM     68  C   UNL A   1      47.818  28.405  27.087  1.00  0.00     0.049 A 
ATOM     69  H   UNL A   1      45.742  28.485  27.457  1.00  0.00     0.167 HD
ATOM     70  C   UNL A   1      47.051  26.066  26.790  1.00  0.00     0.074 A 
ATOM     71  C   UNL A   1      47.275  24.665  26.493  1.00  0.00     0.031 C 
ATOM     72  C   UNL A   1      48.024  27.010  26.796  1.00  0.00     0.037 A 
BRANCH  59  73
ATOM     73  C   UNL A   1      45.995  32.686  28.145  1.00  0.00     0.058 A 
ATOM     74  C   UNL A   1      45.869  33.585  27.075  1.00  0.00     0.135 A 
ATOM     75  C   UNL A   1      46.431  33.188  29.381  1.00  0.00     0.135 A 
ATOM     76  F   UNL A   1      45.470  33.148  25.870  1.00  0.00    -0.206 F 
ATOM     77  C   UNL A   1      46.192  34.930  27.217  1.00  0.00     0.059 A 
ATOM     78  C   UNL A   1      46.746  34.533  29.549  1.00  0.00     0.059 A 
ATOM     79  F   UNL A   1      46.572  32.366  30.433  1.00  0.00    -0.206 F 
ATOM     80  C   UNL A   1      46.642  35.392  28.456  1.00  0.00     0.060 A 
BRANCH  80  81
ATOM     81  S   UNL A   1      47.088  37.133  28.636  1.00  0.00     0.124 S 
ATOM     82  O   UNL A   1      48.544  37.066  28.560  1.00  0.00    -0.237 OA
ATOM     83  O   UNL A   1      46.424  37.755  27.495  1.00  0.00    -0.237 OA
ATOM     84  O   UNL A   1      46.539  37.484  29.942  1.00  0.00    -0.744 OA
ENDBRANCH  80  81
ENDBRANCH  59  73
BRANCH  60  85
ATOM     85  C   UNL A   1      43.347  23.177  26.847  1.00  0.00     0.058 A 
ATOM     86  C   UNL A   1      43.289  22.653  25.548  1.00  0.00     0.135 A 
ATOM     87  C   UNL A   1      43.051  22.323  27.919  1.00  0.00     0.135 A 
ATOM     88  F   UNL A   1      43.561  23.439  24.496  1.00  0.00    -0.206 F 
ATOM     89  C   UNL A   1      42.951  21.325  25.317  1.00  0.00     0.059 A 
ATOM     90  C   UNL A   1      42.721  20.988  27.713  1.00  0.00     0.059 A 
ATOM     91  F   UNL A   1      43.107  22.782  29.178  1.00  0.00    -0.206 F 
ATOM     92  C   UNL A   1      42.669  20.499  26.407  1.00  0.00     0.060 A 
BRANCH  92  93
ATOM     93  S   UNL A   1      42.303  18.755  26.116  1.00  0.00     0.124 S 
ATOM     94  O   UNL A   1      42.606  18.171  27.417  1.00  0.00    -0.237 OA
ATOM     95  O   UNL A   1      40.890  18.787  25.745  1.00  0.00    -0.237 OA
ATOM     96  O   UNL A   1      43.216  18.404  25.032  1.00  0.00    -0.744 OA
ENDBRANCH  92  93
ENDBRANCH  60  85
BRANCH  72  97
ATOM     97  C   UNL A   1      49.418  26.555  26.487  1.00  0.00     0.058 A 
ATOM     98  C   UNL A   1      49.948  26.666  25.192  1.00  0.00     0.135 A 
ATOM     99  C   UNL A   1      50.243  26.039  27.497  1.00  0.00     0.135 A 
ATOM    100  F   UNL A   1      49.192  27.148  24.193  1.00  0.00    -0.206 F 
ATOM    101  C   UNL A   1      51.249  26.267  24.906  1.00  0.00     0.059 A 
ATOM    102  C   UNL A   1      51.551  25.644  27.235  1.00  0.00     0.059 A 
ATOM    103  F   UNL A   1      49.780  25.918  28.751  1.00  0.00    -0.206 F 
ATOM    104  C   UNL A   1      52.042  25.753  25.933  1.00  0.00     0.060 A 
BRANCH 104 105
ATOM    105  S   UNL A   1      53.743  25.266  25.570  1.00  0.00     0.124 S 
ATOM    106  O   UNL A   1      54.242  26.447  24.873  1.00  0.00    -0.237 OA
ATOM    107  O   UNL A   1      54.301  25.032  26.899  1.00  0.00    -0.237 OA
ATOM    108  O   UNL A   1      53.580  24.070  24.750  1.00  0.00    -0.744 OA
ENDBRANCH 104 105
ENDBRANCH  72  97
ENDBRANCH  46  47
ENDBRANCH  38  41
ENDBRANCH  36  37
ENDBRANCH  35  36
ENDBRANCH  34  35
ENDBRANCH   1  34
TORSDOF 22
ENDMDL
MODEL 2
REMARK VINA RESULT:     -11.9      2.295      4.229
REMARK SMILES CCc1ccnc(C(=O)c2[nH]c3ccc(OC(F)(F)F)cc3c2CC(=O)NCCCCCCNC(=O)c2ccc(-c3c4nc(c(-c5c(F)cc(S(=O)(=O)[O-])cc5F)c5ccc([nH]5)c(-c5c(F)cc(S(=O)(=O)[O-])cc5F)c5nc(c(-c6c(F)cc(S(=O)(=O)[O-])cc6F)c6ccc3[nH]6)C=C5)C=C4)cc2)c1
REMARK SMILES IDX 30 1 29 2 28 3 27 4 25 5 26 6 24 8 23 9 10 10 11 11 12 12
REMARK SMILES IDX 22 14 13 15 21 16 14 17 15 18 8 19 9 20 7 21 3 22 4 23
REMARK SMILES IDX 103 24 5 25 6 26 2 27 1 28 16 29 17 30 18 31 19 32 20 33
REMARK SMILES IDX 31 34 32 35 33 36 34 37 35 38 36 40 37 41 38 42 102 43 39 44
REMARK SMILES IDX 101 45 40 46 41 47 42 48 95 49 43 50 100 51 94 52 96 53
REMARK SMILES IDX 44 54 99 55 93 56 92 57 45 59 79 60 58 61 78 62 59 63 62 64
REMARK SMILES IDX 77 65 97 66 60 67 61 68 76 70 98 71 63 72 46 73 47 74 56 75
REMARK SMILES IDX 48 76 49 77 55 78 57 79 50 80 51 81 52 82 53 83 54 84 80 85
REMARK SMILES IDX 81 86 90 87 82 88 83 89 89 90 91 91 84 92 85 93 86 94 87 95
REMARK SMILES IDX 88 96 64 97 65 98 74 99 66 100 67 101 73 102 75 103 68 104
REMARK SMILES IDX 69 105 70 106 71 107 72 108
REMARK H PARENT 27 7 11 13 34 39 96 58 62 69
REMARK Flexibility Score: inf
ROOT
ATOM      1  C   UNL A   1      32.428  28.114  27.117  1.00  0.00     0.002 C 
ENDROOT
BRANCH   1   2
ATOM      2  C   UNL A   1      32.284  26.720  26.493  1.00  0.00     0.021 C 
BRANCH   2   3
ATOM      3  C   UNL A   1      30.858  26.339  26.095  1.00  0.00     0.116 C 
BRANCH   3   4
ATOM      4  N   UNL A   1      30.571  24.939  26.339  1.00  0.00    -0.356 N 
ATOM      5  C   UNL A   1      30.433  23.913  25.450  1.00  0.00     0.224 C 
ATOM      6  O   UNL A   1      30.300  22.770  25.898  1.00  0.00    -0.275 OA
ATOM      7  H   UNL A   1      30.460  24.693  27.286  1.00  0.00     0.163 HD
BRANCH   5   8
ATOM      8  C   UNL A   1      30.572  24.149  23.954  1.00  0.00     0.138 C 
BRANCH   8   9
ATOM      9  C   UNL A   1      31.981  24.284  23.449  1.00  0.00    -0.002 A 
ATOM     10  C   UNL A   1      32.470  25.206  22.529  1.00  0.00     0.093 A 
ATOM     11  N   UNL A   1      33.830  25.015  22.439  1.00  0.00    -0.352 N 
ATOM     12  C   UNL A   1      34.211  23.902  23.147  1.00  0.00     0.046 A 
ATOM     13  H   UNL A   1      34.446  25.596  21.936  1.00  0.00     0.167 HD
ATOM     14  C   UNL A   1      33.075  23.414  23.783  1.00  0.00     0.008 A 
ATOM     15  C   UNL A   1      35.469  23.306  23.282  1.00  0.00     0.030 A 
ATOM     16  C   UNL A   1      33.206  22.260  24.584  1.00  0.00     0.057 A 
ATOM     17  C   UNL A   1      35.569  22.163  24.087  1.00  0.00     0.049 A 
ATOM     18  C   UNL A   1      34.453  21.638  24.735  1.00  0.00     0.130 A 
BRANCH  10  19
ATOM     19  C   UNL A   1      31.769  26.257  21.812  1.00  0.00     0.227 C 
ATOM     20  O   UNL A   1      31.519  26.152  20.616  1.00  0.00    -0.285 OA
BRANCH  19  21
ATOM     21  C   UNL A   1      31.318  27.476  22.590  1.00  0.00     0.113 A 
ATOM     22  C   UNL A   1      29.650  29.063  23.305  1.00  0.00    -0.044 A 
ATOM     23  C   UNL A   1      30.654  29.740  24.000  1.00  0.00     0.024 A 
ATOM     24  C   UNL A   1      29.990  27.903  22.599  1.00  0.00     0.036 A 
ATOM     25  C   UNL A   1      31.944  29.239  23.954  1.00  0.00     0.112 A 
ATOM     26  N   UNL A   1      32.297  28.138  23.261  1.00  0.00    -0.253 NA
BRANCH  22  27
ATOM     27  C   UNL A   1      28.241  29.598  23.277  1.00  0.00     0.032 C 
ATOM     28  C   UNL A   1      28.200  31.083  23.610  1.00  0.00     0.009 C 
ENDBRANCH  22  27
ENDBRANCH  19  21
ENDBRANCH  10  19
BRANCH  18  29
ATOM     29  O   UNL A   1      34.426  20.534  25.541  1.00  0.00    -0.406 OA
BRANCH  29  30
ATOM     30  C   UNL A   1      33.871  19.339  25.015  1.00  0.00     0.573 C 
ATOM     31  F   UNL A   1      33.430  19.531  23.753  1.00  0.00    -0.132 F 
ATOM     32  F   UNL A   1      34.773  18.337  25.034  1.00  0.00    -0.132 F 
ATOM     33  F   UNL A   1      32.817  18.982  25.779  1.00  0.00    -0.132 F 
ENDBRANCH  29  30
ENDBRANCH  18  29
ENDBRANCH   8   9
ENDBRANCH   5   8
ENDBRANCH   3   4
ENDBRANCH   2   3
ENDBRANCH   1   2
BRANCH   1  34
ATOM     34  C   UNL A   1      33.863  28.620  27.303  1.00  0.00     0.002 C 
BRANCH  34  35
ATOM     35  C   UNL A   1      34.047  30.141  27.289  1.00  0.00     0.021 C 
BRANCH  35  36
ATOM     36  C   UNL A   1      35.366  30.653  27.867  1.00  0.00     0.116 C 
BRANCH  36  37
ATOM     37  N   UNL A   1      35.304  30.846  29.306  1.00  0.00    -0.352 N 
ATOM     38  C   UNL A   1      36.258  30.609  30.265  1.00  0.00     0.251 C 
ATOM     39  H   UNL A   1      34.449  31.200  29.644  1.00  0.00     0.163 HD
ATOM     40  O   UNL A   1      35.957  30.691  31.452  1.00  0.00    -0.269 OA
BRANCH  38  41
ATOM     41  C   UNL A   1      37.641  30.237  29.884  1.00  0.00     0.039 A 
ATOM     42  C   UNL A   1      38.535  29.861  30.893  1.00  0.00     0.014 A 
ATOM     43  C   UNL A   1      38.077  30.302  28.556  1.00  0.00     0.014 A 
ATOM     44  C   UNL A   1      39.846  29.499  30.567  1.00  0.00     0.010 A 
ATOM     45  C   UNL A   1      39.376  29.908  28.228  1.00  0.00     0.010 A 
ATOM     46  C   UNL A   1      40.270  29.500  29.230  1.00  0.00    -0.014 A 
BRANCH  46  47
ATOM     47  C   UNL A   1      41.642  29.071  28.862  1.00  0.00     0.031 A 
ATOM     48  C   UNL A   1      42.770  30.064  28.843  1.00  0.00     0.074 A 
ATOM     49  C   UNL A   1      41.864  27.797  28.486  1.00  0.00     0.049 A 
ATOM     50  N   UNL A   1      44.010  29.896  28.464  1.00  0.00    -0.248 NA
ATOM     51  C   UNL A   1      42.456  31.428  29.294  1.00  0.00     0.031 C 
ATOM     52  C   UNL A   1      40.849  26.744  28.430  1.00  0.00     0.029 A 
ATOM     53  N   UNL A   1      43.013  27.177  28.067  1.00  0.00    -0.354 N 
ATOM     54  C   UNL A   1      44.621  31.135  28.603  1.00  0.00     0.074 A 
ATOM     55  C   UNL A   1      43.610  32.050  29.092  1.00  0.00     0.031 C 
ATOM     56  C   UNL A   1      41.422  25.605  28.007  1.00  0.00     0.029 A 
ATOM     57  C   UNL A   1      42.837  25.854  27.740  1.00  0.00     0.049 A 
ATOM     58  H   UNL A   1      43.881  27.636  28.005  1.00  0.00     0.167 HD
ATOM     59  C   UNL A   1      45.907  31.480  28.351  1.00  0.00     0.037 A 
ATOM     60  C   UNL A   1      43.713  24.945  27.273  1.00  0.00     0.037 A 
ATOM     61  C   UNL A   1      46.925  30.569  27.898  1.00  0.00     0.049 A 
ATOM     62  C   UNL A   1      45.143  25.340  27.042  1.00  0.00     0.074 A 
ATOM     63  C   UNL A   1      48.266  30.821  27.660  1.00  0.00     0.029 A 
ATOM     64  N   UNL A   1      46.715  29.227  27.622  1.00  0.00    -0.354 N 
ATOM     65  N   UNL A   1      45.708  26.511  27.203  1.00  0.00    -0.248 NA
ATOM     66  C   UNL A   1      46.055  24.288  26.569  1.00  0.00     0.031 C 
ATOM     67  C   UNL A   1      48.864  29.631  27.229  1.00  0.00     0.029 A 
ATOM     68  C   UNL A   1      47.899  28.637  27.213  1.00  0.00     0.049 A 
ATOM     69  H   UNL A   1      45.851  28.762  27.705  1.00  0.00     0.167 HD
ATOM     70  C   UNL A   1      47.043  26.337  26.860  1.00  0.00     0.074 A 
ATOM     71  C   UNL A   1      47.205  24.945  26.491  1.00  0.00     0.031 C 
ATOM     72  C   UNL A   1      48.044  27.251  26.851  1.00  0.00     0.037 A 
BRANCH  59  73
ATOM     73  C   UNL A   1      46.278  32.919  28.557  1.00  0.00     0.058 A 
ATOM     74  C   UNL A   1      46.749  33.383  29.795  1.00  0.00     0.135 A 
ATOM     75  C   UNL A   1      46.160  33.842  27.507  1.00  0.00     0.135 A 
ATOM     76  F   UNL A   1      46.863  32.539  30.832  1.00  0.00    -0.206 F 
ATOM     77  C   UNL A   1      47.062  34.723  29.994  1.00  0.00     0.059 A 
ATOM     78  C   UNL A   1      46.482  35.185  27.680  1.00  0.00     0.059 A 
ATOM     79  F   UNL A   1      45.711  33.447  26.306  1.00  0.00    -0.206 F 
ATOM     80  C   UNL A   1      46.915  35.619  28.933  1.00  0.00     0.060 A 
BRANCH  80  81
ATOM     81  S   UNL A   1      47.296  37.364  29.197  1.00  0.00     0.124 S 
ATOM     82  O   UNL A   1      47.236  37.881  27.834  1.00  0.00    -0.237 OA
ATOM     83  O   UNL A   1      46.223  37.798  30.085  1.00  0.00    -0.237 OA
ATOM     84  O   UNL A   1      48.625  37.327  29.800  1.00  0.00    -0.744 OA
ENDBRANCH  80  81
ENDBRANCH  59  73
BRANCH  60  85
ATOM     85  C   UNL A   1      43.257  23.560  27.007  1.00  0.00     0.058 A 
ATOM     86  C   UNL A   1      43.057  23.113  25.694  1.00  0.00     0.135 A 
ATOM     87  C   UNL A   1      43.048  22.651  28.054  1.00  0.00     0.135 A 
ATOM     88  F   UNL A   1      43.242  23.953  24.665  1.00  0.00    -0.206 F 
ATOM     89  C   UNL A   1      42.663  21.808  25.424  1.00  0.00     0.059 A 
ATOM     90  C   UNL A   1      42.664  21.338  27.809  1.00  0.00     0.059 A 
ATOM     91  F   UNL A   1      43.240  23.035  29.325  1.00  0.00    -0.206 F 
ATOM     92  C   UNL A   1      42.470  20.926  26.489  1.00  0.00     0.060 A 
BRANCH  92  93
ATOM     93  S   UNL A   1      42.030  19.209  26.140  1.00  0.00     0.124 S 
ATOM     94  O   UNL A   1      42.452  18.544  27.367  1.00  0.00    -0.237 OA
ATOM     95  O   UNL A   1      40.588  19.290  25.921  1.00  0.00    -0.237 OA
ATOM     96  O   UNL A   1      42.818  18.906  24.949  1.00  0.00    -0.744 OA
ENDBRANCH  92  93
ENDBRANCH  60  85
BRANCH  72  97
ATOM     97  C   UNL A   1      49.403  26.769  26.442  1.00  0.00     0.058 A 
ATOM     98  C   UNL A   1      50.262  26.149  27.363  1.00  0.00     0.135 A 
ATOM     99  C   UNL A   1      49.837  26.896  25.115  1.00  0.00     0.135 A 
ATOM    100  F   UNL A   1      49.891  26.013  28.646  1.00  0.00    -0.206 F 
ATOM    101  C   UNL A   1      51.514  25.680  26.983  1.00  0.00     0.059 A 
ATOM    102  C   UNL A   1      51.082  26.423  24.710  1.00  0.00     0.059 A 
ATOM    103  F   UNL A   1      49.049  27.479  24.199  1.00  0.00    -0.206 F 
ATOM    104  C   UNL A   1      51.918  25.825  25.654  1.00  0.00     0.060 A 
BRANCH 104 105
ATOM    105  S   UNL A   1      53.531  25.186  25.150  1.00  0.00     0.124 S 
ATOM    106  O   UNL A   1      54.416  25.842  26.107  1.00  0.00    -0.237 OA
ATOM    107  O   UNL A   1      53.372  23.745  25.318  1.00  0.00    -0.237 OA
ATOM    108  O   UNL A   1      53.651  25.637  23.767  1.00  0.00    -0.744 OA
ENDBRANCH 104 105
ENDBRANCH  72  97
ENDBRANCH  46  47
ENDBRANCH  38  41
ENDBRANCH  36  37
ENDBRANCH  35  36
ENDBRANCH  34  35
ENDBRANCH   1  34
TORSDOF 22
ENDMDL
MODEL 3
REMARK VINA RESULT:     -11.7      6.110     10.218
REMARK SMILES CCc1ccnc(C(=O)c2[nH]c3ccc(OC(F)(F)F)cc3c2CC(=O)NCCCCCCNC(=O)c2ccc(-c3c4nc(c(-c5c(F)cc(S(=O)(=O)[O-])cc5F)c5ccc([nH]5)c(-c5c(F)cc(S(=O)(=O)[O-])cc5F)c5nc(c(-c6c(F)cc(S(=O)(=O)[O-])cc6F)c6ccc3[nH]6)C=C5)C=C4)cc2)c1
REMARK SMILES IDX 30 1 29 2 28 3 27 4 25 5 26 6 24 8 23 9 10 10 11 11 12 12
REMARK SMILES IDX 22 14 13 15 21 16 14 17 15 18 8 19 9 20 7 21 3 22 4 23
REMARK SMILES IDX 103 24 5 25 6 26 2 27 1 28 16 29 17 30 18 31 19 32 20 33
REMARK SMILES IDX 31 34 32 35 33 36 34 37 35 38 36 40 37 41 38 42 102 43 39 44
REMARK SMILES IDX 101 45 40 46 41 47 42 48 95 49 43 50 100 51 94 52 96 53
REMARK SMILES IDX 44 54 99 55 93 56 92 57 45 59 79 60 58 61 78 62 59 63 62 64
REMARK SMILES IDX 77 65 97 66 60 67 61 68 76 70 98 71 63 72 46 73 47 74 56 75
REMARK SMILES IDX 48 76 49 77 55 78 57 79 50 80 51 81 52 82 53 83 54 84 80 85
REMARK SMILES IDX 81 86 90 87 82 88 83 89 89 90 91 91 84 92 85 93 86 94 87 95
REMARK SMILES IDX 88 96 64 97 65 98 74 99 66 100 67 101 73 102 75 103 68 104
REMARK SMILES IDX 69 105 70 106 71 107 72 108
REMARK H PARENT 27 7 11 13 34 39 96 58 62 69
REMARK Flexibility Score: inf
ROOT
ATOM      1  C   UNL A   1      31.690  28.974  26.196  1.00  0.00     0.002 C 
ENDROOT
BRANCH   1   2
ATOM      2  C   UNL A   1      32.078  27.503  26.400  1.00  0.00     0.021 C 
BRANCH   2   3
ATOM      3  C   UNL A   1      33.302  27.047  25.606  1.00  0.00     0.116 C 
BRANCH   3   4
ATOM      4  N   UNL A   1      33.645  27.968  24.540  1.00  0.00    -0.356 N 
ATOM      5  C   UNL A   1      33.513  27.822  23.190  1.00  0.00     0.224 C 
ATOM      6  O   UNL A   1      33.769  28.794  22.473  1.00  0.00    -0.275 OA
ATOM      7  H   UNL A   1      34.028  28.826  24.835  1.00  0.00     0.163 HD
BRANCH   5   8
ATOM      8  C   UNL A   1      32.940  26.546  22.592  1.00  0.00     0.138 C 
BRANCH   8   9
ATOM      9  C   UNL A   1      31.571  26.163  23.076  1.00  0.00    -0.002 A 
ATOM     10  C   UNL A   1      31.139  24.911  23.504  1.00  0.00     0.093 A 
ATOM     11  N   UNL A   1      29.841  25.051  23.939  1.00  0.00    -0.352 N 
ATOM     12  C   UNL A   1      29.369  26.309  23.662  1.00  0.00     0.046 A 
ATOM     13  H   UNL A   1      29.321  24.345  24.388  1.00  0.00     0.167 HD
ATOM     14  C   UNL A   1      30.424  27.028  23.111  1.00  0.00     0.008 A 
ATOM     15  C   UNL A   1      28.103  26.865  23.870  1.00  0.00     0.030 A 
ATOM     16  C   UNL A   1      30.191  28.369  22.737  1.00  0.00     0.057 A 
ATOM     17  C   UNL A   1      27.902  28.199  23.492  1.00  0.00     0.049 A 
ATOM     18  C   UNL A   1      28.930  28.951  22.929  1.00  0.00     0.130 A 
BRANCH  10  19
ATOM     19  C   UNL A   1      31.872  23.660  23.586  1.00  0.00     0.227 C 
ATOM     20  O   UNL A   1      31.723  22.781  22.744  1.00  0.00    -0.285 OA
BRANCH  19  21
ATOM     21  C   UNL A   1      32.858  23.480  24.721  1.00  0.00     0.113 A 
ATOM     22  C   UNL A   1      35.076  23.112  25.593  1.00  0.00    -0.044 A 
ATOM     23  C   UNL A   1      34.524  23.108  26.875  1.00  0.00     0.024 A 
ATOM     24  C   UNL A   1      34.226  23.316  24.499  1.00  0.00     0.036 A 
ATOM     25  C   UNL A   1      33.159  23.297  27.009  1.00  0.00     0.112 A 
ATOM     26  N   UNL A   1      32.320  23.470  25.969  1.00  0.00    -0.253 NA
BRANCH  22  27
ATOM     27  C   UNL A   1      36.547  22.856  25.389  1.00  0.00     0.032 C 
ATOM     28  C   UNL A   1      37.400  23.889  26.112  1.00  0.00     0.009 C 
ENDBRANCH  22  27
ENDBRANCH  19  21
ENDBRANCH  10  19
BRANCH  18  29
ATOM     29  O   UNL A   1      28.856  30.255  22.521  1.00  0.00    -0.406 OA
BRANCH  29  30
ATOM     30  C   UNL A   1      28.671  31.251  23.513  1.00  0.00     0.573 C 
ATOM     31  F   UNL A   1      28.833  32.485  22.989  1.00  0.00    -0.132 F 
ATOM     32  F   UNL A   1      27.450  31.154  24.077  1.00  0.00    -0.132 F 
ATOM     33  F   UNL A   1      29.603  31.078  24.475  1.00  0.00    -0.132 F 
ENDBRANCH  29  30
ENDBRANCH  18  29
ENDBRANCH   8   9
ENDBRANCH   5   8
ENDBRANCH   3   4
ENDBRANCH   2   3
ENDBRANCH   1   2
BRANCH   1  34
ATOM     34  C   UNL A   1      32.339  29.976  27.157  1.00  0.00     0.002 C 
BRANCH  34  35
ATOM     35  C   UNL A   1      32.025  31.454  26.900  1.00  0.00     0.021 C 
BRANCH  35  36
ATOM     36  C   UNL A   1      33.213  32.410  27.005  1.00  0.00     0.116 C 
BRANCH  36  37
ATOM     37  N   UNL A   1      32.845  33.690  27.585  1.00  0.00    -0.352 N 
ATOM     38  C   UNL A   1      33.327  34.316  28.709  1.00  0.00     0.251 C 
ATOM     39  H   UNL A   1      32.145  34.185  27.100  1.00  0.00     0.163 HD
ATOM     40  O   UNL A   1      32.774  35.331  29.122  1.00  0.00    -0.269 OA
BRANCH  38  41
ATOM     41  C   UNL A   1      34.496  33.769  29.439  1.00  0.00     0.039 A 
ATOM     42  C   UNL A   1      35.773  34.232  29.100  1.00  0.00     0.014 A 
ATOM     43  C   UNL A   1      34.351  32.775  30.412  1.00  0.00     0.014 A 
ATOM     44  C   UNL A   1      36.897  33.741  29.772  1.00  0.00     0.010 A 
ATOM     45  C   UNL A   1      35.470  32.311  31.106  1.00  0.00     0.010 A 
ATOM     46  C   UNL A   1      36.751  32.792  30.794  1.00  0.00    -0.014 A 
BRANCH  46  47
ATOM     47  C   UNL A   1      37.928  32.296  31.551  1.00  0.00     0.031 A 
ATOM     48  C   UNL A   1      38.773  31.183  31.001  1.00  0.00     0.074 A 
ATOM     49  C   UNL A   1      38.203  32.810  32.766  1.00  0.00     0.049 A 
ATOM     50  N   UNL A   1      39.781  30.561  31.555  1.00  0.00    -0.248 NA
ATOM     51  C   UNL A   1      38.428  30.695  29.657  1.00  0.00     0.031 C 
ATOM     52  C   UNL A   1      37.442  33.871  33.427  1.00  0.00     0.029 A 
ATOM     53  N   UNL A   1      39.190  32.497  33.665  1.00  0.00    -0.354 N 
ATOM     54  C   UNL A   1      40.176  29.590  30.645  1.00  0.00     0.074 A 
ATOM     55  C   UNL A   1      39.290  29.699  29.504  1.00  0.00     0.031 C 
ATOM     56  C   UNL A   1      37.994  34.125  34.625  1.00  0.00     0.029 A 
ATOM     57  C   UNL A   1      39.132  33.231  34.824  1.00  0.00     0.049 A 
ATOM     58  H   UNL A   1      39.875  31.811  33.495  1.00  0.00     0.167 HD
ATOM     59  C   UNL A   1      41.186  28.693  30.746  1.00  0.00     0.037 A 
ATOM     60  C   UNL A   1      39.903  33.185  35.927  1.00  0.00     0.037 A 
ATOM     61  C   UNL A   1      42.091  28.602  31.861  1.00  0.00     0.049 A 
ATOM     62  C   UNL A   1      41.044  32.212  35.999  1.00  0.00     0.074 A 
ATOM     63  C   UNL A   1      43.173  27.754  32.029  1.00  0.00     0.029 A 
ATOM     64  N   UNL A   1      42.025  29.395  32.996  1.00  0.00    -0.354 N 
ATOM     65  N   UNL A   1      41.417  31.318  35.117  1.00  0.00    -0.248 NA
ATOM     66  C   UNL A   1      41.869  32.244  37.215  1.00  0.00     0.031 C 
ATOM     67  C   UNL A   1      43.754  28.027  33.273  1.00  0.00     0.029 A 
ATOM     68  C   UNL A   1      43.043  29.054  33.872  1.00  0.00     0.049 A 
ATOM     69  H   UNL A   1      41.354  30.096  33.157  1.00  0.00     0.167 HD
ATOM     70  C   UNL A   1      42.525  30.686  35.665  1.00  0.00     0.074 A 
ATOM     71  C   UNL A   1      42.769  31.305  36.952  1.00  0.00     0.031 C 
ATOM     72  C   UNL A   1      43.273  29.681  35.147  1.00  0.00     0.037 A 
BRANCH  59  73
ATOM     73  C   UNL A   1      41.355  27.728  29.610  1.00  0.00     0.058 A 
ATOM     74  C   UNL A   1      40.415  26.715  29.364  1.00  0.00     0.135 A 
ATOM     75  C   UNL A   1      42.469  27.815  28.761  1.00  0.00     0.135 A 
ATOM     76  F   UNL A   1      39.342  26.584  30.160  1.00  0.00    -0.206 F 
ATOM     77  C   UNL A   1      40.588  25.801  28.331  1.00  0.00     0.059 A 
ATOM     78  C   UNL A   1      42.654  26.920  27.712  1.00  0.00     0.059 A 
ATOM     79  F   UNL A   1      43.397  28.764  28.958  1.00  0.00    -0.206 F 
ATOM     80  C   UNL A   1      41.718  25.905  27.517  1.00  0.00     0.060 A 
BRANCH  80  81
ATOM     81  S   UNL A   1      41.959  24.703  26.191  1.00  0.00     0.124 S 
ATOM     82  O   UNL A   1      43.377  24.392  26.339  1.00  0.00    -0.237 OA
ATOM     83  O   UNL A   1      41.036  23.632  26.555  1.00  0.00    -0.237 OA
ATOM     84  O   UNL A   1      41.599  25.453  24.992  1.00  0.00    -0.744 OA
ENDBRANCH  80  81
ENDBRANCH  59  73
BRANCH  60  85
ATOM     85  C   UNL A   1      39.625  34.111  37.052  1.00  0.00     0.058 A 
ATOM     86  C   UNL A   1      38.883  33.684  38.162  1.00  0.00     0.135 A 
ATOM     87  C   UNL A   1      40.122  35.422  37.053  1.00  0.00     0.135 A 
ATOM     88  F   UNL A   1      38.387  32.438  38.197  1.00  0.00    -0.206 F 
ATOM     89  C   UNL A   1      38.642  34.526  39.241  1.00  0.00     0.059 A 
ATOM     90  C   UNL A   1      39.902  36.280  38.125  1.00  0.00     0.059 A 
ATOM     91  F   UNL A   1      40.846  35.866  36.015  1.00  0.00    -0.206 F 
ATOM     92  C   UNL A   1      39.157  35.823  39.214  1.00  0.00     0.060 A 
BRANCH  92  93
ATOM     93  S   UNL A   1      38.910  36.897  40.645  1.00  0.00     0.124 S 
ATOM     94  O   UNL A   1      38.169  38.005  40.055  1.00  0.00    -0.237 OA
ATOM     95  O   UNL A   1      38.158  36.039  41.557  1.00  0.00    -0.237 OA
ATOM     96  O   UNL A   1      40.275  37.198  41.069  1.00  0.00    -0.744 OA
ENDBRANCH  92  93
ENDBRANCH  60  85
BRANCH  72  97
ATOM     97  C   UNL A   1      44.431  29.200  35.968  1.00  0.00     0.058 A 
ATOM     98  C   UNL A   1      44.295  28.120  36.854  1.00  0.00     0.135 A 
ATOM     99  C   UNL A   1      45.694  29.798  35.842  1.00  0.00     0.135 A 
ATOM    100  F   UNL A   1      43.104  27.522  37.011  1.00  0.00    -0.206 F 
ATOM    101  C   UNL A   1      45.373  27.656  37.600  1.00  0.00     0.059 A 
ATOM    102  C   UNL A   1      46.789  29.342  36.571  1.00  0.00     0.059 A 
ATOM    103  F   UNL A   1      45.872  30.831  35.005  1.00  0.00    -0.206 F 
ATOM    104  C   UNL A   1      46.616  28.275  37.455  1.00  0.00     0.060 A 
BRANCH 104 105
ATOM    105  S   UNL A   1      48.025  27.652  38.397  1.00  0.00     0.124 S 
ATOM    106  O   UNL A   1      47.542  27.787  39.767  1.00  0.00    -0.237 OA
ATOM    107  O   UNL A   1      48.161  26.284  37.905  1.00  0.00    -0.237 OA
ATOM    108  O   UNL A   1      49.106  28.556  38.017  1.00  0.00    -0.744 OA
ENDBRANCH 104 105
ENDBRANCH  72  97
ENDBRANCH  46  47
ENDBRANCH  38  41
ENDBRANCH  36  37
ENDBRANCH  35  36
ENDBRANCH  34  35
ENDBRANCH   1  34
TORSDOF 22
ENDMDL
