MODEL 1
REMARK VINA RESULT:     -11.1      0.000      0.000
REMARK SMILES CN(C)S(=O)(=O)c1ccc(N(CC(=O)NCCCCCCNC(=O)c2ccc(-c3c4nc(c(-c5c(F)cc(S(=O)(=O)[O-])cc5F)c5ccc([nH]5)c(-c5c(F)cc(S(=O)(=O)[O-])cc5F)c5nc(c(-c6c(F)cc(S(=O)(=O)[O-])cc6F)c6ccc3[nH]6)C=C5)C=C4)cc2)C(C)(C)C)cc1
REMARK SMILES IDX 18 1 17 2 16 3 15 4 13 5 14 6 12 8 11 9 10 10 7 11 8 12
REMARK SMILES IDX 96 13 9 14 95 15 4 16 5 17 6 18 2 19 1 20 3 21 91 22 92 23
REMARK SMILES IDX 93 24 94 25 19 26 20 27 21 28 22 29 23 30 24 32 25 33 26 34
REMARK SMILES IDX 90 35 27 36 89 37 28 38 29 39 30 40 83 41 31 42 88 43 82 44
REMARK SMILES IDX 84 45 32 46 87 47 81 48 80 49 33 51 67 52 46 53 66 54 47 55
REMARK SMILES IDX 50 56 65 57 85 58 48 59 49 60 64 62 86 63 51 64 34 65 35 66
REMARK SMILES IDX 44 67 36 68 37 69 43 70 45 71 38 72 39 73 40 74 41 75 42 76
REMARK SMILES IDX 68 77 69 78 78 79 70 80 71 81 77 82 79 83 72 84 73 85 74 86
REMARK SMILES IDX 75 87 76 88 52 89 53 90 62 91 54 92 55 93 61 94 63 95 56 96
REMARK SMILES IDX 57 97 58 98 59 99 60 100
REMARK H PARENT 15 7 22 31 84 50 50 61
REMARK Flexibility Score: inf
ROOT
ATOM      1  C   UNL A   1      33.926  31.389  27.759  1.00  0.00     0.002 C 
ENDROOT
BRANCH   1   2
ATOM      2  C   UNL A   1      34.928  30.248  27.560  1.00  0.00     0.021 C 
BRANCH   2   3
ATOM      3  C   UNL A   1      34.298  28.985  26.988  1.00  0.00     0.116 C 
BRANCH   3   4
ATOM      4  N   UNL A   1      33.088  28.619  27.690  1.00  0.00    -0.355 N 
ATOM      5  C   UNL A   1      31.851  28.350  27.189  1.00  0.00     0.239 C 
ATOM      6  O   UNL A   1      30.990  27.956  27.985  1.00  0.00    -0.273 OA
ATOM      7  H   UNL A   1      33.170  28.555  28.669  1.00  0.00     0.163 HD
BRANCH   5   8
ATOM      8  C   UNL A   1      31.556  28.424  25.681  1.00  0.00     0.217 C 
BRANCH   8   9
ATOM      9  N   UNL A   1      31.519  27.114  24.955  1.00  0.00    -0.357 N 
BRANCH   9  10
ATOM     10  C   UNL A   1      32.281  26.034  25.458  1.00  0.00     0.038 A 
ATOM     11  C   UNL A   1      33.741  23.677  26.219  1.00  0.00     0.082 A 
ATOM     12  C   UNL A   1      34.347  24.649  25.443  1.00  0.00     0.024 A 
ATOM     13  C   UNL A   1      32.449  23.877  26.675  1.00  0.00     0.024 A 
ATOM     14  C   UNL A   1      33.635  25.814  25.108  1.00  0.00     0.027 A 
ATOM     15  C   UNL A   1      31.750  25.039  26.303  1.00  0.00     0.027 A 
BRANCH  11  16
ATOM     16  S   UNL A   1      34.575  22.150  26.561  1.00  0.00     0.242 S 
ATOM     17  O   UNL A   1      33.966  21.558  27.730  1.00  0.00    -0.207 OA
ATOM     18  O   UNL A   1      35.997  22.426  26.508  1.00  0.00    -0.207 OA
BRANCH  16  19
ATOM     19  N   UNL A   1      34.161  21.180  25.211  1.00  0.00    -0.204 NA
ATOM     20  C   UNL A   1      35.217  20.190  24.887  1.00  0.00     0.124 C 
ATOM     21  C   UNL A   1      32.830  20.539  25.294  1.00  0.00     0.124 C 
ENDBRANCH  16  19
ENDBRANCH  11  16
ENDBRANCH   9  10
BRANCH   9  22
ATOM     22  C   UNL A   1      30.553  26.986  23.788  1.00  0.00     0.032 C 
ATOM     23  C   UNL A   1      31.170  26.201  22.608  1.00  0.00     0.034 C 
ATOM     24  C   UNL A   1      29.210  26.388  24.264  1.00  0.00     0.034 C 
ATOM     25  C   UNL A   1      30.148  28.346  23.149  1.00  0.00     0.034 C 
ENDBRANCH   9  22
ENDBRANCH   8   9
ENDBRANCH   5   8
ENDBRANCH   3   4
ENDBRANCH   2   3
ENDBRANCH   1   2
BRANCH   1  26
ATOM     26  C   UNL A   1      34.551  32.688  28.279  1.00  0.00     0.002 C 
BRANCH  26  27
ATOM     27  C   UNL A   1      36.073  32.763  28.132  1.00  0.00     0.021 C 
BRANCH  27  28
ATOM     28  C   UNL A   1      36.817  32.948  29.449  1.00  0.00     0.116 C 
BRANCH  28  29
ATOM     29  N   UNL A   1      36.353  32.007  30.456  1.00  0.00    -0.352 N 
ATOM     30  C   UNL A   1      36.806  30.745  30.735  1.00  0.00     0.251 C 
ATOM     31  H   UNL A   1      35.607  32.322  31.015  1.00  0.00     0.163 HD
ATOM     32  O   UNL A   1      36.129  29.997  31.434  1.00  0.00    -0.269 OA
BRANCH  30  33
ATOM     33  C   UNL A   1      38.104  30.289  30.193  1.00  0.00     0.039 A 
ATOM     34  C   UNL A   1      39.174  30.110  31.073  1.00  0.00     0.014 A 
ATOM     35  C   UNL A   1      38.282  30.083  28.821  1.00  0.00     0.014 A 
ATOM     36  C   UNL A   1      40.415  29.710  30.576  1.00  0.00     0.010 A 
ATOM     37  C   UNL A   1      39.493  29.597  28.341  1.00  0.00     0.010 A 
ATOM     38  C   UNL A   1      40.583  29.440  29.207  1.00  0.00    -0.014 A 
BRANCH  38  39
ATOM     39  C   UNL A   1      41.912  29.049  28.671  1.00  0.00     0.031 A 
ATOM     40  C   UNL A   1      43.026  30.062  28.604  1.00  0.00     0.074 A 
ATOM     41  C   UNL A   1      42.114  27.787  28.245  1.00  0.00     0.049 A 
ATOM     42  N   UNL A   1      44.263  29.905  28.207  1.00  0.00    -0.248 NA
ATOM     43  C   UNL A   1      42.704  31.438  29.016  1.00  0.00     0.031 C 
ATOM     44  C   UNL A   1      41.099  26.732  28.215  1.00  0.00     0.029 A 
ATOM     45  N   UNL A   1      43.244  27.175  27.764  1.00  0.00    -0.354 N 
ATOM     46  C   UNL A   1      44.860  31.155  28.320  1.00  0.00     0.074 A 
ATOM     47  C   UNL A   1      43.833  32.076  28.751  1.00  0.00     0.031 C 
ATOM     48  C   UNL A   1      41.662  25.593  27.785  1.00  0.00     0.029 A 
ATOM     49  C   UNL A   1      43.067  25.843  27.475  1.00  0.00     0.049 A 
ATOM     50  H   UNL A   1      44.099  27.645  27.639  1.00  0.00     0.167 HD
ATOM     51  C   UNL A   1      46.154  31.501  28.115  1.00  0.00     0.037 A 
ATOM     52  C   UNL A   1      43.942  24.924  27.022  1.00  0.00     0.037 A 
ATOM     53  C   UNL A   1      47.173  30.574  27.694  1.00  0.00     0.049 A 
ATOM     54  C   UNL A   1      45.373  25.333  26.794  1.00  0.00     0.074 A 
ATOM     55  C   UNL A   1      48.521  30.810  27.486  1.00  0.00     0.029 A 
ATOM     56  N   UNL A   1      46.955  29.232  27.413  1.00  0.00    -0.354 N 
ATOM     57  N   UNL A   1      45.935  26.507  26.960  1.00  0.00    -0.248 NA
ATOM     58  C   UNL A   1      46.293  24.285  26.333  1.00  0.00     0.031 C 
ATOM     59  C   UNL A   1      49.107  29.624  27.032  1.00  0.00     0.029 A 
ATOM     60  C   UNL A   1      48.140  28.631  27.020  1.00  0.00     0.049 A 
ATOM     61  H   UNL A   1      46.087  28.774  27.483  1.00  0.00     0.167 HD
ATOM     62  C   UNL A   1      47.283  26.328  26.666  1.00  0.00     0.074 A 
ATOM     63  C   UNL A   1      47.450  24.931  26.321  1.00  0.00     0.031 C 
ATOM     64  C   UNL A   1      48.293  27.235  26.688  1.00  0.00     0.037 A 
BRANCH  51  65
ATOM     65  C   UNL A   1      46.536  32.939  28.349  1.00  0.00     0.058 A 
ATOM     66  C   UNL A   1      46.466  33.899  27.325  1.00  0.00     0.135 A 
ATOM     67  C   UNL A   1      46.963  33.371  29.615  1.00  0.00     0.135 A 
ATOM     68  F   UNL A   1      46.079  33.543  26.089  1.00  0.00    -0.206 F 
ATOM     69  C   UNL A   1      46.841  35.223  27.537  1.00  0.00     0.059 A 
ATOM     70  C   UNL A   1      47.311  34.697  29.860  1.00  0.00     0.059 A 
ATOM     71  F   UNL A   1      47.050  32.500  30.634  1.00  0.00    -0.206 F 
ATOM     72  C   UNL A   1      47.264  35.611  28.808  1.00  0.00     0.060 A 
BRANCH  72  73
ATOM     73  S   UNL A   1      47.752  37.331  29.065  1.00  0.00     0.124 S 
ATOM     74  O   UNL A   1      46.486  38.027  28.859  1.00  0.00    -0.237 OA
ATOM     75  O   UNL A   1      48.249  37.313  30.437  1.00  0.00    -0.237 OA
ATOM     76  O   UNL A   1      48.764  37.555  28.037  1.00  0.00    -0.744 OA
ENDBRANCH  72  73
ENDBRANCH  51  65
BRANCH  52  77
ATOM     77  C   UNL A   1      43.501  23.520  26.800  1.00  0.00     0.058 A 
ATOM     78  C   UNL A   1      43.340  23.009  25.503  1.00  0.00     0.135 A 
ATOM     79  C   UNL A   1      43.239  22.660  27.877  1.00  0.00     0.135 A 
ATOM     80  F   UNL A   1      43.574  23.793  24.439  1.00  0.00    -0.206 F 
ATOM     81  C   UNL A   1      42.912  21.704  25.281  1.00  0.00     0.059 A 
ATOM     82  C   UNL A   1      42.839  21.341  27.680  1.00  0.00     0.059 A 
ATOM     83  F   UNL A   1      43.395  23.093  29.138  1.00  0.00    -0.206 F 
ATOM     84  C   UNL A   1      42.666  20.877  26.378  1.00  0.00     0.060 A 
BRANCH  84  85
ATOM     85  S   UNL A   1      42.148  19.173  26.077  1.00  0.00     0.124 S 
ATOM     86  O   UNL A   1      42.928  18.833  24.892  1.00  0.00    -0.237 OA
ATOM     87  O   UNL A   1      42.545  18.509  27.315  1.00  0.00    -0.237 OA
ATOM     88  O   UNL A   1      40.707  19.291  25.871  1.00  0.00    -0.744 OA
ENDBRANCH  84  85
ENDBRANCH  52  77
BRANCH  64  89
ATOM     89  C   UNL A   1      49.680  26.731  26.390  1.00  0.00     0.058 A 
ATOM     90  C   UNL A   1      50.207  26.713  25.090  1.00  0.00     0.135 A 
ATOM     91  C   UNL A   1      50.501  26.271  27.435  1.00  0.00     0.135 A 
ATOM     92  F   UNL A   1      49.467  27.139  24.053  1.00  0.00    -0.206 F 
ATOM     93  C   UNL A   1      51.479  26.211  24.828  1.00  0.00     0.059 A 
ATOM     94  C   UNL A   1      51.788  25.800  27.200  1.00  0.00     0.059 A 
ATOM     95  F   UNL A   1      50.055  26.281  28.700  1.00  0.00    -0.206 F 
ATOM     96  C   UNL A   1      52.260  25.753  25.890  1.00  0.00     0.060 A 
BRANCH  96  97
ATOM     97  S   UNL A   1      53.904  25.099  25.538  1.00  0.00     0.124 S 
ATOM     98  O   UNL A   1      54.405  24.824  26.881  1.00  0.00    -0.237 OA
ATOM     99  O   UNL A   1      53.606  23.927  24.720  1.00  0.00    -0.237 OA
ATOM    100  O   UNL A   1      54.564  26.195  24.834  1.00  0.00    -0.744 OA
ENDBRANCH  96  97
ENDBRANCH  64  89
ENDBRANCH  38  39
ENDBRANCH  30  33
ENDBRANCH  28  29
ENDBRANCH  27  28
ENDBRANCH  26  27
ENDBRANCH   1  26
TORSDOF 21
ENDMDL
MODEL 2
REMARK VINA RESULT:     -10.8      1.852      3.556
REMARK SMILES CN(C)S(=O)(=O)c1ccc(N(CC(=O)NCCCCCCNC(=O)c2ccc(-c3c4nc(c(-c5c(F)cc(S(=O)(=O)[O-])cc5F)c5ccc([nH]5)c(-c5c(F)cc(S(=O)(=O)[O-])cc5F)c5nc(c(-c6c(F)cc(S(=O)(=O)[O-])cc6F)c6ccc3[nH]6)C=C5)C=C4)cc2)C(C)(C)C)cc1
REMARK SMILES IDX 18 1 17 2 16 3 15 4 13 5 14 6 12 8 11 9 10 10 7 11 8 12
REMARK SMILES IDX 96 13 9 14 95 15 4 16 5 17 6 18 2 19 1 20 3 21 91 22 92 23
REMARK SMILES IDX 93 24 94 25 19 26 20 27 21 28 22 29 23 30 24 32 25 33 26 34
REMARK SMILES IDX 90 35 27 36 89 37 28 38 29 39 30 40 83 41 31 42 88 43 82 44
REMARK SMILES IDX 84 45 32 46 87 47 81 48 80 49 33 51 67 52 46 53 66 54 47 55
REMARK SMILES IDX 50 56 65 57 85 58 48 59 49 60 64 62 86 63 51 64 34 65 35 66
REMARK SMILES IDX 44 67 36 68 37 69 43 70 45 71 38 72 39 73 40 74 41 75 42 76
REMARK SMILES IDX 68 77 69 78 78 79 70 80 71 81 77 82 79 83 72 84 73 85 74 86
REMARK SMILES IDX 75 87 76 88 52 89 53 90 62 91 54 92 55 93 61 94 63 95 56 96
REMARK SMILES IDX 57 97 58 98 59 99 60 100
REMARK H PARENT 15 7 22 31 84 50 50 61
REMARK Flexibility Score: inf
ROOT
ATOM      1  C   UNL A   1      34.693  32.359  27.797  1.00  0.00     0.002 C 
ENDROOT
BRANCH   1   2
ATOM      2  C   UNL A   1      33.491  31.501  27.389  1.00  0.00     0.021 C 
BRANCH   2   3
ATOM      3  C   UNL A   1      33.808  30.013  27.319  1.00  0.00     0.116 C 
BRANCH   3   4
ATOM      4  N   UNL A   1      32.643  29.200  27.587  1.00  0.00    -0.355 N 
ATOM      5  C   UNL A   1      32.322  27.970  27.097  1.00  0.00     0.239 C 
ATOM      6  O   UNL A   1      31.311  27.424  27.556  1.00  0.00    -0.273 OA
ATOM      7  H   UNL A   1      31.990  29.590  28.211  1.00  0.00     0.163 HD
BRANCH   5   8
ATOM      8  C   UNL A   1      33.230  27.235  26.098  1.00  0.00     0.217 C 
BRANCH   8   9
ATOM      9  N   UNL A   1      32.532  26.488  25.003  1.00  0.00    -0.357 N 
BRANCH   9  10
ATOM     10  C   UNL A   1      31.553  27.161  24.237  1.00  0.00     0.038 A 
ATOM     11  C   UNL A   1      29.530  28.730  22.928  1.00  0.00     0.082 A 
ATOM     12  C   UNL A   1      30.866  29.064  22.789  1.00  0.00     0.024 A 
ATOM     13  C   UNL A   1      29.181  27.601  23.649  1.00  0.00     0.024 A 
ATOM     14  C   UNL A   1      31.847  28.267  23.404  1.00  0.00     0.027 A 
ATOM     15  C   UNL A   1      30.182  26.838  24.277  1.00  0.00     0.027 A 
BRANCH  11  16
ATOM     16  S   UNL A   1      28.267  29.778  22.258  1.00  0.00     0.242 S 
ATOM     17  O   UNL A   1      26.983  29.205  22.590  1.00  0.00    -0.207 OA
ATOM     18  O   UNL A   1      28.635  30.057  20.883  1.00  0.00    -0.207 OA
BRANCH  16  19
ATOM     19  N   UNL A   1      28.446  31.218  23.169  1.00  0.00    -0.204 NA
ATOM     20  C   UNL A   1      28.867  32.365  22.327  1.00  0.00     0.124 C 
ATOM     21  C   UNL A   1      27.279  31.567  24.009  1.00  0.00     0.124 C 
ENDBRANCH  16  19
ENDBRANCH  11  16
ENDBRANCH   9  10
BRANCH   9  22
ATOM     22  C   UNL A   1      33.019  25.081  24.692  1.00  0.00     0.032 C 
ATOM     23  C   UNL A   1      32.293  24.016  25.545  1.00  0.00     0.034 C 
ATOM     24  C   UNL A   1      32.920  24.800  23.176  1.00  0.00     0.034 C 
ATOM     25  C   UNL A   1      34.522  24.845  25.017  1.00  0.00     0.034 C 
ENDBRANCH   9  22
ENDBRANCH   8   9
ENDBRANCH   5   8
ENDBRANCH   3   4
ENDBRANCH   2   3
ENDBRANCH   1   2
BRANCH   1  26
ATOM     26  C   UNL A   1      34.642  32.859  29.245  1.00  0.00     0.002 C 
BRANCH  26  27
ATOM     27  C   UNL A   1      35.778  33.811  29.627  1.00  0.00     0.021 C 
BRANCH  27  28
ATOM     28  C   UNL A   1      36.890  33.160  30.441  1.00  0.00     0.116 C 
BRANCH  28  29
ATOM     29  N   UNL A   1      36.390  32.033  31.211  1.00  0.00    -0.352 N 
ATOM     30  C   UNL A   1      36.841  30.740  31.244  1.00  0.00     0.251 C 
ATOM     31  H   UNL A   1      35.618  32.227  31.790  1.00  0.00     0.163 HD
ATOM     32  O   UNL A   1      36.141  29.865  31.746  1.00  0.00    -0.269 OA
BRANCH  30  33
ATOM     33  C   UNL A   1      38.165  30.404  30.678  1.00  0.00     0.039 A 
ATOM     34  C   UNL A   1      38.305  30.332  29.291  1.00  0.00     0.014 A 
ATOM     35  C   UNL A   1      39.253  30.117  31.510  1.00  0.00     0.014 A 
ATOM     36  C   UNL A   1      39.540  29.985  28.740  1.00  0.00     0.010 A 
ATOM     37  C   UNL A   1      40.504  29.861  30.957  1.00  0.00     0.010 A 
ATOM     38  C   UNL A   1      40.652  29.757  29.568  1.00  0.00    -0.014 A 
BRANCH  38  39
ATOM     39  C   UNL A   1      41.957  29.354  28.985  1.00  0.00     0.031 A 
ATOM     40  C   UNL A   1      43.081  30.354  28.887  1.00  0.00     0.074 A 
ATOM     41  C   UNL A   1      42.129  28.093  28.543  1.00  0.00     0.049 A 
ATOM     42  N   UNL A   1      44.302  30.185  28.447  1.00  0.00    -0.248 NA
ATOM     43  C   UNL A   1      42.791  31.730  29.320  1.00  0.00     0.031 C 
ATOM     44  C   UNL A   1      41.100  27.051  28.540  1.00  0.00     0.029 A 
ATOM     45  N   UNL A   1      43.234  27.471  28.019  1.00  0.00    -0.354 N 
ATOM     46  C   UNL A   1      44.918  31.427  28.548  1.00  0.00     0.074 A 
ATOM     47  C   UNL A   1      43.918  32.356  29.021  1.00  0.00     0.031 C 
ATOM     48  C   UNL A   1      41.635  25.908  28.082  1.00  0.00     0.029 A 
ATOM     49  C   UNL A   1      43.031  26.143  27.726  1.00  0.00     0.049 A 
ATOM     50  H   UNL A   1      44.091  27.931  27.868  1.00  0.00     0.167 HD
ATOM     51  C   UNL A   1      46.209  31.758  28.302  1.00  0.00     0.037 A 
ATOM     52  C   UNL A   1      43.879  25.218  27.237  1.00  0.00     0.037 A 
ATOM     53  C   UNL A   1      47.201  30.822  27.840  1.00  0.00     0.049 A 
ATOM     54  C   UNL A   1      45.306  25.611  26.963  1.00  0.00     0.074 A 
ATOM     55  C   UNL A   1      48.544  31.043  27.588  1.00  0.00     0.029 A 
ATOM     56  N   UNL A   1      46.957  29.486  27.556  1.00  0.00    -0.354 N 
ATOM     57  N   UNL A   1      45.888  26.776  27.119  1.00  0.00    -0.248 NA
ATOM     58  C   UNL A   1      46.197  24.555  26.463  1.00  0.00     0.031 C 
ATOM     59  C   UNL A   1      49.100  29.854  27.105  1.00  0.00     0.029 A 
ATOM     60  C   UNL A   1      48.120  28.873  27.119  1.00  0.00     0.049 A 
ATOM     61  H   UNL A   1      46.086  29.038  27.652  1.00  0.00     0.167 HD
ATOM     62  C   UNL A   1      47.223  26.583  26.778  1.00  0.00     0.074 A 
ATOM     63  C   UNL A   1      47.360  25.188  26.416  1.00  0.00     0.031 C 
ATOM     64  C   UNL A   1      48.244  27.478  26.772  1.00  0.00     0.037 A 
BRANCH  51  65
ATOM     65  C   UNL A   1      46.616  33.190  28.534  1.00  0.00     0.058 A 
ATOM     66  C   UNL A   1      46.445  34.176  27.547  1.00  0.00     0.135 A 
ATOM     67  C   UNL A   1      47.170  33.588  29.761  1.00  0.00     0.135 A 
ATOM     68  F   UNL A   1      45.934  33.853  26.348  1.00  0.00    -0.206 F 
ATOM     69  C   UNL A   1      46.843  35.494  27.754  1.00  0.00     0.059 A 
ATOM     70  C   UNL A   1      47.545  34.908  30.003  1.00  0.00     0.059 A 
ATOM     71  F   UNL A   1      47.358  32.691  30.742  1.00  0.00    -0.206 F 
ATOM     72  C   UNL A   1      47.394  35.849  28.986  1.00  0.00     0.060 A 
BRANCH  72  73
ATOM     73  S   UNL A   1      47.910  37.561  29.236  1.00  0.00     0.124 S 
ATOM     74  O   UNL A   1      48.682  37.814  28.024  1.00  0.00    -0.237 OA
ATOM     75  O   UNL A   1      46.632  38.261  29.330  1.00  0.00    -0.237 OA
ATOM     76  O   UNL A   1      48.683  37.507  30.472  1.00  0.00    -0.744 OA
ENDBRANCH  72  73
ENDBRANCH  51  65
BRANCH  52  77
ATOM     77  C   UNL A   1      43.413  23.821  27.020  1.00  0.00     0.058 A 
ATOM     78  C   UNL A   1      43.033  23.375  25.745  1.00  0.00     0.135 A 
ATOM     79  C   UNL A   1      43.345  22.903  28.079  1.00  0.00     0.135 A 
ATOM     80  F   UNL A   1      43.076  24.216  24.700  1.00  0.00    -0.206 F 
ATOM     81  C   UNL A   1      42.579  22.077  25.530  1.00  0.00     0.059 A 
ATOM     82  C   UNL A   1      42.924  21.590  27.884  1.00  0.00     0.059 A 
ATOM     83  F   UNL A   1      43.715  23.272  29.315  1.00  0.00    -0.206 F 
ATOM     84  C   UNL A   1      42.531  21.192  26.608  1.00  0.00     0.060 A 
BRANCH  84  85
ATOM     85  S   UNL A   1      41.977  19.498  26.310  1.00  0.00     0.124 S 
ATOM     86  O   UNL A   1      40.543  19.687  26.119  1.00  0.00    -0.237 OA
ATOM     87  O   UNL A   1      42.737  19.132  25.119  1.00  0.00    -0.237 OA
ATOM     88  O   UNL A   1      42.365  18.798  27.532  1.00  0.00    -0.744 OA
ENDBRANCH  84  85
ENDBRANCH  52  77
BRANCH  64  89
ATOM     89  C   UNL A   1      49.614  26.959  26.423  1.00  0.00     0.058 A 
ATOM     90  C   UNL A   1      50.074  26.892  25.099  1.00  0.00     0.135 A 
ATOM     91  C   UNL A   1      50.486  26.535  27.441  1.00  0.00     0.135 A 
ATOM     92  F   UNL A   1      49.284  27.283  24.087  1.00  0.00    -0.206 F 
ATOM     93  C   UNL A   1      51.331  26.377  24.792  1.00  0.00     0.059 A 
ATOM     94  C   UNL A   1      51.759  26.052  27.160  1.00  0.00     0.059 A 
ATOM     95  F   UNL A   1      50.105  26.593  28.726  1.00  0.00    -0.206 F 
ATOM     96  C   UNL A   1      52.164  25.956  25.830  1.00  0.00     0.060 A 
BRANCH  96  97
ATOM     97  S   UNL A   1      53.788  25.285  25.419  1.00  0.00     0.124 S 
ATOM     98  O   UNL A   1      54.484  26.474  24.936  1.00  0.00    -0.237 OA
ATOM     99  O   UNL A   1      54.244  24.762  26.704  1.00  0.00    -0.237 OA
ATOM    100  O   UNL A   1      53.494  24.275  24.407  1.00  0.00    -0.744 OA
ENDBRANCH  96  97
ENDBRANCH  64  89
ENDBRANCH  38  39
ENDBRANCH  30  33
ENDBRANCH  28  29
ENDBRANCH  27  28
ENDBRANCH  26  27
ENDBRANCH   1  26
TORSDOF 21
ENDMDL
MODEL 3
REMARK VINA RESULT:     -10.7      1.730      8.495
REMARK SMILES CN(C)S(=O)(=O)c1ccc(N(CC(=O)NCCCCCCNC(=O)c2ccc(-c3c4nc(c(-c5c(F)cc(S(=O)(=O)[O-])cc5F)c5ccc([nH]5)c(-c5c(F)cc(S(=O)(=O)[O-])cc5F)c5nc(c(-c6c(F)cc(S(=O)(=O)[O-])cc6F)c6ccc3[nH]6)C=C5)C=C4)cc2)C(C)(C)C)cc1
REMARK SMILES IDX 18 1 17 2 16 3 15 4 13 5 14 6 12 8 11 9 10 10 7 11 8 12
REMARK SMILES IDX 96 13 9 14 95 15 4 16 5 17 6 18 2 19 1 20 3 21 91 22 92 23
REMARK SMILES IDX 93 24 94 25 19 26 20 27 21 28 22 29 23 30 24 32 25 33 26 34
REMARK SMILES IDX 90 35 27 36 89 37 28 38 29 39 30 40 83 41 31 42 88 43 82 44
REMARK SMILES IDX 84 45 32 46 87 47 81 48 80 49 33 51 67 52 46 53 66 54 47 55
REMARK SMILES IDX 50 56 65 57 85 58 48 59 49 60 64 62 86 63 51 64 34 65 35 66
REMARK SMILES IDX 44 67 36 68 37 69 43 70 45 71 38 72 39 73 40 74 41 75 42 76
REMARK SMILES IDX 68 77 69 78 78 79 70 80 71 81 77 82 79 83 72 84 73 85 74 86
REMARK SMILES IDX 75 87 76 88 52 89 53 90 62 91 54 92 55 93 61 94 63 95 56 96
REMARK SMILES IDX 57 97 58 98 59 99 60 100
REMARK H PARENT 15 7 22 31 84 50 50 61
REMARK Flexibility Score: inf
ROOT
ATOM      1  C   UNL A   1      31.716  28.610  26.482  1.00  0.00     0.002 C 
ENDROOT
BRANCH   1   2
ATOM      2  C   UNL A   1      31.513  27.195  27.032  1.00  0.00     0.021 C 
BRANCH   2   3
ATOM      3  C   UNL A   1      31.373  26.139  25.942  1.00  0.00     0.116 C 
BRANCH   3   4
ATOM      4  N   UNL A   1      30.912  24.874  26.472  1.00  0.00    -0.355 N 
ATOM      5  C   UNL A   1      31.630  23.759  26.783  1.00  0.00     0.239 C 
ATOM      6  O   UNL A   1      31.022  22.827  27.323  1.00  0.00    -0.273 OA
ATOM      7  H   UNL A   1      29.943  24.810  26.630  1.00  0.00     0.163 HD
BRANCH   5   8
ATOM      8  C   UNL A   1      33.152  23.695  26.577  1.00  0.00     0.217 C 
BRANCH   8   9
ATOM      9  N   UNL A   1      33.613  23.206  25.237  1.00  0.00    -0.357 N 
BRANCH   9  10
ATOM     10  C   UNL A   1      33.471  21.834  24.926  1.00  0.00     0.038 A 
ATOM     11  C   UNL A   1      33.338  19.109  24.020  1.00  0.00     0.082 A 
ATOM     12  C   UNL A   1      34.415  19.538  24.775  1.00  0.00     0.024 A 
ATOM     13  C   UNL A   1      32.297  19.984  23.759  1.00  0.00     0.024 A 
ATOM     14  C   UNL A   1      34.451  20.864  25.242  1.00  0.00     0.027 A 
ATOM     15  C   UNL A   1      32.372  21.312  24.215  1.00  0.00     0.027 A 
BRANCH  11  16
ATOM     16  S   UNL A   1      33.320  17.479  23.324  1.00  0.00     0.242 S 
ATOM     17  O   UNL A   1      34.650  17.180  22.845  1.00  0.00    -0.207 OA
ATOM     18  O   UNL A   1      32.168  17.407  22.447  1.00  0.00    -0.207 OA
BRANCH  16  19
ATOM     19  N   UNL A   1      33.024  16.486  24.689  1.00  0.00    -0.204 NA
ATOM     20  C   UNL A   1      34.267  15.866  25.212  1.00  0.00     0.124 C 
ATOM     21  C   UNL A   1      32.251  17.135  25.770  1.00  0.00     0.124 C 
ENDBRANCH  16  19
ENDBRANCH  11  16
ENDBRANCH   9  10
BRANCH   9  22
ATOM     22  C   UNL A   1      34.088  24.248  24.236  1.00  0.00     0.032 C 
ATOM     23  C   UNL A   1      34.473  25.578  24.924  1.00  0.00     0.034 C 
ATOM     24  C   UNL A   1      35.229  23.676  23.365  1.00  0.00     0.034 C 
ATOM     25  C   UNL A   1      33.006  24.672  23.202  1.00  0.00     0.034 C 
ENDBRANCH   9  22
ENDBRANCH   8   9
ENDBRANCH   5   8
ENDBRANCH   3   4
ENDBRANCH   2   3
ENDBRANCH   1   2
BRANCH   1  26
ATOM     26  C   UNL A   1      32.858  29.383  27.149  1.00  0.00     0.002 C 
BRANCH  26  27
ATOM     27  C   UNL A   1      34.190  28.630  27.197  1.00  0.00     0.021 C 
BRANCH  27  28
ATOM     28  C   UNL A   1      35.393  29.512  27.510  1.00  0.00     0.116 C 
BRANCH  28  29
ATOM     29  N   UNL A   1      35.363  29.977  28.888  1.00  0.00    -0.352 N 
ATOM     30  C   UNL A   1      36.331  29.884  29.853  1.00  0.00     0.251 C 
ATOM     31  H   UNL A   1      34.530  30.419  29.166  1.00  0.00     0.163 HD
ATOM     32  O   UNL A   1      36.039  30.090  31.027  1.00  0.00    -0.269 OA
BRANCH  30  33
ATOM     33  C   UNL A   1      37.718  29.537  29.478  1.00  0.00     0.039 A 
ATOM     34  C   UNL A   1      38.593  29.094  30.472  1.00  0.00     0.014 A 
ATOM     35  C   UNL A   1      38.170  29.689  28.163  1.00  0.00     0.014 A 
ATOM     36  C   UNL A   1      39.915  28.792  30.142  1.00  0.00     0.010 A 
ATOM     37  C   UNL A   1      39.461  29.301  27.820  1.00  0.00     0.010 A 
ATOM     38  C   UNL A   1      40.357  28.883  28.811  1.00  0.00    -0.014 A 
BRANCH  38  39
ATOM     39  C   UNL A   1      41.773  28.595  28.464  1.00  0.00     0.031 A 
ATOM     40  C   UNL A   1      42.183  27.202  28.062  1.00  0.00     0.074 A 
ATOM     41  C   UNL A   1      42.686  29.585  28.514  1.00  0.00     0.049 A 
ATOM     42  N   UNL A   1      43.357  26.761  27.688  1.00  0.00    -0.248 NA
ATOM     43  C   UNL A   1      41.144  26.160  28.108  1.00  0.00     0.031 C 
ATOM     44  C   UNL A   1      42.418  30.961  28.935  1.00  0.00     0.029 A 
ATOM     45  N   UNL A   1      44.021  29.588  28.198  1.00  0.00    -0.354 N 
ATOM     46  C   UNL A   1      43.197  25.400  27.457  1.00  0.00     0.074 A 
ATOM     47  C   UNL A   1      41.833  25.071  27.804  1.00  0.00     0.031 C 
ATOM     48  C   UNL A   1      43.541  31.686  28.809  1.00  0.00     0.029 A 
ATOM     49  C   UNL A   1      44.615  30.820  28.332  1.00  0.00     0.049 A 
ATOM     50  H   UNL A   1      44.507  28.784  27.904  1.00  0.00     0.167 HD
ATOM     51  C   UNL A   1      44.094  24.509  26.969  1.00  0.00     0.037 A 
ATOM     52  C   UNL A   1      45.881  31.209  28.087  1.00  0.00     0.037 A 
ATOM     53  C   UNL A   1      45.449  24.848  26.617  1.00  0.00     0.049 A 
ATOM     54  C   UNL A   1      46.862  30.200  27.553  1.00  0.00     0.074 A 
ATOM     55  C   UNL A   1      46.432  24.032  26.085  1.00  0.00     0.029 A 
ATOM     56  N   UNL A   1      46.013  26.108  26.765  1.00  0.00    -0.354 N 
ATOM     57  N   UNL A   1      46.679  28.929  27.285  1.00  0.00    -0.248 NA
ATOM     58  C   UNL A   1      48.220  30.685  27.270  1.00  0.00     0.031 C 
ATOM     59  C   UNL A   1      47.604  24.784  25.959  1.00  0.00     0.029 A 
ATOM     60  C   UNL A   1      47.334  26.088  26.348  1.00  0.00     0.049 A 
ATOM     61  H   UNL A   1      45.544  26.899  27.114  1.00  0.00     0.167 HD
ATOM     62  C   UNL A   1      47.885  28.473  26.761  1.00  0.00     0.074 A 
ATOM     63  C   UNL A   1      48.784  29.608  26.744  1.00  0.00     0.031 C 
ATOM     64  C   UNL A   1      48.216  27.229  26.327  1.00  0.00     0.037 A 
BRANCH  51  65
ATOM     65  C   UNL A   1      43.632  23.087  26.784  1.00  0.00     0.058 A 
ATOM     66  C   UNL A   1      43.337  22.257  27.880  1.00  0.00     0.135 A 
ATOM     67  C   UNL A   1      43.466  22.548  25.499  1.00  0.00     0.135 A 
ATOM     68  F   UNL A   1      43.491  22.712  29.134  1.00  0.00    -0.206 F 
ATOM     69  C   UNL A   1      42.933  20.936  27.708  1.00  0.00     0.059 A 
ATOM     70  C   UNL A   1      43.031  21.240  25.302  1.00  0.00     0.059 A 
ATOM     71  F   UNL A   1      43.732  23.292  24.413  1.00  0.00    -0.206 F 
ATOM     72  C   UNL A   1      42.785  20.436  26.414  1.00  0.00     0.060 A 
BRANCH  72  73
ATOM     73  S   UNL A   1      42.264  18.720  26.209  1.00  0.00     0.124 S 
ATOM     74  O   UNL A   1      40.858  18.881  25.853  1.00  0.00    -0.237 OA
ATOM     75  O   UNL A   1      43.139  18.254  25.138  1.00  0.00    -0.237 OA
ATOM     76  O   UNL A   1      42.515  18.129  27.520  1.00  0.00    -0.744 OA
ENDBRANCH  72  73
ENDBRANCH  51  65
BRANCH  52  77
ATOM     77  C   UNL A   1      46.279  32.628  28.299  1.00  0.00     0.058 A 
ATOM     78  C   UNL A   1      46.128  33.581  27.280  1.00  0.00     0.135 A 
ATOM     79  C   UNL A   1      46.811  33.061  29.523  1.00  0.00     0.135 A 
ATOM     80  F   UNL A   1      45.628  33.216  26.089  1.00  0.00    -0.206 F 
ATOM     81  C   UNL A   1      46.511  34.906  27.457  1.00  0.00     0.059 A 
ATOM     82  C   UNL A   1      47.174  34.388  29.734  1.00  0.00     0.059 A 
ATOM     83  F   UNL A   1      46.960  32.194  30.536  1.00  0.00    -0.206 F 
ATOM     84  C   UNL A   1      47.032  35.300  28.690  1.00  0.00     0.060 A 
BRANCH  84  85
ATOM     85  S   UNL A   1      47.490  37.032  28.921  1.00  0.00     0.124 S 
ATOM     86  O   UNL A   1      46.958  37.302  30.252  1.00  0.00    -0.237 OA
ATOM     87  O   UNL A   1      48.945  36.981  28.814  1.00  0.00    -0.237 OA
ATOM     88  O   UNL A   1      46.811  37.709  27.820  1.00  0.00    -0.744 OA
ENDBRANCH  84  85
ENDBRANCH  52  77
BRANCH  64  89
ATOM     89  C   UNL A   1      49.589  27.048  25.737  1.00  0.00     0.058 A 
ATOM     90  C   UNL A   1      49.839  27.197  24.364  1.00  0.00     0.135 A 
ATOM     91  C   UNL A   1      50.676  26.732  26.569  1.00  0.00     0.135 A 
ATOM     92  F   UNL A   1      48.838  27.498  23.522  1.00  0.00    -0.206 F 
ATOM     93  C   UNL A   1      51.109  26.992  23.830  1.00  0.00     0.059 A 
ATOM     94  C   UNL A   1      51.959  26.558  26.062  1.00  0.00     0.059 A 
ATOM     95  F   UNL A   1      50.498  26.593  27.892  1.00  0.00    -0.206 F 
ATOM     96  C   UNL A   1      52.161  26.668  24.688  1.00  0.00     0.060 A 
BRANCH  96  97
ATOM     97  S   UNL A   1      53.801  26.399  23.984  1.00  0.00     0.124 S 
ATOM     98  O   UNL A   1      54.220  25.182  24.674  1.00  0.00    -0.237 OA
ATOM     99  O   UNL A   1      53.510  26.252  22.561  1.00  0.00    -0.237 OA
ATOM    100  O   UNL A   1      54.531  27.609  24.346  1.00  0.00    -0.744 OA
ENDBRANCH  96  97
ENDBRANCH  64  89
ENDBRANCH  38  39
ENDBRANCH  30  33
ENDBRANCH  28  29
ENDBRANCH  27  28
ENDBRANCH  26  27
ENDBRANCH   1  26
TORSDOF 21
ENDMDL
