MODEL 1
REMARK VINA RESULT:     -10.4      0.000      0.000
REMARK SMILES C[C@@H]1[C@H](C(=O)NCCCCCCNC(=O)c2ccc(-c3c4nc(c(-c5c(F)cc(S(=O)(=O)[O-])cc5F)c5ccc([nH]5)c(-c5c(F)cc(S(=O)(=O)[O-])cc5F)c5nc(c(-c6c(F)cc(S(=O)(=O)[O-])cc6F)c6ccc3[nH]6)C=C5)C=C4)cc2)CC[N@@H+]1CCOc1c(Cl)cccc1Cl
REMARK SMILES IDX 9 1 8 2 7 3 6 4 4 5 5 6 3 8 1 9 2 10 84 11 82 12 83 13 85 15
REMARK SMILES IDX 86 16 87 17 88 18 89 19 94 20 90 21 91 22 93 23 95 24 92 25
REMARK SMILES IDX 10 26 11 27 12 28 13 29 14 30 15 32 16 33 17 34 81 35 18 36
REMARK SMILES IDX 80 37 19 38 20 39 21 40 74 41 22 42 79 43 73 44 75 45 23 46
REMARK SMILES IDX 78 47 72 48 71 49 24 51 58 52 37 53 57 54 38 55 41 56 56 57
REMARK SMILES IDX 76 58 39 59 40 60 55 62 77 63 42 64 25 65 26 66 35 67 27 68
REMARK SMILES IDX 28 69 34 70 36 71 29 72 30 73 31 74 32 75 33 76 59 77 60 78
REMARK SMILES IDX 69 79 61 80 62 81 68 82 70 83 63 84 64 85 65 86 66 87 67 88
REMARK SMILES IDX 43 89 44 90 53 91 45 92 46 93 52 94 54 95 47 96 48 97 49 98
REMARK SMILES IDX 50 99 51 100
REMARK H PARENT 6 7 84 14 13 31 75 50 41 61
REMARK Flexibility Score: inf
ROOT
ATOM      1  C   UNL A   1      32.275  28.604  23.200  1.00  0.00     0.002 C 
ENDROOT
BRANCH   1   2
ATOM      2  C   UNL A   1      30.764  28.685  23.412  1.00  0.00     0.021 C 
BRANCH   2   3
ATOM      3  C   UNL A   1      30.119  27.377  23.866  1.00  0.00     0.116 C 
BRANCH   3   4
ATOM      4  N   UNL A   1      30.668  26.935  25.125  1.00  0.00    -0.356 N 
ATOM      5  C   UNL A   1      30.950  25.696  25.592  1.00  0.00     0.229 C 
ATOM      6  O   UNL A   1      31.292  25.636  26.781  1.00  0.00    -0.275 OA
ATOM      7  H   UNL A   1      30.873  27.662  25.755  1.00  0.00     0.163 HD
BRANCH   5   8
ATOM      8  C   UNL A   1      30.970  24.424  24.751  1.00  0.00     0.142 C 
ATOM      9  C   UNL A   1      33.119  25.071  23.342  1.00  0.00     0.076 C 
ATOM     10  C   UNL A   1      31.949  24.139  23.590  1.00  0.00     0.193 C 
ATOM     11  N   UNL A   1      32.207  22.681  23.620  1.00  0.00    -0.329 N 
ATOM     12  C   UNL A   1      30.937  23.130  25.549  1.00  0.00     0.081 C 
ATOM     13  C   UNL A   1      31.181  22.092  24.468  1.00  0.00     0.263 C 
ATOM     14  H   UNL A   1      32.146  22.388  22.644  1.00  0.00     0.348 HD
BRANCH  11  15
ATOM     15  C   UNL A   1      33.560  22.115  23.753  1.00  0.00     0.304 C 
BRANCH  15  16
ATOM     16  C   UNL A   1      33.790  20.736  24.422  1.00  0.00     0.291 C 
BRANCH  16  17
ATOM     17  O   UNL A   1      34.450  20.804  25.701  1.00  0.00    -0.485 OA
BRANCH  17  18
ATOM     18  C   UNL A   1      35.600  21.555  25.735  1.00  0.00     0.156 A 
ATOM     19  C   UNL A   1      36.856  21.111  25.293  1.00  0.00     0.084 A 
ATOM     20  C   UNL A   1      35.502  22.856  26.255  1.00  0.00     0.084 A 
ATOM     21  Cl  UNL A   1      37.184  19.454  24.921  1.00  0.00    -0.080 Cl
ATOM     22  C   UNL A   1      37.921  22.012  25.177  1.00  0.00     0.024 A 
ATOM     23  C   UNL A   1      36.565  23.756  26.133  1.00  0.00     0.024 A 
ATOM     24  Cl  UNL A   1      34.051  23.422  27.012  1.00  0.00    -0.080 Cl
ATOM     25  C   UNL A   1      37.764  23.345  25.558  1.00  0.00     0.003 A 
ENDBRANCH  17  18
ENDBRANCH  16  17
ENDBRANCH  15  16
ENDBRANCH  11  15
ENDBRANCH   5   8
ENDBRANCH   3   4
ENDBRANCH   2   3
ENDBRANCH   1   2
BRANCH   1  26
ATOM     26  C   UNL A   1      33.122  29.162  24.347  1.00  0.00     0.002 C 
BRANCH  26  27
ATOM     27  C   UNL A   1      33.921  28.131  25.150  1.00  0.00     0.021 C 
BRANCH  27  28
ATOM     28  C   UNL A   1      33.794  28.227  26.670  1.00  0.00     0.116 C 
BRANCH  28  29
ATOM     29  N   UNL A   1      33.554  29.584  27.126  1.00  0.00    -0.352 N 
ATOM     30  C   UNL A   1      34.357  30.419  27.858  1.00  0.00     0.251 C 
ATOM     31  H   UNL A   1      32.683  29.963  26.870  1.00  0.00     0.163 HD
ATOM     32  O   UNL A   1      33.902  31.485  28.272  1.00  0.00    -0.269 OA
BRANCH  30  33
ATOM     33  C   UNL A   1      35.752  30.042  28.169  1.00  0.00     0.039 A 
ATOM     34  C   UNL A   1      36.706  30.121  27.149  1.00  0.00     0.014 A 
ATOM     35  C   UNL A   1      36.119  29.579  29.437  1.00  0.00     0.014 A 
ATOM     36  C   UNL A   1      38.032  29.773  27.411  1.00  0.00     0.010 A 
ATOM     37  C   UNL A   1      37.454  29.289  29.712  1.00  0.00     0.010 A 
ATOM     38  C   UNL A   1      38.422  29.373  28.700  1.00  0.00    -0.014 A 
BRANCH  38  39
ATOM     39  C   UNL A   1      39.837  29.023  28.989  1.00  0.00     0.031 A 
ATOM     40  C   UNL A   1      40.753  30.036  29.619  1.00  0.00     0.074 A 
ATOM     41  C   UNL A   1      40.302  27.803  28.656  1.00  0.00     0.049 A 
ATOM     42  N   UNL A   1      42.018  29.921  29.933  1.00  0.00    -0.248 NA
ATOM     43  C   UNL A   1      40.180  31.358  29.915  1.00  0.00     0.031 C 
ATOM     44  C   UNL A   1      39.523  26.752  27.997  1.00  0.00     0.029 A 
ATOM     45  N   UNL A   1      41.542  27.241  28.823  1.00  0.00    -0.354 N 
ATOM     46  C   UNL A   1      42.394  31.155  30.453  1.00  0.00     0.074 A 
ATOM     47  C   UNL A   1      41.237  32.019  30.366  1.00  0.00     0.031 C 
ATOM     48  C   UNL A   1      40.297  25.667  27.837  1.00  0.00     0.029 A 
ATOM     49  C   UNL A   1      41.631  25.951  28.357  1.00  0.00     0.049 A 
ATOM     50  H   UNL A   1      42.298  27.717  29.237  1.00  0.00     0.167 HD
ATOM     51  C   UNL A   1      43.587  31.527  30.976  1.00  0.00     0.037 A 
ATOM     52  C   UNL A   1      42.670  25.093  28.352  1.00  0.00     0.037 A 
ATOM     53  C   UNL A   1      44.727  30.654  31.087  1.00  0.00     0.049 A 
ATOM     54  C   UNL A   1      43.980  25.523  28.953  1.00  0.00     0.074 A 
ATOM     55  C   UNL A   1      45.961  30.917  31.656  1.00  0.00     0.029 A 
ATOM     56  N   UNL A   1      44.772  29.348  30.622  1.00  0.00    -0.354 N 
ATOM     57  N   UNL A   1      44.297  26.673  29.499  1.00  0.00    -0.248 NA
ATOM     58  C   UNL A   1      45.070  24.537  28.948  1.00  0.00     0.031 C 
ATOM     59  C   UNL A   1      46.763  29.781  31.504  1.00  0.00     0.029 A 
ATOM     60  C   UNL A   1      46.018  28.797  30.874  1.00  0.00     0.049 A 
ATOM     61  H   UNL A   1      44.028  28.882  30.176  1.00  0.00     0.167 HD
ATOM     62  C   UNL A   1      45.617  26.543  29.918  1.00  0.00     0.074 A 
ATOM     63  C   UNL A   1      46.032  25.198  29.578  1.00  0.00     0.031 C 
ATOM     64  C   UNL A   1      46.413  27.455  30.530  1.00  0.00     0.037 A 
BRANCH  51  65
ATOM     65  C   UNL A   1      43.715  32.938  31.478  1.00  0.00     0.058 A 
ATOM     66  C   UNL A   1      44.191  33.970  30.652  1.00  0.00     0.135 A 
ATOM     67  C   UNL A   1      43.334  33.271  32.787  1.00  0.00     0.135 A 
ATOM     68  F   UNL A   1      44.584  33.706  29.397  1.00  0.00    -0.206 F 
ATOM     69  C   UNL A   1      44.313  35.276  31.118  1.00  0.00     0.059 A 
ATOM     70  C   UNL A   1      43.424  34.576  33.266  1.00  0.00     0.059 A 
ATOM     71  F   UNL A   1      42.872  32.323  33.618  1.00  0.00    -0.206 F 
ATOM     72  C   UNL A   1      43.930  35.568  32.428  1.00  0.00     0.060 A 
BRANCH  72  73
ATOM     73  S   UNL A   1      44.096  37.266  33.018  1.00  0.00     0.124 S 
ATOM     74  O   UNL A   1      43.916  38.021  31.781  1.00  0.00    -0.237 OA
ATOM     75  O   UNL A   1      43.009  37.370  33.986  1.00  0.00    -0.237 OA
ATOM     76  O   UNL A   1      45.440  37.299  33.583  1.00  0.00    -0.744 OA
ENDBRANCH  72  73
ENDBRANCH  51  65
BRANCH  52  77
ATOM     77  C   UNL A   1      42.502  23.729  27.785  1.00  0.00     0.058 A 
ATOM     78  C   UNL A   1      42.536  23.516  26.399  1.00  0.00     0.135 A 
ATOM     79  C   UNL A   1      42.322  22.613  28.616  1.00  0.00     0.135 A 
ATOM     80  F   UNL A   1      42.701  24.554  25.565  1.00  0.00    -0.206 F 
ATOM     81  C   UNL A   1      42.382  22.245  25.854  1.00  0.00     0.059 A 
ATOM     82  C   UNL A   1      42.187  21.329  28.095  1.00  0.00     0.059 A 
ATOM     83  F   UNL A   1      42.300  22.763  29.949  1.00  0.00    -0.206 F 
ATOM     84  C   UNL A   1      42.209  21.158  26.711  1.00  0.00     0.060 A 
BRANCH  84  85
ATOM     85  S   UNL A   1      42.061  19.505  25.997  1.00  0.00     0.124 S 
ATOM     86  O   UNL A   1      42.552  18.670  27.087  1.00  0.00    -0.237 OA
ATOM     87  O   UNL A   1      40.631  19.416  25.718  1.00  0.00    -0.237 OA
ATOM     88  O   UNL A   1      42.917  19.573  24.816  1.00  0.00    -0.744 OA
ENDBRANCH  84  85
ENDBRANCH  52  77
BRANCH  64  89
ATOM     89  C   UNL A   1      47.805  27.022  30.887  1.00  0.00     0.058 A 
ATOM     90  C   UNL A   1      48.094  26.429  32.127  1.00  0.00     0.135 A 
ATOM     91  C   UNL A   1      48.855  27.161  29.965  1.00  0.00     0.135 A 
ATOM     92  F   UNL A   1      47.127  26.278  33.045  1.00  0.00    -0.206 F 
ATOM     93  C   UNL A   1      49.380  26.010  32.449  1.00  0.00     0.059 A 
ATOM     94  C   UNL A   1      50.144  26.729  30.257  1.00  0.00     0.059 A 
ATOM     95  F   UNL A   1      48.629  27.714  28.763  1.00  0.00    -0.206 F 
ATOM     96  C   UNL A   1      50.400  26.165  31.507  1.00  0.00     0.060 A 
BRANCH  96  97
ATOM     97  S   UNL A   1      52.061  25.592  31.923  1.00  0.00     0.124 S 
ATOM     98  O   UNL A   1      51.833  24.167  32.141  1.00  0.00    -0.237 OA
ATOM     99  O   UNL A   1      52.822  25.937  30.726  1.00  0.00    -0.237 OA
ATOM    100  O   UNL A   1      52.396  26.365  33.115  1.00  0.00    -0.744 OA
ENDBRANCH  96  97
ENDBRANCH  64  89
ENDBRANCH  38  39
ENDBRANCH  30  33
ENDBRANCH  28  29
ENDBRANCH  27  28
ENDBRANCH  26  27
ENDBRANCH   1  26
TORSDOF 20
ENDMDL
MODEL 2
REMARK VINA RESULT:     -10.2      2.427      3.002
REMARK SMILES C[C@@H]1[C@H](C(=O)NCCCCCCNC(=O)c2ccc(-c3c4nc(c(-c5c(F)cc(S(=O)(=O)[O-])cc5F)c5ccc([nH]5)c(-c5c(F)cc(S(=O)(=O)[O-])cc5F)c5nc(c(-c6c(F)cc(S(=O)(=O)[O-])cc6F)c6ccc3[nH]6)C=C5)C=C4)cc2)CC[N@@H+]1CCOc1c(Cl)cccc1Cl
REMARK SMILES IDX 9 1 8 2 7 3 6 4 4 5 5 6 3 8 1 9 2 10 84 11 82 12 83 13 85 15
REMARK SMILES IDX 86 16 87 17 88 18 89 19 94 20 90 21 91 22 93 23 95 24 92 25
REMARK SMILES IDX 10 26 11 27 12 28 13 29 14 30 15 32 16 33 17 34 81 35 18 36
REMARK SMILES IDX 80 37 19 38 20 39 21 40 74 41 22 42 79 43 73 44 75 45 23 46
REMARK SMILES IDX 78 47 72 48 71 49 24 51 58 52 37 53 57 54 38 55 41 56 56 57
REMARK SMILES IDX 76 58 39 59 40 60 55 62 77 63 42 64 25 65 26 66 35 67 27 68
REMARK SMILES IDX 28 69 34 70 36 71 29 72 30 73 31 74 32 75 33 76 59 77 60 78
REMARK SMILES IDX 69 79 61 80 62 81 68 82 70 83 63 84 64 85 65 86 66 87 67 88
REMARK SMILES IDX 43 89 44 90 53 91 45 92 46 93 52 94 54 95 47 96 48 97 49 98
REMARK SMILES IDX 50 99 51 100
REMARK H PARENT 6 7 84 14 13 31 75 50 41 61
REMARK Flexibility Score: inf
ROOT
ATOM      1  C   UNL A   1      31.613  28.134  22.889  1.00  0.00     0.002 C 
ENDROOT
BRANCH   1   2
ATOM      2  C   UNL A   1      30.167  28.064  23.377  1.00  0.00     0.021 C 
BRANCH   2   3
ATOM      3  C   UNL A   1      29.826  26.801  24.166  1.00  0.00     0.116 C 
BRANCH   3   4
ATOM      4  N   UNL A   1      30.734  26.617  25.271  1.00  0.00    -0.356 N 
ATOM      5  C   UNL A   1      31.219  25.495  25.853  1.00  0.00     0.229 C 
ATOM      6  O   UNL A   1      31.884  25.670  26.884  1.00  0.00    -0.275 OA
ATOM      7  H   UNL A   1      31.057  27.455  25.673  1.00  0.00     0.163 HD
BRANCH   5   8
ATOM      8  C   UNL A   1      31.090  24.085  25.287  1.00  0.00     0.142 C 
ATOM      9  C   UNL A   1      32.398  24.582  23.036  1.00  0.00     0.076 C 
ATOM     10  C   UNL A   1      31.565  23.641  23.885  1.00  0.00     0.193 C 
ATOM     11  N   UNL A   1      32.020  22.239  24.031  1.00  0.00    -0.329 N 
ATOM     12  C   UNL A   1      31.557  22.977  26.218  1.00  0.00     0.081 C 
ATOM     13  C   UNL A   1      31.503  21.763  25.306  1.00  0.00     0.263 C 
ATOM     14  H   UNL A   1      31.623  21.754  23.225  1.00  0.00     0.348 HD
BRANCH  11  15
ATOM     15  C   UNL A   1      33.382  21.804  23.681  1.00  0.00     0.304 C 
BRANCH  15  16
ATOM     16  C   UNL A   1      34.537  21.879  24.713  1.00  0.00     0.291 C 
BRANCH  16  17
ATOM     17  O   UNL A   1      35.846  22.007  24.123  1.00  0.00    -0.485 OA
BRANCH  17  18
ATOM     18  C   UNL A   1      36.862  22.311  24.997  1.00  0.00     0.156 A 
ATOM     19  C   UNL A   1      37.927  21.453  25.311  1.00  0.00     0.084 A 
ATOM     20  C   UNL A   1      36.820  23.570  25.618  1.00  0.00     0.084 A 
ATOM     21  Cl  UNL A   1      37.944  19.781  24.866  1.00  0.00    -0.080 Cl
ATOM     22  C   UNL A   1      39.019  21.925  26.050  1.00  0.00     0.024 A 
ATOM     23  C   UNL A   1      37.914  24.043  26.351  1.00  0.00     0.024 A 
ATOM     24  Cl  UNL A   1      35.448  24.615  25.457  1.00  0.00    -0.080 Cl
ATOM     25  C   UNL A   1      39.031  23.233  26.535  1.00  0.00     0.003 A 
ENDBRANCH  17  18
ENDBRANCH  16  17
ENDBRANCH  15  16
ENDBRANCH  11  15
ENDBRANCH   5   8
ENDBRANCH   3   4
ENDBRANCH   2   3
ENDBRANCH   1   2
BRANCH   1  26
ATOM     26  C   UNL A   1      32.574  28.882  23.816  1.00  0.00     0.002 C 
BRANCH  26  27
ATOM     27  C   UNL A   1      33.804  28.095  24.280  1.00  0.00     0.021 C 
BRANCH  27  28
ATOM     28  C   UNL A   1      34.275  28.374  25.706  1.00  0.00     0.116 C 
BRANCH  28  29
ATOM     29  N   UNL A   1      33.781  29.639  26.219  1.00  0.00    -0.352 N 
ATOM     30  C   UNL A   1      34.264  30.423  27.234  1.00  0.00     0.251 C 
ATOM     31  H   UNL A   1      32.977  29.987  25.770  1.00  0.00     0.163 HD
ATOM     32  O   UNL A   1      33.605  31.391  27.616  1.00  0.00    -0.269 OA
BRANCH  30  33
ATOM     33  C   UNL A   1      35.553  30.107  27.884  1.00  0.00     0.039 A 
ATOM     34  C   UNL A   1      35.537  29.629  29.198  1.00  0.00     0.014 A 
ATOM     35  C   UNL A   1      36.771  30.311  27.228  1.00  0.00     0.014 A 
ATOM     36  C   UNL A   1      36.738  29.320  29.839  1.00  0.00     0.010 A 
ATOM     37  C   UNL A   1      37.965  29.946  27.848  1.00  0.00     0.010 A 
ATOM     38  C   UNL A   1      37.962  29.457  29.163  1.00  0.00    -0.014 A 
BRANCH  38  39
ATOM     39  C   UNL A   1      39.240  29.109  29.834  1.00  0.00     0.031 A 
ATOM     40  C   UNL A   1      39.684  29.868  31.055  1.00  0.00     0.074 A 
ATOM     41  C   UNL A   1      40.014  28.131  29.327  1.00  0.00     0.049 A 
ATOM     42  N   UNL A   1      40.772  29.720  31.768  1.00  0.00    -0.248 NA
ATOM     43  C   UNL A   1      38.804  30.949  31.524  1.00  0.00     0.031 C 
ATOM     44  C   UNL A   1      39.713  27.356  28.120  1.00  0.00     0.029 A 
ATOM     45  N   UNL A   1      41.212  27.620  29.757  1.00  0.00    -0.354 N 
ATOM     46  C   UNL A   1      40.711  30.692  32.760  1.00  0.00     0.074 A 
ATOM     47  C   UNL A   1      39.505  31.457  32.528  1.00  0.00     0.031 C 
ATOM     48  C   UNL A   1      40.689  26.454  27.923  1.00  0.00     0.029 A 
ATOM     49  C   UNL A   1      41.696  26.604  28.969  1.00  0.00     0.049 A 
ATOM     50  H   UNL A   1      41.683  27.953  30.556  1.00  0.00     0.167 HD
ATOM     51  C   UNL A   1      41.570  30.913  33.785  1.00  0.00     0.037 A 
ATOM     52  C   UNL A   1      42.821  25.872  29.078  1.00  0.00     0.037 A 
ATOM     53  C   UNL A   1      42.754  30.130  34.029  1.00  0.00     0.049 A 
ATOM     54  C   UNL A   1      43.750  26.124  30.234  1.00  0.00     0.074 A 
ATOM     55  C   UNL A   1      43.655  30.235  35.073  1.00  0.00     0.029 A 
ATOM     56  N   UNL A   1      43.199  29.096  33.219  1.00  0.00    -0.354 N 
ATOM     57  N   UNL A   1      43.643  27.006  31.200  1.00  0.00    -0.248 NA
ATOM     58  C   UNL A   1      44.948  25.277  30.322  1.00  0.00     0.031 C 
ATOM     59  C   UNL A   1      44.665  29.286  34.876  1.00  0.00     0.029 A 
ATOM     60  C   UNL A   1      44.372  28.565  33.730  1.00  0.00     0.049 A 
ATOM     61  H   UNL A   1      42.748  28.785  32.401  1.00  0.00     0.167 HD
ATOM     62  C   UNL A   1      44.749  26.807  32.020  1.00  0.00     0.074 A 
ATOM     63  C   UNL A   1      45.503  25.712  31.445  1.00  0.00     0.031 C 
ATOM     64  C   UNL A   1      45.108  27.472  33.146  1.00  0.00     0.037 A 
BRANCH  51  65
ATOM     65  C   UNL A   1      41.252  32.041  34.726  1.00  0.00     0.058 A 
ATOM     66  C   UNL A   1      41.815  33.317  34.558  1.00  0.00     0.135 A 
ATOM     67  C   UNL A   1      40.355  31.857  35.790  1.00  0.00     0.135 A 
ATOM     68  F   UNL A   1      42.690  33.546  33.566  1.00  0.00    -0.206 F 
ATOM     69  C   UNL A   1      41.524  34.361  35.431  1.00  0.00     0.059 A 
ATOM     70  C   UNL A   1      40.030  32.894  36.660  1.00  0.00     0.059 A 
ATOM     71  F   UNL A   1      39.788  30.658  35.996  1.00  0.00    -0.206 F 
ATOM     72  C   UNL A   1      40.633  34.139  36.481  1.00  0.00     0.060 A 
BRANCH  72  73
ATOM     73  S   UNL A   1      40.266  35.502  37.606  1.00  0.00     0.124 S 
ATOM     74  O   UNL A   1      41.560  35.701  38.252  1.00  0.00    -0.237 OA
ATOM     75  O   UNL A   1      39.846  36.560  36.692  1.00  0.00    -0.237 OA
ATOM     76  O   UNL A   1      39.214  34.963  38.462  1.00  0.00    -0.744 OA
ENDBRANCH  72  73
ENDBRANCH  51  65
BRANCH  52  77
ATOM     77  C   UNL A   1      43.115  24.809  28.082  1.00  0.00     0.058 A 
ATOM     78  C   UNL A   1      43.853  25.092  26.924  1.00  0.00     0.135 A 
ATOM     79  C   UNL A   1      42.679  23.490  28.275  1.00  0.00     0.135 A 
ATOM     80  F   UNL A   1      44.286  26.341  26.693  1.00  0.00    -0.206 F 
ATOM     81  C   UNL A   1      44.136  24.108  25.982  1.00  0.00     0.059 A 
ATOM     82  C   UNL A   1      42.969  22.483  27.360  1.00  0.00     0.059 A 
ATOM     83  F   UNL A   1      41.984  23.165  29.377  1.00  0.00    -0.206 F 
ATOM     84  C   UNL A   1      43.691  22.805  26.210  1.00  0.00     0.060 A 
BRANCH  84  85
ATOM     85  S   UNL A   1      44.108  21.522  25.008  1.00  0.00     0.124 S 
ATOM     86  O   UNL A   1      43.966  22.243  23.749  1.00  0.00    -0.237 OA
ATOM     87  O   UNL A   1      45.471  21.170  25.394  1.00  0.00    -0.237 OA
ATOM     88  O   UNL A   1      43.108  20.489  25.264  1.00  0.00    -0.744 OA
ENDBRANCH  84  85
ENDBRANCH  52  77
BRANCH  64  89
ATOM     89  C   UNL A   1      46.360  27.020  33.842  1.00  0.00     0.058 A 
ATOM     90  C   UNL A   1      46.334  26.008  34.814  1.00  0.00     0.135 A 
ATOM     91  C   UNL A   1      47.604  27.575  33.503  1.00  0.00     0.135 A 
ATOM     92  F   UNL A   1      45.169  25.449  35.177  1.00  0.00    -0.206 F 
ATOM     93  C   UNL A   1      47.497  25.576  35.443  1.00  0.00     0.059 A 
ATOM     94  C   UNL A   1      48.782  27.143  34.102  1.00  0.00     0.059 A 
ATOM     95  F   UNL A   1      47.683  28.539  32.573  1.00  0.00    -0.206 F 
ATOM     96  C   UNL A   1      48.717  26.151  35.081  1.00  0.00     0.060 A 
BRANCH  96  97
ATOM     97  S   UNL A   1      50.225  25.564  35.883  1.00  0.00     0.124 S 
ATOM     98  O   UNL A   1      50.466  26.619  36.861  1.00  0.00    -0.237 OA
ATOM     99  O   UNL A   1      49.808  24.275  36.429  1.00  0.00    -0.237 OA
ATOM    100  O   UNL A   1      51.184  25.490  34.785  1.00  0.00    -0.744 OA
ENDBRANCH  96  97
ENDBRANCH  64  89
ENDBRANCH  38  39
ENDBRANCH  30  33
ENDBRANCH  28  29
ENDBRANCH  27  28
ENDBRANCH  26  27
ENDBRANCH   1  26
TORSDOF 20
ENDMDL
MODEL 3
REMARK VINA RESULT:     -10.1      4.689     10.336
REMARK SMILES C[C@@H]1[C@H](C(=O)NCCCCCCNC(=O)c2ccc(-c3c4nc(c(-c5c(F)cc(S(=O)(=O)[O-])cc5F)c5ccc([nH]5)c(-c5c(F)cc(S(=O)(=O)[O-])cc5F)c5nc(c(-c6c(F)cc(S(=O)(=O)[O-])cc6F)c6ccc3[nH]6)C=C5)C=C4)cc2)CC[N@@H+]1CCOc1c(Cl)cccc1Cl
REMARK SMILES IDX 9 1 8 2 7 3 6 4 4 5 5 6 3 8 1 9 2 10 84 11 82 12 83 13 85 15
REMARK SMILES IDX 86 16 87 17 88 18 89 19 94 20 90 21 91 22 93 23 95 24 92 25
REMARK SMILES IDX 10 26 11 27 12 28 13 29 14 30 15 32 16 33 17 34 81 35 18 36
REMARK SMILES IDX 80 37 19 38 20 39 21 40 74 41 22 42 79 43 73 44 75 45 23 46
REMARK SMILES IDX 78 47 72 48 71 49 24 51 58 52 37 53 57 54 38 55 41 56 56 57
REMARK SMILES IDX 76 58 39 59 40 60 55 62 77 63 42 64 25 65 26 66 35 67 27 68
REMARK SMILES IDX 28 69 34 70 36 71 29 72 30 73 31 74 32 75 33 76 59 77 60 78
REMARK SMILES IDX 69 79 61 80 62 81 68 82 70 83 63 84 64 85 65 86 66 87 67 88
REMARK SMILES IDX 43 89 44 90 53 91 45 92 46 93 52 94 54 95 47 96 48 97 49 98
REMARK SMILES IDX 50 99 51 100
REMARK H PARENT 6 7 84 14 13 31 75 50 41 61
REMARK Flexibility Score: inf
ROOT
ATOM      1  C   UNL A   1      37.298  21.847  24.190  1.00  0.00     0.002 C 
ENDROOT
BRANCH   1   2
ATOM      2  C   UNL A   1      36.392  23.042  23.895  1.00  0.00     0.021 C 
BRANCH   2   3
ATOM      3  C   UNL A   1      34.898  22.736  23.969  1.00  0.00     0.116 C 
BRANCH   3   4
ATOM      4  N   UNL A   1      34.665  21.337  24.233  1.00  0.00    -0.356 N 
ATOM      5  C   UNL A   1      33.809  20.717  25.079  1.00  0.00     0.229 C 
ATOM      6  O   UNL A   1      33.945  19.490  25.175  1.00  0.00    -0.275 OA
ATOM      7  H   UNL A   1      35.229  20.726  23.707  1.00  0.00     0.163 HD
BRANCH   5   8
ATOM      8  C   UNL A   1      32.661  21.394  25.819  1.00  0.00     0.142 C 
ATOM      9  C   UNL A   1      34.189  23.029  27.238  1.00  0.00     0.076 C 
ATOM     10  C   UNL A   1      32.821  22.447  26.938  1.00  0.00     0.193 C 
ATOM     11  N   UNL A   1      31.678  23.378  26.793  1.00  0.00    -0.329 N 
ATOM     12  C   UNL A   1      31.565  21.951  24.925  1.00  0.00     0.081 C 
ATOM     13  C   UNL A   1      30.715  22.724  25.919  1.00  0.00     0.263 C 
ATOM     14  H   UNL A   1      31.336  23.517  27.744  1.00  0.00     0.348 HD
BRANCH  11  15
ATOM     15  C   UNL A   1      31.852  24.827  26.595  1.00  0.00     0.304 C 
BRANCH  15  16
ATOM     16  C   UNL A   1      30.893  25.632  25.681  1.00  0.00     0.291 C 
BRANCH  16  17
ATOM     17  O   UNL A   1      30.985  27.061  25.843  1.00  0.00    -0.485 OA
BRANCH  17  18
ATOM     18  C   UNL A   1      31.777  27.711  24.928  1.00  0.00     0.156 A 
ATOM     19  C   UNL A   1      33.127  28.034  25.129  1.00  0.00     0.084 A 
ATOM     20  C   UNL A   1      31.182  28.079  23.710  1.00  0.00     0.084 A 
ATOM     21  Cl  UNL A   1      33.896  27.921  26.675  1.00  0.00    -0.080 Cl
ATOM     22  C   UNL A   1      33.905  28.511  24.066  1.00  0.00     0.024 A 
ATOM     23  C   UNL A   1      31.960  28.549  22.647  1.00  0.00     0.024 A 
ATOM     24  Cl  UNL A   1      29.478  27.911  23.447  1.00  0.00    -0.080 Cl
ATOM     25  C   UNL A   1      33.330  28.729  22.814  1.00  0.00     0.003 A 
ENDBRANCH  17  18
ENDBRANCH  16  17
ENDBRANCH  15  16
ENDBRANCH  11  15
ENDBRANCH   5   8
ENDBRANCH   3   4
ENDBRANCH   2   3
ENDBRANCH   1   2
BRANCH   1  26
ATOM     26  C   UNL A   1      38.011  21.892  25.544  1.00  0.00     0.002 C 
BRANCH  26  27
ATOM     27  C   UNL A   1      38.216  23.286  26.145  1.00  0.00     0.021 C 
BRANCH  27  28
ATOM     28  C   UNL A   1      39.495  23.480  26.958  1.00  0.00     0.116 C 
BRANCH  28  29
ATOM     29  N   UNL A   1      40.603  23.955  26.149  1.00  0.00    -0.352 N 
ATOM     30  C   UNL A   1      41.332  25.111  26.252  1.00  0.00     0.251 C 
ATOM     31  H   UNL A   1      40.873  23.355  25.417  1.00  0.00     0.163 HD
ATOM     32  O   UNL A   1      42.138  25.397  25.366  1.00  0.00    -0.269 OA
BRANCH  30  33
ATOM     33  C   UNL A   1      41.145  26.022  27.401  1.00  0.00     0.039 A 
ATOM     34  C   UNL A   1      42.071  27.051  27.592  1.00  0.00     0.014 A 
ATOM     35  C   UNL A   1      40.093  25.848  28.306  1.00  0.00     0.014 A 
ATOM     36  C   UNL A   1      41.922  27.928  28.667  1.00  0.00     0.010 A 
ATOM     37  C   UNL A   1      39.912  26.761  29.344  1.00  0.00     0.010 A 
ATOM     38  C   UNL A   1      40.830  27.804  29.542  1.00  0.00    -0.014 A 
BRANCH  38  39
ATOM     39  C   UNL A   1      40.655  28.749  30.674  1.00  0.00     0.031 A 
ATOM     40  C   UNL A   1      41.514  28.623  31.903  1.00  0.00     0.074 A 
ATOM     41  C   UNL A   1      39.704  29.700  30.607  1.00  0.00     0.049 A 
ATOM     42  N   UNL A   1      41.499  29.343  32.996  1.00  0.00    -0.248 NA
ATOM     43  C   UNL A   1      42.502  27.534  31.916  1.00  0.00     0.031 C 
ATOM     44  C   UNL A   1      38.777  29.891  29.488  1.00  0.00     0.029 A 
ATOM     45  N   UNL A   1      39.354  30.683  31.498  1.00  0.00    -0.354 N 
ATOM     46  C   UNL A   1      42.466  28.789  33.829  1.00  0.00     0.074 A 
ATOM     47  C   UNL A   1      43.013  27.643  33.135  1.00  0.00     0.031 C 
ATOM     48  C   UNL A   1      37.982  30.941  29.751  1.00  0.00     0.029 A 
ATOM     49  C   UNL A   1      38.323  31.481  31.063  1.00  0.00     0.049 A 
ATOM     50  H   UNL A   1      39.800  30.805  32.367  1.00  0.00     0.167 HD
ATOM     51  C   UNL A   1      42.877  29.210  35.049  1.00  0.00     0.037 A 
ATOM     52  C   UNL A   1      37.721  32.531  31.655  1.00  0.00     0.037 A 
ATOM     53  C   UNL A   1      42.349  30.369  35.722  1.00  0.00     0.049 A 
ATOM     54  C   UNL A   1      38.206  32.990  33.003  1.00  0.00     0.074 A 
ATOM     55  C   UNL A   1      42.741  30.912  36.933  1.00  0.00     0.029 A 
ATOM     56  N   UNL A   1      41.319  31.163  35.241  1.00  0.00    -0.354 N 
ATOM     57  N   UNL A   1      39.166  32.493  33.747  1.00  0.00    -0.248 NA
ATOM     58  C   UNL A   1      37.535  34.159  33.589  1.00  0.00     0.031 C 
ATOM     59  C   UNL A   1      41.923  32.016  37.200  1.00  0.00     0.029 A 
ATOM     60  C   UNL A   1      41.048  32.183  36.139  1.00  0.00     0.049 A 
ATOM     61  H   UNL A   1      40.849  31.021  34.388  1.00  0.00     0.167 HD
ATOM     62  C   UNL A   1      39.225  33.298  34.879  1.00  0.00     0.074 A 
ATOM     63  C   UNL A   1      38.216  34.325  34.714  1.00  0.00     0.031 C 
ATOM     64  C   UNL A   1      40.041  33.197  35.957  1.00  0.00     0.037 A 
BRANCH  51  65
ATOM     65  C   UNL A   1      43.958  28.417  35.730  1.00  0.00     0.058 A 
ATOM     66  C   UNL A   1      43.652  27.378  36.624  1.00  0.00     0.135 A 
ATOM     67  C   UNL A   1      45.311  28.677  35.465  1.00  0.00     0.135 A 
ATOM     68  F   UNL A   1      42.375  27.097  36.924  1.00  0.00    -0.206 F 
ATOM     69  C   UNL A   1      44.652  26.646  37.257  1.00  0.00     0.059 A 
ATOM     70  C   UNL A   1      46.328  27.940  36.068  1.00  0.00     0.059 A 
ATOM     71  F   UNL A   1      45.659  29.658  34.619  1.00  0.00    -0.206 F 
ATOM     72  C   UNL A   1      45.988  26.937  36.975  1.00  0.00     0.060 A 
BRANCH  72  73
ATOM     73  S   UNL A   1      47.274  25.980  37.805  1.00  0.00     0.124 S 
ATOM     74  O   UNL A   1      47.918  25.319  36.674  1.00  0.00    -0.237 OA
ATOM     75  O   UNL A   1      48.061  27.017  38.465  1.00  0.00    -0.237 OA
ATOM     76  O   UNL A   1      46.523  25.104  38.698  1.00  0.00    -0.744 OA
ENDBRANCH  72  73
ENDBRANCH  51  65
BRANCH  52  77
ATOM     77  C   UNL A   1      36.615  33.240  30.961  1.00  0.00     0.058 A 
ATOM     78  C   UNL A   1      36.872  34.093  29.879  1.00  0.00     0.135 A 
ATOM     79  C   UNL A   1      35.279  33.066  31.355  1.00  0.00     0.135 A 
ATOM     80  F   UNL A   1      38.134  34.295  29.469  1.00  0.00    -0.206 F 
ATOM     81  C   UNL A   1      35.847  34.763  29.219  1.00  0.00     0.059 A 
ATOM     82  C   UNL A   1      34.234  33.708  30.697  1.00  0.00     0.059 A 
ATOM     83  F   UNL A   1      34.979  32.247  32.374  1.00  0.00    -0.206 F 
ATOM     84  C   UNL A   1      34.530  34.563  29.635  1.00  0.00     0.060 A 
BRANCH  84  85
ATOM     85  S   UNL A   1      33.200  35.395  28.740  1.00  0.00     0.124 S 
ATOM     86  O   UNL A   1      33.950  36.278  27.855  1.00  0.00    -0.237 OA
ATOM     87  O   UNL A   1      32.514  34.278  28.098  1.00  0.00    -0.237 OA
ATOM     88  O   UNL A   1      32.445  36.054  29.802  1.00  0.00    -0.744 OA
ENDBRANCH  84  85
ENDBRANCH  52  77
BRANCH  64  89
ATOM     89  C   UNL A   1      39.889  34.234  37.033  1.00  0.00     0.058 A 
ATOM     90  C   UNL A   1      40.493  35.497  36.926  1.00  0.00     0.135 A 
ATOM     91  C   UNL A   1      39.098  33.978  38.165  1.00  0.00     0.135 A 
ATOM     92  F   UNL A   1      41.263  35.789  35.866  1.00  0.00    -0.206 F 
ATOM     93  C   UNL A   1      40.335  36.463  37.913  1.00  0.00     0.059 A 
ATOM     94  C   UNL A   1      38.909  34.936  39.153  1.00  0.00     0.059 A 
ATOM     95  F   UNL A   1      38.493  32.788  38.310  1.00  0.00    -0.206 F 
ATOM     96  C   UNL A   1      39.541  36.173  39.025  1.00  0.00     0.060 A 
BRANCH  96  97
ATOM     97  S   UNL A   1      39.320  37.444  40.288  1.00  0.00     0.124 S 
ATOM     98  O   UNL A   1      38.422  38.374  39.613  1.00  0.00    -0.237 OA
ATOM     99  O   UNL A   1      38.736  36.689  41.394  1.00  0.00    -0.237 OA
ATOM    100  O   UNL A   1      40.676  37.932  40.519  1.00  0.00    -0.744 OA
ENDBRANCH  96  97
ENDBRANCH  64  89
ENDBRANCH  38  39
ENDBRANCH  30  33
ENDBRANCH  28  29
ENDBRANCH  27  28
ENDBRANCH  26  27
ENDBRANCH   1  26
TORSDOF 20
ENDMDL
