MODEL 1
REMARK VINA RESULT:     -11.7      0.000      0.000
REMARK SMILES O=C(NCCCCCCNC(=O)[C@@H]1[C@H](C(=O)NCc2ccncc2)[C@H]2C=C[C@@H]1O2)c1ccc(-c2c3nc(c(-c4c(F)cc(S(=O)(=O)[O-])cc4F)c4ccc([nH]4)c(-c4c(F)cc(S(=O)(=O)[O-])cc4F)c4nc(c(-c5c(F)cc(S(=O)(=O)[O-])cc5F)c5ccc2[nH]5)C=C4)C=C3)cc1
REMARK SMILES IDX 6 1 5 2 4 3 3 4 1 5 2 6 30 8 31 9 95 10 32 11 94 12 33 13
REMARK SMILES IDX 34 14 35 15 88 16 36 17 93 18 87 19 89 20 37 21 92 22 86 23
REMARK SMILES IDX 85 24 38 26 72 27 51 28 71 29 52 30 55 31 70 32 90 33 53 34
REMARK SMILES IDX 54 35 69 37 91 38 56 39 39 40 40 41 49 42 41 43 42 44 48 45
REMARK SMILES IDX 50 46 43 47 44 48 45 49 46 50 47 51 73 52 74 53 83 54 75 55
REMARK SMILES IDX 76 56 82 57 84 58 77 59 78 60 79 61 80 62 81 63 57 64 58 65
REMARK SMILES IDX 67 66 59 67 60 68 66 69 68 70 61 71 62 72 63 73 64 74 65 75
REMARK SMILES IDX 7 76 8 77 9 78 10 79 11 80 12 82 13 83 14 84 28 85 25 86
REMARK SMILES IDX 27 87 29 88 26 89 15 90 16 91 17 92 18 94 19 95 20 96 24 97
REMARK SMILES IDX 21 98 23 99 22 100
REMARK H PARENT 3 7 89 25 55 36 10 81 17 93
REMARK Flexibility Score: inf
ROOT
ATOM      1  C   UNL A   1      33.012  28.058  24.810  1.00  0.00     0.002 C 
ENDROOT
BRANCH   1   2
ATOM      2  C   UNL A   1      32.646  27.998  26.292  1.00  0.00     0.021 C 
BRANCH   2   3
ATOM      3  C   UNL A   1      33.748  28.462  27.237  1.00  0.00     0.116 C 
BRANCH   3   4
ATOM      4  N   UNL A   1      33.608  29.863  27.592  1.00  0.00    -0.352 N 
ATOM      5  O   UNL A   1      34.178  31.775  28.650  1.00  0.00    -0.269 OA
ATOM      6  C   UNL A   1      34.516  30.673  28.227  1.00  0.00     0.251 C 
ATOM      7  H   UNL A   1      32.753  30.286  27.347  1.00  0.00     0.163 HD
BRANCH   6   8
ATOM      8  C   UNL A   1      35.903  30.194  28.404  1.00  0.00     0.039 A 
ATOM      9  C   UNL A   1      36.810  30.273  27.342  1.00  0.00     0.014 A 
ATOM     10  C   UNL A   1      36.300  29.671  29.636  1.00  0.00     0.014 A 
ATOM     11  C   UNL A   1      38.082  29.734  27.480  1.00  0.00     0.010 A 
ATOM     12  C   UNL A   1      37.609  29.209  29.800  1.00  0.00     0.010 A 
ATOM     13  C   UNL A   1      38.508  29.236  28.722  1.00  0.00    -0.014 A 
BRANCH  13  14
ATOM     14  C   UNL A   1      39.941  28.899  28.907  1.00  0.00     0.031 A 
ATOM     15  C   UNL A   1      40.496  27.562  28.510  1.00  0.00     0.074 A 
ATOM     16  C   UNL A   1      40.737  29.838  29.460  1.00  0.00     0.049 A 
ATOM     17  N   UNL A   1      41.719  27.115  28.636  1.00  0.00    -0.248 NA
ATOM     18  C   UNL A   1      39.567  26.597  27.900  1.00  0.00     0.031 C 
ATOM     19  C   UNL A   1      40.288  31.163  29.906  1.00  0.00     0.029 A 
ATOM     20  N   UNL A   1      42.077  29.833  29.745  1.00  0.00    -0.354 N 
ATOM     21  C   UNL A   1      41.707  25.816  28.144  1.00  0.00     0.074 A 
ATOM     22  C   UNL A   1      40.349  25.539  27.724  1.00  0.00     0.031 C 
ATOM     23  C   UNL A   1      41.336  31.849  30.380  1.00  0.00     0.029 A 
ATOM     24  C   UNL A   1      42.513  30.993  30.343  1.00  0.00     0.049 A 
ATOM     25  H   UNL A   1      42.669  29.075  29.540  1.00  0.00     0.167 HD
ATOM     26  C   UNL A   1      42.739  24.944  28.056  1.00  0.00     0.037 A 
ATOM     27  C   UNL A   1      43.718  31.319  30.846  1.00  0.00     0.037 A 
ATOM     28  C   UNL A   1      44.090  25.249  28.463  1.00  0.00     0.049 A 
ATOM     29  C   UNL A   1      44.831  30.316  30.758  1.00  0.00     0.074 A 
ATOM     30  C   UNL A   1      45.220  24.457  28.345  1.00  0.00     0.029 A 
ATOM     31  N   UNL A   1      44.491  26.424  29.081  1.00  0.00    -0.354 N 
ATOM     32  N   UNL A   1      44.817  29.120  30.219  1.00  0.00    -0.248 NA
ATOM     33  C   UNL A   1      46.119  30.698  31.350  1.00  0.00     0.031 C 
ATOM     34  C   UNL A   1      46.289  25.127  28.945  1.00  0.00     0.029 A 
ATOM     35  C   UNL A   1      45.840  26.361  29.388  1.00  0.00     0.049 A 
ATOM     36  H   UNL A   1      43.904  27.190  29.272  1.00  0.00     0.167 HD
ATOM     37  C   UNL A   1      46.097  28.611  30.400  1.00  0.00     0.074 A 
ATOM     38  C   UNL A   1      46.866  29.641  31.068  1.00  0.00     0.031 C 
ATOM     39  C   UNL A   1      46.589  27.396  30.055  1.00  0.00     0.037 A 
BRANCH  26  40
ATOM     40  C   UNL A   1      42.475  23.565  27.516  1.00  0.00     0.058 A 
ATOM     41  C   UNL A   1      42.517  23.288  26.141  1.00  0.00     0.135 A 
ATOM     42  C   UNL A   1      42.301  22.484  28.397  1.00  0.00     0.135 A 
ATOM     43  F   UNL A   1      42.667  24.283  25.254  1.00  0.00    -0.206 F 
ATOM     44  C   UNL A   1      42.403  21.986  25.659  1.00  0.00     0.059 A 
ATOM     45  C   UNL A   1      42.206  21.173  27.938  1.00  0.00     0.059 A 
ATOM     46  F   UNL A   1      42.251  22.694  29.721  1.00  0.00    -0.206 F 
ATOM     47  C   UNL A   1      42.259  20.934  26.566  1.00  0.00     0.060 A 
BRANCH  47  48
ATOM     48  S   UNL A   1      42.175  19.248  25.924  1.00  0.00     0.124 S 
ATOM     49  O   UNL A   1      42.682  18.479  27.057  1.00  0.00    -0.237 OA
ATOM     50  O   UNL A   1      40.752  19.094  25.641  1.00  0.00    -0.237 OA
ATOM     51  O   UNL A   1      43.046  19.285  24.752  1.00  0.00    -0.744 OA
ENDBRANCH  47  48
ENDBRANCH  26  40
BRANCH  27  52
ATOM     52  C   UNL A   1      43.914  32.628  31.524  1.00  0.00     0.058 A 
ATOM     53  C   UNL A   1      44.334  33.760  30.814  1.00  0.00     0.135 A 
ATOM     54  C   UNL A   1      43.700  32.765  32.906  1.00  0.00     0.135 A 
ATOM     55  F   UNL A   1      44.554  33.680  29.492  1.00  0.00    -0.206 F 
ATOM     56  C   UNL A   1      44.571  34.973  31.453  1.00  0.00     0.059 A 
ATOM     57  C   UNL A   1      43.894  33.975  33.561  1.00  0.00     0.059 A 
ATOM     58  F   UNL A   1      43.276  31.717  33.630  1.00  0.00    -0.206 F 
ATOM     59  C   UNL A   1      44.351  35.068  32.828  1.00  0.00     0.060 A 
BRANCH  59  60
ATOM     60  S   UNL A   1      44.662  36.645  33.649  1.00  0.00     0.124 S 
ATOM     61  O   UNL A   1      45.397  37.370  32.619  1.00  0.00    -0.237 OA
ATOM     62  O   UNL A   1      43.310  37.121  33.924  1.00  0.00    -0.237 OA
ATOM     63  O   UNL A   1      45.435  36.263  34.828  1.00  0.00    -0.744 OA
ENDBRANCH  59  60
ENDBRANCH  27  52
BRANCH  39  64
ATOM     64  C   UNL A   1      48.029  27.122  30.386  1.00  0.00     0.058 A 
ATOM     65  C   UNL A   1      49.067  27.529  29.532  1.00  0.00     0.135 A 
ATOM     66  C   UNL A   1      48.377  26.481  31.585  1.00  0.00     0.135 A 
ATOM     67  F   UNL A   1      48.786  28.133  28.367  1.00  0.00    -0.206 F 
ATOM     68  C   UNL A   1      50.400  27.289  29.847  1.00  0.00     0.059 A 
ATOM     69  C   UNL A   1      49.705  26.259  31.934  1.00  0.00     0.059 A 
ATOM     70  F   UNL A   1      47.424  26.077  32.439  1.00  0.00    -0.206 F 
ATOM     71  C   UNL A   1      50.709  26.658  31.052  1.00  0.00     0.060 A 
BRANCH  71  72
ATOM     72  S   UNL A   1      52.445  26.389  31.464  1.00  0.00     0.124 S 
ATOM     73  O   UNL A   1      53.065  26.384  30.143  1.00  0.00    -0.237 OA
ATOM     74  O   UNL A   1      52.749  27.546  32.303  1.00  0.00    -0.237 OA
ATOM     75  O   UNL A   1      52.436  25.105  32.158  1.00  0.00    -0.744 OA
ENDBRANCH  71  72
ENDBRANCH  39  64
ENDBRANCH  13  14
ENDBRANCH   6   8
ENDBRANCH   3   4
ENDBRANCH   2   3
ENDBRANCH   1   2
BRANCH   1  76
ATOM     76  C   UNL A   1      32.081  27.280  23.884  1.00  0.00     0.002 C 
BRANCH  76  77
ATOM     77  C   UNL A   1      30.666  27.050  24.419  1.00  0.00     0.021 C 
BRANCH  77  78
ATOM     78  C   UNL A   1      30.164  25.609  24.359  1.00  0.00     0.116 C 
BRANCH  78  79
ATOM     79  N   UNL A   1      30.291  24.930  25.634  1.00  0.00    -0.356 N 
ATOM     80  C   UNL A   1      31.352  24.279  26.182  1.00  0.00     0.227 C 
ATOM     81  H   UNL A   1      29.478  24.941  26.191  1.00  0.00     0.163 HD
ATOM     82  O   UNL A   1      31.309  24.028  27.388  1.00  0.00    -0.275 OA
BRANCH  80  83
ATOM     83  C   UNL A   1      32.603  24.024  25.376  1.00  0.00     0.127 C 
ATOM     84  C   UNL A   1      32.962  22.603  24.889  1.00  0.00     0.127 C 
ATOM     85  C   UNL A   1      33.881  24.388  26.174  1.00  0.00     0.155 C 
ATOM     86  C   UNL A   1      34.397  22.426  25.388  1.00  0.00     0.155 C 
ATOM     87  C   UNL A   1      35.008  24.615  25.207  1.00  0.00     0.004 C 
ATOM     88  O   UNL A   1      34.305  23.089  26.671  1.00  0.00    -0.365 OA
ATOM     89  C   UNL A   1      35.314  23.408  24.706  1.00  0.00     0.004 C 
BRANCH  84  90
ATOM     90  C   UNL A   1      32.103  21.390  25.187  1.00  0.00     0.227 C 
ATOM     91  O   UNL A   1      30.956  21.597  25.615  1.00  0.00    -0.275 OA
ATOM     92  N   UNL A   1      32.425  20.089  25.035  1.00  0.00    -0.352 N 
ATOM     93  H   UNL A   1      31.782  19.483  25.469  1.00  0.00     0.163 HD
BRANCH  92  94
ATOM     94  C   UNL A   1      33.503  19.383  24.375  1.00  0.00     0.151 C 
BRANCH  94  95
ATOM     95  C   UNL A   1      33.630  17.928  24.750  1.00  0.00    -0.026 A 
ATOM     96  C   UNL A   1      34.882  17.309  24.644  1.00  0.00     0.025 A 
ATOM     97  C   UNL A   1      32.547  17.139  25.145  1.00  0.00     0.025 A 
ATOM     98  C   UNL A   1      35.008  15.970  24.981  1.00  0.00     0.111 A 
ATOM     99  C   UNL A   1      32.768  15.799  25.439  1.00  0.00     0.111 A 
ATOM    100  N   UNL A   1      33.974  15.196  25.369  1.00  0.00    -0.265 NA
ENDBRANCH  94  95
ENDBRANCH  92  94
ENDBRANCH  84  90
ENDBRANCH  80  83
ENDBRANCH  78  79
ENDBRANCH  77  78
ENDBRANCH  76  77
ENDBRANCH   1  76
TORSDOF 19
ENDMDL
MODEL 2
REMARK VINA RESULT:     -11.7      4.796      9.623
REMARK SMILES O=C(NCCCCCCNC(=O)[C@@H]1[C@H](C(=O)NCc2ccncc2)[C@H]2C=C[C@@H]1O2)c1ccc(-c2c3nc(c(-c4c(F)cc(S(=O)(=O)[O-])cc4F)c4ccc([nH]4)c(-c4c(F)cc(S(=O)(=O)[O-])cc4F)c4nc(c(-c5c(F)cc(S(=O)(=O)[O-])cc5F)c5ccc2[nH]5)C=C4)C=C3)cc1
REMARK SMILES IDX 6 1 5 2 4 3 3 4 1 5 2 6 30 8 31 9 95 10 32 11 94 12 33 13
REMARK SMILES IDX 34 14 35 15 88 16 36 17 93 18 87 19 89 20 37 21 92 22 86 23
REMARK SMILES IDX 85 24 38 26 72 27 51 28 71 29 52 30 55 31 70 32 90 33 53 34
REMARK SMILES IDX 54 35 69 37 91 38 56 39 39 40 40 41 49 42 41 43 42 44 48 45
REMARK SMILES IDX 50 46 43 47 44 48 45 49 46 50 47 51 73 52 74 53 83 54 75 55
REMARK SMILES IDX 76 56 82 57 84 58 77 59 78 60 79 61 80 62 81 63 57 64 58 65
REMARK SMILES IDX 67 66 59 67 60 68 66 69 68 70 61 71 62 72 63 73 64 74 65 75
REMARK SMILES IDX 7 76 8 77 9 78 10 79 11 80 12 82 13 83 14 84 28 85 25 86
REMARK SMILES IDX 27 87 29 88 26 89 15 90 16 91 17 92 18 94 19 95 20 96 24 97
REMARK SMILES IDX 21 98 23 99 22 100
REMARK H PARENT 3 7 89 25 55 36 10 81 17 93
REMARK Flexibility Score: inf
ROOT
ATOM      1  C   UNL A   1      39.631  22.104  26.326  1.00  0.00     0.002 C 
ENDROOT
BRANCH   1   2
ATOM      2  C   UNL A   1      40.415  22.353  27.614  1.00  0.00     0.021 C 
BRANCH   2   3
ATOM      3  C   UNL A   1      41.706  23.141  27.429  1.00  0.00     0.116 C 
BRANCH   3   4
ATOM      4  N   UNL A   1      41.682  23.953  26.225  1.00  0.00    -0.352 N 
ATOM      5  O   UNL A   1      41.195  25.787  25.001  1.00  0.00    -0.269 OA
ATOM      6  C   UNL A   1      41.381  25.287  26.107  1.00  0.00     0.251 C 
ATOM      7  H   UNL A   1      41.909  23.489  25.388  1.00  0.00     0.163 HD
BRANCH   6   8
ATOM      8  C   UNL A   1      41.274  26.108  27.331  1.00  0.00     0.039 A 
ATOM      9  C   UNL A   1      42.306  26.988  27.675  1.00  0.00     0.014 A 
ATOM     10  C   UNL A   1      40.136  26.005  28.134  1.00  0.00     0.014 A 
ATOM     11  C   UNL A   1      42.247  27.686  28.874  1.00  0.00     0.010 A 
ATOM     12  C   UNL A   1      40.039  26.774  29.296  1.00  0.00     0.010 A 
ATOM     13  C   UNL A   1      41.095  27.619  29.674  1.00  0.00    -0.014 A 
BRANCH  13  14
ATOM     14  C   UNL A   1      40.956  28.559  30.813  1.00  0.00     0.031 A 
ATOM     15  C   UNL A   1      41.807  28.440  32.045  1.00  0.00     0.074 A 
ATOM     16  C   UNL A   1      40.025  29.530  30.712  1.00  0.00     0.049 A 
ATOM     17  N   UNL A   1      41.780  29.171  33.130  1.00  0.00    -0.248 NA
ATOM     18  C   UNL A   1      42.810  27.364  32.073  1.00  0.00     0.031 C 
ATOM     19  C   UNL A   1      39.127  29.716  29.565  1.00  0.00     0.029 A 
ATOM     20  N   UNL A   1      39.671  30.537  31.571  1.00  0.00    -0.354 N 
ATOM     21  C   UNL A   1      42.742  28.636  33.978  1.00  0.00     0.074 A 
ATOM     22  C   UNL A   1      43.332  27.509  33.285  1.00  0.00     0.031 C 
ATOM     23  C   UNL A   1      38.349  30.785  29.781  1.00  0.00     0.029 A 
ATOM     24  C   UNL A   1      38.637  31.316  31.106  1.00  0.00     0.049 A 
ATOM     25  H   UNL A   1      40.115  30.690  32.436  1.00  0.00     0.167 HD
ATOM     26  C   UNL A   1      43.093  29.055  35.217  1.00  0.00     0.037 A 
ATOM     27  C   UNL A   1      37.963  32.320  31.695  1.00  0.00     0.037 A 
ATOM     28  C   UNL A   1      42.505  30.194  35.880  1.00  0.00     0.049 A 
ATOM     29  C   UNL A   1      38.359  32.738  33.081  1.00  0.00     0.074 A 
ATOM     30  C   UNL A   1      42.846  30.741  37.105  1.00  0.00     0.029 A 
ATOM     31  N   UNL A   1      41.449  30.946  35.387  1.00  0.00    -0.354 N 
ATOM     32  N   UNL A   1      39.324  32.268  33.836  1.00  0.00    -0.248 NA
ATOM     33  C   UNL A   1      37.576  33.813  33.701  1.00  0.00     0.031 C 
ATOM     34  C   UNL A   1      41.956  31.784  37.381  1.00  0.00     0.029 A 
ATOM     35  C   UNL A   1      41.098  31.924  36.303  1.00  0.00     0.049 A 
ATOM     36  H   UNL A   1      41.015  30.806  34.515  1.00  0.00     0.167 HD
ATOM     37  C   UNL A   1      39.268  32.997  35.016  1.00  0.00     0.074 A 
ATOM     38  C   UNL A   1      38.197  33.960  34.862  1.00  0.00     0.031 C 
ATOM     39  C   UNL A   1      40.026  32.874  36.133  1.00  0.00     0.037 A 
BRANCH  26  40
ATOM     40  C   UNL A   1      44.149  28.288  35.965  1.00  0.00     0.058 A 
ATOM     41  C   UNL A   1      43.829  27.203  36.796  1.00  0.00     0.135 A 
ATOM     42  C   UNL A   1      45.509  28.567  35.748  1.00  0.00     0.135 A 
ATOM     43  F   UNL A   1      42.546  26.901  37.049  1.00  0.00    -0.206 F 
ATOM     44  C   UNL A   1      44.819  26.418  37.379  1.00  0.00     0.059 A 
ATOM     45  C   UNL A   1      46.516  27.783  36.304  1.00  0.00     0.059 A 
ATOM     46  F   UNL A   1      45.871  29.595  34.965  1.00  0.00    -0.206 F 
ATOM     47  C   UNL A   1      46.160  26.709  37.118  1.00  0.00     0.060 A 
BRANCH  47  48
ATOM     48  S   UNL A   1      47.429  25.640  37.834  1.00  0.00     0.124 S 
ATOM     49  O   UNL A   1      47.146  24.369  37.174  1.00  0.00    -0.237 OA
ATOM     50  O   UNL A   1      48.661  26.305  37.424  1.00  0.00    -0.237 OA
ATOM     51  O   UNL A   1      47.142  25.681  39.265  1.00  0.00    -0.744 OA
ENDBRANCH  47  48
ENDBRANCH  26  40
BRANCH  27  52
ATOM     52  C   UNL A   1      36.813  32.957  31.000  1.00  0.00     0.058 A 
ATOM     53  C   UNL A   1      37.009  33.878  29.962  1.00  0.00     0.135 A 
ATOM     54  C   UNL A   1      35.491  32.666  31.373  1.00  0.00     0.135 A 
ATOM     55  F   UNL A   1      38.254  34.190  29.569  1.00  0.00    -0.206 F 
ATOM     56  C   UNL A   1      35.939  34.517  29.344  1.00  0.00     0.059 A 
ATOM     57  C   UNL A   1      34.404  33.263  30.747  1.00  0.00     0.059 A 
ATOM     58  F   UNL A   1      35.246  31.774  32.347  1.00  0.00    -0.206 F 
ATOM     59  C   UNL A   1      34.639  34.204  29.748  1.00  0.00     0.060 A 
BRANCH  59  60
ATOM     60  S   UNL A   1      33.257  35.038  28.942  1.00  0.00     0.124 S 
ATOM     61  O   UNL A   1      32.810  34.018  28.000  1.00  0.00    -0.237 OA
ATOM     62  O   UNL A   1      32.363  35.308  30.063  1.00  0.00    -0.237 OA
ATOM     63  O   UNL A   1      33.878  36.219  28.347  1.00  0.00    -0.744 OA
ENDBRANCH  59  60
ENDBRANCH  27  52
BRANCH  39  64
ATOM     64  C   UNL A   1      39.729  33.812  37.269  1.00  0.00     0.058 A 
ATOM     65  C   UNL A   1      38.841  33.459  38.297  1.00  0.00     0.135 A 
ATOM     66  C   UNL A   1      40.369  35.059  37.351  1.00  0.00     0.135 A 
ATOM     67  F   UNL A   1      38.194  32.284  38.257  1.00  0.00    -0.206 F 
ATOM     68  C   UNL A   1      38.580  34.321  39.356  1.00  0.00     0.059 A 
ATOM     69  C   UNL A   1      40.146  35.923  38.418  1.00  0.00     0.059 A 
ATOM     70  F   UNL A   1      41.232  35.443  36.397  1.00  0.00    -0.206 F 
ATOM     71  C   UNL A   1      39.240  35.549  39.410  1.00  0.00     0.060 A 
BRANCH  71  72
ATOM     72  S   UNL A   1      38.920  36.640  40.812  1.00  0.00     0.124 S 
ATOM     73  O   UNL A   1      38.435  37.843  40.144  1.00  0.00    -0.237 OA
ATOM     74  O   UNL A   1      37.922  35.889  41.569  1.00  0.00    -0.237 OA
ATOM     75  O   UNL A   1      40.225  36.761  41.455  1.00  0.00    -0.744 OA
ENDBRANCH  71  72
ENDBRANCH  39  64
ENDBRANCH  13  14
ENDBRANCH   6   8
ENDBRANCH   3   4
ENDBRANCH   2   3
ENDBRANCH   1   2
BRANCH   1  76
ATOM     76  C   UNL A   1      38.417  23.007  26.125  1.00  0.00     0.002 C 
BRANCH  76  77
ATOM     77  C   UNL A   1      37.208  22.342  25.463  1.00  0.00     0.021 C 
BRANCH  77  78
ATOM     78  C   UNL A   1      36.199  23.295  24.827  1.00  0.00     0.116 C 
BRANCH  78  79
ATOM     79  N   UNL A   1      35.286  22.609  23.932  1.00  0.00    -0.356 N 
ATOM     80  C   UNL A   1      33.930  22.670  23.844  1.00  0.00     0.227 C 
ATOM     81  H   UNL A   1      35.717  22.004  23.285  1.00  0.00     0.163 HD
ATOM     82  O   UNL A   1      33.402  22.218  22.827  1.00  0.00    -0.275 OA
BRANCH  80  83
ATOM     83  C   UNL A   1      33.120  23.411  24.880  1.00  0.00     0.127 C 
ATOM     84  C   UNL A   1      32.987  22.874  26.322  1.00  0.00     0.127 C 
ATOM     85  C   UNL A   1      31.629  23.518  24.471  1.00  0.00     0.155 C 
ATOM     86  C   UNL A   1      31.472  22.858  26.539  1.00  0.00     0.155 C 
ATOM     87  C   UNL A   1      31.000  24.658  25.221  1.00  0.00     0.004 C 
ATOM     88  O   UNL A   1      31.031  22.430  25.228  1.00  0.00    -0.365 OA
ATOM     89  C   UNL A   1      30.922  24.260  26.501  1.00  0.00     0.004 C 
BRANCH  84  90
ATOM     90  C   UNL A   1      33.641  21.588  26.784  1.00  0.00     0.227 C 
ATOM     91  O   UNL A   1      34.383  21.652  27.778  1.00  0.00    -0.275 OA
ATOM     92  N   UNL A   1      33.510  20.355  26.252  1.00  0.00    -0.352 N 
ATOM     93  H   UNL A   1      34.174  19.717  26.602  1.00  0.00     0.163 HD
BRANCH  92  94
ATOM     94  C   UNL A   1      32.614  19.758  25.284  1.00  0.00     0.151 C 
BRANCH  94  95
ATOM     95  C   UNL A   1      32.955  18.343  24.894  1.00  0.00    -0.026 A 
ATOM     96  C   UNL A   1      32.589  17.298  25.751  1.00  0.00     0.025 A 
ATOM     97  C   UNL A   1      33.675  18.016  23.743  1.00  0.00     0.025 A 
ATOM     98  C   UNL A   1      32.904  15.993  25.404  1.00  0.00     0.111 A 
ATOM     99  C   UNL A   1      33.965  16.680  23.491  1.00  0.00     0.111 A 
ATOM    100  N   UNL A   1      33.593  15.660  24.294  1.00  0.00    -0.265 NA
ENDBRANCH  94  95
ENDBRANCH  92  94
ENDBRANCH  84  90
ENDBRANCH  80  83
ENDBRANCH  78  79
ENDBRANCH  77  78
ENDBRANCH  76  77
ENDBRANCH   1  76
TORSDOF 19
ENDMDL
MODEL 3
REMARK VINA RESULT:     -11.5      3.626      9.023
REMARK SMILES O=C(NCCCCCCNC(=O)[C@@H]1[C@H](C(=O)NCc2ccncc2)[C@H]2C=C[C@@H]1O2)c1ccc(-c2c3nc(c(-c4c(F)cc(S(=O)(=O)[O-])cc4F)c4ccc([nH]4)c(-c4c(F)cc(S(=O)(=O)[O-])cc4F)c4nc(c(-c5c(F)cc(S(=O)(=O)[O-])cc5F)c5ccc2[nH]5)C=C4)C=C3)cc1
REMARK SMILES IDX 6 1 5 2 4 3 3 4 1 5 2 6 30 8 31 9 95 10 32 11 94 12 33 13
REMARK SMILES IDX 34 14 35 15 88 16 36 17 93 18 87 19 89 20 37 21 92 22 86 23
REMARK SMILES IDX 85 24 38 26 72 27 51 28 71 29 52 30 55 31 70 32 90 33 53 34
REMARK SMILES IDX 54 35 69 37 91 38 56 39 39 40 40 41 49 42 41 43 42 44 48 45
REMARK SMILES IDX 50 46 43 47 44 48 45 49 46 50 47 51 73 52 74 53 83 54 75 55
REMARK SMILES IDX 76 56 82 57 84 58 77 59 78 60 79 61 80 62 81 63 57 64 58 65
REMARK SMILES IDX 67 66 59 67 60 68 66 69 68 70 61 71 62 72 63 73 64 74 65 75
REMARK SMILES IDX 7 76 8 77 9 78 10 79 11 80 12 82 13 83 14 84 28 85 25 86
REMARK SMILES IDX 27 87 29 88 26 89 15 90 16 91 17 92 18 94 19 95 20 96 24 97
REMARK SMILES IDX 21 98 23 99 22 100
REMARK H PARENT 3 7 89 25 55 36 10 81 17 93
REMARK Flexibility Score: inf
ROOT
ATOM      1  C   UNL A   1      36.564  21.060  25.369  1.00  0.00     0.002 C 
ENDROOT
BRANCH   1   2
ATOM      2  C   UNL A   1      37.848  20.342  24.960  1.00  0.00     0.021 C 
BRANCH   2   3
ATOM      3  C   UNL A   1      39.087  20.764  25.740  1.00  0.00     0.116 C 
BRANCH   3   4
ATOM      4  N   UNL A   1      40.014  19.661  25.931  1.00  0.00    -0.352 N 
ATOM      5  O   UNL A   1      42.052  18.698  26.064  1.00  0.00    -0.269 OA
ATOM      6  C   UNL A   1      41.371  19.718  26.132  1.00  0.00     0.251 C 
ATOM      7  H   UNL A   1      39.619  18.760  25.913  1.00  0.00     0.163 HD
BRANCH   6   8
ATOM      8  C   UNL A   1      41.999  21.024  26.419  1.00  0.00     0.039 A 
ATOM      9  C   UNL A   1      42.264  21.916  25.375  1.00  0.00     0.014 A 
ATOM     10  C   UNL A   1      42.316  21.362  27.736  1.00  0.00     0.014 A 
ATOM     11  C   UNL A   1      42.941  23.100  25.635  1.00  0.00     0.010 A 
ATOM     12  C   UNL A   1      42.918  22.593  28.007  1.00  0.00     0.010 A 
ATOM     13  C   UNL A   1      43.236  23.470  26.957  1.00  0.00    -0.014 A 
BRANCH  13  14
ATOM     14  C   UNL A   1      43.731  24.842  27.226  1.00  0.00     0.031 A 
ATOM     15  C   UNL A   1      42.829  25.919  27.757  1.00  0.00     0.074 A 
ATOM     16  C   UNL A   1      45.030  25.100  26.965  1.00  0.00     0.049 A 
ATOM     17  N   UNL A   1      43.114  27.170  28.015  1.00  0.00    -0.248 NA
ATOM     18  C   UNL A   1      41.430  25.555  28.030  1.00  0.00     0.031 C 
ATOM     19  C   UNL A   1      45.986  24.127  26.420  1.00  0.00     0.029 A 
ATOM     20  N   UNL A   1      45.774  26.240  27.116  1.00  0.00    -0.354 N 
ATOM     21  C   UNL A   1      41.932  27.750  28.458  1.00  0.00     0.074 A 
ATOM     22  C   UNL A   1      40.919  26.715  28.427  1.00  0.00     0.031 C 
ATOM     23  C   UNL A   1      47.190  24.704  26.310  1.00  0.00     0.029 A 
ATOM     24  C   UNL A   1      47.078  26.102  26.703  1.00  0.00     0.049 A 
ATOM     25  H   UNL A   1      45.410  27.077  27.485  1.00  0.00     0.167 HD
ATOM     26  C   UNL A   1      41.722  29.028  28.853  1.00  0.00     0.037 A 
ATOM     27  C   UNL A   1      48.068  27.009  26.608  1.00  0.00     0.037 A 
ATOM     28  C   UNL A   1      42.752  30.038  28.895  1.00  0.00     0.049 A 
ATOM     29  C   UNL A   1      47.792  28.423  27.026  1.00  0.00     0.074 A 
ATOM     30  C   UNL A   1      42.655  31.342  29.351  1.00  0.00     0.029 A 
ATOM     31  N   UNL A   1      44.056  29.867  28.453  1.00  0.00    -0.354 N 
ATOM     32  N   UNL A   1      46.686  28.934  27.516  1.00  0.00    -0.248 NA
ATOM     33  C   UNL A   1      48.888  29.388  26.874  1.00  0.00     0.031 C 
ATOM     34  C   UNL A   1      43.880  31.977  29.126  1.00  0.00     0.029 A 
ATOM     35  C   UNL A   1      44.759  31.053  28.584  1.00  0.00     0.049 A 
ATOM     36  H   UNL A   1      44.426  29.027  28.099  1.00  0.00     0.167 HD
ATOM     37  C   UNL A   1      46.958  30.277  27.738  1.00  0.00     0.074 A 
ATOM     38  C   UNL A   1      48.340  30.492  27.361  1.00  0.00     0.031 C 
ATOM     39  C   UNL A   1      46.135  31.249  28.201  1.00  0.00     0.037 A 
BRANCH  26  40
ATOM     40  C   UNL A   1      40.335  29.439  29.262  1.00  0.00     0.058 A 
ATOM     41  C   UNL A   1      39.999  29.682  30.603  1.00  0.00     0.135 A 
ATOM     42  C   UNL A   1      39.363  29.713  28.284  1.00  0.00     0.135 A 
ATOM     43  F   UNL A   1      40.883  29.425  31.579  1.00  0.00    -0.206 F 
ATOM     44  C   UNL A   1      38.752  30.188  30.959  1.00  0.00     0.059 A 
ATOM     45  C   UNL A   1      38.118  30.239  28.615  1.00  0.00     0.059 A 
ATOM     46  F   UNL A   1      39.631  29.496  26.988  1.00  0.00    -0.206 F 
ATOM     47  C   UNL A   1      37.822  30.475  29.957  1.00  0.00     0.060 A 
BRANCH  47  48
ATOM     48  S   UNL A   1      36.233  31.190  30.434  1.00  0.00     0.124 S 
ATOM     49  O   UNL A   1      35.838  30.314  31.534  1.00  0.00    -0.237 OA
ATOM     50  O   UNL A   1      36.606  32.549  30.811  1.00  0.00    -0.237 OA
ATOM     51  O   UNL A   1      35.428  31.075  29.221  1.00  0.00    -0.744 OA
ENDBRANCH  47  48
ENDBRANCH  26  40
BRANCH  27  52
ATOM     52  C   UNL A   1      49.388  26.618  26.045  1.00  0.00     0.058 A 
ATOM     53  C   UNL A   1      50.365  26.003  26.840  1.00  0.00     0.135 A 
ATOM     54  C   UNL A   1      49.703  26.867  24.699  1.00  0.00     0.135 A 
ATOM     55  F   UNL A   1      50.113  25.744  28.133  1.00  0.00    -0.206 F 
ATOM     56  C   UNL A   1      51.620  25.684  26.332  1.00  0.00     0.059 A 
ATOM     57  C   UNL A   1      50.936  26.525  24.159  1.00  0.00     0.059 A 
ATOM     58  F   UNL A   1      48.795  27.434  23.888  1.00  0.00    -0.206 F 
ATOM     59  C   UNL A   1      51.896  25.953  24.991  1.00  0.00     0.060 A 
BRANCH  59  60
ATOM     60  S   UNL A   1      53.528  25.536  24.341  1.00  0.00     0.124 S 
ATOM     61  O   UNL A   1      54.389  26.401  25.139  1.00  0.00    -0.237 OA
ATOM     62  O   UNL A   1      53.617  24.108  24.624  1.00  0.00    -0.237 OA
ATOM     63  O   UNL A   1      53.423  25.881  22.925  1.00  0.00    -0.744 OA
ENDBRANCH  59  60
ENDBRANCH  27  52
BRANCH  39  64
ATOM     64  C   UNL A   1      46.714  32.630  28.335  1.00  0.00     0.058 A 
ATOM     65  C   UNL A   1      47.380  33.035  29.504  1.00  0.00     0.135 A 
ATOM     66  C   UNL A   1      46.637  33.543  27.272  1.00  0.00     0.135 A 
ATOM     67  F   UNL A   1      47.468  32.203  30.553  1.00  0.00    -0.206 F 
ATOM     68  C   UNL A   1      47.929  34.306  29.620  1.00  0.00     0.059 A 
ATOM     69  C   UNL A   1      47.206  34.809  27.357  1.00  0.00     0.059 A 
ATOM     70  F   UNL A   1      46.016  33.204  26.131  1.00  0.00    -0.206 F 
ATOM     71  C   UNL A   1      47.841  35.185  28.540  1.00  0.00     0.060 A 
BRANCH  71  72
ATOM     72  S   UNL A   1      48.593  36.818  28.693  1.00  0.00     0.124 S 
ATOM     73  O   UNL A   1      47.841  37.386  29.807  1.00  0.00    -0.237 OA
ATOM     74  O   UNL A   1      49.990  36.494  28.971  1.00  0.00    -0.237 OA
ATOM     75  O   UNL A   1      48.346  37.431  27.392  1.00  0.00    -0.744 OA
ENDBRANCH  71  72
ENDBRANCH  39  64
ENDBRANCH  13  14
ENDBRANCH   6   8
ENDBRANCH   3   4
ENDBRANCH   2   3
ENDBRANCH   1   2
BRANCH   1  76
ATOM     76  C   UNL A   1      36.268  22.343  24.596  1.00  0.00     0.002 C 
BRANCH  76  77
ATOM     77  C   UNL A   1      36.353  23.634  25.411  1.00  0.00     0.021 C 
BRANCH  77  78
ATOM     78  C   UNL A   1      35.016  24.290  25.749  1.00  0.00     0.116 C 
BRANCH  78  79
ATOM     79  N   UNL A   1      34.365  24.843  24.576  1.00  0.00    -0.356 N 
ATOM     80  C   UNL A   1      33.655  25.994  24.426  1.00  0.00     0.227 C 
ATOM     81  H   UNL A   1      34.449  24.298  23.760  1.00  0.00     0.163 HD
ATOM     82  O   UNL A   1      33.442  26.388  23.278  1.00  0.00    -0.275 OA
BRANCH  80  83
ATOM     83  C   UNL A   1      33.289  26.839  25.622  1.00  0.00     0.127 C 
ATOM     84  C   UNL A   1      31.813  27.121  25.977  1.00  0.00     0.127 C 
ATOM     85  C   UNL A   1      33.838  28.283  25.491  1.00  0.00     0.155 C 
ATOM     86  C   UNL A   1      31.778  28.647  26.091  1.00  0.00     0.155 C 
ATOM     87  C   UNL A   1      33.909  28.900  26.859  1.00  0.00     0.004 C 
ATOM     88  O   UNL A   1      32.671  29.004  25.010  1.00  0.00    -0.365 OA
ATOM     89  C   UNL A   1      32.639  29.106  27.239  1.00  0.00     0.004 C 
BRANCH  84  90
ATOM     90  C   UNL A   1      30.654  26.586  25.160  1.00  0.00     0.227 C 
ATOM     91  O   UNL A   1      30.216  27.310  24.251  1.00  0.00    -0.275 OA
ATOM     92  N   UNL A   1      30.030  25.397  25.287  1.00  0.00    -0.352 N 
ATOM     93  H   UNL A   1      29.190  25.350  24.775  1.00  0.00     0.163 HD
BRANCH  92  94
ATOM     94  C   UNL A   1      30.318  24.173  26.006  1.00  0.00     0.151 C 
BRANCH  94  95
ATOM     95  C   UNL A   1      31.171  23.182  25.255  1.00  0.00    -0.026 A 
ATOM     96  C   UNL A   1      31.904  22.235  25.980  1.00  0.00     0.025 A 
ATOM     97  C   UNL A   1      31.319  23.195  23.866  1.00  0.00     0.025 A 
ATOM     98  C   UNL A   1      32.696  21.324  25.299  1.00  0.00     0.111 A 
ATOM     99  C   UNL A   1      32.155  22.255  23.274  1.00  0.00     0.111 A 
ATOM    100  N   UNL A   1      32.845  21.318  23.958  1.00  0.00    -0.265 NA
ENDBRANCH  94  95
ENDBRANCH  92  94
ENDBRANCH  84  90
ENDBRANCH  80  83
ENDBRANCH  78  79
ENDBRANCH  77  78
ENDBRANCH  76  77
ENDBRANCH   1  76
TORSDOF 19
ENDMDL
