MODEL 1
REMARK VINA RESULT:     -12.7      0.000      0.000
REMARK SMILES O=C(NCCCCCCNC(=O)c1cccc(-c2cc(NCc3ccccn3)nc3[nH]ccc23)c1)c1ccc(-c2c3nc(c(-c4c(F)cc(S(=O)(=O)[O-])cc4F)c4ccc([nH]4)c(-c4c(F)cc(S(=O)(=O)[O-])cc4F)c4nc(c(-c5c(F)cc(S(=O)(=O)[O-])cc5F)c5ccc2[nH]5)C=C4)C=C3)cc1
REMARK SMILES IDX 7 1 6 2 5 3 4 4 3 5 1 6 2 7 36 9 37 10 101 11 38 12 100 13
REMARK SMILES IDX 39 14 40 15 41 16 94 17 42 18 99 19 93 20 95 21 43 22 98 23
REMARK SMILES IDX 92 24 91 25 44 27 78 28 57 29 77 30 58 31 61 32 76 33 96 34
REMARK SMILES IDX 59 35 60 36 75 38 97 39 62 40 45 41 46 42 55 43 47 44 48 45
REMARK SMILES IDX 54 46 56 47 49 48 50 49 51 50 52 51 53 52 79 53 80 54 89 55
REMARK SMILES IDX 81 56 82 57 88 58 90 59 83 60 84 61 85 62 86 63 87 64 63 65
REMARK SMILES IDX 64 66 73 67 65 68 66 69 72 70 74 71 67 72 68 73 69 74 70 75
REMARK SMILES IDX 71 76 8 77 9 78 10 79 11 80 12 82 13 83 14 84 35 85 15 86
REMARK SMILES IDX 17 87 16 88 18 89 19 90 34 91 20 92 30 93 33 94 29 95 31 96
REMARK SMILES IDX 32 97 21 99 22 101 23 102 24 103 28 104 25 105 27 106 26 107
REMARK H PARENT 3 8 95 26 61 37 10 81 31 98 21 100
REMARK Flexibility Score: inf
ROOT
ATOM      1  C   UNL A   1      39.746  21.982  26.459  1.00  0.00     0.002 C 
ENDROOT
BRANCH   1   2
ATOM      2  C   UNL A   1      41.240  21.674  26.580  1.00  0.00     0.002 C 
BRANCH   2   3
ATOM      3  C   UNL A   1      41.919  22.157  27.861  1.00  0.00     0.021 C 
BRANCH   3   4
ATOM      4  C   UNL A   1      43.017  23.194  27.670  1.00  0.00     0.116 C 
BRANCH   4   5
ATOM      5  N   UNL A   1      42.924  23.902  26.403  1.00  0.00    -0.352 N 
ATOM      6  O   UNL A   1      42.350  25.587  25.014  1.00  0.00    -0.269 OA
ATOM      7  C   UNL A   1      42.478  25.183  26.167  1.00  0.00     0.251 C 
ATOM      8  H   UNL A   1      43.219  23.399  25.611  1.00  0.00     0.163 HD
BRANCH   7   9
ATOM      9  C   UNL A   1      42.122  26.059  27.308  1.00  0.00     0.039 A 
ATOM     10  C   UNL A   1      42.875  27.201  27.587  1.00  0.00     0.014 A 
ATOM     11  C   UNL A   1      41.030  25.727  28.115  1.00  0.00     0.014 A 
ATOM     12  C   UNL A   1      42.631  27.921  28.751  1.00  0.00     0.010 A 
ATOM     13  C   UNL A   1      40.728  26.507  29.238  1.00  0.00     0.010 A 
ATOM     14  C   UNL A   1      41.545  27.593  29.583  1.00  0.00    -0.014 A 
BRANCH  14  15
ATOM     15  C   UNL A   1      41.264  28.460  30.758  1.00  0.00     0.031 A 
ATOM     16  C   UNL A   1      42.130  28.429  31.987  1.00  0.00     0.074 A 
ATOM     17  C   UNL A   1      40.242  29.335  30.670  1.00  0.00     0.049 A 
ATOM     18  N   UNL A   1      42.061  29.181  33.058  1.00  0.00    -0.248 NA
ATOM     19  C   UNL A   1      43.205  27.426  32.031  1.00  0.00     0.031 C 
ATOM     20  C   UNL A   1      39.314  29.431  29.539  1.00  0.00     0.029 A 
ATOM     21  N   UNL A   1      39.831  30.328  31.520  1.00  0.00    -0.354 N 
ATOM     22  C   UNL A   1      43.073  28.741  33.903  1.00  0.00     0.074 A 
ATOM     23  C   UNL A   1      43.725  27.635  33.233  1.00  0.00     0.031 C 
ATOM     24  C   UNL A   1      38.483  30.464  29.736  1.00  0.00     0.029 A 
ATOM     25  C   UNL A   1      38.783  31.070  31.029  1.00  0.00     0.049 A 
ATOM     26  H   UNL A   1      40.245  30.495  32.397  1.00  0.00     0.167 HD
ATOM     27  C   UNL A   1      43.430  29.224  35.119  1.00  0.00     0.037 A 
ATOM     28  C   UNL A   1      38.128  32.120  31.558  1.00  0.00     0.037 A 
ATOM     29  C   UNL A   1      42.780  30.332  35.774  1.00  0.00     0.049 A 
ATOM     30  C   UNL A   1      38.561  32.647  32.894  1.00  0.00     0.074 A 
ATOM     31  C   UNL A   1      43.069  30.895  37.007  1.00  0.00     0.029 A 
ATOM     32  N   UNL A   1      41.715  31.051  35.251  1.00  0.00    -0.354 N 
ATOM     33  N   UNL A   1      39.529  32.222  33.671  1.00  0.00    -0.248 NA
ATOM     34  C   UNL A   1      37.816  33.795  33.425  1.00  0.00     0.031 C 
ATOM     35  C   UNL A   1      42.163  31.938  37.238  1.00  0.00     0.029 A 
ATOM     36  C   UNL A   1      41.333  32.047  36.134  1.00  0.00     0.049 A 
ATOM     37  H   UNL A   1      41.293  30.877  34.378  1.00  0.00     0.167 HD
ATOM     38  C   UNL A   1      39.504  33.047  34.787  1.00  0.00     0.074 A 
ATOM     39  C   UNL A   1      38.452  34.019  34.567  1.00  0.00     0.031 C 
ATOM     40  C   UNL A   1      40.273  32.995  35.903  1.00  0.00     0.037 A 
BRANCH  27  41
ATOM     41  C   UNL A   1      44.580  28.561  35.828  1.00  0.00     0.058 A 
ATOM     42  C   UNL A   1      44.368  27.564  36.794  1.00  0.00     0.135 A 
ATOM     43  C   UNL A   1      45.907  28.876  35.495  1.00  0.00     0.135 A 
ATOM     44  F   UNL A   1      43.119  27.233  37.160  1.00  0.00    -0.206 F 
ATOM     45  C   UNL A   1      45.430  26.915  37.415  1.00  0.00     0.059 A 
ATOM     46  C   UNL A   1      46.986  28.224  36.089  1.00  0.00     0.059 A 
ATOM     47  F   UNL A   1      46.168  29.820  34.577  1.00  0.00    -0.206 F 
ATOM     48  C   UNL A   1      46.736  27.251  37.056  1.00  0.00     0.060 A 
BRANCH  48  49
ATOM     49  S   UNL A   1      48.102  26.383  37.859  1.00  0.00     0.124 S 
ATOM     50  O   UNL A   1      47.974  25.045  37.287  1.00  0.00    -0.237 OA
ATOM     51  O   UNL A   1      49.263  27.148  37.417  1.00  0.00    -0.237 OA
ATOM     52  O   UNL A   1      47.787  26.492  39.279  1.00  0.00    -0.744 OA
ENDBRANCH  48  49
ENDBRANCH  27  41
BRANCH  28  53
ATOM     53  C   UNL A   1      36.991  32.725  30.820  1.00  0.00     0.058 A 
ATOM     54  C   UNL A   1      35.663  32.405  31.139  1.00  0.00     0.135 A 
ATOM     55  C   UNL A   1      37.212  33.659  29.796  1.00  0.00     0.135 A 
ATOM     56  F   UNL A   1      35.401  31.517  32.110  1.00  0.00    -0.206 F 
ATOM     57  C   UNL A   1      34.594  32.979  30.458  1.00  0.00     0.059 A 
ATOM     58  C   UNL A   1      36.161  34.266  29.120  1.00  0.00     0.059 A 
ATOM     59  F   UNL A   1      38.465  34.012  29.469  1.00  0.00    -0.206 F 
ATOM     60  C   UNL A   1      34.854  33.908  29.449  1.00  0.00     0.060 A 
BRANCH  60  61
ATOM     61  S   UNL A   1      33.465  34.690  28.602  1.00  0.00     0.124 S 
ATOM     62  O   UNL A   1      34.109  35.849  27.997  1.00  0.00    -0.237 OA
ATOM     63  O   UNL A   1      33.032  33.645  27.681  1.00  0.00    -0.237 OA
ATOM     64  O   UNL A   1      32.534  34.979  29.689  1.00  0.00    -0.744 OA
ENDBRANCH  60  61
ENDBRANCH  28  53
BRANCH  40  65
ATOM     65  C   UNL A   1      39.993  34.023  36.962  1.00  0.00     0.058 A 
ATOM     66  C   UNL A   1      40.610  35.283  36.934  1.00  0.00     0.135 A 
ATOM     67  C   UNL A   1      39.107  33.746  38.012  1.00  0.00     0.135 A 
ATOM     68  F   UNL A   1      41.472  35.594  35.953  1.00  0.00    -0.206 F 
ATOM     69  C   UNL A   1      40.385  36.223  37.935  1.00  0.00     0.059 A 
ATOM     70  C   UNL A   1      38.849  34.679  39.012  1.00  0.00     0.059 A 
ATOM     71  F   UNL A   1      38.485  32.557  38.078  1.00  0.00    -0.206 F 
ATOM     72  C   UNL A   1      39.509  35.907  38.974  1.00  0.00     0.060 A 
BRANCH  72  73
ATOM     73  S   UNL A   1      39.227  37.128  40.274  1.00  0.00     0.124 S 
ATOM     74  O   UNL A   1      40.593  37.477  40.647  1.00  0.00    -0.237 OA
ATOM     75  O   UNL A   1      38.475  38.167  39.575  1.00  0.00    -0.237 OA
ATOM     76  O   UNL A   1      38.471  36.384  41.276  1.00  0.00    -0.744 OA
ENDBRANCH  72  73
ENDBRANCH  40  65
ENDBRANCH  14  15
ENDBRANCH   7   9
ENDBRANCH   4   5
ENDBRANCH   3   4
ENDBRANCH   2   3
ENDBRANCH   1   2
BRANCH   1  77
ATOM     77  C   UNL A   1      39.328  23.428  26.750  1.00  0.00     0.021 C 
BRANCH  77  78
ATOM     78  C   UNL A   1      37.927  23.818  26.280  1.00  0.00     0.116 C 
BRANCH  78  79
ATOM     79  N   UNL A   1      37.639  23.320  24.945  1.00  0.00    -0.352 N 
ATOM     80  C   UNL A   1      36.428  23.164  24.321  1.00  0.00     0.251 C 
ATOM     81  H   UNL A   1      38.425  23.060  24.412  1.00  0.00     0.163 HD
ATOM     82  O   UNL A   1      36.356  22.576  23.246  1.00  0.00    -0.269 OA
BRANCH  80  83
ATOM     83  C   UNL A   1      35.198  23.692  24.948  1.00  0.00     0.040 A 
ATOM     84  C   UNL A   1      34.511  22.894  25.863  1.00  0.00     0.014 A 
ATOM     85  C   UNL A   1      34.708  24.957  24.605  1.00  0.00     0.022 A 
ATOM     86  C   UNL A   1      33.357  23.383  26.470  1.00  0.00     0.001 A 
ATOM     87  C   UNL A   1      33.561  25.475  25.225  1.00  0.00    -0.017 A 
ATOM     88  C   UNL A   1      32.891  24.665  26.157  1.00  0.00     0.009 A 
BRANCH  87  89
ATOM     89  C   UNL A   1      33.097  26.828  24.901  1.00  0.00    -0.004 A 
ATOM     90  C   UNL A   1      32.262  27.096  23.801  1.00  0.00     0.056 A 
ATOM     91  C   UNL A   1      33.524  27.945  25.647  1.00  0.00     0.027 A 
ATOM     92  C   UNL A   1      31.883  28.400  23.475  1.00  0.00     0.129 A 
ATOM     93  C   UNL A   1      33.056  29.189  25.241  1.00  0.00     0.140 A 
ATOM     94  C   UNL A   1      34.382  28.184  26.762  1.00  0.00     0.030 A 
ATOM     95  N   UNL A   1      32.241  29.465  24.212  1.00  0.00    -0.213 NA
ATOM     96  N   UNL A   1      33.592  30.139  26.067  1.00  0.00    -0.346 N 
ATOM     97  C   UNL A   1      34.402  29.543  26.999  1.00  0.00     0.085 A 
ATOM     98  H   UNL A   1      33.422  31.107  26.002  1.00  0.00     0.167 HD
BRANCH  92  99
ATOM     99  N   UNL A   1      31.070  28.568  22.359  1.00  0.00    -0.364 N 
ATOM    100  H   UNL A   1      31.477  28.703  21.472  1.00  0.00     0.162 HD
BRANCH  99 101
ATOM    101  C   UNL A   1      29.620  28.546  22.498  1.00  0.00     0.170 C 
BRANCH 101 102
ATOM    102  C   UNL A   1      29.043  29.945  22.315  1.00  0.00     0.059 A 
ATOM    103  C   UNL A   1      28.827  30.744  23.437  1.00  0.00     0.026 A 
ATOM    104  N   UNL A   1      28.744  30.363  21.050  1.00  0.00    -0.259 NA
ATOM    105  C   UNL A   1      28.319  32.028  23.261  1.00  0.00     0.004 A 
ATOM    106  C   UNL A   1      28.268  31.622  20.916  1.00  0.00     0.111 A 
ATOM    107  C   UNL A   1      28.040  32.480  21.978  1.00  0.00     0.020 A 
ENDBRANCH 101 102
ENDBRANCH  99 101
ENDBRANCH  92  99
ENDBRANCH  87  89
ENDBRANCH  80  83
ENDBRANCH  78  79
ENDBRANCH  77  78
ENDBRANCH   1  77
TORSDOF 20
ENDMDL
MODEL 2
REMARK VINA RESULT:     -12.2      6.371     12.221
REMARK SMILES O=C(NCCCCCCNC(=O)c1cccc(-c2cc(NCc3ccccn3)nc3[nH]ccc23)c1)c1ccc(-c2c3nc(c(-c4c(F)cc(S(=O)(=O)[O-])cc4F)c4ccc([nH]4)c(-c4c(F)cc(S(=O)(=O)[O-])cc4F)c4nc(c(-c5c(F)cc(S(=O)(=O)[O-])cc5F)c5ccc2[nH]5)C=C4)C=C3)cc1
REMARK SMILES IDX 7 1 6 2 5 3 4 4 3 5 1 6 2 7 36 9 37 10 101 11 38 12 100 13
REMARK SMILES IDX 39 14 40 15 41 16 94 17 42 18 99 19 93 20 95 21 43 22 98 23
REMARK SMILES IDX 92 24 91 25 44 27 78 28 57 29 77 30 58 31 61 32 76 33 96 34
REMARK SMILES IDX 59 35 60 36 75 38 97 39 62 40 45 41 46 42 55 43 47 44 48 45
REMARK SMILES IDX 54 46 56 47 49 48 50 49 51 50 52 51 53 52 79 53 80 54 89 55
REMARK SMILES IDX 81 56 82 57 88 58 90 59 83 60 84 61 85 62 86 63 87 64 63 65
REMARK SMILES IDX 64 66 73 67 65 68 66 69 72 70 74 71 67 72 68 73 69 74 70 75
REMARK SMILES IDX 71 76 8 77 9 78 10 79 11 80 12 82 13 83 14 84 35 85 15 86
REMARK SMILES IDX 17 87 16 88 18 89 19 90 34 91 20 92 30 93 33 94 29 95 31 96
REMARK SMILES IDX 32 97 21 99 22 101 23 102 24 103 28 104 25 105 27 106 26 107
REMARK H PARENT 3 8 95 26 61 37 10 81 31 98 21 100
REMARK Flexibility Score: inf
ROOT
ATOM      1  C   UNL A   1      31.771  28.355  26.964  1.00  0.00     0.002 C 
ENDROOT
BRANCH   1   2
ATOM      2  C   UNL A   1      33.266  28.249  27.270  1.00  0.00     0.002 C 
BRANCH   2   3
ATOM      3  C   UNL A   1      34.065  29.546  27.155  1.00  0.00     0.021 C 
BRANCH   3   4
ATOM      4  C   UNL A   1      35.420  29.546  27.849  1.00  0.00     0.116 C 
BRANCH   4   5
ATOM      5  N   UNL A   1      35.372  30.077  29.202  1.00  0.00    -0.352 N 
ATOM      6  O   UNL A   1      36.171  30.596  31.248  1.00  0.00    -0.269 OA
ATOM      7  C   UNL A   1      36.406  30.244  30.096  1.00  0.00     0.251 C 
ATOM      8  H   UNL A   1      34.483  30.354  29.520  1.00  0.00     0.163 HD
BRANCH   7   9
ATOM      9  C   UNL A   1      37.797  29.966  29.670  1.00  0.00     0.039 A 
ATOM     10  C   UNL A   1      38.168  30.094  28.331  1.00  0.00     0.014 A 
ATOM     11  C   UNL A   1      38.739  29.560  30.621  1.00  0.00     0.014 A 
ATOM     12  C   UNL A   1      39.429  29.675  27.920  1.00  0.00     0.010 A 
ATOM     13  C   UNL A   1      40.037  29.223  30.219  1.00  0.00     0.010 A 
ATOM     14  C   UNL A   1      40.384  29.249  28.860  1.00  0.00    -0.014 A 
BRANCH  14  15
ATOM     15  C   UNL A   1      41.751  28.913  28.381  1.00  0.00     0.031 A 
ATOM     16  C   UNL A   1      42.860  29.929  28.380  1.00  0.00     0.074 A 
ATOM     17  C   UNL A   1      41.997  27.641  28.006  1.00  0.00     0.049 A 
ATOM     18  N   UNL A   1      44.122  29.765  28.069  1.00  0.00    -0.248 NA
ATOM     19  C   UNL A   1      42.514  31.306  28.767  1.00  0.00     0.031 C 
ATOM     20  C   UNL A   1      40.989  26.578  27.935  1.00  0.00     0.029 A 
ATOM     21  N   UNL A   1      43.162  27.017  27.649  1.00  0.00    -0.354 N 
ATOM     22  C   UNL A   1      44.720  31.011  28.215  1.00  0.00     0.074 A 
ATOM     23  C   UNL A   1      43.675  31.931  28.615  1.00  0.00     0.031 C 
ATOM     24  C   UNL A   1      41.589  25.423  27.618  1.00  0.00     0.029 A 
ATOM     25  C   UNL A   1      43.011  25.671  27.411  1.00  0.00     0.049 A 
ATOM     26  H   UNL A   1      44.024  27.485  27.570  1.00  0.00     0.167 HD
ATOM     27  C   UNL A   1      46.021  31.352  28.042  1.00  0.00     0.037 A 
ATOM     28  C   UNL A   1      43.914  24.736  27.060  1.00  0.00     0.037 A 
ATOM     29  C   UNL A   1      47.056  30.427  27.653  1.00  0.00     0.049 A 
ATOM     30  C   UNL A   1      45.350  25.137  26.900  1.00  0.00     0.074 A 
ATOM     31  C   UNL A   1      48.404  30.676  27.452  1.00  0.00     0.029 A 
ATOM     32  N   UNL A   1      46.863  29.074  27.410  1.00  0.00    -0.354 N 
ATOM     33  N   UNL A   1      45.895  26.321  27.054  1.00  0.00    -0.248 NA
ATOM     34  C   UNL A   1      46.294  24.080  26.519  1.00  0.00     0.031 C 
ATOM     35  C   UNL A   1      49.020  29.479  27.065  1.00  0.00     0.029 A 
ATOM     36  C   UNL A   1      48.063  28.478  27.059  1.00  0.00     0.049 A 
ATOM     37  H   UNL A   1      45.999  28.608  27.478  1.00  0.00     0.167 HD
ATOM     38  C   UNL A   1      47.246  26.151  26.782  1.00  0.00     0.074 A 
ATOM     39  C   UNL A   1      47.441  24.745  26.492  1.00  0.00     0.031 C 
ATOM     40  C   UNL A   1      48.234  27.079  26.759  1.00  0.00     0.037 A 
BRANCH  27  41
ATOM     41  C   UNL A   1      46.408  32.787  28.275  1.00  0.00     0.058 A 
ATOM     42  C   UNL A   1      46.342  33.740  27.245  1.00  0.00     0.135 A 
ATOM     43  C   UNL A   1      46.787  33.232  29.552  1.00  0.00     0.135 A 
ATOM     44  F   UNL A   1      45.998  33.367  26.002  1.00  0.00    -0.206 F 
ATOM     45  C   UNL A   1      46.651  35.077  27.469  1.00  0.00     0.059 A 
ATOM     46  C   UNL A   1      47.082  34.571  29.804  1.00  0.00     0.059 A 
ATOM     47  F   UNL A   1      46.866  32.364  30.573  1.00  0.00    -0.206 F 
ATOM     48  C   UNL A   1      47.020  35.484  28.752  1.00  0.00     0.060 A 
BRANCH  48  49
ATOM     49  S   UNL A   1      47.400  37.228  29.029  1.00  0.00     0.124 S 
ATOM     50  O   UNL A   1      48.860  37.220  28.980  1.00  0.00    -0.237 OA
ATOM     51  O   UNL A   1      46.735  37.877  27.905  1.00  0.00    -0.237 OA
ATOM     52  O   UNL A   1      46.818  37.499  30.340  1.00  0.00    -0.744 OA
ENDBRANCH  48  49
ENDBRANCH  27  41
BRANCH  28  53
ATOM     53  C   UNL A   1      43.472  23.337  26.829  1.00  0.00     0.058 A 
ATOM     54  C   UNL A   1      43.386  22.805  25.535  1.00  0.00     0.135 A 
ATOM     55  C   UNL A   1      43.153  22.496  27.906  1.00  0.00     0.135 A 
ATOM     56  F   UNL A   1      43.680  23.571  24.473  1.00  0.00    -0.206 F 
ATOM     57  C   UNL A   1      42.984  21.492  25.314  1.00  0.00     0.059 A 
ATOM     58  C   UNL A   1      42.776  21.173  27.714  1.00  0.00     0.059 A 
ATOM     59  F   UNL A   1      43.241  22.954  29.165  1.00  0.00    -0.206 F 
ATOM     60  C   UNL A   1      42.680  20.684  26.412  1.00  0.00     0.060 A 
BRANCH  60  61
ATOM     61  S   UNL A   1      42.209  18.964  26.127  1.00  0.00     0.124 S 
ATOM     62  O   UNL A   1      42.501  18.365  27.423  1.00  0.00    -0.237 OA
ATOM     63  O   UNL A   1      40.796  19.081  25.781  1.00  0.00    -0.237 OA
ATOM     64  O   UNL A   1      43.082  18.558  25.029  1.00  0.00    -0.744 OA
ENDBRANCH  60  61
ENDBRANCH  28  53
BRANCH  40  65
ATOM     65  C   UNL A   1      49.609  26.589  26.405  1.00  0.00     0.058 A 
ATOM     66  C   UNL A   1      50.428  25.966  27.360  1.00  0.00     0.135 A 
ATOM     67  C   UNL A   1      50.114  26.747  25.107  1.00  0.00     0.135 A 
ATOM     68  F   UNL A   1      49.993  25.799  28.619  1.00  0.00    -0.206 F 
ATOM     69  C   UNL A   1      51.718  25.548  27.048  1.00  0.00     0.059 A 
ATOM     70  C   UNL A   1      51.392  26.316  24.766  1.00  0.00     0.059 A 
ATOM     71  F   UNL A   1      49.366  27.329  24.156  1.00  0.00    -0.206 F 
ATOM     72  C   UNL A   1      52.193  25.735  25.749  1.00  0.00     0.060 A 
BRANCH  72  73
ATOM     73  S   UNL A   1      53.870  25.197  25.353  1.00  0.00     0.124 S 
ATOM     74  O   UNL A   1      53.978  25.584  23.951  1.00  0.00    -0.237 OA
ATOM     75  O   UNL A   1      54.680  25.972  26.289  1.00  0.00    -0.237 OA
ATOM     76  O   UNL A   1      53.832  23.761  25.609  1.00  0.00    -0.744 OA
ENDBRANCH  72  73
ENDBRANCH  40  65
ENDBRANCH  14  15
ENDBRANCH   7   9
ENDBRANCH   4   5
ENDBRANCH   3   4
ENDBRANCH   2   3
ENDBRANCH   1   2
BRANCH   1  77
ATOM     77  C   UNL A   1      31.245  27.455  25.841  1.00  0.00     0.021 C 
BRANCH  77  78
ATOM     78  C   UNL A   1      31.140  28.109  24.464  1.00  0.00     0.116 C 
BRANCH  78  79
ATOM     79  N   UNL A   1      32.395  28.713  24.048  1.00  0.00    -0.352 N 
ATOM     80  C   UNL A   1      33.480  28.131  23.445  1.00  0.00     0.251 C 
ATOM     81  H   UNL A   1      32.477  29.679  24.223  1.00  0.00     0.163 HD
ATOM     82  O   UNL A   1      34.525  28.760  23.308  1.00  0.00    -0.269 OA
BRANCH  80  83
ATOM     83  C   UNL A   1      33.400  26.735  22.966  1.00  0.00     0.040 A 
ATOM     84  C   UNL A   1      32.981  26.493  21.657  1.00  0.00     0.014 A 
ATOM     85  C   UNL A   1      33.704  25.668  23.819  1.00  0.00     0.022 A 
ATOM     86  C   UNL A   1      32.911  25.184  21.189  1.00  0.00     0.001 A 
ATOM     87  C   UNL A   1      33.663  24.344  23.356  1.00  0.00    -0.017 A 
ATOM     88  C   UNL A   1      33.256  24.121  22.031  1.00  0.00     0.009 A 
BRANCH  87  89
ATOM     89  C   UNL A   1      34.047  23.242  24.244  1.00  0.00    -0.004 A 
ATOM     90  C   UNL A   1      33.178  22.177  24.542  1.00  0.00     0.056 A 
ATOM     91  C   UNL A   1      35.294  23.232  24.900  1.00  0.00     0.027 A 
ATOM     92  C   UNL A   1      33.541  21.170  25.440  1.00  0.00     0.129 A 
ATOM     93  C   UNL A   1      35.551  22.162  25.748  1.00  0.00     0.140 A 
ATOM     94  C   UNL A   1      36.439  24.082  24.969  1.00  0.00     0.030 A 
ATOM     95  N   UNL A   1      34.749  21.124  26.027  1.00  0.00    -0.213 NA
ATOM     96  N   UNL A   1      36.790  22.341  26.301  1.00  0.00    -0.346 N 
ATOM     97  C   UNL A   1      37.343  23.505  25.836  1.00  0.00     0.085 A 
ATOM     98  H   UNL A   1      37.220  21.725  26.938  1.00  0.00     0.167 HD
BRANCH  92  99
ATOM     99  N   UNL A   1      32.610  20.167  25.686  1.00  0.00    -0.364 N 
ATOM    100  H   UNL A   1      32.238  20.054  26.590  1.00  0.00     0.162 HD
BRANCH  99 101
ATOM    101  C   UNL A   1      32.182  19.283  24.609  1.00  0.00     0.170 C 
BRANCH 101 102
ATOM    102  C   UNL A   1      32.782  17.893  24.787  1.00  0.00     0.059 A 
ATOM    103  C   UNL A   1      33.943  17.559  24.092  1.00  0.00     0.026 A 
ATOM    104  N   UNL A   1      32.149  17.015  25.619  1.00  0.00    -0.259 NA
ATOM    105  C   UNL A   1      34.497  16.295  24.275  1.00  0.00     0.004 A 
ATOM    106  C   UNL A   1      32.725  15.803  25.785  1.00  0.00     0.111 A 
ATOM    107  C   UNL A   1      33.883  15.401  25.142  1.00  0.00     0.020 A 
ENDBRANCH 101 102
ENDBRANCH  99 101
ENDBRANCH  92  99
ENDBRANCH  87  89
ENDBRANCH  80  83
ENDBRANCH  78  79
ENDBRANCH  77  78
ENDBRANCH   1  77
TORSDOF 20
ENDMDL
MODEL 3
REMARK VINA RESULT:     -12.2      0.630      7.950
REMARK SMILES O=C(NCCCCCCNC(=O)c1cccc(-c2cc(NCc3ccccn3)nc3[nH]ccc23)c1)c1ccc(-c2c3nc(c(-c4c(F)cc(S(=O)(=O)[O-])cc4F)c4ccc([nH]4)c(-c4c(F)cc(S(=O)(=O)[O-])cc4F)c4nc(c(-c5c(F)cc(S(=O)(=O)[O-])cc5F)c5ccc2[nH]5)C=C4)C=C3)cc1
REMARK SMILES IDX 7 1 6 2 5 3 4 4 3 5 1 6 2 7 36 9 37 10 101 11 38 12 100 13
REMARK SMILES IDX 39 14 40 15 41 16 94 17 42 18 99 19 93 20 95 21 43 22 98 23
REMARK SMILES IDX 92 24 91 25 44 27 78 28 57 29 77 30 58 31 61 32 76 33 96 34
REMARK SMILES IDX 59 35 60 36 75 38 97 39 62 40 45 41 46 42 55 43 47 44 48 45
REMARK SMILES IDX 54 46 56 47 49 48 50 49 51 50 52 51 53 52 79 53 80 54 89 55
REMARK SMILES IDX 81 56 82 57 88 58 90 59 83 60 84 61 85 62 86 63 87 64 63 65
REMARK SMILES IDX 64 66 73 67 65 68 66 69 72 70 74 71 67 72 68 73 69 74 70 75
REMARK SMILES IDX 71 76 8 77 9 78 10 79 11 80 12 82 13 83 14 84 35 85 15 86
REMARK SMILES IDX 17 87 16 88 18 89 19 90 34 91 20 92 30 93 33 94 29 95 31 96
REMARK SMILES IDX 32 97 21 99 22 101 23 102 24 103 28 104 25 105 27 106 26 107
REMARK H PARENT 3 8 95 26 61 37 10 81 31 98 21 100
REMARK Flexibility Score: inf
ROOT
ATOM      1  C   UNL A   1      39.790  22.222  26.926  1.00  0.00     0.002 C 
ENDROOT
BRANCH   1   2
ATOM      2  C   UNL A   1      41.276  21.854  26.917  1.00  0.00     0.002 C 
BRANCH   2   3
ATOM      3  C   UNL A   1      42.072  22.266  28.155  1.00  0.00     0.021 C 
BRANCH   3   4
ATOM      4  C   UNL A   1      43.234  23.216  27.900  1.00  0.00     0.116 C 
BRANCH   4   5
ATOM      5  N   UNL A   1      43.138  23.911  26.627  1.00  0.00    -0.352 N 
ATOM      6  O   UNL A   1      42.646  25.621  25.237  1.00  0.00    -0.269 OA
ATOM      7  C   UNL A   1      42.797  25.224  26.389  1.00  0.00     0.251 C 
ATOM      8  H   UNL A   1      43.344  23.372  25.830  1.00  0.00     0.163 HD
BRANCH   7   9
ATOM      9  C   UNL A   1      42.584  26.146  27.529  1.00  0.00     0.039 A 
ATOM     10  C   UNL A   1      41.569  25.904  28.456  1.00  0.00     0.014 A 
ATOM     11  C   UNL A   1      43.401  27.272  27.665  1.00  0.00     0.014 A 
ATOM     12  C   UNL A   1      41.276  26.858  29.424  1.00  0.00     0.010 A 
ATOM     13  C   UNL A   1      43.162  28.189  28.696  1.00  0.00     0.010 A 
ATOM     14  C   UNL A   1      42.077  28.005  29.566  1.00  0.00    -0.014 A 
BRANCH  14  15
ATOM     15  C   UNL A   1      41.785  28.941  30.684  1.00  0.00     0.031 A 
ATOM     16  C   UNL A   1      40.590  29.855  30.658  1.00  0.00     0.074 A 
ATOM     17  C   UNL A   1      42.588  28.905  31.767  1.00  0.00     0.049 A 
ATOM     18  N   UNL A   1      40.159  30.667  31.590  1.00  0.00    -0.248 NA
ATOM     19  C   UNL A   1      39.778  29.868  29.431  1.00  0.00     0.031 C 
ATOM     20  C   UNL A   1      43.796  28.083  31.889  1.00  0.00     0.029 A 
ATOM     21  N   UNL A   1      42.497  29.542  32.976  1.00  0.00    -0.354 N 
ATOM     22  C   UNL A   1      39.034  31.292  31.066  1.00  0.00     0.074 A 
ATOM     23  C   UNL A   1      38.865  30.787  29.719  1.00  0.00     0.031 C 
ATOM     24  C   UNL A   1      44.297  28.218  33.125  1.00  0.00     0.029 A 
ATOM     25  C   UNL A   1      43.481  29.175  33.864  1.00  0.00     0.049 A 
ATOM     26  H   UNL A   1      41.796  30.199  33.190  1.00  0.00     0.167 HD
ATOM     27  C   UNL A   1      38.214  32.195  31.658  1.00  0.00     0.037 A 
ATOM     28  C   UNL A   1      43.709  29.565  35.131  1.00  0.00     0.037 A 
ATOM     29  C   UNL A   1      38.384  32.686  33.003  1.00  0.00     0.049 A 
ATOM     30  C   UNL A   1      42.771  30.547  35.768  1.00  0.00     0.074 A 
ATOM     31  C   UNL A   1      37.606  33.601  33.693  1.00  0.00     0.029 A 
ATOM     32  N   UNL A   1      39.399  32.299  33.867  1.00  0.00    -0.354 N 
ATOM     33  N   UNL A   1      41.706  31.118  35.256  1.00  0.00    -0.248 NA
ATOM     34  C   UNL A   1      43.063  30.938  37.153  1.00  0.00     0.031 C 
ATOM     35  C   UNL A   1      38.165  33.786  34.964  1.00  0.00     0.029 A 
ATOM     36  C   UNL A   1      39.270  32.958  35.079  1.00  0.00     0.049 A 
ATOM     37  H   UNL A   1      40.108  31.651  33.650  1.00  0.00     0.167 HD
ATOM     38  C   UNL A   1      41.205  31.941  36.255  1.00  0.00     0.074 A 
ATOM     39  C   UNL A   1      42.059  31.765  37.412  1.00  0.00     0.031 C 
ATOM     40  C   UNL A   1      40.140  32.781  36.213  1.00  0.00     0.037 A 
BRANCH  27  41
ATOM     41  C   UNL A   1      37.050  32.716  30.859  1.00  0.00     0.058 A 
ATOM     42  C   UNL A   1      37.220  33.699  29.872  1.00  0.00     0.135 A 
ATOM     43  C   UNL A   1      35.762  32.184  31.036  1.00  0.00     0.135 A 
ATOM     44  F   UNL A   1      38.427  34.253  29.671  1.00  0.00    -0.206 F 
ATOM     45  C   UNL A   1      36.154  34.147  29.099  1.00  0.00     0.059 A 
ATOM     46  C   UNL A   1      34.683  32.602  30.258  1.00  0.00     0.059 A 
ATOM     47  F   UNL A   1      35.542  31.240  31.965  1.00  0.00    -0.206 F 
ATOM     48  C   UNL A   1      34.889  33.592  29.298  1.00  0.00     0.060 A 
BRANCH  48  49
ATOM     49  S   UNL A   1      33.520  34.172  28.271  1.00  0.00     0.124 S 
ATOM     50  O   UNL A   1      34.181  35.180  27.446  1.00  0.00    -0.237 OA
ATOM     51  O   UNL A   1      33.113  32.956  27.575  1.00  0.00    -0.237 OA
ATOM     52  O   UNL A   1      32.560  34.687  29.242  1.00  0.00    -0.744 OA
ENDBRANCH  48  49
ENDBRANCH  27  41
BRANCH  28  53
ATOM     53  C   UNL A   1      44.883  29.030  35.866  1.00  0.00     0.058 A 
ATOM     54  C   UNL A   1      46.147  29.625  35.752  1.00  0.00     0.135 A 
ATOM     55  C   UNL A   1      44.754  27.924  36.721  1.00  0.00     0.135 A 
ATOM     56  F   UNL A   1      46.320  30.684  34.947  1.00  0.00    -0.206 F 
ATOM     57  C   UNL A   1      47.247  29.133  36.448  1.00  0.00     0.059 A 
ATOM     58  C   UNL A   1      45.830  27.431  37.447  1.00  0.00     0.059 A 
ATOM     59  F   UNL A   1      43.559  27.333  36.878  1.00  0.00    -0.206 F 
ATOM     60  C   UNL A   1      47.078  28.035  37.293  1.00  0.00     0.060 A 
BRANCH  60  61
ATOM     61  S   UNL A   1      48.494  27.430  38.235  1.00  0.00     0.124 S 
ATOM     62  O   UNL A   1      49.438  28.529  38.077  1.00  0.00    -0.237 OA
ATOM     63  O   UNL A   1      47.931  27.257  39.570  1.00  0.00    -0.237 OA
ATOM     64  O   UNL A   1      48.845  26.190  37.547  1.00  0.00    -0.744 OA
ENDBRANCH  60  61
ENDBRANCH  28  53
BRANCH  40  65
ATOM     65  C   UNL A   1      39.854  33.566  37.461  1.00  0.00     0.058 A 
ATOM     66  C   UNL A   1      38.912  33.121  38.401  1.00  0.00     0.135 A 
ATOM     67  C   UNL A   1      40.520  34.773  37.716  1.00  0.00     0.135 A 
ATOM     68  F   UNL A   1      38.242  31.975  38.198  1.00  0.00    -0.206 F 
ATOM     69  C   UNL A   1      38.613  33.866  39.538  1.00  0.00     0.059 A 
ATOM     70  C   UNL A   1      40.255  35.524  38.857  1.00  0.00     0.059 A 
ATOM     71  F   UNL A   1      41.436  35.237  36.850  1.00  0.00    -0.206 F 
ATOM     72  C   UNL A   1      39.285  35.071  39.752  1.00  0.00     0.060 A 
BRANCH  72  73
ATOM     73  S   UNL A   1      38.887  36.037  41.224  1.00  0.00     0.124 S 
ATOM     74  O   UNL A   1      40.072  35.817  42.046  1.00  0.00    -0.237 OA
ATOM     75  O   UNL A   1      38.730  37.385  40.686  1.00  0.00    -0.237 OA
ATOM     76  O   UNL A   1      37.659  35.417  41.711  1.00  0.00    -0.744 OA
ENDBRANCH  72  73
ENDBRANCH  40  65
ENDBRANCH  14  15
ENDBRANCH   7   9
ENDBRANCH   4   5
ENDBRANCH   3   4
ENDBRANCH   2   3
ENDBRANCH   1   2
BRANCH   1  77
ATOM     77  C   UNL A   1      39.464  23.718  26.869  1.00  0.00     0.021 C 
BRANCH  77  78
ATOM     78  C   UNL A   1      38.054  24.070  26.397  1.00  0.00     0.116 C 
BRANCH  78  79
ATOM     79  N   UNL A   1      37.798  23.608  25.043  1.00  0.00    -0.352 N 
ATOM     80  C   UNL A   1      36.600  23.390  24.414  1.00  0.00     0.251 C 
ATOM     81  H   UNL A   1      38.600  23.426  24.500  1.00  0.00     0.163 HD
ATOM     82  O   UNL A   1      36.567  22.842  23.316  1.00  0.00    -0.269 OA
BRANCH  80  83
ATOM     83  C   UNL A   1      35.337  23.803  25.062  1.00  0.00     0.040 A 
ATOM     84  C   UNL A   1      34.739  22.943  25.983  1.00  0.00     0.014 A 
ATOM     85  C   UNL A   1      34.730  25.019  24.733  1.00  0.00     0.022 A 
ATOM     86  C   UNL A   1      33.555  23.323  26.610  1.00  0.00     0.001 A 
ATOM     87  C   UNL A   1      33.550  25.430  25.372  1.00  0.00    -0.017 A 
ATOM     88  C   UNL A   1      32.971  24.559  26.310  1.00  0.00     0.009 A 
BRANCH  87  89
ATOM     89  C   UNL A   1      32.961  26.736  25.063  1.00  0.00    -0.004 A 
ATOM     90  C   UNL A   1      32.002  26.909  24.048  1.00  0.00     0.056 A 
ATOM     91  C   UNL A   1      33.381  27.904  25.730  1.00  0.00     0.027 A 
ATOM     92  C   UNL A   1      31.501  28.173  23.728  1.00  0.00     0.129 A 
ATOM     93  C   UNL A   1      32.788  29.099  25.342  1.00  0.00     0.140 A 
ATOM     94  C   UNL A   1      34.329  28.238  26.744  1.00  0.00     0.030 A 
ATOM     95  N   UNL A   1      31.855  29.284  24.396  1.00  0.00    -0.213 NA
ATOM     96  N   UNL A   1      33.336  30.110  26.083  1.00  0.00    -0.346 N 
ATOM     97  C   UNL A   1      34.276  29.602  26.941  1.00  0.00     0.085 A 
ATOM     98  H   UNL A   1      33.092  31.062  26.009  1.00  0.00     0.167 HD
BRANCH  92  99
ATOM     99  N   UNL A   1      30.569  28.248  22.698  1.00  0.00    -0.364 N 
ATOM    100  H   UNL A   1      30.858  28.124  21.765  1.00  0.00     0.162 HD
BRANCH  99 101
ATOM    101  C   UNL A   1      29.167  28.511  22.995  1.00  0.00     0.170 C 
BRANCH 101 102
ATOM    102  C   UNL A   1      28.779  29.916  22.549  1.00  0.00     0.059 A 
ATOM    103  C   UNL A   1      28.552  30.898  23.513  1.00  0.00     0.026 A 
ATOM    104  N   UNL A   1      28.654  30.160  21.211  1.00  0.00    -0.259 NA
ATOM    105  C   UNL A   1      28.218  32.183  23.097  1.00  0.00     0.004 A 
ATOM    106  C   UNL A   1      28.345  31.425  20.845  1.00  0.00     0.111 A 
ATOM    107  C   UNL A   1      28.119  32.457  21.740  1.00  0.00     0.020 A 
ENDBRANCH 101 102
ENDBRANCH  99 101
ENDBRANCH  92  99
ENDBRANCH  87  89
ENDBRANCH  80  83
ENDBRANCH  78  79
ENDBRANCH  77  78
ENDBRANCH   1  77
TORSDOF 20
ENDMDL
