MODEL 1
REMARK VINA RESULT:      -8.9      0.000      0.000
REMARK SMILES C[C@@H](c1cccc(F)c1)[C@@](C)(O)C(=O)NCCCCCCNC(=O)c1ccc(-c2c3nc(c(-c4c(F)cc(S(=O)(=O)[O-])cc4F)c4ccc([nH]4)c(-c4c(F)cc(S(=O)(=O)[O-])cc4F)c4nc(c(-c5c(F)cc(S(=O)(=O)[O-])cc5F)c5ccc2[nH]5)C=C4)C=C3)cc1
REMARK SMILES IDX 19 1 18 2 17 3 16 4 15 5 13 6 14 7 10 9 11 10 2 11 1 12 3 13
REMARK SMILES IDX 4 14 9 15 5 16 7 17 6 18 8 19 12 20 20 22 21 23 22 24 23 25
REMARK SMILES IDX 24 27 25 28 26 29 90 30 27 31 89 32 28 33 29 34 30 35 83 36
REMARK SMILES IDX 31 37 88 38 82 39 84 40 32 41 87 42 81 43 80 44 33 46 67 47
REMARK SMILES IDX 46 48 66 49 47 50 50 51 65 52 85 53 48 54 49 55 64 57 86 58
REMARK SMILES IDX 51 59 34 60 35 61 44 62 36 63 37 64 43 65 45 66 38 67 39 68
REMARK SMILES IDX 40 69 41 70 42 71 68 72 69 73 78 74 70 75 71 76 77 77 79 78
REMARK SMILES IDX 72 79 73 80 74 81 75 82 76 83 52 84 53 85 62 86 54 87 55 88
REMARK SMILES IDX 61 89 63 90 56 91 57 92 58 93 59 94 60 95
REMARK H PARENT 15 8 12 21 22 26 84 45 50 56
REMARK Flexibility Score: inf
ROOT
ATOM      1  C   UNL A   1      37.230  33.078  29.014  1.00  0.00     0.002 C 
ENDROOT
BRANCH   1   2
ATOM      2  C   UNL A   1      37.958  34.270  29.644  1.00  0.00     0.002 C 
BRANCH   2   3
ATOM      3  C   UNL A   1      38.024  34.271  31.177  1.00  0.00     0.021 C 
BRANCH   3   4
ATOM      4  C   UNL A   1      37.674  32.940  31.838  1.00  0.00     0.116 C 
BRANCH   4   5
ATOM      5  N   UNL A   1      37.050  33.127  33.133  1.00  0.00    -0.354 N 
ATOM      6  C   UNL A   1      37.128  32.393  34.279  1.00  0.00     0.252 C 
ATOM      7  O   UNL A   1      36.536  32.861  35.255  1.00  0.00    -0.272 OA
ATOM      8  H   UNL A   1      36.469  33.919  33.195  1.00  0.00     0.163 HD
BRANCH   6   9
ATOM      9  C   UNL A   1      38.024  31.119  34.362  1.00  0.00     0.146 C 
ATOM     10  C   UNL A   1      37.570  30.176  33.230  1.00  0.00     0.053 C 
BRANCH   9  11
ATOM     11  C   UNL A   1      39.562  31.421  34.239  1.00  0.00     0.057 C 
ATOM     12  C   UNL A   1      40.052  32.679  34.975  1.00  0.00     0.016 C 
BRANCH  11  13
ATOM     13  C   UNL A   1      40.452  30.206  34.512  1.00  0.00    -0.039 A 
ATOM     14  C   UNL A   1      40.857  29.842  35.806  1.00  0.00     0.004 A 
ATOM     15  C   UNL A   1      40.881  29.408  33.437  1.00  0.00     0.043 A 
ATOM     16  C   UNL A   1      41.652  28.711  36.023  1.00  0.00     0.003 A 
ATOM     17  C   UNL A   1      41.678  28.289  33.663  1.00  0.00     0.123 A 
ATOM     18  C   UNL A   1      42.065  27.931  34.946  1.00  0.00     0.039 A 
ATOM     19  F   UNL A   1      42.080  27.547  32.622  1.00  0.00    -0.207 F 
ENDBRANCH  11  13
ENDBRANCH   9  11
BRANCH   9  20
ATOM     20  O   UNL A   1      37.827  30.413  35.600  1.00  0.00    -0.380 OA
ATOM     21  H   UNL A   1      36.992  29.921  35.562  1.00  0.00     0.212 HD
ENDBRANCH   9  20
ENDBRANCH   6   9
ENDBRANCH   4   5
ENDBRANCH   3   4
ENDBRANCH   2   3
ENDBRANCH   1   2
BRANCH   1  22
ATOM     22  C   UNL A   1      35.773  33.332  28.624  1.00  0.00     0.021 C 
BRANCH  22  23
ATOM     23  C   UNL A   1      34.754  32.472  29.358  1.00  0.00     0.116 C 
BRANCH  23  24
ATOM     24  N   UNL A   1      34.062  31.554  28.468  1.00  0.00    -0.352 N 
ATOM     25  C   UNL A   1      34.556  30.454  27.812  1.00  0.00     0.251 C 
ATOM     26  H   UNL A   1      33.109  31.747  28.314  1.00  0.00     0.163 HD
ATOM     27  O   UNL A   1      33.877  29.887  26.959  1.00  0.00    -0.269 OA
BRANCH  25  28
ATOM     28  C   UNL A   1      35.919  29.971  28.122  1.00  0.00     0.039 A 
ATOM     29  C   UNL A   1      36.919  30.094  27.154  1.00  0.00     0.014 A 
ATOM     30  C   UNL A   1      36.211  29.409  29.369  1.00  0.00     0.014 A 
ATOM     31  C   UNL A   1      38.226  29.705  27.458  1.00  0.00     0.010 A 
ATOM     32  C   UNL A   1      37.527  29.094  29.695  1.00  0.00     0.010 A 
ATOM     33  C   UNL A   1      38.547  29.234  28.741  1.00  0.00    -0.014 A 
BRANCH  33  34
ATOM     34  C   UNL A   1      39.939  28.866  29.106  1.00  0.00     0.031 A 
ATOM     35  C   UNL A   1      40.810  29.852  29.836  1.00  0.00     0.074 A 
ATOM     36  C   UNL A   1      40.437  27.670  28.730  1.00  0.00     0.049 A 
ATOM     37  N   UNL A   1      42.071  29.752  30.166  1.00  0.00    -0.248 NA
ATOM     38  C   UNL A   1      40.189  31.129  30.223  1.00  0.00     0.031 C 
ATOM     39  C   UNL A   1      39.700  26.643  27.991  1.00  0.00     0.029 A 
ATOM     40  N   UNL A   1      41.681  27.120  28.912  1.00  0.00    -0.354 N 
ATOM     41  C   UNL A   1      42.396  30.951  30.788  1.00  0.00     0.074 A 
ATOM     42  C   UNL A   1      41.217  31.788  30.738  1.00  0.00     0.031 C 
ATOM     43  C   UNL A   1      40.496  25.577  27.808  1.00  0.00     0.029 A 
ATOM     44  C   UNL A   1      41.811  25.860  28.375  1.00  0.00     0.049 A 
ATOM     45  H   UNL A   1      42.411  27.582  29.382  1.00  0.00     0.167 HD
ATOM     46  C   UNL A   1      43.563  31.313  31.372  1.00  0.00     0.037 A 
ATOM     47  C   UNL A   1      42.872  25.029  28.336  1.00  0.00     0.037 A 
ATOM     48  C   UNL A   1      44.724  30.464  31.441  1.00  0.00     0.049 A 
ATOM     49  C   UNL A   1      44.165  25.459  28.973  1.00  0.00     0.074 A 
ATOM     50  C   UNL A   1      45.939  30.722  32.051  1.00  0.00     0.029 A 
ATOM     51  N   UNL A   1      44.815  29.196  30.886  1.00  0.00    -0.354 N 
ATOM     52  N   UNL A   1      44.443  26.582  29.591  1.00  0.00    -0.248 NA
ATOM     53  C   UNL A   1      45.288  24.514  28.908  1.00  0.00     0.031 C 
ATOM     54  C   UNL A   1      46.782  29.630  31.822  1.00  0.00     0.029 A 
ATOM     55  C   UNL A   1      46.074  28.667  31.120  1.00  0.00     0.049 A 
ATOM     56  H   UNL A   1      44.092  28.740  30.397  1.00  0.00     0.167 HD
ATOM     57  C   UNL A   1      45.764  26.469  30.013  1.00  0.00     0.074 A 
ATOM     58  C   UNL A   1      46.227  25.164  29.585  1.00  0.00     0.031 C 
ATOM     59  C   UNL A   1      46.520  27.363  30.695  1.00  0.00     0.037 A 
BRANCH  46  60
ATOM     60  C   UNL A   1      43.642  32.679  31.997  1.00  0.00     0.058 A 
ATOM     61  C   UNL A   1      43.935  33.807  31.216  1.00  0.00     0.135 A 
ATOM     62  C   UNL A   1      43.482  32.864  33.381  1.00  0.00     0.135 A 
ATOM     63  F   UNL A   1      44.092  33.690  29.889  1.00  0.00    -0.206 F 
ATOM     64  C   UNL A   1      44.079  35.069  31.785  1.00  0.00     0.059 A 
ATOM     65  C   UNL A   1      43.593  34.122  33.967  1.00  0.00     0.059 A 
ATOM     66  F   UNL A   1      43.180  31.823  34.172  1.00  0.00    -0.206 F 
ATOM     67  C   UNL A   1      43.906  35.216  33.162  1.00  0.00     0.060 A 
BRANCH  67  68
ATOM     68  S   UNL A   1      44.059  36.866  33.878  1.00  0.00     0.124 S 
ATOM     69  O   UNL A   1      44.711  36.582  35.151  1.00  0.00    -0.237 OA
ATOM     70  O   UNL A   1      44.875  37.557  32.884  1.00  0.00    -0.237 OA
ATOM     71  O   UNL A   1      42.675  37.325  33.968  1.00  0.00    -0.744 OA
ENDBRANCH  67  68
ENDBRANCH  46  60
BRANCH  47  72
ATOM     72  C   UNL A   1      42.734  23.692  27.697  1.00  0.00     0.058 A 
ATOM     73  C   UNL A   1      42.444  22.547  28.453  1.00  0.00     0.135 A 
ATOM     74  C   UNL A   1      42.944  23.529  26.319  1.00  0.00     0.135 A 
ATOM     75  F   UNL A   1      42.244  22.645  29.777  1.00  0.00    -0.206 F 
ATOM     76  C   UNL A   1      42.398  21.283  27.874  1.00  0.00     0.059 A 
ATOM     77  C   UNL A   1      42.878  22.278  25.711  1.00  0.00     0.059 A 
ATOM     78  F   UNL A   1      43.212  24.598  25.552  1.00  0.00    -0.206 F 
ATOM     79  C   UNL A   1      42.624  21.158  26.502  1.00  0.00     0.060 A 
BRANCH  79  80
ATOM     80  S   UNL A   1      42.593  19.506  25.775  1.00  0.00     0.124 S 
ATOM     81  O   UNL A   1      41.190  19.385  25.389  1.00  0.00    -0.237 OA
ATOM     82  O   UNL A   1      43.544  19.637  24.677  1.00  0.00    -0.237 OA
ATOM     83  O   UNL A   1      43.017  18.645  26.873  1.00  0.00    -0.744 OA
ENDBRANCH  79  80
ENDBRANCH  47  72
BRANCH  59  84
ATOM     84  C   UNL A   1      47.927  26.969  31.053  1.00  0.00     0.058 A 
ATOM     85  C   UNL A   1      48.978  27.196  30.149  1.00  0.00     0.135 A 
ATOM     86  C   UNL A   1      48.219  26.278  32.239  1.00  0.00     0.135 A 
ATOM     87  F   UNL A   1      48.752  27.848  28.997  1.00  0.00    -0.206 F 
ATOM     88  C   UNL A   1      50.263  26.727  30.396  1.00  0.00     0.059 A 
ATOM     89  C   UNL A   1      49.504  25.823  32.519  1.00  0.00     0.059 A 
ATOM     90  F   UNL A   1      47.251  26.046  33.141  1.00  0.00    -0.206 F 
ATOM     91  C   UNL A   1      50.516  26.035  31.581  1.00  0.00     0.060 A 
BRANCH  91  92
ATOM     92  S   UNL A   1      52.188  25.425  31.880  1.00  0.00     0.124 S 
ATOM     93  O   UNL A   1      52.573  26.178  33.070  1.00  0.00    -0.237 OA
ATOM     94  O   UNL A   1      51.963  23.997  32.077  1.00  0.00    -0.237 OA
ATOM     95  O   UNL A   1      52.902  25.778  30.656  1.00  0.00    -0.744 OA
ENDBRANCH  91  92
ENDBRANCH  59  84
ENDBRANCH  33  34
ENDBRANCH  25  28
ENDBRANCH  23  24
ENDBRANCH  22  23
ENDBRANCH   1  22
TORSDOF 19
ENDMDL
MODEL 2
REMARK VINA RESULT:      -8.9      3.285      6.254
REMARK SMILES C[C@@H](c1cccc(F)c1)[C@@](C)(O)C(=O)NCCCCCCNC(=O)c1ccc(-c2c3nc(c(-c4c(F)cc(S(=O)(=O)[O-])cc4F)c4ccc([nH]4)c(-c4c(F)cc(S(=O)(=O)[O-])cc4F)c4nc(c(-c5c(F)cc(S(=O)(=O)[O-])cc5F)c5ccc2[nH]5)C=C4)C=C3)cc1
REMARK SMILES IDX 19 1 18 2 17 3 16 4 15 5 13 6 14 7 10 9 11 10 2 11 1 12 3 13
REMARK SMILES IDX 4 14 9 15 5 16 7 17 6 18 8 19 12 20 20 22 21 23 22 24 23 25
REMARK SMILES IDX 24 27 25 28 26 29 90 30 27 31 89 32 28 33 29 34 30 35 83 36
REMARK SMILES IDX 31 37 88 38 82 39 84 40 32 41 87 42 81 43 80 44 33 46 67 47
REMARK SMILES IDX 46 48 66 49 47 50 50 51 65 52 85 53 48 54 49 55 64 57 86 58
REMARK SMILES IDX 51 59 34 60 35 61 44 62 36 63 37 64 43 65 45 66 38 67 39 68
REMARK SMILES IDX 40 69 41 70 42 71 68 72 69 73 78 74 70 75 71 76 77 77 79 78
REMARK SMILES IDX 72 79 73 80 74 81 75 82 76 83 52 84 53 85 62 86 54 87 55 88
REMARK SMILES IDX 61 89 63 90 56 91 57 92 58 93 59 94 60 95
REMARK H PARENT 15 8 12 21 22 26 84 45 50 56
REMARK Flexibility Score: inf
ROOT
ATOM      1  C   UNL A   1      32.160  27.331  26.782  1.00  0.00     0.002 C 
ENDROOT
BRANCH   1   2
ATOM      2  C   UNL A   1      30.961  26.935  25.913  1.00  0.00     0.002 C 
BRANCH   2   3
ATOM      3  C   UNL A   1      30.850  27.659  24.566  1.00  0.00     0.021 C 
BRANCH   3   4
ATOM      4  C   UNL A   1      30.746  26.743  23.349  1.00  0.00     0.116 C 
BRANCH   4   5
ATOM      5  N   UNL A   1      31.992  26.678  22.612  1.00  0.00    -0.354 N 
ATOM      6  C   UNL A   1      32.820  25.628  22.344  1.00  0.00     0.252 C 
ATOM      7  O   UNL A   1      33.780  25.878  21.610  1.00  0.00    -0.272 OA
ATOM      8  H   UNL A   1      32.294  27.539  22.242  1.00  0.00     0.163 HD
BRANCH   6   9
ATOM      9  C   UNL A   1      32.480  24.186  22.834  1.00  0.00     0.146 C 
ATOM     10  C   UNL A   1      33.303  23.212  21.967  1.00  0.00     0.053 C 
BRANCH   9  11
ATOM     11  C   UNL A   1      32.784  23.952  24.358  1.00  0.00     0.057 C 
ATOM     12  C   UNL A   1      31.630  23.354  25.180  1.00  0.00     0.016 C 
BRANCH  11  13
ATOM     13  C   UNL A   1      34.112  23.236  24.618  1.00  0.00    -0.039 A 
ATOM     14  C   UNL A   1      34.222  21.837  24.650  1.00  0.00     0.004 A 
ATOM     15  C   UNL A   1      35.276  23.995  24.826  1.00  0.00     0.043 A 
ATOM     16  C   UNL A   1      35.457  21.214  24.868  1.00  0.00     0.003 A 
ATOM     17  C   UNL A   1      36.498  23.366  25.049  1.00  0.00     0.123 A 
ATOM     18  C   UNL A   1      36.600  21.982  25.068  1.00  0.00     0.039 A 
ATOM     19  F   UNL A   1      37.595  24.110  25.249  1.00  0.00    -0.207 F 
ENDBRANCH  11  13
ENDBRANCH   9  11
BRANCH   9  20
ATOM     20  O   UNL A   1      31.094  23.868  22.621  1.00  0.00    -0.380 OA
ATOM     21  H   UNL A   1      30.612  23.947  23.459  1.00  0.00     0.212 HD
ENDBRANCH   9  20
ENDBRANCH   6   9
ENDBRANCH   4   5
ENDBRANCH   3   4
ENDBRANCH   2   3
ENDBRANCH   1   2
BRANCH   1  22
ATOM     22  C   UNL A   1      33.533  27.038  26.176  1.00  0.00     0.021 C 
BRANCH  22  23
ATOM     23  C   UNL A   1      34.403  28.264  25.936  1.00  0.00     0.116 C 
BRANCH  23  24
ATOM     24  N   UNL A   1      33.868  29.455  26.577  1.00  0.00    -0.352 N 
ATOM     25  C   UNL A   1      34.421  30.215  27.578  1.00  0.00     0.251 C 
ATOM     26  H   UNL A   1      32.991  29.757  26.250  1.00  0.00     0.163 HD
ATOM     27  O   UNL A   1      33.756  31.090  28.127  1.00  0.00    -0.269 OA
BRANCH  25  28
ATOM     28  C   UNL A   1      35.812  29.957  28.008  1.00  0.00     0.039 A 
ATOM     29  C   UNL A   1      36.041  29.412  29.273  1.00  0.00     0.014 A 
ATOM     30  C   UNL A   1      36.885  30.241  27.158  1.00  0.00     0.014 A 
ATOM     31  C   UNL A   1      37.346  29.099  29.665  1.00  0.00     0.010 A 
ATOM     32  C   UNL A   1      38.174  29.858  27.519  1.00  0.00     0.010 A 
ATOM     33  C   UNL A   1      38.418  29.288  28.778  1.00  0.00    -0.014 A 
BRANCH  33  34
ATOM     34  C   UNL A   1      39.806  28.913  29.150  1.00  0.00     0.031 A 
ATOM     35  C   UNL A   1      40.680  29.894  29.882  1.00  0.00     0.074 A 
ATOM     36  C   UNL A   1      40.299  27.713  28.778  1.00  0.00     0.049 A 
ATOM     37  N   UNL A   1      41.939  29.787  30.218  1.00  0.00    -0.248 NA
ATOM     38  C   UNL A   1      40.065  31.176  30.264  1.00  0.00     0.031 C 
ATOM     39  C   UNL A   1      39.559  26.689  28.037  1.00  0.00     0.029 A 
ATOM     40  N   UNL A   1      41.539  27.155  28.966  1.00  0.00    -0.354 N 
ATOM     41  C   UNL A   1      42.269  30.985  30.840  1.00  0.00     0.074 A 
ATOM     42  C   UNL A   1      41.095  31.829  30.783  1.00  0.00     0.031 C 
ATOM     43  C   UNL A   1      40.349  25.618  27.859  1.00  0.00     0.029 A 
ATOM     44  C   UNL A   1      41.664  25.894  28.432  1.00  0.00     0.049 A 
ATOM     45  H   UNL A   1      42.269  27.614  29.440  1.00  0.00     0.167 HD
ATOM     46  C   UNL A   1      43.435  31.340  31.429  1.00  0.00     0.037 A 
ATOM     47  C   UNL A   1      42.719  25.056  28.399  1.00  0.00     0.037 A 
ATOM     48  C   UNL A   1      44.591  30.485  31.505  1.00  0.00     0.049 A 
ATOM     49  C   UNL A   1      44.012  25.480  29.041  1.00  0.00     0.074 A 
ATOM     50  C   UNL A   1      45.804  30.737  32.119  1.00  0.00     0.029 A 
ATOM     51  N   UNL A   1      44.676  29.216  30.952  1.00  0.00    -0.354 N 
ATOM     52  N   UNL A   1      44.294  26.602  29.659  1.00  0.00    -0.248 NA
ATOM     53  C   UNL A   1      45.130  24.528  28.984  1.00  0.00     0.031 C 
ATOM     54  C   UNL A   1      46.642  29.639  31.896  1.00  0.00     0.029 A 
ATOM     55  C   UNL A   1      45.931  28.680  31.192  1.00  0.00     0.049 A 
ATOM     56  H   UNL A   1      43.953  28.763  30.460  1.00  0.00     0.167 HD
ATOM     57  C   UNL A   1      45.612  26.481  30.087  1.00  0.00     0.074 A 
ATOM     58  C   UNL A   1      46.070  25.173  29.664  1.00  0.00     0.031 C 
ATOM     59  C   UNL A   1      46.371  27.372  30.771  1.00  0.00     0.037 A 
BRANCH  46  60
ATOM     60  C   UNL A   1      43.520  32.707  32.052  1.00  0.00     0.058 A 
ATOM     61  C   UNL A   1      43.978  33.806  31.308  1.00  0.00     0.135 A 
ATOM     62  C   UNL A   1      43.199  32.920  33.404  1.00  0.00     0.135 A 
ATOM     63  F   UNL A   1      44.291  33.662  30.012  1.00  0.00    -0.206 F 
ATOM     64  C   UNL A   1      44.127  35.064  31.884  1.00  0.00     0.059 A 
ATOM     65  C   UNL A   1      43.314  34.176  33.992  1.00  0.00     0.059 A 
ATOM     66  F   UNL A   1      42.736  31.909  34.156  1.00  0.00    -0.206 F 
ATOM     67  C   UNL A   1      43.792  35.239  33.228  1.00  0.00     0.060 A 
BRANCH  67  68
ATOM     68  S   UNL A   1      43.956  36.885  33.949  1.00  0.00     0.124 S 
ATOM     69  O   UNL A   1      42.563  37.289  34.098  1.00  0.00    -0.237 OA
ATOM     70  O   UNL A   1      44.675  36.606  35.189  1.00  0.00    -0.237 OA
ATOM     71  O   UNL A   1      44.721  37.619  32.944  1.00  0.00    -0.744 OA
ENDBRANCH  67  68
ENDBRANCH  46  60
BRANCH  47  72
ATOM     72  C   UNL A   1      42.576  23.719  27.762  1.00  0.00     0.058 A 
ATOM     73  C   UNL A   1      42.371  22.562  28.528  1.00  0.00     0.135 A 
ATOM     74  C   UNL A   1      42.696  23.569  26.372  1.00  0.00     0.135 A 
ATOM     75  F   UNL A   1      42.260  22.648  29.863  1.00  0.00    -0.206 F 
ATOM     76  C   UNL A   1      42.322  21.301  27.944  1.00  0.00     0.059 A 
ATOM     77  C   UNL A   1      42.624  22.321  25.760  1.00  0.00     0.059 A 
ATOM     78  F   UNL A   1      42.879  24.649  25.596  1.00  0.00    -0.206 F 
ATOM     79  C   UNL A   1      42.457  21.190  26.559  1.00  0.00     0.060 A 
BRANCH  79  80
ATOM     80  S   UNL A   1      42.423  19.541  25.825  1.00  0.00     0.124 S 
ATOM     81  O   UNL A   1      42.850  18.713  26.949  1.00  0.00    -0.237 OA
ATOM     82  O   UNL A   1      41.022  19.409  25.436  1.00  0.00    -0.237 OA
ATOM     83  O   UNL A   1      43.372  19.640  24.723  1.00  0.00    -0.744 OA
ENDBRANCH  79  80
ENDBRANCH  47  72
BRANCH  59  84
ATOM     84  C   UNL A   1      47.773  26.969  31.137  1.00  0.00     0.058 A 
ATOM     85  C   UNL A   1      48.835  27.216  30.249  1.00  0.00     0.135 A 
ATOM     86  C   UNL A   1      48.052  26.253  32.310  1.00  0.00     0.135 A 
ATOM     87  F   UNL A   1      48.622  27.893  29.110  1.00  0.00    -0.206 F 
ATOM     88  C   UNL A   1      50.117  26.742  30.501  1.00  0.00     0.059 A 
ATOM     89  C   UNL A   1      49.334  25.792  32.595  1.00  0.00     0.059 A 
ATOM     90  F   UNL A   1      47.075  26.002  33.196  1.00  0.00    -0.206 F 
ATOM     91  C   UNL A   1      50.356  26.024  31.673  1.00  0.00     0.060 A 
BRANCH  91  92
ATOM     92  S   UNL A   1      52.026  25.408  31.977  1.00  0.00     0.124 S 
ATOM     93  O   UNL A   1      52.369  26.079  33.226  1.00  0.00    -0.237 OA
ATOM     94  O   UNL A   1      51.808  23.967  32.069  1.00  0.00    -0.237 OA
ATOM     95  O   UNL A   1      52.770  25.849  30.801  1.00  0.00    -0.744 OA
ENDBRANCH  91  92
ENDBRANCH  59  84
ENDBRANCH  33  34
ENDBRANCH  25  28
ENDBRANCH  23  24
ENDBRANCH  22  23
ENDBRANCH   1  22
TORSDOF 19
ENDMDL
MODEL 3
REMARK VINA RESULT:      -8.8      4.206     10.523
REMARK SMILES C[C@@H](c1cccc(F)c1)[C@@](C)(O)C(=O)NCCCCCCNC(=O)c1ccc(-c2c3nc(c(-c4c(F)cc(S(=O)(=O)[O-])cc4F)c4ccc([nH]4)c(-c4c(F)cc(S(=O)(=O)[O-])cc4F)c4nc(c(-c5c(F)cc(S(=O)(=O)[O-])cc5F)c5ccc2[nH]5)C=C4)C=C3)cc1
REMARK SMILES IDX 19 1 18 2 17 3 16 4 15 5 13 6 14 7 10 9 11 10 2 11 1 12 3 13
REMARK SMILES IDX 4 14 9 15 5 16 7 17 6 18 8 19 12 20 20 22 21 23 22 24 23 25
REMARK SMILES IDX 24 27 25 28 26 29 90 30 27 31 89 32 28 33 29 34 30 35 83 36
REMARK SMILES IDX 31 37 88 38 82 39 84 40 32 41 87 42 81 43 80 44 33 46 67 47
REMARK SMILES IDX 46 48 66 49 47 50 50 51 65 52 85 53 48 54 49 55 64 57 86 58
REMARK SMILES IDX 51 59 34 60 35 61 44 62 36 63 37 64 43 65 45 66 38 67 39 68
REMARK SMILES IDX 40 69 41 70 42 71 68 72 69 73 78 74 70 75 71 76 77 77 79 78
REMARK SMILES IDX 72 79 73 80 74 81 75 82 76 83 52 84 53 85 62 86 54 87 55 88
REMARK SMILES IDX 61 89 63 90 56 91 57 92 58 93 59 94 60 95
REMARK H PARENT 15 8 12 21 22 26 84 45 50 56
REMARK Flexibility Score: inf
ROOT
ATOM      1  C   UNL A   1      36.008  32.912  27.997  1.00  0.00     0.002 C 
ENDROOT
BRANCH   1   2
ATOM      2  C   UNL A   1      34.739  32.052  28.007  1.00  0.00     0.002 C 
BRANCH   2   3
ATOM      3  C   UNL A   1      34.966  30.535  28.009  1.00  0.00     0.021 C 
BRANCH   3   4
ATOM      4  C   UNL A   1      34.108  29.755  27.016  1.00  0.00     0.116 C 
BRANCH   4   5
ATOM      5  N   UNL A   1      32.868  29.300  27.612  1.00  0.00    -0.354 N 
ATOM      6  C   UNL A   1      32.009  28.306  27.246  1.00  0.00     0.252 C 
ATOM      7  O   UNL A   1      31.065  28.105  28.015  1.00  0.00    -0.272 OA
ATOM      8  H   UNL A   1      32.598  29.795  28.419  1.00  0.00     0.163 HD
BRANCH   6   9
ATOM      9  C   UNL A   1      32.297  27.407  26.004  1.00  0.00     0.146 C 
ATOM     10  C   UNL A   1      31.119  26.420  25.882  1.00  0.00     0.053 C 
BRANCH   9  11
ATOM     11  C   UNL A   1      32.474  28.216  24.669  1.00  0.00     0.057 C 
ATOM     12  C   UNL A   1      33.368  27.555  23.606  1.00  0.00     0.016 C 
BRANCH  11  13
ATOM     13  C   UNL A   1      31.157  28.729  24.080  1.00  0.00    -0.039 A 
ATOM     14  C   UNL A   1      30.338  27.938  23.260  1.00  0.00     0.004 A 
ATOM     15  C   UNL A   1      30.733  30.037  24.372  1.00  0.00     0.043 A 
ATOM     16  C   UNL A   1      29.128  28.430  22.757  1.00  0.00     0.003 A 
ATOM     17  C   UNL A   1      29.531  30.520  23.861  1.00  0.00     0.123 A 
ATOM     18  C   UNL A   1      28.723  29.727  23.059  1.00  0.00     0.039 A 
ATOM     19  F   UNL A   1      29.150  31.772  24.149  1.00  0.00    -0.207 F 
ENDBRANCH  11  13
ENDBRANCH   9  11
BRANCH   9  20
ATOM     20  O   UNL A   1      33.486  26.619  26.186  1.00  0.00    -0.380 OA
ATOM     21  H   UNL A   1      34.259  27.127  25.895  1.00  0.00     0.212 HD
ENDBRANCH   9  20
ENDBRANCH   6   9
ENDBRANCH   4   5
ENDBRANCH   3   4
ENDBRANCH   2   3
ENDBRANCH   1   2
BRANCH   1  22
ATOM     22  C   UNL A   1      36.197  33.814  29.218  1.00  0.00     0.021 C 
BRANCH  22  23
ATOM     23  C   UNL A   1      37.125  33.256  30.289  1.00  0.00     0.116 C 
BRANCH  23  24
ATOM     24  N   UNL A   1      36.496  32.205  31.072  1.00  0.00    -0.352 N 
ATOM     25  C   UNL A   1      36.866  30.889  31.200  1.00  0.00     0.251 C 
ATOM     26  H   UNL A   1      35.695  32.472  31.578  1.00  0.00     0.163 HD
ATOM     27  O   UNL A   1      36.123  30.091  31.766  1.00  0.00    -0.269 OA
BRANCH  25  28
ATOM     28  C   UNL A   1      38.155  30.434  30.633  1.00  0.00     0.039 A 
ATOM     29  C   UNL A   1      38.282  30.318  29.247  1.00  0.00     0.014 A 
ATOM     30  C   UNL A   1      39.236  30.136  31.468  1.00  0.00     0.014 A 
ATOM     31  C   UNL A   1      39.513  29.956  28.695  1.00  0.00     0.010 A 
ATOM     32  C   UNL A   1      40.480  29.851  30.913  1.00  0.00     0.010 A 
ATOM     33  C   UNL A   1      40.630  29.753  29.522  1.00  0.00    -0.014 A 
BRANCH  33  34
ATOM     34  C   UNL A   1      41.963  29.422  28.956  1.00  0.00     0.031 A 
ATOM     35  C   UNL A   1      42.253  28.022  28.486  1.00  0.00     0.074 A 
ATOM     36  C   UNL A   1      42.929  30.362  28.919  1.00  0.00     0.049 A 
ATOM     37  N   UNL A   1      43.375  27.517  28.042  1.00  0.00    -0.248 NA
ATOM     38  C   UNL A   1      41.144  27.057  28.546  1.00  0.00     0.031 C 
ATOM     39  C   UNL A   1      42.778  31.746  29.375  1.00  0.00     0.029 A 
ATOM     40  N   UNL A   1      44.229  30.297  28.484  1.00  0.00    -0.354 N 
ATOM     41  C   UNL A   1      43.110  26.178  27.781  1.00  0.00     0.074 A 
ATOM     42  C   UNL A   1      41.738  25.934  28.171  1.00  0.00     0.031 C 
ATOM     43  C   UNL A   1      43.930  32.404  29.170  1.00  0.00     0.029 A 
ATOM     44  C   UNL A   1      44.915  31.483  28.610  1.00  0.00     0.049 A 
ATOM     45  H   UNL A   1      44.633  29.478  28.116  1.00  0.00     0.167 HD
ATOM     46  C   UNL A   1      43.926  25.243  27.241  1.00  0.00     0.037 A 
ATOM     47  C   UNL A   1      46.193  31.792  28.317  1.00  0.00     0.037 A 
ATOM     48  C   UNL A   1      45.283  25.501  26.831  1.00  0.00     0.049 A 
ATOM     49  C   UNL A   1      47.090  30.732  27.737  1.00  0.00     0.074 A 
ATOM     50  C   UNL A   1      46.177  24.631  26.232  1.00  0.00     0.029 A 
ATOM     51  N   UNL A   1      45.939  26.714  26.976  1.00  0.00    -0.354 N 
ATOM     52  N   UNL A   1      46.811  29.481  27.461  1.00  0.00    -0.248 NA
ATOM     53  C   UNL A   1      48.473  31.123  27.429  1.00  0.00     0.031 C 
ATOM     54  C   UNL A   1      47.390  25.304  26.059  1.00  0.00     0.029 A 
ATOM     55  C   UNL A   1      47.235  26.611  26.497  1.00  0.00     0.049 A 
ATOM     56  H   UNL A   1      45.543  27.529  27.363  1.00  0.00     0.167 HD
ATOM     57  C   UNL A   1      47.974  28.941  26.921  1.00  0.00     0.074 A 
ATOM     58  C   UNL A   1      48.958  30.004  26.904  1.00  0.00     0.031 C 
ATOM     59  C   UNL A   1      48.202  27.680  26.479  1.00  0.00     0.037 A 
BRANCH  46  60
ATOM     60  C   UNL A   1      43.376  23.857  27.046  1.00  0.00     0.058 A 
ATOM     61  C   UNL A   1      42.903  23.445  25.790  1.00  0.00     0.135 A 
ATOM     62  C   UNL A   1      43.266  22.952  28.116  1.00  0.00     0.135 A 
ATOM     63  F   UNL A   1      42.989  24.265  24.732  1.00  0.00    -0.206 F 
ATOM     64  C   UNL A   1      42.329  22.191  25.604  1.00  0.00     0.059 A 
ATOM     65  C   UNL A   1      42.722  21.682  27.945  1.00  0.00     0.059 A 
ATOM     66  F   UNL A   1      43.722  23.286  29.333  1.00  0.00    -0.206 F 
ATOM     67  C   UNL A   1      42.243  21.316  26.689  1.00  0.00     0.060 A 
BRANCH  67  68
ATOM     68  S   UNL A   1      41.530  19.680  26.421  1.00  0.00     0.124 S 
ATOM     69  O   UNL A   1      41.743  19.044  27.716  1.00  0.00    -0.237 OA
ATOM     70  O   UNL A   1      40.145  20.000  26.089  1.00  0.00    -0.237 OA
ATOM     71  O   UNL A   1      42.321  19.143  25.318  1.00  0.00    -0.744 OA
ENDBRANCH  67  68
ENDBRANCH  46  60
BRANCH  47  72
ATOM     72  C   UNL A   1      46.682  33.180  28.538  1.00  0.00     0.058 A 
ATOM     73  C   UNL A   1      46.578  34.160  27.541  1.00  0.00     0.135 A 
ATOM     74  C   UNL A   1      47.314  33.536  29.740  1.00  0.00     0.135 A 
ATOM     75  F   UNL A   1      45.992  33.870  26.369  1.00  0.00    -0.206 F 
ATOM     76  C   UNL A   1      47.110  35.434  27.711  1.00  0.00     0.059 A 
ATOM     77  C   UNL A   1      47.832  34.812  29.946  1.00  0.00     0.059 A 
ATOM     78  F   UNL A   1      47.426  32.635  30.729  1.00  0.00    -0.206 F 
ATOM     79  C   UNL A   1      47.742  35.748  28.916  1.00  0.00     0.060 A 
BRANCH  79  80
ATOM     80  S   UNL A   1      48.454  37.396  29.105  1.00  0.00     0.124 S 
ATOM     81  O   UNL A   1      49.075  37.295  30.421  1.00  0.00    -0.237 OA
ATOM     82  O   UNL A   1      49.373  37.462  27.973  1.00  0.00    -0.237 OA
ATOM     83  O   UNL A   1      47.295  38.277  29.023  1.00  0.00    -0.744 OA
ENDBRANCH  79  80
ENDBRANCH  47  72
BRANCH  59  84
ATOM     84  C   UNL A   1      49.559  27.368  25.909  1.00  0.00     0.058 A 
ATOM     85  C   UNL A   1      49.762  27.376  24.519  1.00  0.00     0.135 A 
ATOM     86  C   UNL A   1      50.626  26.964  26.726  1.00  0.00     0.135 A 
ATOM     87  F   UNL A   1      48.773  27.749  23.691  1.00  0.00    -0.206 F 
ATOM     88  C   UNL A   1      50.967  26.966  23.959  1.00  0.00     0.059 A 
ATOM     89  C   UNL A   1      51.850  26.577  26.188  1.00  0.00     0.059 A 
ATOM     90  F   UNL A   1      50.486  26.951  28.062  1.00  0.00    -0.206 F 
ATOM     91  C   UNL A   1      52.003  26.562  24.801  1.00  0.00     0.060 A 
BRANCH  91  92
ATOM     92  S   UNL A   1      53.557  26.024  24.054  1.00  0.00     0.124 S 
ATOM     93  O   UNL A   1      53.723  24.696  24.634  1.00  0.00    -0.237 OA
ATOM     94  O   UNL A   1      53.241  26.061  22.630  1.00  0.00    -0.237 OA
ATOM     95  O   UNL A   1      54.515  27.031  24.504  1.00  0.00    -0.744 OA
ENDBRANCH  91  92
ENDBRANCH  59  84
ENDBRANCH  33  34
ENDBRANCH  25  28
ENDBRANCH  23  24
ENDBRANCH  22  23
ENDBRANCH   1  22
TORSDOF 19
ENDMDL
