MODEL 1
REMARK VINA RESULT:     -11.2      0.000      0.000
REMARK SMILES C/C=C(\C)[C@H]1C(C)=C[C@H]2CC[C@@H](OS(=O)(=O)[O-])[C@@H](C)[C@H]2[C@H]1/C=C/C=C/C(=O)NCCCCCCNC(=O)c1ccc(-c2c3nc(c(-c4c(F)cc(S(=O)(=O)[O-])cc4F)c4ccc([nH]4)c(-c4c(F)cc(S(=O)(=O)[O-])cc4F)c4nc(c(-c5c(F)cc(S(=O)(=O)[O-])cc5F)c5ccc2[nH]5)C=C4)C=C3)cc1
REMARK SMILES IDX 31 1 30 2 29 3 28 4 26 5 27 6 25 8 24 9 23 10 22 11 21 12
REMARK SMILES IDX 5 13 6 14 7 15 8 16 20 17 9 18 18 19 10 20 12 21 19 22 11 23
REMARK SMILES IDX 3 24 1 25 2 26 4 27 13 28 14 29 15 30 16 31 17 32 32 33
REMARK SMILES IDX 33 34 34 35 35 36 36 37 37 39 38 40 39 41 103 42 40 43
REMARK SMILES IDX 102 44 41 45 42 46 43 47 96 48 44 49 101 50 95 51 97 52
REMARK SMILES IDX 45 53 100 54 94 55 93 56 46 58 80 59 59 60 79 61 60 62 63 63
REMARK SMILES IDX 78 64 98 65 61 66 62 67 77 69 99 70 64 71 47 72 48 73 57 74
REMARK SMILES IDX 49 75 50 76 56 77 58 78 51 79 52 80 53 81 54 82 55 83 81 84
REMARK SMILES IDX 82 85 91 86 83 87 84 88 90 89 92 90 85 91 86 92 87 93 88 94
REMARK SMILES IDX 89 95 65 96 66 97 75 98 67 99 68 100 74 101 76 102 69 103
REMARK SMILES IDX 70 104 71 105 72 106 73 107
REMARK H PARENT 28 7 35 38 97 57 63 68
REMARK Flexibility Score: inf
ROOT
ATOM      1  C   UNL A   1      41.871  21.562  26.491  1.00  0.00     0.002 C 
ENDROOT
BRANCH   1   2
ATOM      2  C   UNL A   1      40.456  20.993  26.661  1.00  0.00     0.021 C 
BRANCH   2   3
ATOM      3  C   UNL A   1      39.425  21.685  25.765  1.00  0.00     0.116 C 
BRANCH   3   4
ATOM      4  N   UNL A   1      38.248  20.840  25.606  1.00  0.00    -0.353 N 
ATOM      5  C   UNL A   1      37.035  21.048  25.026  1.00  0.00     0.243 C 
ATOM      6  O   UNL A   1      36.227  20.121  24.977  1.00  0.00    -0.270 OA
ATOM      7  H   UNL A   1      38.351  19.941  25.994  1.00  0.00     0.163 HD
BRANCH   5   8
ATOM      8  C   UNL A   1      36.689  22.333  24.376  1.00  0.00     0.071 C 
ATOM      9  C   UNL A   1      35.479  22.888  24.463  1.00  0.00     0.005 C 
BRANCH   9  10
ATOM     10  C   UNL A   1      35.069  24.151  23.897  1.00  0.00    -0.004 C 
ATOM     11  C   UNL A   1      33.906  24.671  24.322  1.00  0.00    -0.022 C 
BRANCH  11  12
ATOM     12  C   UNL A   1      33.091  25.746  23.645  1.00  0.00     0.027 C 
ATOM     13  C   UNL A   1      31.545  25.359  23.571  1.00  0.00     0.047 C 
ATOM     14  C   UNL A   1      30.583  26.524  23.794  1.00  0.00    -0.069 C 
ATOM     15  C   UNL A   1      29.112  26.228  23.930  1.00  0.00     0.040 C 
ATOM     16  C   UNL A   1      31.002  27.805  23.793  1.00  0.00    -0.024 C 
ATOM     17  C   UNL A   1      33.425  27.179  24.186  1.00  0.00     0.009 C 
ATOM     18  C   UNL A   1      32.437  28.212  23.594  1.00  0.00     0.016 C 
ATOM     19  C   UNL A   1      33.671  27.354  25.727  1.00  0.00     0.021 C 
ATOM     20  C   UNL A   1      32.723  29.646  24.080  1.00  0.00     0.011 C 
ATOM     21  C   UNL A   1      34.024  28.823  26.062  1.00  0.00     0.141 C 
ATOM     22  C   UNL A   1      32.560  26.843  26.653  1.00  0.00     0.011 C 
ATOM     23  C   UNL A   1      32.920  29.764  25.586  1.00  0.00     0.034 C 
BRANCH  13  24
ATOM     24  C   UNL A   1      31.176  24.031  24.301  1.00  0.00    -0.070 C 
ATOM     25  C   UNL A   1      30.710  22.737  26.477  1.00  0.00     0.035 C 
ATOM     26  C   UNL A   1      30.938  23.947  25.628  1.00  0.00    -0.031 C 
ATOM     27  C   UNL A   1      31.144  22.824  23.387  1.00  0.00     0.040 C 
ENDBRANCH  13  24
BRANCH  21  28
ATOM     28  O   UNL A   1      34.192  28.948  27.471  1.00  0.00    -0.276 OA
BRANCH  28  29
ATOM     29  S   UNL A   1      35.461  29.777  28.047  1.00  0.00     0.217 S 
ATOM     30  O   UNL A   1      35.708  29.335  29.405  1.00  0.00    -0.213 OA
ATOM     31  O   UNL A   1      36.497  29.775  27.047  1.00  0.00    -0.213 OA
ATOM     32  O   UNL A   1      34.900  31.283  28.124  1.00  0.00    -0.726 OA
ENDBRANCH  28  29
ENDBRANCH  21  28
ENDBRANCH  11  12
ENDBRANCH   9  10
ENDBRANCH   5   8
ENDBRANCH   3   4
ENDBRANCH   2   3
ENDBRANCH   1   2
BRANCH   1  33
ATOM     33  C   UNL A   1      42.474  22.160  27.769  1.00  0.00     0.002 C 
BRANCH  33  34
ATOM     34  C   UNL A   1      43.902  22.690  27.620  1.00  0.00     0.021 C 
BRANCH  34  35
ATOM     35  C   UNL A   1      43.991  24.204  27.463  1.00  0.00     0.116 C 
BRANCH  35  36
ATOM     36  N   UNL A   1      43.345  24.653  26.239  1.00  0.00    -0.352 N 
ATOM     37  C   UNL A   1      42.364  25.597  26.071  1.00  0.00     0.251 C 
ATOM     38  H   UNL A   1      43.656  24.216  25.414  1.00  0.00     0.163 HD
ATOM     39  O   UNL A   1      41.758  25.668  25.006  1.00  0.00    -0.269 OA
BRANCH  37  40
ATOM     40  C   UNL A   1      42.037  26.518  27.179  1.00  0.00     0.039 A 
ATOM     41  C   UNL A   1      41.071  26.138  28.114  1.00  0.00     0.014 A 
ATOM     42  C   UNL A   1      42.672  27.758  27.286  1.00  0.00     0.014 A 
ATOM     43  C   UNL A   1      40.783  26.983  29.189  1.00  0.00     0.010 A 
ATOM     44  C   UNL A   1      42.440  28.562  28.398  1.00  0.00     0.010 A 
ATOM     45  C   UNL A   1      41.487  28.186  29.356  1.00  0.00    -0.014 A 
BRANCH  45  46
ATOM     46  C   UNL A   1      41.244  29.060  30.532  1.00  0.00     0.031 A 
ATOM     47  C   UNL A   1      42.073  28.902  31.779  1.00  0.00     0.074 A 
ATOM     48  C   UNL A   1      40.234  29.953  30.498  1.00  0.00     0.049 A 
ATOM     49  N   UNL A   1      41.970  29.529  32.922  1.00  0.00    -0.248 NA
ATOM     50  C   UNL A   1      43.140  27.888  31.747  1.00  0.00     0.031 C 
ATOM     51  C   UNL A   1      39.327  30.160  29.365  1.00  0.00     0.029 A 
ATOM     52  N   UNL A   1      39.791  30.845  31.442  1.00  0.00    -0.354 N 
ATOM     53  C   UNL A   1      42.942  28.975  33.748  1.00  0.00     0.074 A 
ATOM     54  C   UNL A   1      43.593  27.930  32.991  1.00  0.00     0.031 C 
ATOM     55  C   UNL A   1      38.450  31.127  29.675  1.00  0.00     0.029 A 
ATOM     56  C   UNL A   1      38.700  31.580  31.039  1.00  0.00     0.049 A 
ATOM     57  H   UNL A   1      40.214  30.949  32.325  1.00  0.00     0.167 HD
ATOM     58  C   UNL A   1      43.272  29.323  35.014  1.00  0.00     0.037 A 
ATOM     59  C   UNL A   1      37.973  32.501  31.701  1.00  0.00     0.037 A 
ATOM     60  C   UNL A   1      42.636  30.385  35.749  1.00  0.00     0.049 A 
ATOM     61  C   UNL A   1      38.366  32.874  33.104  1.00  0.00     0.074 A 
ATOM     62  C   UNL A   1      42.949  30.866  37.009  1.00  0.00     0.029 A 
ATOM     63  N   UNL A   1      41.553  31.127  35.298  1.00  0.00    -0.354 N 
ATOM     64  N   UNL A   1      39.343  32.398  33.840  1.00  0.00    -0.248 NA
ATOM     65  C   UNL A   1      37.566  33.914  33.766  1.00  0.00     0.031 C 
ATOM     66  C   UNL A   1      42.019  31.854  37.344  1.00  0.00     0.029 A 
ATOM     67  C   UNL A   1      41.166  32.037  36.267  1.00  0.00     0.049 A 
ATOM     68  H   UNL A   1      41.123  31.020  34.419  1.00  0.00     0.167 HD
ATOM     69  C   UNL A   1      39.291  33.100  35.040  1.00  0.00     0.074 A 
ATOM     70  C   UNL A   1      38.198  34.042  34.925  1.00  0.00     0.031 C 
ATOM     71  C   UNL A   1      40.078  32.975  36.137  1.00  0.00     0.037 A 
BRANCH  58  72
ATOM     72  C   UNL A   1      44.369  28.549  35.697  1.00  0.00     0.058 A 
ATOM     73  C   UNL A   1      44.117  27.346  36.375  1.00  0.00     0.135 A 
ATOM     74  C   UNL A   1      45.701  28.986  35.616  1.00  0.00     0.135 A 
ATOM     75  F   UNL A   1      42.861  26.887  36.496  1.00  0.00    -0.206 F 
ATOM     76  C   UNL A   1      45.143  26.615  36.965  1.00  0.00     0.059 A 
ATOM     77  C   UNL A   1      46.747  28.256  36.172  1.00  0.00     0.059 A 
ATOM     78  F   UNL A   1      46.000  30.132  34.982  1.00  0.00    -0.206 F 
ATOM     79  C   UNL A   1      46.456  27.075  36.854  1.00  0.00     0.060 A 
BRANCH  79  80
ATOM     80  S   UNL A   1      47.777  26.099  37.602  1.00  0.00     0.124 S 
ATOM     81  O   UNL A   1      48.542  25.695  36.425  1.00  0.00    -0.237 OA
ATOM     82  O   UNL A   1      48.425  27.071  38.476  1.00  0.00    -0.237 OA
ATOM     83  O   UNL A   1      47.064  25.024  38.284  1.00  0.00    -0.744 OA
ENDBRANCH  79  80
ENDBRANCH  58  72
BRANCH  59  84
ATOM     84  C   UNL A   1      36.800  33.137  31.040  1.00  0.00     0.058 A 
ATOM     85  C   UNL A   1      35.489  32.827  31.431  1.00  0.00     0.135 A 
ATOM     86  C   UNL A   1      36.970  34.071  30.006  1.00  0.00     0.135 A 
ATOM     87  F   UNL A   1      35.274  31.936  32.412  1.00  0.00    -0.206 F 
ATOM     88  C   UNL A   1      34.386  33.402  30.807  1.00  0.00     0.059 A 
ATOM     89  C   UNL A   1      35.885  34.677  29.384  1.00  0.00     0.059 A 
ATOM     90  F   UNL A   1      38.201  34.426  29.607  1.00  0.00    -0.206 F 
ATOM     91  C   UNL A   1      34.596  34.329  29.785  1.00  0.00     0.060 A 
BRANCH  91  92
ATOM     92  S   UNL A   1      33.167  35.115  29.011  1.00  0.00     0.124 S 
ATOM     93  O   UNL A   1      32.283  35.307  30.155  1.00  0.00    -0.237 OA
ATOM     94  O   UNL A   1      33.754  36.324  28.443  1.00  0.00    -0.237 OA
ATOM     95  O   UNL A   1      32.735  34.118  28.035  1.00  0.00    -0.744 OA
ENDBRANCH  91  92
ENDBRANCH  59  84
BRANCH  71  96
ATOM     96  C   UNL A   1      39.815  33.904  37.291  1.00  0.00     0.058 A 
ATOM     97  C   UNL A   1      38.878  33.600  38.290  1.00  0.00     0.135 A 
ATOM     98  C   UNL A   1      40.554  35.091  37.427  1.00  0.00     0.135 A 
ATOM     99  F   UNL A   1      38.139  32.482  38.206  1.00  0.00    -0.206 F 
ATOM    100  C   UNL A   1      38.663  34.451  39.369  1.00  0.00     0.059 A 
ATOM    101  C   UNL A   1      40.380  35.941  38.515  1.00  0.00     0.059 A 
ATOM    102  F   UNL A   1      41.472  35.426  36.507  1.00  0.00    -0.206 F 
ATOM    103  C   UNL A   1      39.422  35.618  39.475  1.00  0.00     0.060 A 
BRANCH 103 104
ATOM    104  S   UNL A   1      39.158  36.696  40.897  1.00  0.00     0.124 S 
ATOM    105  O   UNL A   1      38.366  35.839  41.773  1.00  0.00    -0.237 OA
ATOM    106  O   UNL A   1      40.523  36.967  41.340  1.00  0.00    -0.237 OA
ATOM    107  O   UNL A   1      38.449  37.840  40.331  1.00  0.00    -0.744 OA
ENDBRANCH 103 104
ENDBRANCH  71  96
ENDBRANCH  45  46
ENDBRANCH  37  40
ENDBRANCH  35  36
ENDBRANCH  34  35
ENDBRANCH  33  34
ENDBRANCH   1  33
TORSDOF 21
ENDMDL
MODEL 2
REMARK VINA RESULT:     -11.0      1.225      2.231
REMARK SMILES C/C=C(\C)[C@H]1C(C)=C[C@H]2CC[C@@H](OS(=O)(=O)[O-])[C@@H](C)[C@H]2[C@H]1/C=C/C=C/C(=O)NCCCCCCNC(=O)c1ccc(-c2c3nc(c(-c4c(F)cc(S(=O)(=O)[O-])cc4F)c4ccc([nH]4)c(-c4c(F)cc(S(=O)(=O)[O-])cc4F)c4nc(c(-c5c(F)cc(S(=O)(=O)[O-])cc5F)c5ccc2[nH]5)C=C4)C=C3)cc1
REMARK SMILES IDX 31 1 30 2 29 3 28 4 26 5 27 6 25 8 24 9 23 10 22 11 21 12
REMARK SMILES IDX 5 13 6 14 7 15 8 16 20 17 9 18 18 19 10 20 12 21 19 22 11 23
REMARK SMILES IDX 3 24 1 25 2 26 4 27 13 28 14 29 15 30 16 31 17 32 32 33
REMARK SMILES IDX 33 34 34 35 35 36 36 37 37 39 38 40 39 41 103 42 40 43
REMARK SMILES IDX 102 44 41 45 42 46 43 47 96 48 44 49 101 50 95 51 97 52
REMARK SMILES IDX 45 53 100 54 94 55 93 56 46 58 80 59 59 60 79 61 60 62 63 63
REMARK SMILES IDX 78 64 98 65 61 66 62 67 77 69 99 70 64 71 47 72 48 73 57 74
REMARK SMILES IDX 49 75 50 76 56 77 58 78 51 79 52 80 53 81 54 82 55 83 81 84
REMARK SMILES IDX 82 85 91 86 83 87 84 88 90 89 92 90 85 91 86 92 87 93 88 94
REMARK SMILES IDX 89 95 65 96 66 97 75 98 67 99 68 100 74 101 76 102 69 103
REMARK SMILES IDX 70 104 71 105 72 106 73 107
REMARK H PARENT 28 7 35 38 97 57 63 68
REMARK Flexibility Score: inf
ROOT
ATOM      1  C   UNL A   1      35.312  22.967  26.728  1.00  0.00     0.002 C 
ENDROOT
BRANCH   1   2
ATOM      2  C   UNL A   1      34.789  21.945  27.746  1.00  0.00     0.021 C 
BRANCH   2   3
ATOM      3  C   UNL A   1      33.574  21.165  27.237  1.00  0.00     0.116 C 
BRANCH   3   4
ATOM      4  N   UNL A   1      33.984  20.195  26.230  1.00  0.00    -0.353 N 
ATOM      5  C   UNL A   1      33.954  20.208  24.871  1.00  0.00     0.243 C 
ATOM      6  O   UNL A   1      34.431  19.258  24.251  1.00  0.00    -0.270 OA
ATOM      7  H   UNL A   1      34.356  19.365  26.609  1.00  0.00     0.163 HD
BRANCH   5   8
ATOM      8  C   UNL A   1      33.440  21.371  24.111  1.00  0.00     0.071 C 
ATOM      9  C   UNL A   1      34.201  22.415  23.778  1.00  0.00     0.005 C 
BRANCH   9  10
ATOM     10  C   UNL A   1      33.793  23.567  23.009  1.00  0.00    -0.004 C 
ATOM     11  C   UNL A   1      33.454  24.675  23.686  1.00  0.00    -0.022 C 
BRANCH  11  12
ATOM     12  C   UNL A   1      32.662  25.850  23.167  1.00  0.00     0.027 C 
ATOM     13  C   UNL A   1      31.091  25.568  23.204  1.00  0.00     0.047 C 
ATOM     14  C   UNL A   1      30.235  26.769  23.597  1.00  0.00    -0.069 C 
ATOM     15  C   UNL A   1      28.764  26.556  23.843  1.00  0.00     0.040 C 
ATOM     16  C   UNL A   1      30.741  28.018  23.653  1.00  0.00    -0.024 C 
ATOM     17  C   UNL A   1      33.139  27.211  23.779  1.00  0.00     0.009 C 
ATOM     18  C   UNL A   1      32.179  28.348  23.355  1.00  0.00     0.016 C 
ATOM     19  C   UNL A   1      33.526  27.247  25.300  1.00  0.00     0.021 C 
ATOM     20  C   UNL A   1      32.604  29.718  23.919  1.00  0.00     0.011 C 
ATOM     21  C   UNL A   1      34.008  28.660  25.709  1.00  0.00     0.141 C 
ATOM     22  C   UNL A   1      32.465  26.736  26.282  1.00  0.00     0.011 C 
ATOM     23  C   UNL A   1      32.936  29.703  25.405  1.00  0.00     0.034 C 
BRANCH  13  24
ATOM     24  C   UNL A   1      30.694  24.211  23.864  1.00  0.00    -0.070 C 
ATOM     25  C   UNL A   1      30.476  22.729  25.958  1.00  0.00     0.035 C 
ATOM     26  C   UNL A   1      30.698  23.998  25.198  1.00  0.00    -0.031 C 
ATOM     27  C   UNL A   1      30.335  23.132  22.866  1.00  0.00     0.040 C 
ENDBRANCH  13  24
BRANCH  21  28
ATOM     28  O   UNL A   1      34.304  28.662  27.102  1.00  0.00    -0.276 OA
BRANCH  28  29
ATOM     29  S   UNL A   1      35.138  29.900  27.734  1.00  0.00     0.217 S 
ATOM     30  O   UNL A   1      36.362  30.053  26.973  1.00  0.00    -0.213 OA
ATOM     31  O   UNL A   1      34.231  31.000  27.942  1.00  0.00    -0.213 OA
ATOM     32  O   UNL A   1      35.541  29.355  29.192  1.00  0.00    -0.726 OA
ENDBRANCH  28  29
ENDBRANCH  21  28
ENDBRANCH  11  12
ENDBRANCH   9  10
ENDBRANCH   5   8
ENDBRANCH   3   4
ENDBRANCH   2   3
ENDBRANCH   1   2
BRANCH   1  33
ATOM     33  C   UNL A   1      36.647  22.585  26.073  1.00  0.00     0.002 C 
BRANCH  33  34
ATOM     34  C   UNL A   1      37.494  23.770  25.603  1.00  0.00     0.021 C 
BRANCH  34  35
ATOM     35  C   UNL A   1      38.514  24.252  26.629  1.00  0.00     0.116 C 
BRANCH  35  36
ATOM     36  N   UNL A   1      39.872  24.156  26.117  1.00  0.00    -0.352 N 
ATOM     37  C   UNL A   1      40.962  24.943  26.392  1.00  0.00     0.251 C 
ATOM     38  H   UNL A   1      40.032  23.422  25.482  1.00  0.00     0.163 HD
ATOM     39  O   UNL A   1      41.960  24.877  25.682  1.00  0.00    -0.269 OA
BRANCH  37  40
ATOM     40  C   UNL A   1      40.921  25.874  27.539  1.00  0.00     0.039 A 
ATOM     41  C   UNL A   1      41.826  26.938  27.582  1.00  0.00     0.014 A 
ATOM     42  C   UNL A   1      40.003  25.687  28.576  1.00  0.00     0.014 A 
ATOM     43  C   UNL A   1      41.770  27.847  28.640  1.00  0.00     0.010 A 
ATOM     44  C   UNL A   1      39.898  26.637  29.588  1.00  0.00     0.010 A 
ATOM     45  C   UNL A   1      40.786  27.722  29.635  1.00  0.00    -0.014 A 
BRANCH  45  46
ATOM     46  C   UNL A   1      40.667  28.721  30.727  1.00  0.00     0.031 A 
ATOM     47  C   UNL A   1      41.515  28.596  31.965  1.00  0.00     0.074 A 
ATOM     48  C   UNL A   1      39.749  29.704  30.631  1.00  0.00     0.049 A 
ATOM     49  N   UNL A   1      41.509  29.333  33.045  1.00  0.00    -0.248 NA
ATOM     50  C   UNL A   1      42.476  27.481  32.006  1.00  0.00     0.031 C 
ATOM     51  C   UNL A   1      38.831  29.895  29.504  1.00  0.00     0.029 A 
ATOM     52  N   UNL A   1      39.425  30.719  31.495  1.00  0.00    -0.354 N 
ATOM     53  C   UNL A   1      42.448  28.763  33.899  1.00  0.00     0.074 A 
ATOM     54  C   UNL A   1      42.969  27.591  33.230  1.00  0.00     0.031 C 
ATOM     55  C   UNL A   1      38.063  30.970  29.740  1.00  0.00     0.029 A 
ATOM     56  C   UNL A   1      38.399  31.519  31.049  1.00  0.00     0.049 A 
ATOM     57  H   UNL A   1      39.884  30.861  32.355  1.00  0.00     0.167 HD
ATOM     58  C   UNL A   1      42.851  29.191  35.118  1.00  0.00     0.037 A 
ATOM     59  C   UNL A   1      37.788  32.567  31.636  1.00  0.00     0.037 A 
ATOM     60  C   UNL A   1      42.345  30.375  35.763  1.00  0.00     0.049 A 
ATOM     61  C   UNL A   1      38.260  33.026  32.989  1.00  0.00     0.074 A 
ATOM     62  C   UNL A   1      42.744  30.936  36.964  1.00  0.00     0.029 A 
ATOM     63  N   UNL A   1      41.326  31.177  35.267  1.00  0.00    -0.354 N 
ATOM     64  N   UNL A   1      39.207  32.524  33.744  1.00  0.00    -0.248 NA
ATOM     65  C   UNL A   1      37.587  34.198  33.566  1.00  0.00     0.031 C 
ATOM     66  C   UNL A   1      41.926  32.039  37.224  1.00  0.00     0.029 A 
ATOM     67  C   UNL A   1      41.062  32.207  36.154  1.00  0.00     0.049 A 
ATOM     68  H   UNL A   1      40.861  31.033  34.412  1.00  0.00     0.167 HD
ATOM     69  C   UNL A   1      39.262  33.335  34.873  1.00  0.00     0.074 A 
ATOM     70  C   UNL A   1      38.264  34.369  34.693  1.00  0.00     0.031 C 
ATOM     71  C   UNL A   1      40.068  33.233  35.959  1.00  0.00     0.037 A 
BRANCH  58  72
ATOM     72  C   UNL A   1      43.887  28.376  35.847  1.00  0.00     0.058 A 
ATOM     73  C   UNL A   1      45.262  28.606  35.682  1.00  0.00     0.135 A 
ATOM     74  C   UNL A   1      43.495  27.395  36.772  1.00  0.00     0.135 A 
ATOM     75  F   UNL A   1      45.695  29.521  34.800  1.00  0.00    -0.206 F 
ATOM     76  C   UNL A   1      46.211  27.878  36.392  1.00  0.00     0.059 A 
ATOM     77  C   UNL A   1      44.427  26.676  37.516  1.00  0.00     0.059 A 
ATOM     78  F   UNL A   1      42.193  27.131  36.968  1.00  0.00    -0.206 F 
ATOM     79  C   UNL A   1      45.784  26.919  37.311  1.00  0.00     0.060 A 
BRANCH  79  80
ATOM     80  S   UNL A   1      47.029  26.004  38.243  1.00  0.00     0.124 S 
ATOM     81  O   UNL A   1      47.347  24.919  37.318  1.00  0.00    -0.237 OA
ATOM     82  O   UNL A   1      48.076  27.004  38.430  1.00  0.00    -0.237 OA
ATOM     83  O   UNL A   1      46.323  25.604  39.457  1.00  0.00    -0.744 OA
ENDBRANCH  79  80
ENDBRANCH  58  72
BRANCH  59  84
ATOM     84  C   UNL A   1      36.663  33.254  30.944  1.00  0.00     0.058 A 
ATOM     85  C   UNL A   1      35.338  33.095  31.376  1.00  0.00     0.135 A 
ATOM     86  C   UNL A   1      36.893  34.086  29.837  1.00  0.00     0.135 A 
ATOM     87  F   UNL A   1      35.065  32.305  32.426  1.00  0.00    -0.206 F 
ATOM     88  C   UNL A   1      34.277  33.718  30.725  1.00  0.00     0.059 A 
ATOM     89  C   UNL A   1      35.854  34.739  29.185  1.00  0.00     0.059 A 
ATOM     90  F   UNL A   1      38.142  34.296  29.395  1.00  0.00    -0.206 F 
ATOM     91  C   UNL A   1      34.548  34.541  29.630  1.00  0.00     0.060 A 
BRANCH  91  92
ATOM     92  S   UNL A   1      33.179  35.392  28.817  1.00  0.00     0.124 S 
ATOM     93  O   UNL A   1      32.420  35.884  29.960  1.00  0.00    -0.237 OA
ATOM     94  O   UNL A   1      33.874  36.401  28.024  1.00  0.00    -0.237 OA
ATOM     95  O   UNL A   1      32.544  34.326  28.045  1.00  0.00    -0.744 OA
ENDBRANCH  91  92
ENDBRANCH  59  84
BRANCH  71  96
ATOM     96  C   UNL A   1      39.933  34.287  37.026  1.00  0.00     0.058 A 
ATOM     97  C   UNL A   1      40.571  35.532  36.923  1.00  0.00     0.135 A 
ATOM     98  C   UNL A   1      39.108  34.064  38.141  1.00  0.00     0.135 A 
ATOM     99  F   UNL A   1      41.376  35.796  35.881  1.00  0.00    -0.206 F 
ATOM    100  C   UNL A   1      40.416  36.511  37.899  1.00  0.00     0.059 A 
ATOM    101  C   UNL A   1      38.913  35.041  39.113  1.00  0.00     0.059 A 
ATOM    102  F   UNL A   1      38.466  32.895  38.285  1.00  0.00    -0.206 F 
ATOM    103  C   UNL A   1      39.582  36.257  38.989  1.00  0.00     0.060 A 
BRANCH 103 104
ATOM    104  S   UNL A   1      39.364  37.548  40.231  1.00  0.00     0.124 S 
ATOM    105  O   UNL A   1      38.848  36.783  41.362  1.00  0.00    -0.237 OA
ATOM    106  O   UNL A   1      40.721  38.065  40.383  1.00  0.00    -0.237 OA
ATOM    107  O   UNL A   1      38.415  38.464  39.608  1.00  0.00    -0.744 OA
ENDBRANCH 103 104
ENDBRANCH  71  96
ENDBRANCH  45  46
ENDBRANCH  37  40
ENDBRANCH  35  36
ENDBRANCH  34  35
ENDBRANCH  33  34
ENDBRANCH   1  33
TORSDOF 21
ENDMDL
MODEL 3
REMARK VINA RESULT:     -10.8      5.904      8.224
REMARK SMILES C/C=C(\C)[C@H]1C(C)=C[C@H]2CC[C@@H](OS(=O)(=O)[O-])[C@@H](C)[C@H]2[C@H]1/C=C/C=C/C(=O)NCCCCCCNC(=O)c1ccc(-c2c3nc(c(-c4c(F)cc(S(=O)(=O)[O-])cc4F)c4ccc([nH]4)c(-c4c(F)cc(S(=O)(=O)[O-])cc4F)c4nc(c(-c5c(F)cc(S(=O)(=O)[O-])cc5F)c5ccc2[nH]5)C=C4)C=C3)cc1
REMARK SMILES IDX 31 1 30 2 29 3 28 4 26 5 27 6 25 8 24 9 23 10 22 11 21 12
REMARK SMILES IDX 5 13 6 14 7 15 8 16 20 17 9 18 18 19 10 20 12 21 19 22 11 23
REMARK SMILES IDX 3 24 1 25 2 26 4 27 13 28 14 29 15 30 16 31 17 32 32 33
REMARK SMILES IDX 33 34 34 35 35 36 36 37 37 39 38 40 39 41 103 42 40 43
REMARK SMILES IDX 102 44 41 45 42 46 43 47 96 48 44 49 101 50 95 51 97 52
REMARK SMILES IDX 45 53 100 54 94 55 93 56 46 58 80 59 59 60 79 61 60 62 63 63
REMARK SMILES IDX 78 64 98 65 61 66 62 67 77 69 99 70 64 71 47 72 48 73 57 74
REMARK SMILES IDX 49 75 50 76 56 77 58 78 51 79 52 80 53 81 54 82 55 83 81 84
REMARK SMILES IDX 82 85 91 86 83 87 84 88 90 89 92 90 85 91 86 92 87 93 88 94
REMARK SMILES IDX 89 95 65 96 66 97 75 98 67 99 68 100 74 101 76 102 69 103
REMARK SMILES IDX 70 104 71 105 72 106 73 107
REMARK H PARENT 28 7 35 38 97 57 63 68
REMARK Flexibility Score: inf
ROOT
ATOM      1  C   UNL A   1      40.673  23.226  26.901  1.00  0.00     0.002 C 
ENDROOT
BRANCH   1   2
ATOM      2  C   UNL A   1      39.285  23.787  27.238  1.00  0.00     0.021 C 
BRANCH   2   3
ATOM      3  C   UNL A   1      38.291  23.652  26.081  1.00  0.00     0.116 C 
BRANCH   3   4
ATOM      4  N   UNL A   1      38.330  22.299  25.539  1.00  0.00    -0.353 N 
ATOM      5  C   UNL A   1      37.412  21.545  24.877  1.00  0.00     0.243 C 
ATOM      6  O   UNL A   1      37.735  20.429  24.469  1.00  0.00    -0.270 OA
ATOM      7  H   UNL A   1      39.190  21.841  25.681  1.00  0.00     0.163 HD
BRANCH   5   8
ATOM      8  C   UNL A   1      36.061  22.059  24.558  1.00  0.00     0.071 C 
ATOM      9  C   UNL A   1      35.752  22.612  23.383  1.00  0.00     0.005 C 
BRANCH   9  10
ATOM     10  C   UNL A   1      34.457  23.101  22.975  1.00  0.00    -0.004 C 
ATOM     11  C   UNL A   1      33.805  23.909  23.826  1.00  0.00    -0.022 C 
BRANCH  11  12
ATOM     12  C   UNL A   1      32.333  24.243  23.813  1.00  0.00     0.027 C 
ATOM     13  C   UNL A   1      31.522  23.384  24.886  1.00  0.00     0.047 C 
ATOM     14  C   UNL A   1      30.406  24.143  25.601  1.00  0.00    -0.069 C 
ATOM     15  C   UNL A   1      29.710  23.478  26.760  1.00  0.00     0.040 C 
ATOM     16  C   UNL A   1      29.979  25.350  25.178  1.00  0.00    -0.024 C 
ATOM     17  C   UNL A   1      32.070  25.788  23.816  1.00  0.00     0.009 C 
ATOM     18  C   UNL A   1      30.558  26.068  23.989  1.00  0.00     0.016 C 
ATOM     19  C   UNL A   1      32.985  26.697  24.712  1.00  0.00     0.021 C 
ATOM     20  C   UNL A   1      30.235  27.575  23.987  1.00  0.00     0.011 C 
ATOM     21  C   UNL A   1      32.601  28.187  24.553  1.00  0.00     0.141 C 
ATOM     22  C   UNL A   1      33.070  26.319  26.197  1.00  0.00     0.011 C 
ATOM     23  C   UNL A   1      31.130  28.404  24.899  1.00  0.00     0.034 C 
BRANCH  13  24
ATOM     24  C   UNL A   1      32.410  22.478  25.792  1.00  0.00    -0.070 C 
ATOM     25  C   UNL A   1      34.127  22.224  27.693  1.00  0.00     0.035 C 
ATOM     26  C   UNL A   1      33.137  22.941  26.832  1.00  0.00    -0.031 C 
ATOM     27  C   UNL A   1      32.414  21.022  25.377  1.00  0.00     0.040 C 
ENDBRANCH  13  24
BRANCH  21  28
ATOM     28  O   UNL A   1      33.420  28.970  25.415  1.00  0.00    -0.276 OA
BRANCH  28  29
ATOM     29  S   UNL A   1      32.720  29.975  26.478  1.00  0.00     0.217 S 
ATOM     30  O   UNL A   1      31.800  30.827  25.751  1.00  0.00    -0.213 OA
ATOM     31  O   UNL A   1      32.302  29.207  27.623  1.00  0.00    -0.213 OA
ATOM     32  O   UNL A   1      33.947  30.895  26.965  1.00  0.00    -0.726 OA
ENDBRANCH  28  29
ENDBRANCH  21  28
ENDBRANCH  11  12
ENDBRANCH   9  10
ENDBRANCH   5   8
ENDBRANCH   3   4
ENDBRANCH   2   3
ENDBRANCH   1   2
BRANCH   1  33
ATOM     33  C   UNL A   1      41.080  21.999  27.729  1.00  0.00     0.002 C 
BRANCH  33  34
ATOM     34  C   UNL A   1      41.061  20.673  26.966  1.00  0.00     0.021 C 
BRANCH  34  35
ATOM     35  C   UNL A   1      42.168  19.706  27.371  1.00  0.00     0.116 C 
BRANCH  35  36
ATOM     36  N   UNL A   1      42.888  19.203  26.210  1.00  0.00    -0.352 N 
ATOM     37  C   UNL A   1      43.624  19.892  25.280  1.00  0.00     0.251 C 
ATOM     38  H   UNL A   1      42.838  18.230  26.072  1.00  0.00     0.163 HD
ATOM     39  O   UNL A   1      43.950  19.347  24.230  1.00  0.00    -0.269 OA
BRANCH  37  40
ATOM     40  C   UNL A   1      44.015  21.292  25.547  1.00  0.00     0.039 A 
ATOM     41  C   UNL A   1      43.630  22.287  24.645  1.00  0.00     0.014 A 
ATOM     42  C   UNL A   1      44.771  21.618  26.676  1.00  0.00     0.014 A 
ATOM     43  C   UNL A   1      43.958  23.619  24.908  1.00  0.00     0.010 A 
ATOM     44  C   UNL A   1      45.029  22.952  26.975  1.00  0.00     0.010 A 
ATOM     45  C   UNL A   1      44.632  23.966  26.090  1.00  0.00    -0.014 A 
BRANCH  45  46
ATOM     46  C   UNL A   1      44.925  25.384  26.419  1.00  0.00     0.031 A 
ATOM     47  C   UNL A   1      46.325  25.920  26.288  1.00  0.00     0.074 A 
ATOM     48  C   UNL A   1      43.940  26.171  26.898  1.00  0.00     0.049 A 
ATOM     49  N   UNL A   1      46.784  27.108  26.585  1.00  0.00    -0.248 NA
ATOM     50  C   UNL A   1      47.351  24.991  25.784  1.00  0.00     0.031 C 
ATOM     51  C   UNL A   1      42.554  25.749  27.121  1.00  0.00     0.029 A 
ATOM     52  N   UNL A   1      43.952  27.484  27.295  1.00  0.00    -0.354 N 
ATOM     53  C   UNL A   1      48.149  27.065  26.321  1.00  0.00     0.074 A 
ATOM     54  C   UNL A   1      48.452  25.720  25.885  1.00  0.00     0.031 C 
ATOM     55  C   UNL A   1      41.849  26.786  27.597  1.00  0.00     0.029 A 
ATOM     56  C   UNL A   1      42.736  27.934  27.756  1.00  0.00     0.049 A 
ATOM     57  H   UNL A   1      44.755  28.051  27.254  1.00  0.00     0.167 HD
ATOM     58  C   UNL A   1      49.060  28.063  26.414  1.00  0.00     0.037 A 
ATOM     59  C   UNL A   1      42.381  29.130  28.264  1.00  0.00     0.037 A 
ATOM     60  C   UNL A   1      48.741  29.407  26.822  1.00  0.00     0.049 A 
ATOM     61  C   UNL A   1      43.411  30.224  28.350  1.00  0.00     0.074 A 
ATOM     62  C   UNL A   1      49.577  30.509  26.876  1.00  0.00     0.029 A 
ATOM     63  N   UNL A   1      47.493  29.832  27.255  1.00  0.00    -0.354 N 
ATOM     64  N   UNL A   1      44.679  30.189  28.017  1.00  0.00    -0.248 NA
ATOM     65  C   UNL A   1      42.962  31.521  28.874  1.00  0.00     0.031 C 
ATOM     66  C   UNL A   1      48.851  31.583  27.398  1.00  0.00     0.029 A 
ATOM     67  C   UNL A   1      47.545  31.170  27.607  1.00  0.00     0.049 A 
ATOM     68  H   UNL A   1      46.690  29.266  27.304  1.00  0.00     0.167 HD
ATOM     69  C   UNL A   1      45.172  31.466  28.264  1.00  0.00     0.074 A 
ATOM     70  C   UNL A   1      44.062  32.252  28.760  1.00  0.00     0.031 C 
ATOM     71  C   UNL A   1      46.430  31.943  28.095  1.00  0.00     0.037 A 
BRANCH  58  72
ATOM     72  C   UNL A   1      50.492  27.747  26.076  1.00  0.00     0.058 A 
ATOM     73  C   UNL A   1      50.977  27.819  24.760  1.00  0.00     0.135 A 
ATOM     74  C   UNL A   1      51.408  27.430  27.092  1.00  0.00     0.135 A 
ATOM     75  F   UNL A   1      50.145  28.103  23.746  1.00  0.00    -0.206 F 
ATOM     76  C   UNL A   1      52.312  27.568  24.462  1.00  0.00     0.059 A 
ATOM     77  C   UNL A   1      52.754  27.205  26.822  1.00  0.00     0.059 A 
ATOM     78  F   UNL A   1      50.999  27.344  28.369  1.00  0.00    -0.206 F 
ATOM     79  C   UNL A   1      53.196  27.267  25.501  1.00  0.00     0.060 A 
BRANCH  79  80
ATOM     80  S   UNL A   1      54.930  26.971  25.099  1.00  0.00     0.124 S 
ATOM     81  O   UNL A   1      54.817  25.973  24.039  1.00  0.00    -0.237 OA
ATOM     82  O   UNL A   1      55.381  28.293  24.678  1.00  0.00    -0.237 OA
ATOM     83  O   UNL A   1      55.495  26.489  26.355  1.00  0.00    -0.744 OA
ENDBRANCH  79  80
ENDBRANCH  58  72
BRANCH  59  84
ATOM     84  C   UNL A   1      40.985  29.355  28.729  1.00  0.00     0.058 A 
ATOM     85  C   UNL A   1      39.920  29.442  27.819  1.00  0.00     0.135 A 
ATOM     86  C   UNL A   1      40.688  29.485  30.095  1.00  0.00     0.135 A 
ATOM     87  F   UNL A   1      40.153  29.330  26.502  1.00  0.00    -0.206 F 
ATOM     88  C   UNL A   1      38.614  29.671  28.243  1.00  0.00     0.059 A 
ATOM     89  C   UNL A   1      39.389  29.689  30.544  1.00  0.00     0.059 A 
ATOM     90  F   UNL A   1      41.662  29.385  31.013  1.00  0.00    -0.206 F 
ATOM     91  C   UNL A   1      38.360  29.790  29.609  1.00  0.00     0.060 A 
BRANCH  91  92
ATOM     92  S   UNL A   1      36.659  30.034  30.164  1.00  0.00     0.124 S 
ATOM     93  O   UNL A   1      36.652  29.294  31.420  1.00  0.00    -0.237 OA
ATOM     94  O   UNL A   1      36.578  31.487  30.273  1.00  0.00    -0.237 OA
ATOM     95  O   UNL A   1      35.875  29.450  29.078  1.00  0.00    -0.744 OA
ENDBRANCH  91  92
ENDBRANCH  59  84
BRANCH  71  96
ATOM     96  C   UNL A   1      46.671  33.395  28.411  1.00  0.00     0.058 A 
ATOM     97  C   UNL A   1      46.496  34.402  27.450  1.00  0.00     0.135 A 
ATOM     98  C   UNL A   1      47.029  33.786  29.712  1.00  0.00     0.135 A 
ATOM     99  F   UNL A   1      46.161  34.084  26.190  1.00  0.00    -0.206 F 
ATOM    100  C   UNL A   1      46.692  35.745  27.760  1.00  0.00     0.059 A 
ATOM    101  C   UNL A   1      47.198  35.124  30.053  1.00  0.00     0.059 A 
ATOM    102  F   UNL A   1      47.199  32.864  30.673  1.00  0.00    -0.206 F 
ATOM    103  C   UNL A   1      47.040  36.096  29.066  1.00  0.00     0.060 A 
BRANCH 103 104
ATOM    104  S   UNL A   1      47.259  37.842  29.463  1.00  0.00     0.124 S 
ATOM    105  O   UNL A   1      46.146  38.078  30.378  1.00  0.00    -0.237 OA
ATOM    106  O   UNL A   1      48.589  37.860  30.065  1.00  0.00    -0.237 OA
ATOM    107  O   UNL A   1      47.155  38.502  28.166  1.00  0.00    -0.744 OA
ENDBRANCH 103 104
ENDBRANCH  71  96
ENDBRANCH  45  46
ENDBRANCH  37  40
ENDBRANCH  35  36
ENDBRANCH  34  35
ENDBRANCH  33  34
ENDBRANCH   1  33
TORSDOF 21
ENDMDL
