MODEL 1
REMARK VINA RESULT:     -11.0      0.000      0.000
REMARK SMILES CCN(C[C@H](C)C(=O)NCCCCCCNC(=O)c1ccc(-c2c3nc(c(-c4c(F)cc(S(=O)(=O)[O-])cc4F)c4ccc([nH]4)c(-c4c(F)cc(S(=O)(=O)[O-])cc4F)c4nc(c(-c5c(F)cc(S(=O)(=O)[O-])cc5F)c5ccc2[nH]5)C=C4)C=C3)cc1)c1ccc(C(=O)NC)nn1
REMARK SMILES IDX 12 1 11 2 10 3 9 4 7 5 8 6 5 8 6 9 4 10 3 11 2 12 1 13 85 14
REMARK SMILES IDX 86 15 94 16 87 17 93 18 88 19 89 20 90 21 91 22 92 23 13 25
REMARK SMILES IDX 14 26 15 27 16 28 17 29 18 31 19 32 20 33 84 34 21 35 83 36
REMARK SMILES IDX 22 37 23 38 24 39 77 40 25 41 82 42 76 43 78 44 26 45 81 46
REMARK SMILES IDX 75 47 74 48 27 50 61 51 40 52 60 53 41 54 44 55 59 56 79 57
REMARK SMILES IDX 42 58 43 59 58 61 80 62 45 63 28 64 29 65 38 66 30 67 31 68
REMARK SMILES IDX 37 69 39 70 32 71 33 72 34 73 35 74 36 75 62 76 63 77 72 78
REMARK SMILES IDX 64 79 65 80 71 81 73 82 66 83 67 84 68 85 69 86 70 87 46 88
REMARK SMILES IDX 47 89 56 90 48 91 49 92 55 93 57 94 50 95 51 96 52 97 53 98
REMARK SMILES IDX 54 99
REMARK H PARENT 9 7 91 24 16 30 78 49 44 60
REMARK Flexibility Score: inf
ROOT
ATOM      1  C   UNL A   1      36.932  22.169  24.296  1.00  0.00     0.002 C 
ENDROOT
BRANCH   1   2
ATOM      2  C   UNL A   1      35.780  23.007  23.730  1.00  0.00     0.021 C 
BRANCH   2   3
ATOM      3  C   UNL A   1      34.554  23.048  24.637  1.00  0.00     0.116 C 
BRANCH   3   4
ATOM      4  N   UNL A   1      33.352  22.788  23.867  1.00  0.00    -0.356 N 
ATOM      5  C   UNL A   1      32.396  23.637  23.407  1.00  0.00     0.224 C 
ATOM      6  O   UNL A   1      31.280  23.156  23.187  1.00  0.00    -0.275 OA
ATOM      7  H   UNL A   1      33.206  21.841  23.642  1.00  0.00     0.163 HD
BRANCH   5   8
ATOM      8  C   UNL A   1      32.646  25.131  23.258  1.00  0.00     0.095 C 
ATOM      9  C   UNL A   1      32.615  25.493  21.768  1.00  0.00     0.020 C 
BRANCH   8  10
ATOM     10  C   UNL A   1      31.715  26.002  24.125  1.00  0.00     0.131 C 
BRANCH  10  11
ATOM     11  N   UNL A   1      31.985  27.444  24.067  1.00  0.00    -0.355 N 
BRANCH  11  12
ATOM     12  C   UNL A   1      33.290  27.967  24.445  1.00  0.00     0.115 C 
ATOM     13  C   UNL A   1      33.620  27.679  25.902  1.00  0.00     0.027 C 
ENDBRANCH  11  12
BRANCH  11  14
ATOM     14  C   UNL A   1      30.969  28.314  23.721  1.00  0.00     0.151 A 
ATOM     15  C   UNL A   1      29.971  27.938  22.830  1.00  0.00     0.051 A 
ATOM     16  N   UNL A   1      30.907  29.537  24.271  1.00  0.00    -0.132 NA
ATOM     17  C   UNL A   1      28.910  28.804  22.535  1.00  0.00     0.040 A 
ATOM     18  N   UNL A   1      29.862  30.411  23.984  1.00  0.00    -0.143 NA
ATOM     19  C   UNL A   1      28.883  30.051  23.130  1.00  0.00     0.150 A 
BRANCH  19  20
ATOM     20  C   UNL A   1      27.768  31.036  22.991  1.00  0.00     0.271 C 
ATOM     21  O   UNL A   1      27.013  31.251  23.943  1.00  0.00    -0.267 OA
ATOM     22  N   UNL A   1      27.506  31.741  21.838  1.00  0.00    -0.354 N 
ATOM     23  C   UNL A   1      28.228  31.893  20.598  1.00  0.00     0.143 C 
ATOM     24  H   UNL A   1      26.658  32.240  21.865  1.00  0.00     0.163 HD
ENDBRANCH  19  20
ENDBRANCH  11  14
ENDBRANCH  10  11
ENDBRANCH   8  10
ENDBRANCH   5   8
ENDBRANCH   3   4
ENDBRANCH   2   3
ENDBRANCH   1   2
BRANCH   1  25
ATOM     25  C   UNL A   1      37.281  22.465  25.759  1.00  0.00     0.002 C 
BRANCH  25  26
ATOM     26  C   UNL A   1      38.156  23.702  25.972  1.00  0.00     0.021 C 
BRANCH  26  27
ATOM     27  C   UNL A   1      39.317  23.494  26.940  1.00  0.00     0.116 C 
BRANCH  27  28
ATOM     28  N   UNL A   1      40.604  23.690  26.294  1.00  0.00    -0.352 N 
ATOM     29  C   UNL A   1      41.454  24.767  26.361  1.00  0.00     0.251 C 
ATOM     30  H   UNL A   1      40.909  22.945  25.727  1.00  0.00     0.163 HD
ATOM     31  O   UNL A   1      42.397  24.855  25.585  1.00  0.00    -0.269 OA
BRANCH  29  32
ATOM     32  C   UNL A   1      41.207  25.828  27.360  1.00  0.00     0.039 A 
ATOM     33  C   UNL A   1      40.243  25.614  28.346  1.00  0.00     0.014 A 
ATOM     34  C   UNL A   1      41.930  27.025  27.329  1.00  0.00     0.014 A 
ATOM     35  C   UNL A   1      40.049  26.575  29.341  1.00  0.00     0.010 A 
ATOM     36  C   UNL A   1      41.788  27.947  28.362  1.00  0.00     0.010 A 
ATOM     37  C   UNL A   1      40.847  27.731  29.380  1.00  0.00    -0.014 A 
BRANCH  37  38
ATOM     38  C   UNL A   1      40.730  28.704  30.496  1.00  0.00     0.031 A 
ATOM     39  C   UNL A   1      41.605  28.579  31.713  1.00  0.00     0.074 A 
ATOM     40  C   UNL A   1      39.784  29.664  30.437  1.00  0.00     0.049 A 
ATOM     41  N   UNL A   1      41.606  29.301  32.804  1.00  0.00    -0.248 NA
ATOM     42  C   UNL A   1      42.592  27.487  31.714  1.00  0.00     0.031 C 
ATOM     43  C   UNL A   1      38.839  29.853  29.333  1.00  0.00     0.029 A 
ATOM     44  N   UNL A   1      39.452  30.654  31.327  1.00  0.00    -0.354 N 
ATOM     45  C   UNL A   1      42.581  28.745  33.626  1.00  0.00     0.074 A 
ATOM     46  C   UNL A   1      43.117  27.597  32.927  1.00  0.00     0.031 C 
ATOM     47  C   UNL A   1      38.049  30.903  29.603  1.00  0.00     0.029 A 
ATOM     48  C   UNL A   1      38.397  31.437  30.915  1.00  0.00     0.049 A 
ATOM     49  H   UNL A   1      39.923  30.792  32.181  1.00  0.00     0.167 HD
ATOM     50  C   UNL A   1      43.001  29.167  34.843  1.00  0.00     0.037 A 
ATOM     51  C   UNL A   1      37.771  32.459  31.530  1.00  0.00     0.037 A 
ATOM     52  C   UNL A   1      42.474  30.324  35.520  1.00  0.00     0.049 A 
ATOM     53  C   UNL A   1      38.253  32.904  32.884  1.00  0.00     0.074 A 
ATOM     54  C   UNL A   1      42.883  30.875  36.722  1.00  0.00     0.029 A 
ATOM     55  N   UNL A   1      41.418  31.101  35.065  1.00  0.00    -0.354 N 
ATOM     56  N   UNL A   1      39.232  32.418  33.610  1.00  0.00    -0.248 NA
ATOM     57  C   UNL A   1      37.553  34.037  33.502  1.00  0.00     0.031 C 
ATOM     58  C   UNL A   1      42.037  31.947  37.023  1.00  0.00     0.029 A 
ATOM     59  C   UNL A   1      41.140  32.104  35.979  1.00  0.00     0.049 A 
ATOM     60  H   UNL A   1      40.938  30.959  34.217  1.00  0.00     0.167 HD
ATOM     61  C   UNL A   1      39.279  33.200  34.759  1.00  0.00     0.074 A 
ATOM     62  C   UNL A   1      38.242  34.203  34.622  1.00  0.00     0.031 C 
ATOM     63  C   UNL A   1      40.104  33.097  35.831  1.00  0.00     0.037 A 
BRANCH  50  64
ATOM     64  C   UNL A   1      44.082  28.375  35.528  1.00  0.00     0.058 A 
ATOM     65  C   UNL A   1      45.444  28.619  35.289  1.00  0.00     0.135 A 
ATOM     66  C   UNL A   1      43.752  27.398  36.481  1.00  0.00     0.135 A 
ATOM     67  F   UNL A   1      45.818  29.532  34.378  1.00  0.00    -0.206 F 
ATOM     68  C   UNL A   1      46.438  27.907  35.953  1.00  0.00     0.059 A 
ATOM     69  C   UNL A   1      44.729  26.695  37.179  1.00  0.00     0.059 A 
ATOM     70  F   UNL A   1      42.465  27.122  36.749  1.00  0.00    -0.206 F 
ATOM     71  C   UNL A   1      46.071  26.950  36.900  1.00  0.00     0.060 A 
BRANCH  71  72
ATOM     72  S   UNL A   1      47.375  26.051  37.766  1.00  0.00     0.124 S 
ATOM     73  O   UNL A   1      47.295  26.637  39.101  1.00  0.00    -0.237 OA
ATOM     74  O   UNL A   1      46.926  24.667  37.654  1.00  0.00    -0.237 OA
ATOM     75  O   UNL A   1      48.577  26.381  37.008  1.00  0.00    -0.744 OA
ENDBRANCH  71  72
ENDBRANCH  50  64
BRANCH  51  76
ATOM     76  C   UNL A   1      36.619  33.130  30.870  1.00  0.00     0.058 A 
ATOM     77  C   UNL A   1      35.303  32.919  31.311  1.00  0.00     0.135 A 
ATOM     78  C   UNL A   1      36.811  34.006  29.790  1.00  0.00     0.135 A 
ATOM     79  F   UNL A   1      35.065  32.086  32.335  1.00  0.00    -0.206 F 
ATOM     80  C   UNL A   1      34.219  33.535  30.693  1.00  0.00     0.059 A 
ATOM     81  C   UNL A   1      35.746  34.657  29.175  1.00  0.00     0.059 A 
ATOM     82  F   UNL A   1      38.050  34.258  29.339  1.00  0.00    -0.206 F 
ATOM     83  C   UNL A   1      34.452  34.406  29.627  1.00  0.00     0.060 A 
BRANCH  83  84
ATOM     84  S   UNL A   1      33.042  35.237  28.862  1.00  0.00     0.124 S 
ATOM     85  O   UNL A   1      32.196  35.504  30.017  1.00  0.00    -0.237 OA
ATOM     86  O   UNL A   1      33.672  36.400  28.245  1.00  0.00    -0.237 OA
ATOM     87  O   UNL A   1      32.535  34.238  27.924  1.00  0.00    -0.744 OA
ENDBRANCH  83  84
ENDBRANCH  51  76
BRANCH  63  88
ATOM     88  C   UNL A   1      39.939  34.108  36.933  1.00  0.00     0.058 A 
ATOM     89  C   UNL A   1      40.597  35.347  36.903  1.00  0.00     0.135 A 
ATOM     90  C   UNL A   1      39.067  33.856  38.005  1.00  0.00     0.135 A 
ATOM     91  F   UNL A   1      41.447  35.638  35.905  1.00  0.00    -0.206 F 
ATOM     92  C   UNL A   1      40.417  36.291  37.910  1.00  0.00     0.059 A 
ATOM     93  C   UNL A   1      38.847  34.797  39.006  1.00  0.00     0.059 A 
ATOM     94  F   UNL A   1      38.404  32.691  38.079  1.00  0.00    -0.206 F 
ATOM     95  C   UNL A   1      39.538  36.007  38.956  1.00  0.00     0.060 A 
BRANCH  95  96
ATOM     96  S   UNL A   1      39.287  37.255  40.236  1.00  0.00     0.124 S 
ATOM     97  O   UNL A   1      38.412  38.203  39.555  1.00  0.00    -0.237 OA
ATOM     98  O   UNL A   1      38.671  36.481  41.309  1.00  0.00    -0.237 OA
ATOM     99  O   UNL A   1      40.638  37.735  40.513  1.00  0.00    -0.744 OA
ENDBRANCH  95  96
ENDBRANCH  63  88
ENDBRANCH  37  38
ENDBRANCH  29  32
ENDBRANCH  27  28
ENDBRANCH  26  27
ENDBRANCH  25  26
ENDBRANCH   1  25
TORSDOF 21
ENDMDL
MODEL 2
REMARK VINA RESULT:     -10.9      6.713     13.421
REMARK SMILES CCN(C[C@H](C)C(=O)NCCCCCCNC(=O)c1ccc(-c2c3nc(c(-c4c(F)cc(S(=O)(=O)[O-])cc4F)c4ccc([nH]4)c(-c4c(F)cc(S(=O)(=O)[O-])cc4F)c4nc(c(-c5c(F)cc(S(=O)(=O)[O-])cc5F)c5ccc2[nH]5)C=C4)C=C3)cc1)c1ccc(C(=O)NC)nn1
REMARK SMILES IDX 12 1 11 2 10 3 9 4 7 5 8 6 5 8 6 9 4 10 3 11 2 12 1 13 85 14
REMARK SMILES IDX 86 15 94 16 87 17 93 18 88 19 89 20 90 21 91 22 92 23 13 25
REMARK SMILES IDX 14 26 15 27 16 28 17 29 18 31 19 32 20 33 84 34 21 35 83 36
REMARK SMILES IDX 22 37 23 38 24 39 77 40 25 41 82 42 76 43 78 44 26 45 81 46
REMARK SMILES IDX 75 47 74 48 27 50 61 51 40 52 60 53 41 54 44 55 59 56 79 57
REMARK SMILES IDX 42 58 43 59 58 61 80 62 45 63 28 64 29 65 38 66 30 67 31 68
REMARK SMILES IDX 37 69 39 70 32 71 33 72 34 73 35 74 36 75 62 76 63 77 72 78
REMARK SMILES IDX 64 79 65 80 71 81 73 82 66 83 67 84 68 85 69 86 70 87 46 88
REMARK SMILES IDX 47 89 56 90 48 91 49 92 55 93 57 94 50 95 51 96 52 97 53 98
REMARK SMILES IDX 54 99
REMARK H PARENT 9 7 91 24 16 30 78 49 44 60
REMARK Flexibility Score: inf
ROOT
ATOM      1  C   UNL A   1      39.394  33.704  29.978  1.00  0.00     0.002 C 
ENDROOT
BRANCH   1   2
ATOM      2  C   UNL A   1      38.867  33.936  31.398  1.00  0.00     0.021 C 
BRANCH   2   3
ATOM      3  C   UNL A   1      39.890  33.624  32.486  1.00  0.00     0.116 C 
BRANCH   3   4
ATOM      4  N   UNL A   1      40.005  34.743  33.402  1.00  0.00    -0.356 N 
ATOM      5  C   UNL A   1      39.688  34.843  34.720  1.00  0.00     0.224 C 
ATOM      6  O   UNL A   1      39.449  35.974  35.153  1.00  0.00    -0.275 OA
ATOM      7  H   UNL A   1      40.373  35.564  33.003  1.00  0.00     0.163 HD
BRANCH   5   8
ATOM      8  C   UNL A   1      39.536  33.617  35.608  1.00  0.00     0.095 C 
ATOM      9  C   UNL A   1      40.345  33.831  36.893  1.00  0.00     0.020 C 
BRANCH   8  10
ATOM     10  C   UNL A   1      38.068  33.218  35.863  1.00  0.00     0.131 C 
BRANCH  10  11
ATOM     11  N   UNL A   1      37.428  32.482  34.765  1.00  0.00    -0.355 N 
BRANCH  11  12
ATOM     12  C   UNL A   1      37.833  31.119  34.455  1.00  0.00     0.115 C 
ATOM     13  C   UNL A   1      38.700  30.518  35.551  1.00  0.00     0.027 C 
ENDBRANCH  11  12
BRANCH  11  14
ATOM     14  C   UNL A   1      36.487  33.117  33.978  1.00  0.00     0.151 A 
ATOM     15  C   UNL A   1      36.256  34.483  34.092  1.00  0.00     0.051 A 
ATOM     16  N   UNL A   1      35.796  32.427  33.056  1.00  0.00    -0.132 NA
ATOM     17  C   UNL A   1      35.345  35.129  33.244  1.00  0.00     0.040 A 
ATOM     18  N   UNL A   1      34.884  33.053  32.211  1.00  0.00    -0.143 NA
ATOM     19  C   UNL A   1      34.662  34.379  32.306  1.00  0.00     0.150 A 
BRANCH  19  20
ATOM     20  C   UNL A   1      33.742  34.944  31.272  1.00  0.00     0.271 C 
ATOM     21  O   UNL A   1      33.485  34.296  30.256  1.00  0.00    -0.267 OA
ATOM     22  N   UNL A   1      33.145  36.181  31.371  1.00  0.00    -0.354 N 
ATOM     23  C   UNL A   1      33.062  37.146  32.441  1.00  0.00     0.143 C 
ATOM     24  H   UNL A   1      32.683  36.463  30.549  1.00  0.00     0.163 HD
ENDBRANCH  19  20
ENDBRANCH  11  14
ENDBRANCH  10  11
ENDBRANCH   8  10
ENDBRANCH   5   8
ENDBRANCH   3   4
ENDBRANCH   2   3
ENDBRANCH   1   2
BRANCH   1  25
ATOM     25  C   UNL A   1      38.320  33.719  28.885  1.00  0.00     0.002 C 
BRANCH  25  26
ATOM     26  C   UNL A   1      36.884  33.569  29.395  1.00  0.00     0.021 C 
BRANCH  26  27
ATOM     27  C   UNL A   1      36.147  32.348  28.853  1.00  0.00     0.116 C 
BRANCH  27  28
ATOM     28  N   UNL A   1      35.776  31.424  29.912  1.00  0.00    -0.352 N 
ATOM     29  C   UNL A   1      36.456  30.329  30.386  1.00  0.00     0.251 C 
ATOM     30  H   UNL A   1      34.915  31.610  30.351  1.00  0.00     0.163 HD
ATOM     31  O   UNL A   1      35.900  29.538  31.138  1.00  0.00    -0.269 OA
BRANCH  29  32
ATOM     32  C   UNL A   1      37.854  30.100  29.964  1.00  0.00     0.039 A 
ATOM     33  C   UNL A   1      38.860  30.108  30.933  1.00  0.00     0.014 A 
ATOM     34  C   UNL A   1      38.170  29.871  28.622  1.00  0.00     0.014 A 
ATOM     35  C   UNL A   1      40.175  29.821  30.563  1.00  0.00     0.010 A 
ATOM     36  C   UNL A   1      39.468  29.513  28.267  1.00  0.00     0.010 A 
ATOM     37  C   UNL A   1      40.484  29.482  29.234  1.00  0.00    -0.014 A 
BRANCH  37  38
ATOM     38  C   UNL A   1      41.857  29.064  28.850  1.00  0.00     0.031 A 
ATOM     39  C   UNL A   1      42.974  30.069  28.797  1.00  0.00     0.074 A 
ATOM     40  C   UNL A   1      42.078  27.784  28.485  1.00  0.00     0.049 A 
ATOM     41  N   UNL A   1      44.219  29.899  28.432  1.00  0.00    -0.248 NA
ATOM     42  C   UNL A   1      42.645  31.451  29.181  1.00  0.00     0.031 C 
ATOM     43  C   UNL A   1      41.062  26.729  28.444  1.00  0.00     0.029 A 
ATOM     44  N   UNL A   1      43.224  27.154  28.068  1.00  0.00    -0.354 N 
ATOM     45  C   UNL A   1      44.818  31.150  28.530  1.00  0.00     0.074 A 
ATOM     46  C   UNL A   1      43.789  32.079  28.943  1.00  0.00     0.031 C 
ATOM     47  C   UNL A   1      41.633  25.582  28.043  1.00  0.00     0.029 A 
ATOM     48  C   UNL A   1      43.043  25.826  27.757  1.00  0.00     0.049 A 
ATOM     49  H   UNL A   1      44.094  27.610  27.997  1.00  0.00     0.167 HD
ATOM     50  C   UNL A   1      46.112  31.485  28.314  1.00  0.00     0.037 A 
ATOM     51  C   UNL A   1      43.908  24.910  27.280  1.00  0.00     0.037 A 
ATOM     52  C   UNL A   1      47.133  30.548  27.923  1.00  0.00     0.049 A 
ATOM     53  C   UNL A   1      45.339  25.311  27.043  1.00  0.00     0.074 A 
ATOM     54  C   UNL A   1      48.487  30.776  27.750  1.00  0.00     0.029 A 
ATOM     55  N   UNL A   1      46.916  29.208  27.634  1.00  0.00    -0.354 N 
ATOM     56  N   UNL A   1      45.908  26.480  27.221  1.00  0.00    -0.248 NA
ATOM     57  C   UNL A   1      46.249  24.271  26.546  1.00  0.00     0.031 C 
ATOM     58  C   UNL A   1      49.078  29.592  27.298  1.00  0.00     0.029 A 
ATOM     59  C   UNL A   1      48.104  28.608  27.250  1.00  0.00     0.049 A 
ATOM     60  H   UNL A   1      46.045  28.753  27.693  1.00  0.00     0.167 HD
ATOM     61  C   UNL A   1      47.244  26.310  26.879  1.00  0.00     0.074 A 
ATOM     62  C   UNL A   1      47.404  24.921  26.502  1.00  0.00     0.031 C 
ATOM     63  C   UNL A   1      48.249  27.222  26.876  1.00  0.00     0.037 A 
BRANCH  50  64
ATOM     64  C   UNL A   1      46.504  32.928  28.490  1.00  0.00     0.058 A 
ATOM     65  C   UNL A   1      46.926  33.436  29.730  1.00  0.00     0.135 A 
ATOM     66  C   UNL A   1      46.515  33.802  27.390  1.00  0.00     0.135 A 
ATOM     67  F   UNL A   1      46.922  32.650  30.819  1.00  0.00    -0.206 F 
ATOM     68  C   UNL A   1      47.320  34.762  29.877  1.00  0.00     0.059 A 
ATOM     69  C   UNL A   1      46.934  35.123  27.508  1.00  0.00     0.059 A 
ATOM     70  F   UNL A   1      46.121  33.370  26.181  1.00  0.00    -0.206 F 
ATOM     71  C   UNL A   1      47.326  35.597  28.758  1.00  0.00     0.060 A 
BRANCH  71  72
ATOM     72  S   UNL A   1      47.861  37.309  28.965  1.00  0.00     0.124 S 
ATOM     73  O   UNL A   1      49.036  37.146  29.815  1.00  0.00    -0.237 OA
ATOM     74  O   UNL A   1      48.127  37.719  27.590  1.00  0.00    -0.237 OA
ATOM     75  O   UNL A   1      46.714  37.951  29.597  1.00  0.00    -0.744 OA
ENDBRANCH  71  72
ENDBRANCH  50  64
BRANCH  51  76
ATOM     76  C   UNL A   1      43.445  23.525  26.996  1.00  0.00     0.058 A 
ATOM     77  C   UNL A   1      43.296  23.064  25.679  1.00  0.00     0.135 A 
ATOM     78  C   UNL A   1      43.149  22.631  28.037  1.00  0.00     0.135 A 
ATOM     79  F   UNL A   1      43.559  23.881  24.648  1.00  0.00    -0.206 F 
ATOM     80  C   UNL A   1      42.854  21.773  25.404  1.00  0.00     0.059 A 
ATOM     81  C   UNL A   1      42.735  21.326  27.788  1.00  0.00     0.059 A 
ATOM     82  F   UNL A   1      43.292  23.015  29.316  1.00  0.00    -0.206 F 
ATOM     83  C   UNL A   1      42.579  20.910  26.466  1.00  0.00     0.060 A 
BRANCH  83  84
ATOM     84  S   UNL A   1      42.050  19.223  26.100  1.00  0.00     0.124 S 
ATOM     85  O   UNL A   1      42.795  18.940  24.879  1.00  0.00    -0.237 OA
ATOM     86  O   UNL A   1      42.479  18.502  27.294  1.00  0.00    -0.237 OA
ATOM     87  O   UNL A   1      40.604  19.353  25.942  1.00  0.00    -0.744 OA
ENDBRANCH  83  84
ENDBRANCH  51  76
BRANCH  63  88
ATOM     88  C   UNL A   1      49.618  26.743  26.477  1.00  0.00     0.058 A 
ATOM     89  C   UNL A   1      50.505  26.182  27.407  1.00  0.00     0.135 A 
ATOM     90  C   UNL A   1      50.026  26.797  25.133  1.00  0.00     0.135 A 
ATOM     91  F   UNL A   1      50.170  26.113  28.706  1.00  0.00    -0.206 F 
ATOM     92  C   UNL A   1      51.760  25.714  27.026  1.00  0.00     0.059 A 
ATOM     93  C   UNL A   1      51.262  26.306  24.723  1.00  0.00     0.059 A 
ATOM     94  F   UNL A   1      49.213  27.315  24.199  1.00  0.00    -0.206 F 
ATOM     95  C   UNL A   1      52.127  25.777  25.681  1.00  0.00     0.060 A 
BRANCH  95  96
ATOM     96  S   UNL A   1      53.742  25.133  25.195  1.00  0.00     0.124 S 
ATOM     97  O   UNL A   1      54.047  25.954  24.029  1.00  0.00    -0.237 OA
ATOM     98  O   UNL A   1      54.550  25.392  26.382  1.00  0.00    -0.237 OA
ATOM     99  O   UNL A   1      53.478  23.724  24.919  1.00  0.00    -0.744 OA
ENDBRANCH  95  96
ENDBRANCH  63  88
ENDBRANCH  37  38
ENDBRANCH  29  32
ENDBRANCH  27  28
ENDBRANCH  26  27
ENDBRANCH  25  26
ENDBRANCH   1  25
TORSDOF 21
ENDMDL
MODEL 3
REMARK VINA RESULT:     -10.7      0.657      8.172
REMARK SMILES CCN(C[C@H](C)C(=O)NCCCCCCNC(=O)c1ccc(-c2c3nc(c(-c4c(F)cc(S(=O)(=O)[O-])cc4F)c4ccc([nH]4)c(-c4c(F)cc(S(=O)(=O)[O-])cc4F)c4nc(c(-c5c(F)cc(S(=O)(=O)[O-])cc5F)c5ccc2[nH]5)C=C4)C=C3)cc1)c1ccc(C(=O)NC)nn1
REMARK SMILES IDX 12 1 11 2 10 3 9 4 7 5 8 6 5 8 6 9 4 10 3 11 2 12 1 13 85 14
REMARK SMILES IDX 86 15 94 16 87 17 93 18 88 19 89 20 90 21 91 22 92 23 13 25
REMARK SMILES IDX 14 26 15 27 16 28 17 29 18 31 19 32 20 33 84 34 21 35 83 36
REMARK SMILES IDX 22 37 23 38 24 39 77 40 25 41 82 42 76 43 78 44 26 45 81 46
REMARK SMILES IDX 75 47 74 48 27 50 61 51 40 52 60 53 41 54 44 55 59 56 79 57
REMARK SMILES IDX 42 58 43 59 58 61 80 62 45 63 28 64 29 65 38 66 30 67 31 68
REMARK SMILES IDX 37 69 39 70 32 71 33 72 34 73 35 74 36 75 62 76 63 77 72 78
REMARK SMILES IDX 64 79 65 80 71 81 73 82 66 83 67 84 68 85 69 86 70 87 46 88
REMARK SMILES IDX 47 89 56 90 48 91 49 92 55 93 57 94 50 95 51 96 52 97 53 98
REMARK SMILES IDX 54 99
REMARK H PARENT 9 7 91 24 16 30 78 49 44 60
REMARK Flexibility Score: inf
ROOT
ATOM      1  C   UNL A   1      37.067  22.364  24.249  1.00  0.00     0.002 C 
ENDROOT
BRANCH   1   2
ATOM      2  C   UNL A   1      35.789  23.022  23.717  1.00  0.00     0.021 C 
BRANCH   2   3
ATOM      3  C   UNL A   1      34.589  22.862  24.646  1.00  0.00     0.116 C 
BRANCH   3   4
ATOM      4  N   UNL A   1      33.390  22.593  23.876  1.00  0.00    -0.356 N 
ATOM      5  C   UNL A   1      32.439  23.437  23.397  1.00  0.00     0.224 C 
ATOM      6  O   UNL A   1      31.323  22.956  23.179  1.00  0.00    -0.275 OA
ATOM      7  H   UNL A   1      33.242  21.642  23.666  1.00  0.00     0.163 HD
BRANCH   5   8
ATOM      8  C   UNL A   1      32.696  24.927  23.222  1.00  0.00     0.095 C 
ATOM      9  C   UNL A   1      32.561  25.284  21.737  1.00  0.00     0.020 C 
BRANCH   8  10
ATOM     10  C   UNL A   1      31.838  25.812  24.149  1.00  0.00     0.131 C 
BRANCH  10  11
ATOM     11  N   UNL A   1      32.080  27.256  24.023  1.00  0.00    -0.355 N 
BRANCH  11  12
ATOM     12  C   UNL A   1      33.398  27.810  24.293  1.00  0.00     0.115 C 
ATOM     13  C   UNL A   1      33.745  27.761  25.774  1.00  0.00     0.027 C 
ENDBRANCH  11  12
BRANCH  11  14
ATOM     14  C   UNL A   1      31.028  28.097  23.716  1.00  0.00     0.151 A 
ATOM     15  C   UNL A   1      29.867  27.613  23.126  1.00  0.00     0.051 A 
ATOM     16  N   UNL A   1      31.095  29.404  24.017  1.00  0.00    -0.132 NA
ATOM     17  C   UNL A   1      28.781  28.463  22.878  1.00  0.00     0.040 A 
ATOM     18  N   UNL A   1      30.027  30.263  23.772  1.00  0.00    -0.143 NA
ATOM     19  C   UNL A   1      28.892  29.800  23.210  1.00  0.00     0.150 A 
BRANCH  19  20
ATOM     20  C   UNL A   1      27.786  30.799  23.099  1.00  0.00     0.271 C 
ATOM     21  O   UNL A   1      26.946  30.891  23.997  1.00  0.00    -0.267 OA
ATOM     22  N   UNL A   1      27.626  31.649  22.028  1.00  0.00    -0.354 N 
ATOM     23  C   UNL A   1      28.457  31.958  20.890  1.00  0.00     0.143 C 
ATOM     24  H   UNL A   1      26.775  32.144  22.042  1.00  0.00     0.163 HD
ENDBRANCH  19  20
ENDBRANCH  11  14
ENDBRANCH  10  11
ENDBRANCH   8  10
ENDBRANCH   5   8
ENDBRANCH   3   4
ENDBRANCH   2   3
ENDBRANCH   1   2
BRANCH   1  25
ATOM     25  C   UNL A   1      37.342  22.610  25.737  1.00  0.00     0.002 C 
BRANCH  25  26
ATOM     26  C   UNL A   1      37.828  24.022  26.075  1.00  0.00     0.021 C 
BRANCH  26  27
ATOM     27  C   UNL A   1      39.189  24.071  26.763  1.00  0.00     0.116 C 
BRANCH  27  28
ATOM     28  N   UNL A   1      40.214  24.631  25.898  1.00  0.00    -0.352 N 
ATOM     29  C   UNL A   1      40.945  25.784  26.052  1.00  0.00     0.251 C 
ATOM     30  H   UNL A   1      40.411  24.110  25.086  1.00  0.00     0.163 HD
ATOM     31  O   UNL A   1      41.615  26.215  25.123  1.00  0.00    -0.269 OA
BRANCH  29  32
ATOM     32  C   UNL A   1      40.898  26.510  27.339  1.00  0.00     0.039 A 
ATOM     33  C   UNL A   1      41.818  27.535  27.567  1.00  0.00     0.014 A 
ATOM     34  C   UNL A   1      39.947  26.187  28.311  1.00  0.00     0.014 A 
ATOM     35  C   UNL A   1      41.741  28.280  28.746  1.00  0.00     0.010 A 
ATOM     36  C   UNL A   1      39.824  26.977  29.450  1.00  0.00     0.010 A 
ATOM     37  C   UNL A   1      40.719  28.034  29.679  1.00  0.00    -0.014 A 
BRANCH  37  38
ATOM     38  C   UNL A   1      40.556  28.892  30.880  1.00  0.00     0.031 A 
ATOM     39  C   UNL A   1      39.518  29.980  30.906  1.00  0.00     0.074 A 
ATOM     40  C   UNL A   1      41.393  28.728  31.926  1.00  0.00     0.049 A 
ATOM     41  N   UNL A   1      39.270  30.860  31.842  1.00  0.00    -0.248 NA
ATOM     42  C   UNL A   1      38.665  30.114  29.714  1.00  0.00     0.031 C 
ATOM     43  C   UNL A   1      42.474  27.742  31.996  1.00  0.00     0.029 A 
ATOM     44  N   UNL A   1      41.475  29.393  33.123  1.00  0.00    -0.354 N 
ATOM     45  C   UNL A   1      38.243  31.658  31.350  1.00  0.00     0.074 A 
ATOM     46  C   UNL A   1      37.947  31.189  30.014  1.00  0.00     0.031 C 
ATOM     47  C   UNL A   1      43.097  27.855  33.180  1.00  0.00     0.029 A 
ATOM     48  C   UNL A   1      42.493  28.947  33.935  1.00  0.00     0.049 A 
ATOM     49  H   UNL A   1      40.864  30.122  33.378  1.00  0.00     0.167 HD
ATOM     50  C   UNL A   1      37.595  32.675  31.967  1.00  0.00     0.037 A 
ATOM     51  C   UNL A   1      42.904  29.377  35.144  1.00  0.00     0.037 A 
ATOM     52  C   UNL A   1      37.884  33.120  33.306  1.00  0.00     0.049 A 
ATOM     53  C   UNL A   1      42.170  30.512  35.804  1.00  0.00     0.074 A 
ATOM     54  C   UNL A   1      37.235  34.094  34.045  1.00  0.00     0.029 A 
ATOM     55  N   UNL A   1      38.910  32.634  34.103  1.00  0.00    -0.354 N 
ATOM     56  N   UNL A   1      41.146  31.201  35.359  1.00  0.00    -0.248 NA
ATOM     57  C   UNL A   1      42.642  30.928  37.131  1.00  0.00     0.031 C 
ATOM     58  C   UNL A   1      37.905  34.239  35.264  1.00  0.00     0.029 A 
ATOM     59  C   UNL A   1      38.934  33.311  35.311  1.00  0.00     0.049 A 
ATOM     60  H   UNL A   1      39.530  31.913  33.846  1.00  0.00     0.167 HD
ATOM     61  C   UNL A   1      40.838  32.115  36.359  1.00  0.00     0.074 A 
ATOM     62  C   UNL A   1      41.771  31.879  37.442  1.00  0.00     0.031 C 
ATOM     63  C   UNL A   1      39.870  33.066  36.380  1.00  0.00     0.037 A 
BRANCH  50  64
ATOM     64  C   UNL A   1      36.509  33.384  31.202  1.00  0.00     0.058 A 
ATOM     65  C   UNL A   1      36.798  34.244  30.130  1.00  0.00     0.135 A 
ATOM     66  C   UNL A   1      35.158  33.155  31.508  1.00  0.00     0.135 A 
ATOM     67  F   UNL A   1      38.073  34.511  29.802  1.00  0.00    -0.206 F 
ATOM     68  C   UNL A   1      35.787  34.868  29.405  1.00  0.00     0.059 A 
ATOM     69  C   UNL A   1      34.131  33.744  30.778  1.00  0.00     0.059 A 
ATOM     70  F   UNL A   1      34.823  32.343  32.524  1.00  0.00    -0.206 F 
ATOM     71  C   UNL A   1      34.456  34.608  29.734  1.00  0.00     0.060 A 
BRANCH  71  72
ATOM     72  S   UNL A   1      33.159  35.411  28.768  1.00  0.00     0.124 S 
ATOM     73  O   UNL A   1      33.938  36.318  27.931  1.00  0.00    -0.237 OA
ATOM     74  O   UNL A   1      32.543  34.283  28.077  1.00  0.00    -0.237 OA
ATOM     75  O   UNL A   1      32.327  36.051  29.781  1.00  0.00    -0.744 OA
ENDBRANCH  71  72
ENDBRANCH  50  64
BRANCH  51  76
ATOM     76  C   UNL A   1      44.068  28.729  35.807  1.00  0.00     0.058 A 
ATOM     77  C   UNL A   1      43.893  27.681  36.722  1.00  0.00     0.135 A 
ATOM     78  C   UNL A   1      45.382  29.141  35.531  1.00  0.00     0.135 A 
ATOM     79  F   UNL A   1      42.657  27.254  37.026  1.00  0.00    -0.206 F 
ATOM     80  C   UNL A   1      44.975  27.076  37.355  1.00  0.00     0.059 A 
ATOM     81  C   UNL A   1      46.481  28.532  36.127  1.00  0.00     0.059 A 
ATOM     82  F   UNL A   1      45.607  30.128  34.649  1.00  0.00    -0.206 F 
ATOM     83  C   UNL A   1      46.267  27.507  37.048  1.00  0.00     0.060 A 
BRANCH  83  84
ATOM     84  S   UNL A   1      47.667  26.685  37.839  1.00  0.00     0.124 S 
ATOM     85  O   UNL A   1      47.217  26.603  39.222  1.00  0.00    -0.237 OA
ATOM     86  O   UNL A   1      47.732  25.423  37.110  1.00  0.00    -0.237 OA
ATOM     87  O   UNL A   1      48.777  27.602  37.589  1.00  0.00    -0.744 OA
ENDBRANCH  83  84
ENDBRANCH  51  76
BRANCH  63  88
ATOM     88  C   UNL A   1      39.752  33.908  37.622  1.00  0.00     0.058 A 
ATOM     89  C   UNL A   1      38.975  33.503  38.718  1.00  0.00     0.135 A 
ATOM     90  C   UNL A   1      40.472  35.109  37.738  1.00  0.00     0.135 A 
ATOM     91  F   UNL A   1      38.260  32.367  38.659  1.00  0.00    -0.206 F 
ATOM     92  C   UNL A   1      38.893  34.272  39.875  1.00  0.00     0.059 A 
ATOM     93  C   UNL A   1      40.431  35.878  38.897  1.00  0.00     0.059 A 
ATOM     94  F   UNL A   1      41.239  35.539  36.724  1.00  0.00    -0.206 F 
ATOM     95  C   UNL A   1      39.628  35.456  39.956  1.00  0.00     0.060 A 
BRANCH  95  96
ATOM     96  S   UNL A   1      39.541  36.424  41.477  1.00  0.00     0.124 S 
ATOM     97  O   UNL A   1      38.452  35.761  42.186  1.00  0.00    -0.237 OA
ATOM     98  O   UNL A   1      40.873  36.237  42.043  1.00  0.00    -0.237 OA
ATOM     99  O   UNL A   1      39.251  37.775  41.005  1.00  0.00    -0.744 OA
ENDBRANCH  95  96
ENDBRANCH  63  88
ENDBRANCH  37  38
ENDBRANCH  29  32
ENDBRANCH  27  28
ENDBRANCH  26  27
ENDBRANCH  25  26
ENDBRANCH   1  25
TORSDOF 21
ENDMDL
