MODEL 1
REMARK VINA RESULT:     -11.6      0.000      0.000
REMARK SMILES Cc1nn(C)c2nc(C3CC3)c(Cl)c(C(=O)NCCCCCCNC(=O)c3ccc(-c4c5nc(c(-c6c(F)cc(S(=O)(=O)[O-])cc6F)c6ccc([nH]6)c(-c6c(F)cc(S(=O)(=O)[O-])cc6F)c6nc(c(-c7c(F)cc(S(=O)(=O)[O-])cc7F)c7ccc4[nH]7)C=C6)C=C5)cc3)c12
REMARK SMILES IDX 21 1 20 2 19 3 18 4 17 5 15 6 16 7 14 9 1 10 2 11 3 12 93 13
REMARK SMILES IDX 4 14 6 15 5 16 7 17 12 18 8 19 13 20 9 21 10 22 11 23 22 24
REMARK SMILES IDX 23 25 24 26 25 27 26 29 27 30 28 31 92 32 29 33 91 34 30 35
REMARK SMILES IDX 31 36 32 37 85 38 33 39 90 40 84 41 86 42 34 43 89 44 83 45
REMARK SMILES IDX 82 46 35 48 69 49 48 50 68 51 49 52 52 53 67 54 87 55 50 56
REMARK SMILES IDX 51 57 66 59 88 60 53 61 36 62 37 63 46 64 38 65 39 66 45 67
REMARK SMILES IDX 47 68 40 69 41 70 42 71 43 72 44 73 70 74 71 75 80 76 72 77
REMARK SMILES IDX 73 78 79 79 81 80 74 81 75 82 76 83 77 84 78 85 54 86 55 87
REMARK SMILES IDX 64 88 56 89 57 90 63 91 65 92 58 93 59 94 60 95 61 96 62 97
REMARK H PARENT 17 8 24 28 86 47 52 58
REMARK Flexibility Score: inf
ROOT
ATOM      1  C   UNL A   1      36.692  22.051  23.918  1.00  0.00     0.002 C 
ENDROOT
BRANCH   1   2
ATOM      2  C   UNL A   1      35.393  22.739  24.361  1.00  0.00     0.002 C 
BRANCH   2   3
ATOM      3  C   UNL A   1      35.488  24.215  24.761  1.00  0.00     0.021 C 
BRANCH   3   4
ATOM      4  C   UNL A   1      34.227  25.060  24.577  1.00  0.00     0.116 C 
BRANCH   4   5
ATOM      5  N   UNL A   1      33.200  24.900  25.603  1.00  0.00    -0.352 N 
ATOM      6  C   UNL A   1      32.137  25.703  25.986  1.00  0.00     0.253 C 
ATOM      7  O   UNL A   1      31.376  25.256  26.842  1.00  0.00    -0.269 OA
ATOM      8  H   UNL A   1      33.277  24.064  26.118  1.00  0.00     0.163 HD
BRANCH   6   9
ATOM      9  C   UNL A   1      31.937  27.088  25.478  1.00  0.00     0.073 A 
ATOM     10  C   UNL A   1      31.234  25.239  22.595  1.00  0.00     0.069 C 
ATOM     11  C   UNL A   1      31.004  26.650  22.999  1.00  0.00     0.070 A 
ATOM     12  N   UNL A   1      30.476  27.477  22.080  1.00  0.00    -0.176 NA
ATOM     13  C   UNL A   1      31.348  27.333  24.213  1.00  0.00     0.056 A 
ATOM     14  N   UNL A   1      30.492  28.679  22.677  1.00  0.00    -0.250 N 
ATOM     15  C   UNL A   1      30.980  28.647  23.952  1.00  0.00     0.158 A 
ATOM     16  C   UNL A   1      30.115  29.861  21.943  1.00  0.00     0.176 C 
ATOM     17  N   UNL A   1      31.072  29.700  24.777  1.00  0.00    -0.231 NA
ATOM     18  C   UNL A   1      32.343  28.231  26.191  1.00  0.00     0.076 A 
ATOM     19  C   UNL A   1      31.758  29.483  25.927  1.00  0.00     0.065 A 
ATOM     20  Cl  UNL A   1      33.805  28.138  27.133  1.00  0.00    -0.081 Cl
BRANCH  19  21
ATOM     21  C   UNL A   1      31.671  30.656  26.906  1.00  0.00     0.040 C 
ATOM     22  C   UNL A   1      32.815  31.640  27.035  1.00  0.00     0.011 C 
ATOM     23  C   UNL A   1      31.461  32.106  26.578  1.00  0.00     0.011 C 
ENDBRANCH  19  21
ENDBRANCH   6   9
ENDBRANCH   4   5
ENDBRANCH   3   4
ENDBRANCH   2   3
ENDBRANCH   1   2
BRANCH   1  24
ATOM     24  C   UNL A   1      37.493  21.285  24.991  1.00  0.00     0.021 C 
BRANCH  24  25
ATOM     25  C   UNL A   1      38.338  22.126  25.973  1.00  0.00     0.116 C 
BRANCH  25  26
ATOM     26  N   UNL A   1      39.475  21.367  26.466  1.00  0.00    -0.352 N 
ATOM     27  C   UNL A   1      40.802  21.660  26.643  1.00  0.00     0.251 C 
ATOM     28  H   UNL A   1      39.243  20.447  26.729  1.00  0.00     0.163 HD
ATOM     29  O   UNL A   1      41.570  20.701  26.759  1.00  0.00    -0.269 OA
BRANCH  27  30
ATOM     30  C   UNL A   1      41.371  23.032  26.727  1.00  0.00     0.039 A 
ATOM     31  C   UNL A   1      40.833  23.891  27.703  1.00  0.00     0.014 A 
ATOM     32  C   UNL A   1      42.249  23.562  25.783  1.00  0.00     0.014 A 
ATOM     33  C   UNL A   1      41.182  25.247  27.762  1.00  0.00     0.010 A 
ATOM     34  C   UNL A   1      42.590  24.927  25.838  1.00  0.00     0.010 A 
ATOM     35  C   UNL A   1      42.078  25.782  26.837  1.00  0.00    -0.014 A 
BRANCH  35  36
ATOM     36  C   UNL A   1      42.571  27.177  27.032  1.00  0.00     0.031 A 
ATOM     37  C   UNL A   1      41.502  28.161  27.336  1.00  0.00     0.074 A 
ATOM     38  C   UNL A   1      43.823  27.527  27.417  1.00  0.00     0.049 A 
ATOM     39  N   UNL A   1      40.999  28.199  28.530  1.00  0.00    -0.248 NA
ATOM     40  C   UNL A   1      40.775  28.982  26.375  1.00  0.00     0.031 C 
ATOM     41  C   UNL A   1      44.789  26.602  28.021  1.00  0.00     0.029 A 
ATOM     42  N   UNL A   1      44.427  28.768  27.548  1.00  0.00    -0.354 N 
ATOM     43  C   UNL A   1      39.888  29.010  28.505  1.00  0.00     0.074 A 
ATOM     44  C   UNL A   1      39.787  29.483  27.143  1.00  0.00     0.031 C 
ATOM     45  C   UNL A   1      45.791  27.315  28.578  1.00  0.00     0.029 A 
ATOM     46  C   UNL A   1      45.630  28.733  28.256  1.00  0.00     0.049 A 
ATOM     47  H   UNL A   1      44.045  29.595  27.176  1.00  0.00     0.167 HD
ATOM     48  C   UNL A   1      39.192  29.243  29.651  1.00  0.00     0.037 A 
ATOM     49  C   UNL A   1      46.169  29.730  29.012  1.00  0.00     0.037 A 
ATOM     50  C   UNL A   1      39.743  28.654  30.857  1.00  0.00     0.049 A 
ATOM     51  C   UNL A   1      45.181  29.871  30.139  1.00  0.00     0.074 A 
ATOM     52  C   UNL A   1      39.344  27.947  31.970  1.00  0.00     0.029 A 
ATOM     53  N   UNL A   1      41.096  28.794  30.984  1.00  0.00    -0.354 N 
ATOM     54  N   UNL A   1      45.067  29.069  31.167  1.00  0.00    -0.248 NA
ATOM     55  C   UNL A   1      44.095  30.858  30.009  1.00  0.00     0.031 C 
ATOM     56  C   UNL A   1      40.520  27.699  32.765  1.00  0.00     0.029 A 
ATOM     57  C   UNL A   1      41.603  28.304  32.147  1.00  0.00     0.049 A 
ATOM     58  H   UNL A   1      41.656  29.214  30.292  1.00  0.00     0.167 HD
ATOM     59  C   UNL A   1      43.781  29.288  31.644  1.00  0.00     0.074 A 
ATOM     60  C   UNL A   1      43.307  30.504  31.016  1.00  0.00     0.031 C 
ATOM     61  C   UNL A   1      43.040  28.350  32.297  1.00  0.00     0.037 A 
BRANCH  48  62
ATOM     62  C   UNL A   1      38.150  30.285  29.773  1.00  0.00     0.058 A 
ATOM     63  C   UNL A   1      38.487  31.469  30.452  1.00  0.00     0.135 A 
ATOM     64  C   UNL A   1      36.817  30.092  29.406  1.00  0.00     0.135 A 
ATOM     65  F   UNL A   1      39.762  31.698  30.811  1.00  0.00    -0.206 F 
ATOM     66  C   UNL A   1      37.530  32.410  30.800  1.00  0.00     0.059 A 
ATOM     67  C   UNL A   1      35.837  31.028  29.738  1.00  0.00     0.059 A 
ATOM     68  F   UNL A   1      36.446  28.976  28.759  1.00  0.00    -0.206 F 
ATOM     69  C   UNL A   1      36.202  32.173  30.453  1.00  0.00     0.060 A 
BRANCH  69  70
ATOM     70  S   UNL A   1      34.963  33.377  30.982  1.00  0.00     0.124 S 
ATOM     71  O   UNL A   1      34.113  32.574  31.854  1.00  0.00    -0.237 OA
ATOM     72  O   UNL A   1      35.785  34.385  31.642  1.00  0.00    -0.237 OA
ATOM     73  O   UNL A   1      34.346  33.801  29.727  1.00  0.00    -0.744 OA
ENDBRANCH  69  70
ENDBRANCH  48  62
BRANCH  49  74
ATOM     74  C   UNL A   1      46.774  30.924  28.325  1.00  0.00     0.058 A 
ATOM     75  C   UNL A   1      48.057  31.375  28.699  1.00  0.00     0.135 A 
ATOM     76  C   UNL A   1      46.128  31.696  27.341  1.00  0.00     0.135 A 
ATOM     77  F   UNL A   1      48.692  30.824  29.745  1.00  0.00    -0.206 F 
ATOM     78  C   UNL A   1      48.718  32.400  28.020  1.00  0.00     0.059 A 
ATOM     79  C   UNL A   1      46.780  32.697  26.619  1.00  0.00     0.059 A 
ATOM     80  F   UNL A   1      44.836  31.495  27.042  1.00  0.00    -0.206 F 
ATOM     81  C   UNL A   1      48.092  33.017  26.943  1.00  0.00     0.060 A 
BRANCH  81  82
ATOM     82  S   UNL A   1      49.034  34.178  25.931  1.00  0.00     0.124 S 
ATOM     83  O   UNL A   1      50.079  33.317  25.377  1.00  0.00    -0.237 OA
ATOM     84  O   UNL A   1      48.020  34.631  24.980  1.00  0.00    -0.237 OA
ATOM     85  O   UNL A   1      49.481  35.178  26.885  1.00  0.00    -0.744 OA
ENDBRANCH  81  82
ENDBRANCH  49  74
BRANCH  61  86
ATOM     86  C   UNL A   1      43.780  27.297  33.032  1.00  0.00     0.058 A 
ATOM     87  C   UNL A   1      44.067  27.495  34.390  1.00  0.00     0.135 A 
ATOM     88  C   UNL A   1      44.114  26.064  32.456  1.00  0.00     0.135 A 
ATOM     89  F   UNL A   1      43.742  28.651  34.992  1.00  0.00    -0.206 F 
ATOM     90  C   UNL A   1      44.628  26.492  35.167  1.00  0.00     0.059 A 
ATOM     91  C   UNL A   1      44.671  25.040  33.218  1.00  0.00     0.059 A 
ATOM     92  F   UNL A   1      43.873  25.828  31.156  1.00  0.00    -0.206 F 
ATOM     93  C   UNL A   1      44.906  25.259  34.577  1.00  0.00     0.060 A 
BRANCH  93  94
ATOM     94  S   UNL A   1      45.483  23.925  35.645  1.00  0.00     0.124 S 
ATOM     95  O   UNL A   1      44.570  24.022  36.779  1.00  0.00    -0.237 OA
ATOM     96  O   UNL A   1      45.308  22.754  34.791  1.00  0.00    -0.237 OA
ATOM     97  O   UNL A   1      46.869  24.285  35.926  1.00  0.00    -0.744 OA
ENDBRANCH  93  94
ENDBRANCH  61  86
ENDBRANCH  35  36
ENDBRANCH  27  30
ENDBRANCH  25  26
ENDBRANCH  24  25
ENDBRANCH   1  24
TORSDOF 17
ENDMDL
MODEL 2
REMARK VINA RESULT:     -11.4      2.730      8.655
REMARK SMILES Cc1nn(C)c2nc(C3CC3)c(Cl)c(C(=O)NCCCCCCNC(=O)c3ccc(-c4c5nc(c(-c6c(F)cc(S(=O)(=O)[O-])cc6F)c6ccc([nH]6)c(-c6c(F)cc(S(=O)(=O)[O-])cc6F)c6nc(c(-c7c(F)cc(S(=O)(=O)[O-])cc7F)c7ccc4[nH]7)C=C6)C=C5)cc3)c12
REMARK SMILES IDX 21 1 20 2 19 3 18 4 17 5 15 6 16 7 14 9 1 10 2 11 3 12 93 13
REMARK SMILES IDX 4 14 6 15 5 16 7 17 12 18 8 19 13 20 9 21 10 22 11 23 22 24
REMARK SMILES IDX 23 25 24 26 25 27 26 29 27 30 28 31 92 32 29 33 91 34 30 35
REMARK SMILES IDX 31 36 32 37 85 38 33 39 90 40 84 41 86 42 34 43 89 44 83 45
REMARK SMILES IDX 82 46 35 48 69 49 48 50 68 51 49 52 52 53 67 54 87 55 50 56
REMARK SMILES IDX 51 57 66 59 88 60 53 61 36 62 37 63 46 64 38 65 39 66 45 67
REMARK SMILES IDX 47 68 40 69 41 70 42 71 43 72 44 73 70 74 71 75 80 76 72 77
REMARK SMILES IDX 73 78 79 79 81 80 74 81 75 82 76 83 77 84 78 85 54 86 55 87
REMARK SMILES IDX 64 88 56 89 57 90 63 91 65 92 58 93 59 94 60 95 61 96 62 97
REMARK H PARENT 17 8 24 28 86 47 52 58
REMARK Flexibility Score: inf
ROOT
ATOM      1  C   UNL A   1      34.551  29.246  26.787  1.00  0.00     0.002 C 
ENDROOT
BRANCH   1   2
ATOM      2  C   UNL A   1      33.504  29.347  25.669  1.00  0.00     0.002 C 
BRANCH   2   3
ATOM      3  C   UNL A   1      32.125  28.741  25.947  1.00  0.00     0.021 C 
BRANCH   3   4
ATOM      4  C   UNL A   1      32.039  27.720  27.082  1.00  0.00     0.116 C 
BRANCH   4   5
ATOM      5  N   UNL A   1      30.878  26.834  27.052  1.00  0.00    -0.352 N 
ATOM      6  C   UNL A   1      30.600  25.694  26.313  1.00  0.00     0.253 C 
ATOM      7  O   UNL A   1      29.555  25.100  26.571  1.00  0.00    -0.269 OA
ATOM      8  H   UNL A   1      30.160  27.094  27.673  1.00  0.00     0.163 HD
BRANCH   6   9
ATOM      9  C   UNL A   1      31.452  25.223  25.187  1.00  0.00     0.073 A 
ATOM     10  C   UNL A   1      29.129  27.182  23.457  1.00  0.00     0.069 C 
ATOM     11  C   UNL A   1      30.447  26.592  23.108  1.00  0.00     0.070 A 
ATOM     12  N   UNL A   1      30.876  26.745  21.842  1.00  0.00    -0.176 NA
ATOM     13  C   UNL A   1      31.333  25.776  23.888  1.00  0.00     0.056 A 
ATOM     14  N   UNL A   1      32.010  26.027  21.795  1.00  0.00    -0.250 N 
ATOM     15  C   UNL A   1      32.338  25.448  22.987  1.00  0.00     0.158 A 
ATOM     16  C   UNL A   1      32.702  25.842  20.544  1.00  0.00     0.176 C 
ATOM     17  N   UNL A   1      33.434  24.710  23.219  1.00  0.00    -0.231 NA
ATOM     18  C   UNL A   1      32.397  24.190  25.323  1.00  0.00     0.076 A 
ATOM     19  C   UNL A   1      33.469  24.077  24.418  1.00  0.00     0.065 A 
ATOM     20  Cl  UNL A   1      32.023  22.866  26.392  1.00  0.00    -0.081 Cl
BRANCH  19  21
ATOM     21  C   UNL A   1      34.815  23.407  24.702  1.00  0.00     0.040 C 
ATOM     22  C   UNL A   1      35.035  21.947  24.367  1.00  0.00     0.011 C 
ATOM     23  C   UNL A   1      35.866  23.011  23.705  1.00  0.00     0.011 C 
ENDBRANCH  19  21
ENDBRANCH   6   9
ENDBRANCH   4   5
ENDBRANCH   3   4
ENDBRANCH   2   3
ENDBRANCH   1   2
BRANCH   1  24
ATOM     24  C   UNL A   1      34.948  30.550  27.509  1.00  0.00     0.021 C 
BRANCH  24  25
ATOM     25  C   UNL A   1      33.817  31.551  27.833  1.00  0.00     0.116 C 
BRANCH  25  26
ATOM     26  N   UNL A   1      34.353  32.869  28.124  1.00  0.00    -0.352 N 
ATOM     27  C   UNL A   1      35.346  33.324  28.952  1.00  0.00     0.251 C 
ATOM     28  H   UNL A   1      33.908  33.589  27.620  1.00  0.00     0.163 HD
ATOM     29  O   UNL A   1      35.330  34.527  29.225  1.00  0.00    -0.269 OA
BRANCH  27  30
ATOM     30  C   UNL A   1      36.439  32.489  29.515  1.00  0.00     0.039 A 
ATOM     31  C   UNL A   1      36.198  31.864  30.752  1.00  0.00     0.014 A 
ATOM     32  C   UNL A   1      37.730  32.454  28.991  1.00  0.00     0.014 A 
ATOM     33  C   UNL A   1      37.212  31.189  31.446  1.00  0.00     0.010 A 
ATOM     34  C   UNL A   1      38.750  31.783  29.694  1.00  0.00     0.010 A 
ATOM     35  C   UNL A   1      38.502  31.127  30.918  1.00  0.00    -0.014 A 
BRANCH  35  36
ATOM     36  C   UNL A   1      39.512  30.253  31.582  1.00  0.00     0.031 A 
ATOM     37  C   UNL A   1      39.530  28.855  31.078  1.00  0.00     0.074 A 
ATOM     38  C   UNL A   1      40.648  30.677  32.189  1.00  0.00     0.049 A 
ATOM     39  N   UNL A   1      40.096  28.601  29.940  1.00  0.00    -0.248 NA
ATOM     40  C   UNL A   1      38.788  27.725  31.621  1.00  0.00     0.031 C 
ATOM     41  C   UNL A   1      41.233  32.010  32.006  1.00  0.00     0.029 A 
ATOM     42  N   UNL A   1      41.612  29.988  32.910  1.00  0.00    -0.354 N 
ATOM     43  C   UNL A   1      39.785  27.310  29.583  1.00  0.00     0.074 A 
ATOM     44  C   UNL A   1      38.973  26.797  30.662  1.00  0.00     0.031 C 
ATOM     45  C   UNL A   1      42.500  32.001  32.472  1.00  0.00     0.029 A 
ATOM     46  C   UNL A   1      42.783  30.719  33.118  1.00  0.00     0.049 A 
ATOM     47  H   UNL A   1      41.483  29.072  33.244  1.00  0.00     0.167 HD
ATOM     48  C   UNL A   1      40.290  26.784  28.433  1.00  0.00     0.037 A 
ATOM     49  C   UNL A   1      44.044  30.227  33.267  1.00  0.00     0.037 A 
ATOM     50  C   UNL A   1      41.202  27.637  27.694  1.00  0.00     0.049 A 
ATOM     51  C   UNL A   1      44.329  29.614  31.922  1.00  0.00     0.074 A 
ATOM     52  C   UNL A   1      41.454  28.055  26.406  1.00  0.00     0.029 A 
ATOM     53  N   UNL A   1      42.125  28.278  28.469  1.00  0.00    -0.354 N 
ATOM     54  N   UNL A   1      44.645  30.266  30.832  1.00  0.00    -0.248 NA
ATOM     55  C   UNL A   1      44.034  28.186  31.718  1.00  0.00     0.031 C 
ATOM     56  C   UNL A   1      42.581  28.952  26.459  1.00  0.00     0.029 A 
ATOM     57  C   UNL A   1      43.024  29.023  27.770  1.00  0.00     0.049 A 
ATOM     58  H   UNL A   1      42.139  28.208  29.451  1.00  0.00     0.167 HD
ATOM     59  C   UNL A   1      44.336  29.392  29.797  1.00  0.00     0.074 A 
ATOM     60  C   UNL A   1      44.139  28.089  30.399  1.00  0.00     0.031 C 
ATOM     61  C   UNL A   1      43.972  29.791  28.546  1.00  0.00     0.037 A 
BRANCH  48  62
ATOM     62  C   UNL A   1      40.220  25.346  28.097  1.00  0.00     0.058 A 
ATOM     63  C   UNL A   1      41.340  24.551  28.395  1.00  0.00     0.135 A 
ATOM     64  C   UNL A   1      39.185  24.776  27.353  1.00  0.00     0.135 A 
ATOM     65  F   UNL A   1      42.351  25.060  29.119  1.00  0.00    -0.206 F 
ATOM     66  C   UNL A   1      41.456  23.248  27.934  1.00  0.00     0.059 A 
ATOM     67  C   UNL A   1      39.275  23.464  26.884  1.00  0.00     0.059 A 
ATOM     68  F   UNL A   1      38.097  25.496  27.040  1.00  0.00    -0.206 F 
ATOM     69  C   UNL A   1      40.424  22.718  27.163  1.00  0.00     0.060 A 
BRANCH  69  70
ATOM     70  S   UNL A   1      40.630  21.045  26.511  1.00  0.00     0.124 S 
ATOM     71  O   UNL A   1      39.397  20.861  25.753  1.00  0.00    -0.237 OA
ATOM     72  O   UNL A   1      41.851  21.177  25.723  1.00  0.00    -0.237 OA
ATOM     73  O   UNL A   1      40.752  20.226  27.714  1.00  0.00    -0.744 OA
ENDBRANCH  69  70
ENDBRANCH  48  62
BRANCH  49  74
ATOM     74  C   UNL A   1      44.416  29.540  34.553  1.00  0.00     0.058 A 
ATOM     75  C   UNL A   1      45.726  29.657  35.061  1.00  0.00     0.135 A 
ATOM     76  C   UNL A   1      43.553  28.712  35.298  1.00  0.00     0.135 A 
ATOM     77  F   UNL A   1      46.678  30.276  34.345  1.00  0.00    -0.206 F 
ATOM     78  C   UNL A   1      46.097  29.143  36.304  1.00  0.00     0.059 A 
ATOM     79  C   UNL A   1      43.885  28.222  36.562  1.00  0.00     0.059 A 
ATOM     80  F   UNL A   1      42.351  28.359  34.821  1.00  0.00    -0.206 F 
ATOM     81  C   UNL A   1      45.151  28.475  37.074  1.00  0.00     0.060 A 
BRANCH  81  82
ATOM     82  S   UNL A   1      45.568  28.014  38.768  1.00  0.00     0.124 S 
ATOM     83  O   UNL A   1      44.766  28.959  39.545  1.00  0.00    -0.237 OA
ATOM     84  O   UNL A   1      45.123  26.622  38.814  1.00  0.00    -0.237 OA
ATOM     85  O   UNL A   1      47.007  28.208  38.831  1.00  0.00    -0.744 OA
ENDBRANCH  81  82
ENDBRANCH  49  74
BRANCH  61  86
ATOM     86  C   UNL A   1      44.465  31.110  28.088  1.00  0.00     0.058 A 
ATOM     87  C   UNL A   1      45.584  31.158  27.244  1.00  0.00     0.135 A 
ATOM     88  C   UNL A   1      43.798  32.309  28.374  1.00  0.00     0.135 A 
ATOM     89  F   UNL A   1      46.240  30.031  26.920  1.00  0.00    -0.206 F 
ATOM     90  C   UNL A   1      46.008  32.346  26.667  1.00  0.00     0.059 A 
ATOM     91  C   UNL A   1      44.201  33.512  27.800  1.00  0.00     0.059 A 
ATOM     92  F   UNL A   1      42.729  32.320  29.187  1.00  0.00    -0.206 F 
ATOM     93  C   UNL A   1      45.296  33.516  26.933  1.00  0.00     0.060 A 
BRANCH  93  94
ATOM     94  S   UNL A   1      45.770  35.011  26.045  1.00  0.00     0.124 S 
ATOM     95  O   UNL A   1      47.009  35.388  26.716  1.00  0.00    -0.237 OA
ATOM     96  O   UNL A   1      45.915  34.521  24.678  1.00  0.00    -0.237 OA
ATOM     97  O   UNL A   1      44.642  35.912  26.261  1.00  0.00    -0.744 OA
ENDBRANCH  93  94
ENDBRANCH  61  86
ENDBRANCH  35  36
ENDBRANCH  27  30
ENDBRANCH  25  26
ENDBRANCH  24  25
ENDBRANCH   1  24
TORSDOF 17
ENDMDL
MODEL 3
REMARK VINA RESULT:     -11.4      1.437      2.182
REMARK SMILES Cc1nn(C)c2nc(C3CC3)c(Cl)c(C(=O)NCCCCCCNC(=O)c3ccc(-c4c5nc(c(-c6c(F)cc(S(=O)(=O)[O-])cc6F)c6ccc([nH]6)c(-c6c(F)cc(S(=O)(=O)[O-])cc6F)c6nc(c(-c7c(F)cc(S(=O)(=O)[O-])cc7F)c7ccc4[nH]7)C=C6)C=C5)cc3)c12
REMARK SMILES IDX 21 1 20 2 19 3 18 4 17 5 15 6 16 7 14 9 1 10 2 11 3 12 93 13
REMARK SMILES IDX 4 14 6 15 5 16 7 17 12 18 8 19 13 20 9 21 10 22 11 23 22 24
REMARK SMILES IDX 23 25 24 26 25 27 26 29 27 30 28 31 92 32 29 33 91 34 30 35
REMARK SMILES IDX 31 36 32 37 85 38 33 39 90 40 84 41 86 42 34 43 89 44 83 45
REMARK SMILES IDX 82 46 35 48 69 49 48 50 68 51 49 52 52 53 67 54 87 55 50 56
REMARK SMILES IDX 51 57 66 59 88 60 53 61 36 62 37 63 46 64 38 65 39 66 45 67
REMARK SMILES IDX 47 68 40 69 41 70 42 71 43 72 44 73 70 74 71 75 80 76 72 77
REMARK SMILES IDX 73 78 79 79 81 80 74 81 75 82 76 83 77 84 78 85 54 86 55 87
REMARK SMILES IDX 64 88 56 89 57 90 63 91 65 92 58 93 59 94 60 95 61 96 62 97
REMARK H PARENT 17 8 24 28 86 47 52 58
REMARK Flexibility Score: inf
ROOT
ATOM      1  C   UNL A   1      36.210  20.655  25.189  1.00  0.00     0.002 C 
ENDROOT
BRANCH   1   2
ATOM      2  C   UNL A   1      35.613  21.855  25.936  1.00  0.00     0.002 C 
BRANCH   2   3
ATOM      3  C   UNL A   1      34.393  21.588  26.823  1.00  0.00     0.021 C 
BRANCH   3   4
ATOM      4  C   UNL A   1      33.542  22.799  27.205  1.00  0.00     0.116 C 
BRANCH   4   5
ATOM      5  N   UNL A   1      32.097  22.626  27.080  1.00  0.00    -0.352 N 
ATOM      6  C   UNL A   1      31.177  23.127  26.171  1.00  0.00     0.253 C 
ATOM      7  O   UNL A   1      30.018  22.729  26.270  1.00  0.00    -0.269 OA
ATOM      8  H   UNL A   1      31.703  22.043  27.769  1.00  0.00     0.163 HD
BRANCH   6   9
ATOM      9  C   UNL A   1      31.512  24.169  25.162  1.00  0.00     0.073 A 
ATOM     10  C   UNL A   1      32.842  21.328  23.617  1.00  0.00     0.069 C 
ATOM     11  C   UNL A   1      32.525  22.704  23.154  1.00  0.00     0.070 A 
ATOM     12  N   UNL A   1      32.861  23.023  21.891  1.00  0.00    -0.176 NA
ATOM     13  C   UNL A   1      31.991  23.824  23.874  1.00  0.00     0.056 A 
ATOM     14  N   UNL A   1      32.567  24.329  21.797  1.00  0.00    -0.250 N 
ATOM     15  C   UNL A   1      32.028  24.850  22.939  1.00  0.00     0.158 A 
ATOM     16  C   UNL A   1      32.914  25.070  20.609  1.00  0.00     0.176 C 
ATOM     17  N   UNL A   1      31.617  26.117  23.099  1.00  0.00    -0.231 NA
ATOM     18  C   UNL A   1      31.411  25.548  25.423  1.00  0.00     0.076 A 
ATOM     19  C   UNL A   1      31.290  26.468  24.367  1.00  0.00     0.065 A 
ATOM     20  Cl  UNL A   1      31.794  26.112  27.027  1.00  0.00    -0.081 Cl
BRANCH  19  21
ATOM     21  C   UNL A   1      30.654  27.858  24.457  1.00  0.00     0.040 C 
ATOM     22  C   UNL A   1      31.490  29.065  24.827  1.00  0.00     0.011 C 
ATOM     23  C   UNL A   1      30.806  28.996  23.489  1.00  0.00     0.011 C 
ENDBRANCH  19  21
ENDBRANCH   6   9
ENDBRANCH   4   5
ENDBRANCH   3   4
ENDBRANCH   2   3
ENDBRANCH   1   2
BRANCH   1  24
ATOM     24  C   UNL A   1      37.728  20.672  24.912  1.00  0.00     0.021 C 
BRANCH  24  25
ATOM     25  C   UNL A   1      38.589  21.632  25.762  1.00  0.00     0.116 C 
BRANCH  25  26
ATOM     26  N   UNL A   1      39.839  21.004  26.154  1.00  0.00    -0.352 N 
ATOM     27  C   UNL A   1      41.110  21.475  26.357  1.00  0.00     0.251 C 
ATOM     28  H   UNL A   1      39.755  20.035  26.307  1.00  0.00     0.163 HD
ATOM     29  O   UNL A   1      42.017  20.638  26.354  1.00  0.00    -0.269 OA
BRANCH  27  30
ATOM     30  C   UNL A   1      41.466  22.897  26.601  1.00  0.00     0.039 A 
ATOM     31  C   UNL A   1      42.325  23.514  25.672  1.00  0.00     0.014 A 
ATOM     32  C   UNL A   1      41.162  23.576  27.780  1.00  0.00     0.014 A 
ATOM     33  C   UNL A   1      42.850  24.795  25.892  1.00  0.00     0.010 A 
ATOM     34  C   UNL A   1      41.698  24.859  28.004  1.00  0.00     0.010 A 
ATOM     35  C   UNL A   1      42.531  25.493  27.058  1.00  0.00    -0.014 A 
BRANCH  35  36
ATOM     36  C   UNL A   1      42.953  26.919  27.183  1.00  0.00     0.031 A 
ATOM     37  C   UNL A   1      41.825  27.886  27.194  1.00  0.00     0.074 A 
ATOM     38  C   UNL A   1      44.112  27.355  27.734  1.00  0.00     0.049 A 
ATOM     39  N   UNL A   1      41.123  28.026  28.274  1.00  0.00    -0.248 NA
ATOM     40  C   UNL A   1      41.258  28.575  26.041  1.00  0.00     0.031 C 
ATOM     41  C   UNL A   1      44.978  26.536  28.589  1.00  0.00     0.029 A 
ATOM     42  N   UNL A   1      44.657  28.626  27.831  1.00  0.00    -0.354 N 
ATOM     43  C   UNL A   1      40.016  28.785  27.974  1.00  0.00     0.074 A 
ATOM     44  C   UNL A   1      40.142  29.112  26.572  1.00  0.00     0.031 C 
ATOM     45  C   UNL A   1      45.853  27.341  29.227  1.00  0.00     0.029 A 
ATOM     46  C   UNL A   1      45.719  28.712  28.732  1.00  0.00     0.049 A 
ATOM     47  H   UNL A   1      44.327  29.396  27.314  1.00  0.00     0.167 HD
ATOM     48  C   UNL A   1      39.128  29.105  28.954  1.00  0.00     0.037 A 
ATOM     49  C   UNL A   1      46.098  29.801  29.457  1.00  0.00     0.037 A 
ATOM     50  C   UNL A   1      39.476  28.665  30.292  1.00  0.00     0.049 A 
ATOM     51  C   UNL A   1      44.928  30.018  30.379  1.00  0.00     0.074 A 
ATOM     52  C   UNL A   1      38.906  28.060  31.391  1.00  0.00     0.029 A 
ATOM     53  N   UNL A   1      40.783  28.871  30.631  1.00  0.00    -0.354 N 
ATOM     54  N   UNL A   1      44.656  29.321  31.452  1.00  0.00    -0.248 NA
ATOM     55  C   UNL A   1      43.860  30.942  29.962  1.00  0.00     0.031 C 
ATOM     56  C   UNL A   1      39.932  27.942  32.396  1.00  0.00     0.029 A 
ATOM     57  C   UNL A   1      41.092  28.522  31.909  1.00  0.00     0.049 A 
ATOM     58  H   UNL A   1      41.445  29.240  30.003  1.00  0.00     0.167 HD
ATOM     59  C   UNL A   1      43.303  29.536  31.679  1.00  0.00     0.074 A 
ATOM     60  C   UNL A   1      42.917  30.662  30.853  1.00  0.00     0.031 C 
ATOM     61  C   UNL A   1      42.481  28.640  32.294  1.00  0.00     0.037 A 
BRANCH  48  62
ATOM     62  C   UNL A   1      38.059  30.112  28.785  1.00  0.00     0.058 A 
ATOM     63  C   UNL A   1      38.303  31.411  29.265  1.00  0.00     0.135 A 
ATOM     64  C   UNL A   1      36.773  29.806  28.336  1.00  0.00     0.135 A 
ATOM     65  F   UNL A   1      39.530  31.748  29.695  1.00  0.00    -0.206 F 
ATOM     66  C   UNL A   1      37.297  32.363  29.344  1.00  0.00     0.059 A 
ATOM     67  C   UNL A   1      35.746  30.749  28.398  1.00  0.00     0.059 A 
ATOM     68  F   UNL A   1      36.490  28.579  27.872  1.00  0.00    -0.206 F 
ATOM     69  C   UNL A   1      36.015  32.017  28.923  1.00  0.00     0.060 A 
BRANCH  69  70
ATOM     70  S   UNL A   1      34.705  33.249  29.104  1.00  0.00     0.124 S 
ATOM     71  O   UNL A   1      35.439  34.497  28.929  1.00  0.00    -0.237 OA
ATOM     72  O   UNL A   1      33.797  32.884  28.023  1.00  0.00    -0.237 OA
ATOM     73  O   UNL A   1      34.197  33.006  30.452  1.00  0.00    -0.744 OA
ENDBRANCH  69  70
ENDBRANCH  48  62
BRANCH  49  74
ATOM     74  C   UNL A   1      46.787  30.942  28.759  1.00  0.00     0.058 A 
ATOM     75  C   UNL A   1      47.674  31.773  29.474  1.00  0.00     0.135 A 
ATOM     76  C   UNL A   1      46.577  31.303  27.414  1.00  0.00     0.135 A 
ATOM     77  F   UNL A   1      47.815  31.630  30.802  1.00  0.00    -0.206 F 
ATOM     78  C   UNL A   1      48.431  32.770  28.857  1.00  0.00     0.059 A 
ATOM     79  C   UNL A   1      47.350  32.267  26.762  1.00  0.00     0.059 A 
ATOM     80  F   UNL A   1      45.614  30.722  26.684  1.00  0.00    -0.206 F 
ATOM     81  C   UNL A   1      48.303  32.971  27.487  1.00  0.00     0.060 A 
BRANCH  81  82
ATOM     82  S   UNL A   1      49.441  34.099  26.657  1.00  0.00     0.124 S 
ATOM     83  O   UNL A   1      49.759  33.362  25.434  1.00  0.00    -0.237 OA
ATOM     84  O   UNL A   1      48.606  35.286  26.480  1.00  0.00    -0.237 OA
ATOM     85  O   UNL A   1      50.532  34.243  27.606  1.00  0.00    -0.744 OA
ENDBRANCH  81  82
ENDBRANCH  49  74
BRANCH  61  86
ATOM     86  C   UNL A   1      43.105  27.699  33.252  1.00  0.00     0.058 A 
ATOM     87  C   UNL A   1      43.016  27.972  34.625  1.00  0.00     0.135 A 
ATOM     88  C   UNL A   1      43.690  26.490  32.853  1.00  0.00     0.135 A 
ATOM     89  F   UNL A   1      42.439  29.106  35.056  1.00  0.00    -0.206 F 
ATOM     90  C   UNL A   1      43.453  27.062  35.575  1.00  0.00     0.059 A 
ATOM     91  C   UNL A   1      44.129  25.558  33.791  1.00  0.00     0.059 A 
ATOM     92  F   UNL A   1      43.813  26.185  31.551  1.00  0.00    -0.206 F 
ATOM     93  C   UNL A   1      43.987  25.846  35.149  1.00  0.00     0.060 A 
BRANCH  93  94
ATOM     94  S   UNL A   1      44.397  24.619  36.405  1.00  0.00     0.124 S 
ATOM     95  O   UNL A   1      45.855  24.681  36.432  1.00  0.00    -0.237 OA
ATOM     96  O   UNL A   1      43.720  25.152  37.584  1.00  0.00    -0.237 OA
ATOM     97  O   UNL A   1      43.834  23.382  35.874  1.00  0.00    -0.744 OA
ENDBRANCH  93  94
ENDBRANCH  61  86
ENDBRANCH  35  36
ENDBRANCH  27  30
ENDBRANCH  25  26
ENDBRANCH  24  25
ENDBRANCH   1  24
TORSDOF 17
ENDMDL
