MODEL 1
REMARK VINA RESULT:     -11.2      0.000      0.000
REMARK SMILES CNc1nc(C(=O)N2C[C@@H](C(=O)NCCCCCCNC(=O)c3ccc(-c4c5nc(c(-c6c(F)cc(S(=O)(=O)[O-])cc6F)c6ccc([nH]6)c(-c6c(F)cc(S(=O)(=O)[O-])cc6F)c6nc(c(-c7c(F)cc(S(=O)(=O)[O-])cc7F)c7ccc4[nH]7)C=C6)C=C5)cc3)[C@H](c3ccccc3C)C2)cs1
REMARK SMILES IDX 16 1 15 2 14 3 13 4 11 5 12 6 10 8 8 9 9 10 97 11 89 12 6 13
REMARK SMILES IDX 7 14 5 15 3 16 4 17 99 18 98 19 2 20 1 21 90 23 91 24 95 25
REMARK SMILES IDX 92 26 94 27 96 28 93 29 17 30 18 31 19 32 20 33 21 34 22 36
REMARK SMILES IDX 23 37 24 38 88 39 25 40 87 41 26 42 27 43 28 44 81 45 29 46
REMARK SMILES IDX 86 47 80 48 82 49 30 50 85 51 79 52 78 53 31 55 65 56 44 57
REMARK SMILES IDX 64 58 45 59 48 60 63 61 83 62 46 63 47 64 62 66 84 67 49 68
REMARK SMILES IDX 32 69 33 70 42 71 34 72 35 73 41 74 43 75 36 76 37 77 38 78
REMARK SMILES IDX 39 79 40 80 66 81 67 82 76 83 68 84 69 85 75 86 77 87 70 88
REMARK SMILES IDX 71 89 72 90 73 91 74 92 50 93 51 94 60 95 52 96 53 97 59 98
REMARK SMILES IDX 61 99 54 100 55 101 56 102 57 103 58 104
REMARK H PARENT 13 7 2 22 20 35 82 54 48 65
REMARK Flexibility Score: inf
ROOT
ATOM      1  C   UNL A   1      35.932  30.930  27.637  1.00  0.00     0.002 C 
ENDROOT
BRANCH   1   2
ATOM      2  C   UNL A   1      35.748  29.410  27.708  1.00  0.00     0.021 C 
BRANCH   2   3
ATOM      3  C   UNL A   1      34.595  28.842  26.888  1.00  0.00     0.116 C 
BRANCH   3   4
ATOM      4  N   UNL A   1      33.378  28.672  27.662  1.00  0.00    -0.356 N 
ATOM      5  C   UNL A   1      32.244  27.992  27.327  1.00  0.00     0.225 C 
ATOM      6  O   UNL A   1      31.388  27.829  28.198  1.00  0.00    -0.275 OA
ATOM      7  H   UNL A   1      33.371  29.104  28.546  1.00  0.00     0.163 HD
BRANCH   5   8
ATOM      8  C   UNL A   1      32.072  27.463  25.922  1.00  0.00     0.107 C 
ATOM      9  N   UNL A   1      30.617  27.313  24.133  1.00  0.00    -0.336 N 
ATOM     10  C   UNL A   1      30.932  28.196  25.238  1.00  0.00     0.134 C 
ATOM     11  C   UNL A   1      30.742  25.930  24.559  1.00  0.00     0.129 C 
ATOM     12  C   UNL A   1      31.602  25.986  25.858  1.00  0.00     0.053 C 
BRANCH   9  13
ATOM     13  C   UNL A   1      30.391  27.654  22.816  1.00  0.00     0.273 C 
ATOM     14  O   UNL A   1      30.973  27.078  21.890  1.00  0.00    -0.267 OA
BRANCH  13  15
ATOM     15  C   UNL A   1      29.493  28.788  22.554  1.00  0.00     0.141 A 
ATOM     16  C   UNL A   1      28.813  30.618  21.468  1.00  0.00     0.183 A 
ATOM     17  N   UNL A   1      29.812  29.785  21.626  1.00  0.00    -0.215 NA
ATOM     18  S   UNL A   1      27.451  30.305  22.475  1.00  0.00    -0.105 S 
ATOM     19  C   UNL A   1      28.223  28.904  23.084  1.00  0.00     0.102 A 
BRANCH  16  20
ATOM     20  N   UNL A   1      28.784  31.633  20.584  1.00  0.00    -0.365 N 
ATOM     21  C   UNL A   1      27.822  32.700  20.706  1.00  0.00     0.142 C 
ATOM     22  H   UNL A   1      29.429  31.647  19.841  1.00  0.00     0.162 HD
ENDBRANCH  16  20
ENDBRANCH  13  15
ENDBRANCH   9  13
BRANCH  12  23
ATOM     23  C   UNL A   1      32.780  25.024  25.967  1.00  0.00    -0.039 A 
ATOM     24  C   UNL A   1      32.738  23.961  26.895  1.00  0.00     0.004 A 
ATOM     25  C   UNL A   1      33.895  25.098  25.095  1.00  0.00    -0.048 A 
ATOM     26  C   UNL A   1      33.756  23.007  26.966  1.00  0.00     0.000 A 
ATOM     27  C   UNL A   1      34.892  24.103  25.158  1.00  0.00     0.004 A 
ATOM     28  C   UNL A   1      34.067  26.134  24.013  1.00  0.00     0.044 C 
ATOM     29  C   UNL A   1      34.827  23.069  26.087  1.00  0.00     0.000 A 
ENDBRANCH  12  23
ENDBRANCH   5   8
ENDBRANCH   3   4
ENDBRANCH   2   3
ENDBRANCH   1   2
BRANCH   1  30
ATOM     30  C   UNL A   1      35.148  31.762  28.654  1.00  0.00     0.002 C 
BRANCH  30  31
ATOM     31  C   UNL A   1      33.926  32.508  28.117  1.00  0.00     0.021 C 
BRANCH  31  32
ATOM     32  C   UNL A   1      34.074  34.021  27.997  1.00  0.00     0.116 C 
BRANCH  32  33
ATOM     33  N   UNL A   1      33.165  34.758  28.858  1.00  0.00    -0.352 N 
ATOM     34  C   UNL A   1      33.210  34.943  30.220  1.00  0.00     0.251 C 
ATOM     35  H   UNL A   1      32.407  35.187  28.400  1.00  0.00     0.163 HD
ATOM     36  O   UNL A   1      32.285  35.516  30.789  1.00  0.00    -0.269 OA
BRANCH  34  37
ATOM     37  C   UNL A   1      34.349  34.413  31.003  1.00  0.00     0.039 A 
ATOM     38  C   UNL A   1      34.119  33.356  31.887  1.00  0.00     0.014 A 
ATOM     39  C   UNL A   1      35.638  34.931  30.851  1.00  0.00     0.014 A 
ATOM     40  C   UNL A   1      35.195  32.763  32.551  1.00  0.00     0.010 A 
ATOM     41  C   UNL A   1      36.717  34.292  31.457  1.00  0.00     0.010 A 
ATOM     42  C   UNL A   1      36.508  33.192  32.301  1.00  0.00    -0.014 A 
BRANCH  42  43
ATOM     43  C   UNL A   1      37.675  32.465  32.869  1.00  0.00     0.031 A 
ATOM     44  C   UNL A   1      38.329  32.937  34.137  1.00  0.00     0.074 A 
ATOM     45  C   UNL A   1      38.190  31.419  32.193  1.00  0.00     0.049 A 
ATOM     46  N   UNL A   1      39.394  32.472  34.737  1.00  0.00    -0.248 NA
ATOM     47  C   UNL A   1      37.722  34.099  34.804  1.00  0.00     0.031 C 
ATOM     48  C   UNL A   1      37.677  30.900  30.923  1.00  0.00     0.029 A 
ATOM     49  N   UNL A   1      39.268  30.613  32.467  1.00  0.00    -0.354 N 
ATOM     50  C   UNL A   1      39.586  33.282  35.850  1.00  0.00     0.074 A 
ATOM     51  C   UNL A   1      38.562  34.304  35.808  1.00  0.00     0.031 C 
ATOM     52  C   UNL A   1      38.430  29.859  30.536  1.00  0.00     0.029 A 
ATOM     53  C   UNL A   1      39.504  29.661  31.503  1.00  0.00     0.049 A 
ATOM     54  H   UNL A   1      39.819  30.709  33.277  1.00  0.00     0.167 HD
ATOM     55  C   UNL A   1      40.517  33.169  36.831  1.00  0.00     0.037 A 
ATOM     56  C   UNL A   1      40.485  28.745  31.397  1.00  0.00     0.037 A 
ATOM     57  C   UNL A   1      41.533  32.147  36.864  1.00  0.00     0.049 A 
ATOM     58  C   UNL A   1      41.525  28.653  32.479  1.00  0.00     0.074 A 
ATOM     59  C   UNL A   1      42.489  31.917  37.837  1.00  0.00     0.029 A 
ATOM     60  N   UNL A   1      41.736  31.195  35.874  1.00  0.00    -0.354 N 
ATOM     61  N   UNL A   1      41.646  29.379  33.565  1.00  0.00    -0.248 NA
ATOM     62  C   UNL A   1      42.556  27.619  32.327  1.00  0.00     0.031 C 
ATOM     63  C   UNL A   1      43.303  30.861  37.411  1.00  0.00     0.029 A 
ATOM     64  C   UNL A   1      42.823  30.397  36.198  1.00  0.00     0.049 A 
ATOM     65  H   UNL A   1      41.189  31.102  35.061  1.00  0.00     0.167 HD
ATOM     66  C   UNL A   1      42.764  28.886  34.229  1.00  0.00     0.074 A 
ATOM     67  C   UNL A   1      43.266  27.783  33.435  1.00  0.00     0.031 C 
ATOM     68  C   UNL A   1      43.324  29.311  35.389  1.00  0.00     0.037 A 
BRANCH  55  69
ATOM     69  C   UNL A   1      40.475  34.180  37.946  1.00  0.00     0.058 A 
ATOM     70  C   UNL A   1      39.626  34.018  39.054  1.00  0.00     0.135 A 
ATOM     71  C   UNL A   1      41.300  35.315  37.918  1.00  0.00     0.135 A 
ATOM     72  F   UNL A   1      38.806  32.958  39.130  1.00  0.00    -0.206 F 
ATOM     73  C   UNL A   1      39.566  34.966  40.070  1.00  0.00     0.059 A 
ATOM     74  C   UNL A   1      41.280  36.261  38.939  1.00  0.00     0.059 A 
ATOM     75  F   UNL A   1      42.134  35.519  36.886  1.00  0.00    -0.206 F 
ATOM     76  C   UNL A   1      40.394  36.088  40.002  1.00  0.00     0.060 A 
BRANCH  76  77
ATOM     77  S   UNL A   1      40.286  37.320  41.316  1.00  0.00     0.124 S 
ATOM     78  O   UNL A   1      41.324  38.263  40.915  1.00  0.00    -0.237 OA
ATOM     79  O   UNL A   1      38.913  37.797  41.185  1.00  0.00    -0.237 OA
ATOM     80  O   UNL A   1      40.567  36.554  42.526  1.00  0.00    -0.744 OA
ENDBRANCH  76  77
ENDBRANCH  55  69
BRANCH  56  81
ATOM     81  C   UNL A   1      40.522  27.843  30.213  1.00  0.00     0.058 A 
ATOM     82  C   UNL A   1      39.561  26.840  30.035  1.00  0.00     0.135 A 
ATOM     83  C   UNL A   1      41.497  28.001  29.214  1.00  0.00     0.135 A 
ATOM     84  F   UNL A   1      38.614  26.644  30.965  1.00  0.00    -0.206 F 
ATOM     85  C   UNL A   1      39.562  26.021  28.909  1.00  0.00     0.059 A 
ATOM     86  C   UNL A   1      41.504  27.212  28.068  1.00  0.00     0.059 A 
ATOM     87  F   UNL A   1      42.431  28.958  29.330  1.00  0.00    -0.206 F 
ATOM     88  C   UNL A   1      40.535  26.222  27.927  1.00  0.00     0.060 A 
BRANCH  88  89
ATOM     89  S   UNL A   1      40.480  25.206  26.435  1.00  0.00     0.124 S 
ATOM     90  O   UNL A   1      40.934  26.149  25.420  1.00  0.00    -0.237 OA
ATOM     91  O   UNL A   1      41.408  24.128  26.766  1.00  0.00    -0.237 OA
ATOM     92  O   UNL A   1      39.078  24.810  26.351  1.00  0.00    -0.744 OA
ENDBRANCH  88  89
ENDBRANCH  56  81
BRANCH  68  93
ATOM     93  C   UNL A   1      44.548  28.583  35.873  1.00  0.00     0.058 A 
ATOM     94  C   UNL A   1      45.840  29.016  35.534  1.00  0.00     0.135 A 
ATOM     95  C   UNL A   1      44.431  27.477  36.730  1.00  0.00     0.135 A 
ATOM     96  F   UNL A   1      46.007  30.063  34.711  1.00  0.00    -0.206 F 
ATOM     97  C   UNL A   1      46.973  28.367  36.013  1.00  0.00     0.059 A 
ATOM     98  C   UNL A   1      45.552  26.830  37.244  1.00  0.00     0.059 A 
ATOM     99  F   UNL A   1      43.220  27.026  37.093  1.00  0.00    -0.206 F 
ATOM    100  C   UNL A   1      46.819  27.277  36.872  1.00  0.00     0.060 A 
BRANCH 100 101
ATOM    101  S   UNL A   1      48.300  26.473  37.521  1.00  0.00     0.124 S 
ATOM    102  O   UNL A   1      49.138  26.394  36.328  1.00  0.00    -0.237 OA
ATOM    103  O   UNL A   1      48.742  27.415  38.545  1.00  0.00    -0.237 OA
ATOM    104  O   UNL A   1      47.801  25.197  38.023  1.00  0.00    -0.744 OA
ENDBRANCH 100 101
ENDBRANCH  68  93
ENDBRANCH  42  43
ENDBRANCH  34  37
ENDBRANCH  32  33
ENDBRANCH  31  32
ENDBRANCH  30  31
ENDBRANCH   1  30
TORSDOF 20
ENDMDL
MODEL 2
REMARK VINA RESULT:     -10.6      6.038     10.507
REMARK SMILES CNc1nc(C(=O)N2C[C@@H](C(=O)NCCCCCCNC(=O)c3ccc(-c4c5nc(c(-c6c(F)cc(S(=O)(=O)[O-])cc6F)c6ccc([nH]6)c(-c6c(F)cc(S(=O)(=O)[O-])cc6F)c6nc(c(-c7c(F)cc(S(=O)(=O)[O-])cc7F)c7ccc4[nH]7)C=C6)C=C5)cc3)[C@H](c3ccccc3C)C2)cs1
REMARK SMILES IDX 16 1 15 2 14 3 13 4 11 5 12 6 10 8 8 9 9 10 97 11 89 12 6 13
REMARK SMILES IDX 7 14 5 15 3 16 4 17 99 18 98 19 2 20 1 21 90 23 91 24 95 25
REMARK SMILES IDX 92 26 94 27 96 28 93 29 17 30 18 31 19 32 20 33 21 34 22 36
REMARK SMILES IDX 23 37 24 38 88 39 25 40 87 41 26 42 27 43 28 44 81 45 29 46
REMARK SMILES IDX 86 47 80 48 82 49 30 50 85 51 79 52 78 53 31 55 65 56 44 57
REMARK SMILES IDX 64 58 45 59 48 60 63 61 83 62 46 63 47 64 62 66 84 67 49 68
REMARK SMILES IDX 32 69 33 70 42 71 34 72 35 73 41 74 43 75 36 76 37 77 38 78
REMARK SMILES IDX 39 79 40 80 66 81 67 82 76 83 68 84 69 85 75 86 77 87 70 88
REMARK SMILES IDX 71 89 72 90 73 91 74 92 50 93 51 94 60 95 52 96 53 97 59 98
REMARK SMILES IDX 61 99 54 100 55 101 56 102 57 103 58 104
REMARK H PARENT 13 7 2 22 20 35 82 54 48 65
REMARK Flexibility Score: inf
ROOT
ATOM      1  C   UNL A   1      36.645  29.771  27.635  1.00  0.00     0.002 C 
ENDROOT
BRANCH   1   2
ATOM      2  C   UNL A   1      35.582  28.862  27.010  1.00  0.00     0.021 C 
BRANCH   2   3
ATOM      3  C   UNL A   1      34.220  29.504  26.765  1.00  0.00     0.116 C 
BRANCH   3   4
ATOM      4  N   UNL A   1      33.176  28.966  27.619  1.00  0.00    -0.356 N 
ATOM      5  C   UNL A   1      32.248  28.010  27.329  1.00  0.00     0.225 C 
ATOM      6  O   UNL A   1      31.556  27.576  28.252  1.00  0.00    -0.275 OA
ATOM      7  H   UNL A   1      33.134  29.341  28.528  1.00  0.00     0.163 HD
BRANCH   5   8
ATOM      8  C   UNL A   1      32.097  27.514  25.909  1.00  0.00     0.107 C 
ATOM      9  N   UNL A   1      30.673  27.414  24.093  1.00  0.00    -0.336 N 
ATOM     10  C   UNL A   1      30.974  28.269  25.223  1.00  0.00     0.134 C 
ATOM     11  C   UNL A   1      30.782  26.020  24.490  1.00  0.00     0.129 C 
ATOM     12  C   UNL A   1      31.619  26.042  25.804  1.00  0.00     0.053 C 
BRANCH   9  13
ATOM     13  C   UNL A   1      30.472  27.786  22.781  1.00  0.00     0.273 C 
ATOM     14  O   UNL A   1      31.076  27.236  21.853  1.00  0.00    -0.267 OA
BRANCH  13  15
ATOM     15  C   UNL A   1      29.573  28.921  22.528  1.00  0.00     0.141 A 
ATOM     16  C   UNL A   1      28.874  30.741  21.438  1.00  0.00     0.183 A 
ATOM     17  N   UNL A   1      29.872  29.905  21.580  1.00  0.00    -0.215 NA
ATOM     18  S   UNL A   1      27.537  30.448  22.483  1.00  0.00    -0.105 S 
ATOM     19  C   UNL A   1      28.317  29.050  23.088  1.00  0.00     0.102 A 
BRANCH  16  20
ATOM     20  N   UNL A   1      28.827  31.745  20.542  1.00  0.00    -0.365 N 
ATOM     21  C   UNL A   1      27.845  32.795  20.651  1.00  0.00     0.142 C 
ATOM     22  H   UNL A   1      29.473  31.764  19.800  1.00  0.00     0.162 HD
ENDBRANCH  16  20
ENDBRANCH  13  15
ENDBRANCH   9  13
BRANCH  12  23
ATOM     23  C   UNL A   1      32.789  25.070  25.912  1.00  0.00    -0.039 A 
ATOM     24  C   UNL A   1      34.080  25.472  25.505  1.00  0.00     0.004 A 
ATOM     25  C   UNL A   1      32.650  23.788  26.500  1.00  0.00    -0.048 A 
ATOM     26  C   UNL A   1      35.193  24.644  25.668  1.00  0.00     0.000 A 
ATOM     27  C   UNL A   1      33.793  22.984  26.690  1.00  0.00     0.004 A 
ATOM     28  C   UNL A   1      31.356  23.229  27.036  1.00  0.00     0.044 C 
ATOM     29  C   UNL A   1      35.052  23.404  26.274  1.00  0.00     0.000 A 
ENDBRANCH  12  23
ENDBRANCH   5   8
ENDBRANCH   3   4
ENDBRANCH   2   3
ENDBRANCH   1   2
BRANCH   1  30
ATOM     30  C   UNL A   1      37.412  29.204  28.832  1.00  0.00     0.002 C 
BRANCH  30  31
ATOM     31  C   UNL A   1      36.774  29.417  30.204  1.00  0.00     0.021 C 
BRANCH  31  32
ATOM     32  C   UNL A   1      36.443  30.862  30.564  1.00  0.00     0.116 C 
BRANCH  32  33
ATOM     33  N   UNL A   1      36.622  31.159  31.975  1.00  0.00    -0.352 N 
ATOM     34  C   UNL A   1      37.778  31.201  32.718  1.00  0.00     0.251 C 
ATOM     35  H   UNL A   1      35.796  31.361  32.470  1.00  0.00     0.163 HD
ATOM     36  O   UNL A   1      37.718  31.370  33.932  1.00  0.00    -0.269 OA
BRANCH  34  37
ATOM     37  C   UNL A   1      39.089  30.996  32.061  1.00  0.00     0.039 A 
ATOM     38  C   UNL A   1      39.998  30.107  32.642  1.00  0.00     0.014 A 
ATOM     39  C   UNL A   1      39.415  31.652  30.870  1.00  0.00     0.014 A 
ATOM     40  C   UNL A   1      41.192  29.810  31.983  1.00  0.00     0.010 A 
ATOM     41  C   UNL A   1      40.572  31.299  30.180  1.00  0.00     0.010 A 
ATOM     42  C   UNL A   1      41.465  30.363  30.721  1.00  0.00    -0.014 A 
BRANCH  42  43
ATOM     43  C   UNL A   1      42.649  29.930  29.933  1.00  0.00     0.031 A 
ATOM     44  C   UNL A   1      42.702  28.561  29.315  1.00  0.00     0.074 A 
ATOM     45  C   UNL A   1      43.713  30.753  29.841  1.00  0.00     0.049 A 
ATOM     46  N   UNL A   1      43.678  27.990  28.658  1.00  0.00    -0.248 NA
ATOM     47  C   UNL A   1      41.510  27.714  29.479  1.00  0.00     0.031 C 
ATOM     48  C   UNL A   1      43.805  32.085  30.444  1.00  0.00     0.029 A 
ATOM     49  N   UNL A   1      44.928  30.587  29.222  1.00  0.00    -0.354 N 
ATOM     50  C   UNL A   1      43.222  26.719  28.330  1.00  0.00     0.074 A 
ATOM     51  C   UNL A   1      41.904  26.582  28.913  1.00  0.00     0.031 C 
ATOM     52  C   UNL A   1      45.001  32.619  30.154  1.00  0.00     0.029 A 
ATOM     53  C   UNL A   1      45.780  31.654  29.385  1.00  0.00     0.049 A 
ATOM     54  H   UNL A   1      45.165  29.781  28.709  1.00  0.00     0.167 HD
ATOM     55  C   UNL A   1      43.836  25.763  27.590  1.00  0.00     0.037 A 
ATOM     56  C   UNL A   1      47.052  31.831  28.979  1.00  0.00     0.037 A 
ATOM     57  C   UNL A   1      45.149  25.908  27.014  1.00  0.00     0.049 A 
ATOM     58  C   UNL A   1      47.726  30.748  28.184  1.00  0.00     0.074 A 
ATOM     59  C   UNL A   1      45.838  25.019  26.208  1.00  0.00     0.029 A 
ATOM     60  N   UNL A   1      45.979  27.006  27.195  1.00  0.00    -0.354 N 
ATOM     61  N   UNL A   1      47.252  29.581  27.818  1.00  0.00    -0.248 NA
ATOM     62  C   UNL A   1      49.104  31.004  27.744  1.00  0.00     0.031 C 
ATOM     63  C   UNL A   1      47.103  25.556  25.945  1.00  0.00     0.029 A 
ATOM     64  C   UNL A   1      47.186  26.803  26.542  1.00  0.00     0.049 A 
ATOM     65  H   UNL A   1      45.745  27.812  27.711  1.00  0.00     0.167 HD
ATOM     66  C   UNL A   1      48.270  28.965  27.098  1.00  0.00     0.074 A 
ATOM     67  C   UNL A   1      49.376  29.900  27.060  1.00  0.00     0.031 C 
ATOM     68  C   UNL A   1      48.287  27.736  26.525  1.00  0.00     0.037 A 
BRANCH  55  69
ATOM     69  C   UNL A   1      43.090  24.474  27.366  1.00  0.00     0.058 A 
ATOM     70  C   UNL A   1      43.269  23.364  28.208  1.00  0.00     0.135 A 
ATOM     71  C   UNL A   1      42.173  24.349  26.309  1.00  0.00     0.135 A 
ATOM     72  F   UNL A   1      44.140  23.421  29.227  1.00  0.00    -0.206 F 
ATOM     73  C   UNL A   1      42.601  22.164  27.984  1.00  0.00     0.059 A 
ATOM     74  C   UNL A   1      41.470  23.168  26.085  1.00  0.00     0.059 A 
ATOM     75  F   UNL A   1      41.958  25.379  25.476  1.00  0.00    -0.206 F 
ATOM     76  C   UNL A   1      41.707  22.074  26.917  1.00  0.00     0.060 A 
BRANCH  76  77
ATOM     77  S   UNL A   1      40.867  20.503  26.626  1.00  0.00     0.124 S 
ATOM     78  O   UNL A   1      39.588  20.954  26.088  1.00  0.00    -0.237 OA
ATOM     79  O   UNL A   1      41.757  19.845  25.675  1.00  0.00    -0.237 OA
ATOM     80  O   UNL A   1      40.812  19.896  27.952  1.00  0.00    -0.744 OA
ENDBRANCH  76  77
ENDBRANCH  55  69
BRANCH  56  81
ATOM     81  C   UNL A   1      47.764  33.092  29.325  1.00  0.00     0.058 A 
ATOM     82  C   UNL A   1      48.513  33.202  30.504  1.00  0.00     0.135 A 
ATOM     83  C   UNL A   1      47.743  34.195  28.457  1.00  0.00     0.135 A 
ATOM     84  F   UNL A   1      48.558  32.177  31.369  1.00  0.00    -0.206 F 
ATOM     85  C   UNL A   1      49.218  34.361  30.814  1.00  0.00     0.059 A 
ATOM     86  C   UNL A   1      48.459  35.356  28.733  1.00  0.00     0.059 A 
ATOM     87  F   UNL A   1      47.053  34.136  27.308  1.00  0.00    -0.206 F 
ATOM     88  C   UNL A   1      49.191  35.431  29.916  1.00  0.00     0.060 A 
BRANCH  88  89
ATOM     89  S   UNL A   1      50.170  36.900  30.291  1.00  0.00     0.124 S 
ATOM     90  O   UNL A   1      49.516  37.909  29.465  1.00  0.00    -0.237 OA
ATOM     91  O   UNL A   1      49.980  37.034  31.733  1.00  0.00    -0.237 OA
ATOM     92  O   UNL A   1      51.517  36.519  29.878  1.00  0.00    -0.744 OA
ENDBRANCH  88  89
ENDBRANCH  56  81
BRANCH  68  93
ATOM     93  C   UNL A   1      49.543  27.326  25.807  1.00  0.00     0.058 A 
ATOM     94  C   UNL A   1      49.653  27.423  24.410  1.00  0.00     0.135 A 
ATOM     95  C   UNL A   1      50.667  26.886  26.523  1.00  0.00     0.135 A 
ATOM     96  F   UNL A   1      48.605  27.829  23.676  1.00  0.00    -0.206 F 
ATOM     97  C   UNL A   1      50.828  27.081  23.748  1.00  0.00     0.059 A 
ATOM     98  C   UNL A   1      51.862  26.566  25.884  1.00  0.00     0.059 A 
ATOM     99  F   UNL A   1      50.620  26.783  27.861  1.00  0.00    -0.206 F 
ATOM    100  C   UNL A   1      51.929  26.659  24.495  1.00  0.00     0.060 A 
BRANCH 100 101
ATOM    101  S   UNL A   1      53.461  26.262  23.625  1.00  0.00     0.124 S 
ATOM    102  O   UNL A   1      54.274  27.441  23.907  1.00  0.00    -0.237 OA
ATOM    103  O   UNL A   1      53.882  25.029  24.283  1.00  0.00    -0.237 OA
ATOM    104  O   UNL A   1      53.034  26.111  22.237  1.00  0.00    -0.744 OA
ENDBRANCH 100 101
ENDBRANCH  68  93
ENDBRANCH  42  43
ENDBRANCH  34  37
ENDBRANCH  32  33
ENDBRANCH  31  32
ENDBRANCH  30  31
ENDBRANCH   1  30
TORSDOF 20
ENDMDL
MODEL 3
REMARK VINA RESULT:     -10.3      2.865      8.987
REMARK SMILES CNc1nc(C(=O)N2C[C@@H](C(=O)NCCCCCCNC(=O)c3ccc(-c4c5nc(c(-c6c(F)cc(S(=O)(=O)[O-])cc6F)c6ccc([nH]6)c(-c6c(F)cc(S(=O)(=O)[O-])cc6F)c6nc(c(-c7c(F)cc(S(=O)(=O)[O-])cc7F)c7ccc4[nH]7)C=C6)C=C5)cc3)[C@H](c3ccccc3C)C2)cs1
REMARK SMILES IDX 16 1 15 2 14 3 13 4 11 5 12 6 10 8 8 9 9 10 97 11 89 12 6 13
REMARK SMILES IDX 7 14 5 15 3 16 4 17 99 18 98 19 2 20 1 21 90 23 91 24 95 25
REMARK SMILES IDX 92 26 94 27 96 28 93 29 17 30 18 31 19 32 20 33 21 34 22 36
REMARK SMILES IDX 23 37 24 38 88 39 25 40 87 41 26 42 27 43 28 44 81 45 29 46
REMARK SMILES IDX 86 47 80 48 82 49 30 50 85 51 79 52 78 53 31 55 65 56 44 57
REMARK SMILES IDX 64 58 45 59 48 60 63 61 83 62 46 63 47 64 62 66 84 67 49 68
REMARK SMILES IDX 32 69 33 70 42 71 34 72 35 73 41 74 43 75 36 76 37 77 38 78
REMARK SMILES IDX 39 79 40 80 66 81 67 82 76 83 68 84 69 85 75 86 77 87 70 88
REMARK SMILES IDX 71 89 72 90 73 91 74 92 50 93 51 94 60 95 52 96 53 97 59 98
REMARK SMILES IDX 61 99 54 100 55 101 56 102 57 103 58 104
REMARK H PARENT 13 7 2 22 20 35 82 54 48 65
REMARK Flexibility Score: inf
ROOT
ATOM      1  C   UNL A   1      31.773  27.437  26.666  1.00  0.00     0.002 C 
ENDROOT
BRANCH   1   2
ATOM      2  C   UNL A   1      31.158  26.055  26.415  1.00  0.00     0.021 C 
BRANCH   2   3
ATOM      3  C   UNL A   1      31.980  24.865  26.900  1.00  0.00     0.116 C 
BRANCH   3   4
ATOM      4  N   UNL A   1      31.454  23.590  26.447  1.00  0.00    -0.356 N 
ATOM      5  C   UNL A   1      31.728  22.917  25.293  1.00  0.00     0.225 C 
ATOM      6  O   UNL A   1      31.302  21.767  25.177  1.00  0.00    -0.275 OA
ATOM      7  H   UNL A   1      30.814  23.153  27.054  1.00  0.00     0.163 HD
BRANCH   5   8
ATOM      8  C   UNL A   1      32.537  23.588  24.206  1.00  0.00     0.107 C 
ATOM      9  N   UNL A   1      32.480  24.384  22.038  1.00  0.00    -0.336 N 
ATOM     10  C   UNL A   1      31.602  24.191  23.175  1.00  0.00     0.134 C 
ATOM     11  C   UNL A   1      33.413  23.274  21.945  1.00  0.00     0.129 C 
ATOM     12  C   UNL A   1      33.381  22.605  23.353  1.00  0.00     0.053 C 
BRANCH   9  13
ATOM     13  C   UNL A   1      32.584  25.496  21.230  1.00  0.00     0.273 C 
ATOM     14  O   UNL A   1      32.900  25.401  20.038  1.00  0.00    -0.267 OA
BRANCH  13  15
ATOM     15  C   UNL A   1      32.389  26.810  21.856  1.00  0.00     0.141 A 
ATOM     16  C   UNL A   1      31.176  28.490  22.693  1.00  0.00     0.183 A 
ATOM     17  N   UNL A   1      31.119  27.382  21.996  1.00  0.00    -0.215 NA
ATOM     18  S   UNL A   1      32.763  28.959  23.168  1.00  0.00    -0.105 S 
ATOM     19  C   UNL A   1      33.394  27.528  22.474  1.00  0.00     0.102 A 
BRANCH  16  20
ATOM     20  N   UNL A   1      30.111  29.224  23.066  1.00  0.00    -0.365 N 
ATOM     21  C   UNL A   1      29.153  29.693  22.096  1.00  0.00     0.142 C 
ATOM     22  H   UNL A   1      29.984  29.446  24.017  1.00  0.00     0.162 HD
ENDBRANCH  16  20
ENDBRANCH  13  15
ENDBRANCH   9  13
BRANCH  12  23
ATOM     23  C   UNL A   1      34.719  22.300  24.019  1.00  0.00    -0.039 A 
ATOM     24  C   UNL A   1      35.696  23.312  24.135  1.00  0.00     0.004 A 
ATOM     25  C   UNL A   1      34.990  21.045  24.620  1.00  0.00    -0.048 A 
ATOM     26  C   UNL A   1      36.897  23.098  24.815  1.00  0.00     0.000 A 
ATOM     27  C   UNL A   1      36.193  20.864  25.334  1.00  0.00     0.004 A 
ATOM     28  C   UNL A   1      34.034  19.879  24.636  1.00  0.00     0.044 C 
ATOM     29  C   UNL A   1      37.141  21.878  25.427  1.00  0.00     0.000 A 
ENDBRANCH  12  23
ENDBRANCH   5   8
ENDBRANCH   3   4
ENDBRANCH   2   3
ENDBRANCH   1   2
BRANCH   1  30
ATOM     30  C   UNL A   1      33.242  27.613  26.274  1.00  0.00     0.002 C 
BRANCH  30  31
ATOM     31  C   UNL A   1      34.089  28.479  27.206  1.00  0.00     0.021 C 
BRANCH  31  32
ATOM     32  C   UNL A   1      34.532  29.824  26.639  1.00  0.00     0.116 C 
BRANCH  32  33
ATOM     33  N   UNL A   1      34.200  30.948  27.497  1.00  0.00    -0.352 N 
ATOM     34  C   UNL A   1      34.882  31.452  28.579  1.00  0.00     0.251 C 
ATOM     35  H   UNL A   1      33.365  31.417  27.270  1.00  0.00     0.163 HD
ATOM     36  O   UNL A   1      34.385  32.353  29.249  1.00  0.00    -0.269 OA
BRANCH  34  37
ATOM     37  C   UNL A   1      36.192  30.879  28.961  1.00  0.00     0.039 A 
ATOM     38  C   UNL A   1      37.354  31.466  28.453  1.00  0.00     0.014 A 
ATOM     39  C   UNL A   1      36.282  29.790  29.833  1.00  0.00     0.014 A 
ATOM     40  C   UNL A   1      38.603  31.019  28.888  1.00  0.00     0.010 A 
ATOM     41  C   UNL A   1      37.525  29.394  30.321  1.00  0.00     0.010 A 
ATOM     42  C   UNL A   1      38.697  30.014  29.865  1.00  0.00    -0.014 A 
BRANCH  42  43
ATOM     43  C   UNL A   1      40.009  29.642  30.460  1.00  0.00     0.031 A 
ATOM     44  C   UNL A   1      40.806  28.496  29.904  1.00  0.00     0.074 A 
ATOM     45  C   UNL A   1      40.442  30.297  31.555  1.00  0.00     0.049 A 
ATOM     46  N   UNL A   1      41.930  27.988  30.337  1.00  0.00    -0.248 NA
ATOM     47  C   UNL A   1      40.255  27.818  28.721  1.00  0.00     0.031 C 
ATOM     48  C   UNL A   1      39.731  31.391  32.222  1.00  0.00     0.029 A 
ATOM     49  N   UNL A   1      41.575  30.130  32.314  1.00  0.00    -0.354 N 
ATOM     50  C   UNL A   1      42.223  26.931  29.483  1.00  0.00     0.074 A 
ATOM     51  C   UNL A   1      41.126  26.835  28.544  1.00  0.00     0.031 C 
ATOM     52  C   UNL A   1      40.448  31.804  33.278  1.00  0.00     0.029 A 
ATOM     53  C   UNL A   1      41.647  30.980  33.393  1.00  0.00     0.049 A 
ATOM     54  H   UNL A   1      42.270  29.465  32.104  1.00  0.00     0.167 HD
ATOM     55  C   UNL A   1      43.317  26.130  29.469  1.00  0.00     0.037 A 
ATOM     56  C   UNL A   1      42.561  31.073  34.377  1.00  0.00     0.037 A 
ATOM     57  C   UNL A   1      44.405  26.232  30.410  1.00  0.00     0.049 A 
ATOM     58  C   UNL A   1      43.753  30.157  34.361  1.00  0.00     0.074 A 
ATOM     59  C   UNL A   1      45.579  25.503  30.450  1.00  0.00     0.029 A 
ATOM     60  N   UNL A   1      44.444  27.111  31.485  1.00  0.00    -0.354 N 
ATOM     61  N   UNL A   1      44.051  29.212  33.501  1.00  0.00    -0.248 NA
ATOM     62  C   UNL A   1      44.733  30.320  35.443  1.00  0.00     0.031 C 
ATOM     63  C   UNL A   1      46.304  25.902  31.578  1.00  0.00     0.029 A 
ATOM     64  C   UNL A   1      45.608  26.917  32.213  1.00  0.00     0.049 A 
ATOM     65  H   UNL A   1      43.748  27.773  31.699  1.00  0.00     0.167 HD
ATOM     66  C   UNL A   1      45.257  28.672  33.933  1.00  0.00     0.074 A 
ATOM     67  C   UNL A   1      45.645  29.413  35.117  1.00  0.00     0.031 C 
ATOM     68  C   UNL A   1      45.975  27.652  33.400  1.00  0.00     0.037 A 
BRANCH  55  69
ATOM     69  C   UNL A   1      43.386  25.070  28.401  1.00  0.00     0.058 A 
ATOM     70  C   UNL A   1      43.777  25.375  27.086  1.00  0.00     0.135 A 
ATOM     71  C   UNL A   1      43.075  23.733  28.695  1.00  0.00     0.135 A 
ATOM     72  F   UNL A   1      44.075  26.638  26.745  1.00  0.00    -0.206 F 
ATOM     73  C   UNL A   1      43.813  24.402  26.093  1.00  0.00     0.059 A 
ATOM     74  C   UNL A   1      43.136  22.737  27.724  1.00  0.00     0.059 A 
ATOM     75  F   UNL A   1      42.700  23.383  29.935  1.00  0.00    -0.206 F 
ATOM     76  C   UNL A   1      43.486  23.086  26.420  1.00  0.00     0.060 A 
BRANCH  76  77
ATOM     77  S   UNL A   1      43.516  21.841  25.114  1.00  0.00     0.124 S 
ATOM     78  O   UNL A   1      43.400  22.671  23.919  1.00  0.00    -0.237 OA
ATOM     79  O   UNL A   1      44.814  21.205  25.319  1.00  0.00    -0.237 OA
ATOM     80  O   UNL A   1      42.358  21.005  25.412  1.00  0.00    -0.744 OA
ENDBRANCH  76  77
ENDBRANCH  55  69
BRANCH  56  81
ATOM     81  C   UNL A   1      42.375  32.078  35.459  1.00  0.00     0.058 A 
ATOM     82  C   UNL A   1      41.645  31.773  36.615  1.00  0.00     0.135 A 
ATOM     83  C   UNL A   1      42.964  33.350  35.374  1.00  0.00     0.135 A 
ATOM     84  F   UNL A   1      41.055  30.574  36.740  1.00  0.00    -0.206 F 
ATOM     85  C   UNL A   1      41.502  32.692  37.651  1.00  0.00     0.059 A 
ATOM     86  C   UNL A   1      42.858  34.276  36.406  1.00  0.00     0.059 A 
ATOM     87  F   UNL A   1      43.687  33.686  34.294  1.00  0.00    -0.206 F 
ATOM     88  C   UNL A   1      42.120  33.939  37.540  1.00  0.00     0.060 A 
BRANCH  88  89
ATOM     89  S   UNL A   1      41.994  35.094  38.922  1.00  0.00     0.124 S 
ATOM     90  O   UNL A   1      43.242  35.838  38.799  1.00  0.00    -0.237 OA
ATOM     91  O   UNL A   1      40.776  35.829  38.595  1.00  0.00    -0.237 OA
ATOM     92  O   UNL A   1      41.893  34.215  40.084  1.00  0.00    -0.744 OA
ENDBRANCH  88  89
ENDBRANCH  56  81
BRANCH  68  93
ATOM     93  C   UNL A   1      47.256  27.273  34.092  1.00  0.00     0.058 A 
ATOM     94  C   UNL A   1      47.289  26.268  35.073  1.00  0.00     0.135 A 
ATOM     95  C   UNL A   1      48.471  27.878  33.733  1.00  0.00     0.135 A 
ATOM     96  F   UNL A   1      46.155  25.664  35.460  1.00  0.00    -0.206 F 
ATOM     97  C   UNL A   1      48.479  25.889  35.686  1.00  0.00     0.059 A 
ATOM     98  C   UNL A   1      49.678  27.494  34.312  1.00  0.00     0.059 A 
ATOM     99  F   UNL A   1      48.498  28.837  32.795  1.00  0.00    -0.206 F 
ATOM    100  C   UNL A   1      49.670  26.505  35.294  1.00  0.00     0.060 A 
BRANCH 100 101
ATOM    101  S   UNL A   1      51.212  25.970  36.066  1.00  0.00     0.124 S 
ATOM    102  O   UNL A   1      52.196  26.360  35.061  1.00  0.00    -0.237 OA
ATOM    103  O   UNL A   1      51.227  26.747  37.302  1.00  0.00    -0.237 OA
ATOM    104  O   UNL A   1      51.026  24.533  36.238  1.00  0.00    -0.744 OA
ENDBRANCH 100 101
ENDBRANCH  68  93
ENDBRANCH  42  43
ENDBRANCH  34  37
ENDBRANCH  32  33
ENDBRANCH  31  32
ENDBRANCH  30  31
ENDBRANCH   1  30
TORSDOF 20
ENDMDL
