MODEL 1
REMARK VINA RESULT:     -11.5      0.000      0.000
REMARK SMILES O=C(NCCCCCCNC(=O)c1ccc(-c2c3nc(c(-c4c(F)cc(S(=O)(=O)[O-])cc4F)c4ccc([nH]4)c(-c4c(F)cc(S(=O)(=O)[O-])cc4F)c4nc(c(-c5c(F)cc(S(=O)(=O)[O-])cc5F)c5ccc2[nH]5)C=C4)C=C3)cc1)c1ccc(NC(=O)c2cc(F)cc(Br)c2)cc1
REMARK SMILES IDX 7 1 6 2 5 3 4 4 3 5 1 6 2 7 79 9 80 10 95 11 81 12 94 13
REMARK SMILES IDX 82 14 83 15 84 16 85 18 86 19 87 20 93 21 88 22 91 23 89 24
REMARK SMILES IDX 90 25 92 26 8 27 9 28 10 29 11 30 12 32 13 33 14 34 78 35
REMARK SMILES IDX 15 36 77 37 16 38 17 39 18 40 71 41 19 42 76 43 70 44 72 45
REMARK SMILES IDX 20 46 75 47 69 48 68 49 21 51 55 52 34 53 54 54 35 55 38 56
REMARK SMILES IDX 53 57 73 58 36 59 37 60 52 62 74 63 39 64 22 65 23 66 32 67
REMARK SMILES IDX 24 68 25 69 31 70 33 71 26 72 27 73 28 74 29 75 30 76 56 77
REMARK SMILES IDX 57 78 66 79 58 80 59 81 65 82 67 83 60 84 61 85 62 86 63 87
REMARK SMILES IDX 64 88 40 89 41 90 50 91 42 92 43 93 49 94 51 95 44 96 45 97
REMARK SMILES IDX 46 98 47 99 48 100
REMARK H PARENT 3 8 83 17 10 31 72 50 38 61
REMARK Flexibility Score: inf
ROOT
ATOM      1  C   UNL A   1      34.342  24.648  24.148  1.00  0.00     0.002 C 
ENDROOT
BRANCH   1   2
ATOM      2  C   UNL A   1      33.448  24.450  22.921  1.00  0.00     0.002 C 
BRANCH   2   3
ATOM      3  C   UNL A   1      33.295  25.657  21.996  1.00  0.00     0.021 C 
BRANCH   3   4
ATOM      4  C   UNL A   1      33.774  26.984  22.565  1.00  0.00     0.116 C 
BRANCH   4   5
ATOM      5  N   UNL A   1      32.885  28.099  22.274  1.00  0.00    -0.352 N 
ATOM      6  O   UNL A   1      30.949  29.273  22.326  1.00  0.00    -0.269 OA
ATOM      7  C   UNL A   1      31.618  28.339  22.760  1.00  0.00     0.251 C 
ATOM      8  H   UNL A   1      33.235  28.772  21.646  1.00  0.00     0.163 HD
BRANCH   7   9
ATOM      9  C   UNL A   1      31.047  27.448  23.797  1.00  0.00     0.039 A 
ATOM     10  C   UNL A   1      31.505  27.513  25.108  1.00  0.00     0.016 A 
ATOM     11  C   UNL A   1      30.067  26.513  23.459  1.00  0.00     0.016 A 
ATOM     12  C   UNL A   1      31.096  26.561  26.036  1.00  0.00     0.027 A 
ATOM     13  C   UNL A   1      29.589  25.620  24.431  1.00  0.00     0.027 A 
ATOM     14  C   UNL A   1      30.097  25.638  25.738  1.00  0.00     0.041 A 
BRANCH  14  15
ATOM     15  N   UNL A   1      29.567  24.711  26.659  1.00  0.00    -0.322 N 
ATOM     16  C   UNL A   1      29.958  23.446  27.054  1.00  0.00     0.255 C 
ATOM     17  H   UNL A   1      28.754  25.029  27.112  1.00  0.00     0.170 HD
ATOM     18  O   UNL A   1      29.244  22.787  27.808  1.00  0.00    -0.269 OA
BRANCH  16  19
ATOM     19  C   UNL A   1      31.228  22.854  26.606  1.00  0.00     0.044 A 
ATOM     20  C   UNL A   1      32.353  22.997  27.423  1.00  0.00     0.053 A 
ATOM     21  C   UNL A   1      31.282  22.078  25.439  1.00  0.00     0.029 A 
ATOM     22  C   UNL A   1      33.502  22.284  27.109  1.00  0.00     0.125 A 
ATOM     23  C   UNL A   1      32.442  21.353  25.162  1.00  0.00     0.021 A 
ATOM     24  F   UNL A   1      34.563  22.362  27.922  1.00  0.00    -0.207 F 
ATOM     25  C   UNL A   1      33.553  21.444  25.999  1.00  0.00     0.055 A 
ATOM     26  Br  UNL A   1      32.463  20.152  23.704  1.00  0.00    -0.051 Br
ENDBRANCH  16  19
ENDBRANCH  14  15
ENDBRANCH   7   9
ENDBRANCH   4   5
ENDBRANCH   3   4
ENDBRANCH   2   3
ENDBRANCH   1   2
BRANCH   1  27
ATOM     27  C   UNL A   1      35.572  23.740  24.250  1.00  0.00     0.021 C 
BRANCH  27  28
ATOM     28  C   UNL A   1      36.427  23.903  25.503  1.00  0.00     0.116 C 
BRANCH  28  29
ATOM     29  N   UNL A   1      37.501  22.931  25.590  1.00  0.00    -0.352 N 
ATOM     30  C   UNL A   1      38.760  23.061  26.123  1.00  0.00     0.251 C 
ATOM     31  H   UNL A   1      37.296  22.046  25.210  1.00  0.00     0.163 HD
ATOM     32  O   UNL A   1      39.568  22.145  25.996  1.00  0.00    -0.269 OA
BRANCH  30  33
ATOM     33  C   UNL A   1      39.158  24.306  26.819  1.00  0.00     0.039 A 
ATOM     34  C   UNL A   1      38.722  24.504  28.133  1.00  0.00     0.014 A 
ATOM     35  C   UNL A   1      39.935  25.282  26.188  1.00  0.00     0.014 A 
ATOM     36  C   UNL A   1      39.115  25.648  28.833  1.00  0.00     0.010 A 
ATOM     37  C   UNL A   1      40.372  26.396  26.905  1.00  0.00     0.010 A 
ATOM     38  C   UNL A   1      39.968  26.589  28.235  1.00  0.00    -0.014 A 
BRANCH  38  39
ATOM     39  C   UNL A   1      40.457  27.771  28.992  1.00  0.00     0.031 A 
ATOM     40  C   UNL A   1      41.831  27.766  29.605  1.00  0.00     0.074 A 
ATOM     41  C   UNL A   1      39.637  28.822  29.185  1.00  0.00     0.049 A 
ATOM     42  N   UNL A   1      42.400  28.671  30.359  1.00  0.00    -0.248 NA
ATOM     43  C   UNL A   1      42.665  26.580  29.357  1.00  0.00     0.031 C 
ATOM     44  C   UNL A   1      38.266  28.927  28.682  1.00  0.00     0.029 A 
ATOM     45  N   UNL A   1      39.832  29.999  29.865  1.00  0.00    -0.354 N 
ATOM     46  C   UNL A   1      43.647  28.157  30.695  1.00  0.00     0.074 A 
ATOM     47  C   UNL A   1      43.738  26.846  30.088  1.00  0.00     0.031 C 
ATOM     48  C   UNL A   1      37.750  30.109  29.056  1.00  0.00     0.029 A 
ATOM     49  C   UNL A   1      38.739  30.832  29.851  1.00  0.00     0.049 A 
ATOM     50  H   UNL A   1      40.676  30.224  30.320  1.00  0.00     0.167 HD
ATOM     51  C   UNL A   1      44.630  28.731  31.428  1.00  0.00     0.037 A 
ATOM     52  C   UNL A   1      38.550  32.039  30.418  1.00  0.00     0.037 A 
ATOM     53  C   UNL A   1      44.551  30.051  31.997  1.00  0.00     0.049 A 
ATOM     54  C   UNL A   1      39.667  32.670  31.200  1.00  0.00     0.074 A 
ATOM     55  C   UNL A   1      45.525  30.748  32.693  1.00  0.00     0.029 A 
ATOM     56  N   UNL A   1      43.440  30.879  31.933  1.00  0.00    -0.354 N 
ATOM     57  N   UNL A   1      40.860  32.191  31.462  1.00  0.00    -0.248 NA
ATOM     58  C   UNL A   1      39.418  34.005  31.761  1.00  0.00     0.031 C 
ATOM     59  C   UNL A   1      44.991  31.983  33.078  1.00  0.00     0.029 A 
ATOM     60  C   UNL A   1      43.696  32.070  32.590  1.00  0.00     0.049 A 
ATOM     61  H   UNL A   1      42.592  30.650  31.487  1.00  0.00     0.167 HD
ATOM     62  C   UNL A   1      41.511  33.174  32.199  1.00  0.00     0.074 A 
ATOM     63  C   UNL A   1      40.582  34.278  32.335  1.00  0.00     0.031 C 
ATOM     64  C   UNL A   1      42.764  33.162  32.714  1.00  0.00     0.037 A 
BRANCH  51  65
ATOM     65  C   UNL A   1      45.883  27.934  31.657  1.00  0.00     0.058 A 
ATOM     66  C   UNL A   1      46.983  28.028  30.791  1.00  0.00     0.135 A 
ATOM     67  C   UNL A   1      46.000  27.097  32.779  1.00  0.00     0.135 A 
ATOM     68  F   UNL A   1      46.918  28.801  29.696  1.00  0.00    -0.206 F 
ATOM     69  C   UNL A   1      48.147  27.300  31.014  1.00  0.00     0.059 A 
ATOM     70  C   UNL A   1      47.165  26.378  33.035  1.00  0.00     0.059 A 
ATOM     71  F   UNL A   1      44.977  26.972  33.639  1.00  0.00    -0.206 F 
ATOM     72  C   UNL A   1      48.228  26.475  32.138  1.00  0.00     0.060 A 
BRANCH  72  73
ATOM     73  S   UNL A   1      49.746  25.540  32.419  1.00  0.00     0.124 S 
ATOM     74  O   UNL A   1      50.047  25.064  31.072  1.00  0.00    -0.237 OA
ATOM     75  O   UNL A   1      50.649  26.557  32.947  1.00  0.00    -0.237 OA
ATOM     76  O   UNL A   1      49.340  24.512  33.373  1.00  0.00    -0.744 OA
ENDBRANCH  72  73
ENDBRANCH  51  65
BRANCH  52  77
ATOM     77  C   UNL A   1      37.255  32.743  30.233  1.00  0.00     0.058 A 
ATOM     78  C   UNL A   1      36.211  32.576  31.153  1.00  0.00     0.135 A 
ATOM     79  C   UNL A   1      37.051  33.623  29.160  1.00  0.00     0.135 A 
ATOM     80  F   UNL A   1      36.359  31.738  32.191  1.00  0.00    -0.206 F 
ATOM     81  C   UNL A   1      35.005  33.255  31.017  1.00  0.00     0.059 A 
ATOM     82  C   UNL A   1      35.861  34.330  29.013  1.00  0.00     0.059 A 
ATOM     83  F   UNL A   1      38.028  33.829  28.263  1.00  0.00    -0.206 F 
ATOM     84  C   UNL A   1      34.841  34.135  29.945  1.00  0.00     0.060 A 
BRANCH  84  85
ATOM     85  S   UNL A   1      33.303  35.073  29.818  1.00  0.00     0.124 S 
ATOM     86  O   UNL A   1      32.810  35.016  31.189  1.00  0.00    -0.237 OA
ATOM     87  O   UNL A   1      33.774  36.377  29.361  1.00  0.00    -0.237 OA
ATOM     88  O   UNL A   1      32.532  34.317  28.835  1.00  0.00    -0.744 OA
ENDBRANCH  84  85
ENDBRANCH  52  77
BRANCH  64  89
ATOM     89  C   UNL A   1      43.219  34.388  33.454  1.00  0.00     0.058 A 
ATOM     90  C   UNL A   1      43.829  35.462  32.790  1.00  0.00     0.135 A 
ATOM     91  C   UNL A   1      42.993  34.510  34.835  1.00  0.00     0.135 A 
ATOM     92  F   UNL A   1      44.072  35.391  31.471  1.00  0.00    -0.206 F 
ATOM     93  C   UNL A   1      44.215  36.612  33.472  1.00  0.00     0.059 A 
ATOM     94  C   UNL A   1      43.352  35.659  35.533  1.00  0.00     0.059 A 
ATOM     95  F   UNL A   1      42.404  33.513  35.513  1.00  0.00    -0.206 F 
ATOM     96  C   UNL A   1      43.973  36.701  34.844  1.00  0.00     0.060 A 
BRANCH  96  97
ATOM     97  S   UNL A   1      44.443  38.210  35.714  1.00  0.00     0.124 S 
ATOM     98  O   UNL A   1      45.900  38.125  35.684  1.00  0.00    -0.237 OA
ATOM     99  O   UNL A   1      43.853  39.253  34.879  1.00  0.00    -0.237 OA
ATOM    100  O   UNL A   1      43.830  38.048  37.029  1.00  0.00    -0.744 OA
ENDBRANCH  96  97
ENDBRANCH  64  89
ENDBRANCH  38  39
ENDBRANCH  30  33
ENDBRANCH  28  29
ENDBRANCH  27  28
ENDBRANCH   1  27
TORSDOF 18
ENDMDL
MODEL 2
REMARK VINA RESULT:     -11.5      2.110      2.716
REMARK SMILES O=C(NCCCCCCNC(=O)c1ccc(-c2c3nc(c(-c4c(F)cc(S(=O)(=O)[O-])cc4F)c4ccc([nH]4)c(-c4c(F)cc(S(=O)(=O)[O-])cc4F)c4nc(c(-c5c(F)cc(S(=O)(=O)[O-])cc5F)c5ccc2[nH]5)C=C4)C=C3)cc1)c1ccc(NC(=O)c2cc(F)cc(Br)c2)cc1
REMARK SMILES IDX 7 1 6 2 5 3 4 4 3 5 1 6 2 7 79 9 80 10 95 11 81 12 94 13
REMARK SMILES IDX 82 14 83 15 84 16 85 18 86 19 87 20 93 21 88 22 91 23 89 24
REMARK SMILES IDX 90 25 92 26 8 27 9 28 10 29 11 30 12 32 13 33 14 34 78 35
REMARK SMILES IDX 15 36 77 37 16 38 17 39 18 40 71 41 19 42 76 43 70 44 72 45
REMARK SMILES IDX 20 46 75 47 69 48 68 49 21 51 55 52 34 53 54 54 35 55 38 56
REMARK SMILES IDX 53 57 73 58 36 59 37 60 52 62 74 63 39 64 22 65 23 66 32 67
REMARK SMILES IDX 24 68 25 69 31 70 33 71 26 72 27 73 28 74 29 75 30 76 56 77
REMARK SMILES IDX 57 78 66 79 58 80 59 81 65 82 67 83 60 84 61 85 62 86 63 87
REMARK SMILES IDX 64 88 40 89 41 90 50 91 42 92 43 93 49 94 51 95 44 96 45 97
REMARK SMILES IDX 46 98 47 99 48 100
REMARK H PARENT 3 8 83 17 10 31 72 50 38 61
REMARK Flexibility Score: inf
ROOT
ATOM      1  C   UNL A   1      34.128  25.218  24.355  1.00  0.00     0.002 C 
ENDROOT
BRANCH   1   2
ATOM      2  C   UNL A   1      33.228  25.172  23.117  1.00  0.00     0.002 C 
BRANCH   2   3
ATOM      3  C   UNL A   1      33.400  26.312  22.115  1.00  0.00     0.021 C 
BRANCH   3   4
ATOM      4  C   UNL A   1      33.628  27.689  22.722  1.00  0.00     0.116 C 
BRANCH   4   5
ATOM      5  N   UNL A   1      32.602  28.660  22.371  1.00  0.00    -0.352 N 
ATOM      6  O   UNL A   1      30.517  29.543  22.320  1.00  0.00    -0.269 OA
ATOM      7  C   UNL A   1      31.294  28.722  22.801  1.00  0.00     0.251 C 
ATOM      8  H   UNL A   1      32.878  29.365  21.742  1.00  0.00     0.163 HD
BRANCH   7   9
ATOM      9  C   UNL A   1      30.814  27.777  23.836  1.00  0.00     0.039 A 
ATOM     10  C   UNL A   1      31.355  27.803  25.116  1.00  0.00     0.016 A 
ATOM     11  C   UNL A   1      29.837  26.830  23.524  1.00  0.00     0.016 A 
ATOM     12  C   UNL A   1      31.030  26.805  26.029  1.00  0.00     0.027 A 
ATOM     13  C   UNL A   1      29.445  25.887  24.487  1.00  0.00     0.027 A 
ATOM     14  C   UNL A   1      30.037  25.867  25.758  1.00  0.00     0.041 A 
BRANCH  14  15
ATOM     15  N   UNL A   1      29.590  24.891  26.673  1.00  0.00    -0.322 N 
ATOM     16  C   UNL A   1      30.000  23.601  26.949  1.00  0.00     0.255 C 
ATOM     17  H   UNL A   1      28.832  25.189  27.226  1.00  0.00     0.170 HD
ATOM     18  O   UNL A   1      29.358  22.905  27.733  1.00  0.00    -0.269 OA
BRANCH  16  19
ATOM     19  C   UNL A   1      31.208  23.026  26.337  1.00  0.00     0.044 A 
ATOM     20  C   UNL A   1      32.309  22.767  27.158  1.00  0.00     0.053 A 
ATOM     21  C   UNL A   1      31.215  22.652  24.986  1.00  0.00     0.029 A 
ATOM     22  C   UNL A   1      33.378  22.051  26.635  1.00  0.00     0.125 A 
ATOM     23  C   UNL A   1      32.292  21.912  24.496  1.00  0.00     0.021 A 
ATOM     24  F   UNL A   1      34.408  21.739  27.431  1.00  0.00    -0.207 F 
ATOM     25  C   UNL A   1      33.372  21.599  25.318  1.00  0.00     0.055 A 
ATOM     26  Br  UNL A   1      32.227  21.232  22.734  1.00  0.00    -0.051 Br
ENDBRANCH  16  19
ENDBRANCH  14  15
ENDBRANCH   7   9
ENDBRANCH   4   5
ENDBRANCH   3   4
ENDBRANCH   2   3
ENDBRANCH   1   2
BRANCH   1  27
ATOM     27  C   UNL A   1      35.356  24.303  24.341  1.00  0.00     0.021 C 
BRANCH  27  28
ATOM     28  C   UNL A   1      36.144  24.213  25.645  1.00  0.00     0.116 C 
BRANCH  28  29
ATOM     29  N   UNL A   1      36.970  23.023  25.730  1.00  0.00    -0.352 N 
ATOM     30  C   UNL A   1      38.275  22.890  26.136  1.00  0.00     0.251 C 
ATOM     31  H   UNL A   1      36.529  22.186  25.456  1.00  0.00     0.163 HD
ATOM     32  O   UNL A   1      38.834  21.801  26.028  1.00  0.00    -0.269 OA
BRANCH  30  33
ATOM     33  C   UNL A   1      39.020  24.052  26.673  1.00  0.00     0.039 A 
ATOM     34  C   UNL A   1      39.805  24.804  25.794  1.00  0.00     0.014 A 
ATOM     35  C   UNL A   1      38.969  24.393  28.027  1.00  0.00     0.014 A 
ATOM     36  C   UNL A   1      40.488  25.932  26.259  1.00  0.00     0.010 A 
ATOM     37  C   UNL A   1      39.604  25.550  28.479  1.00  0.00     0.010 A 
ATOM     38  C   UNL A   1      40.368  26.332  27.599  1.00  0.00    -0.014 A 
BRANCH  38  39
ATOM     39  C   UNL A   1      41.025  27.571  28.091  1.00  0.00     0.031 A 
ATOM     40  C   UNL A   1      42.524  27.694  28.077  1.00  0.00     0.074 A 
ATOM     41  C   UNL A   1      40.272  28.559  28.612  1.00  0.00     0.049 A 
ATOM     42  N   UNL A   1      43.275  28.664  28.531  1.00  0.00    -0.248 NA
ATOM     43  C   UNL A   1      43.277  26.571  27.498  1.00  0.00     0.031 C 
ATOM     44  C   UNL A   1      38.812  28.540  28.725  1.00  0.00     0.029 A 
ATOM     45  N   UNL A   1      40.631  29.768  29.156  1.00  0.00    -0.354 N 
ATOM     46  C   UNL A   1      44.588  28.261  28.316  1.00  0.00     0.074 A 
ATOM     47  C   UNL A   1      44.530  26.943  27.719  1.00  0.00     0.031 C 
ATOM     48  C   UNL A   1      38.400  29.688  29.286  1.00  0.00     0.029 A 
ATOM     49  C   UNL A   1      39.564  30.511  29.601  1.00  0.00     0.049 A 
ATOM     50  H   UNL A   1      41.565  30.073  29.221  1.00  0.00     0.167 HD
ATOM     51  C   UNL A   1      45.734  28.933  28.577  1.00  0.00     0.037 A 
ATOM     52  C   UNL A   1      39.525  31.717  30.202  1.00  0.00     0.037 A 
ATOM     53  C   UNL A   1      45.786  30.260  29.134  1.00  0.00     0.049 A 
ATOM     54  C   UNL A   1      40.808  32.458  30.453  1.00  0.00     0.074 A 
ATOM     55  C   UNL A   1      46.898  31.053  29.366  1.00  0.00     0.029 A 
ATOM     56  N   UNL A   1      44.682  30.994  29.542  1.00  0.00    -0.354 N 
ATOM     57  N   UNL A   1      42.039  32.083  30.192  1.00  0.00    -0.248 NA
ATOM     58  C   UNL A   1      40.702  33.785  31.074  1.00  0.00     0.031 C 
ATOM     59  C   UNL A   1      46.468  32.252  29.945  1.00  0.00     0.029 A 
ATOM     60  C   UNL A   1      45.086  32.222  30.039  1.00  0.00     0.049 A 
ATOM     61  H   UNL A   1      43.749  30.686  29.488  1.00  0.00     0.167 HD
ATOM     62  C   UNL A   1      42.850  33.136  30.597  1.00  0.00     0.074 A 
ATOM     63  C   UNL A   1      41.971  34.167  31.113  1.00  0.00     0.031 C 
ATOM     64  C   UNL A   1      44.200  33.240  30.545  1.00  0.00     0.037 A 
BRANCH  51  65
ATOM     65  C   UNL A   1      47.032  28.245  28.261  1.00  0.00     0.058 A 
ATOM     66  C   UNL A   1      47.637  28.361  27.000  1.00  0.00     0.135 A 
ATOM     67  C   UNL A   1      47.699  27.496  29.243  1.00  0.00     0.135 A 
ATOM     68  F   UNL A   1      47.034  29.053  26.021  1.00  0.00    -0.206 F 
ATOM     69  C   UNL A   1      48.846  27.735  26.714  1.00  0.00     0.059 A 
ATOM     70  C   UNL A   1      48.921  26.880  28.986  1.00  0.00     0.059 A 
ATOM     71  F   UNL A   1      47.163  27.354  30.466  1.00  0.00    -0.206 F 
ATOM     72  C   UNL A   1      49.480  26.994  27.714  1.00  0.00     0.060 A 
BRANCH  72  73
ATOM     73  S   UNL A   1      51.051  26.192  27.333  1.00  0.00     0.124 S 
ATOM     74  O   UNL A   1      51.361  26.766  26.027  1.00  0.00    -0.237 OA
ATOM     75  O   UNL A   1      51.903  26.629  28.434  1.00  0.00    -0.237 OA
ATOM     76  O   UNL A   1      50.715  24.771  27.331  1.00  0.00    -0.744 OA
ENDBRANCH  72  73
ENDBRANCH  51  65
BRANCH  52  77
ATOM     77  C   UNL A   1      38.216  32.309  30.576  1.00  0.00     0.058 A 
ATOM     78  C   UNL A   1      37.650  32.063  31.835  1.00  0.00     0.135 A 
ATOM     79  C   UNL A   1      37.526  33.162  29.701  1.00  0.00     0.135 A 
ATOM     80  F   UNL A   1      38.272  31.248  32.701  1.00  0.00    -0.206 F 
ATOM     81  C   UNL A   1      36.443  32.640  32.217  1.00  0.00     0.059 A 
ATOM     82  C   UNL A   1      36.327  33.767  30.067  1.00  0.00     0.059 A 
ATOM     83  F   UNL A   1      38.036  33.441  28.492  1.00  0.00    -0.206 F 
ATOM     84  C   UNL A   1      35.791  33.495  31.326  1.00  0.00     0.060 A 
BRANCH  84  85
ATOM     85  S   UNL A   1      34.265  34.301  31.858  1.00  0.00     0.124 S 
ATOM     86  O   UNL A   1      33.579  34.498  30.587  1.00  0.00    -0.237 OA
ATOM     87  O   UNL A   1      33.684  33.302  32.750  1.00  0.00    -0.237 OA
ATOM     88  O   UNL A   1      34.740  35.515  32.516  1.00  0.00    -0.744 OA
ENDBRANCH  84  85
ENDBRANCH  52  77
BRANCH  64  89
ATOM     89  C   UNL A   1      44.815  34.519  31.036  1.00  0.00     0.058 A 
ATOM     90  C   UNL A   1      45.256  34.661  32.360  1.00  0.00     0.135 A 
ATOM     91  C   UNL A   1      45.013  35.597  30.157  1.00  0.00     0.135 A 
ATOM     92  F   UNL A   1      45.083  33.662  33.240  1.00  0.00    -0.206 F 
ATOM     93  C   UNL A   1      45.859  35.835  32.801  1.00  0.00     0.059 A 
ATOM     94  C   UNL A   1      45.633  36.771  30.571  1.00  0.00     0.059 A 
ATOM     95  F   UNL A   1      44.616  35.506  28.878  1.00  0.00    -0.206 F 
ATOM     96  C   UNL A   1      46.044  36.884  31.900  1.00  0.00     0.060 A 
BRANCH  96  97
ATOM     97  S   UNL A   1      46.861  38.389  32.471  1.00  0.00     0.124 S 
ATOM     98  O   UNL A   1      45.749  39.334  32.500  1.00  0.00    -0.237 OA
ATOM     99  O   UNL A   1      47.385  37.988  33.774  1.00  0.00    -0.237 OA
ATOM    100  O   UNL A   1      47.871  38.636  31.447  1.00  0.00    -0.744 OA
ENDBRANCH  96  97
ENDBRANCH  64  89
ENDBRANCH  38  39
ENDBRANCH  30  33
ENDBRANCH  28  29
ENDBRANCH  27  28
ENDBRANCH   1  27
TORSDOF 18
ENDMDL
MODEL 3
REMARK VINA RESULT:     -11.3      4.485      9.911
REMARK SMILES O=C(NCCCCCCNC(=O)c1ccc(-c2c3nc(c(-c4c(F)cc(S(=O)(=O)[O-])cc4F)c4ccc([nH]4)c(-c4c(F)cc(S(=O)(=O)[O-])cc4F)c4nc(c(-c5c(F)cc(S(=O)(=O)[O-])cc5F)c5ccc2[nH]5)C=C4)C=C3)cc1)c1ccc(NC(=O)c2cc(F)cc(Br)c2)cc1
REMARK SMILES IDX 7 1 6 2 5 3 4 4 3 5 1 6 2 7 79 9 80 10 95 11 81 12 94 13
REMARK SMILES IDX 82 14 83 15 84 16 85 18 86 19 87 20 93 21 88 22 91 23 89 24
REMARK SMILES IDX 90 25 92 26 8 27 9 28 10 29 11 30 12 32 13 33 14 34 78 35
REMARK SMILES IDX 15 36 77 37 16 38 17 39 18 40 71 41 19 42 76 43 70 44 72 45
REMARK SMILES IDX 20 46 75 47 69 48 68 49 21 51 55 52 34 53 54 54 35 55 38 56
REMARK SMILES IDX 53 57 73 58 36 59 37 60 52 62 74 63 39 64 22 65 23 66 32 67
REMARK SMILES IDX 24 68 25 69 31 70 33 71 26 72 27 73 28 74 29 75 30 76 56 77
REMARK SMILES IDX 57 78 66 79 58 80 59 81 65 82 67 83 60 84 61 85 62 86 63 87
REMARK SMILES IDX 64 88 40 89 41 90 50 91 42 92 43 93 49 94 51 95 44 96 45 97
REMARK SMILES IDX 46 98 47 99 48 100
REMARK H PARENT 3 8 83 17 10 31 72 50 38 61
REMARK Flexibility Score: inf
ROOT
ATOM      1  C   UNL A   1      34.026  31.318  27.833  1.00  0.00     0.002 C 
ENDROOT
BRANCH   1   2
ATOM      2  C   UNL A   1      34.035  29.874  27.323  1.00  0.00     0.002 C 
BRANCH   2   3
ATOM      3  C   UNL A   1      32.755  29.390  26.645  1.00  0.00     0.021 C 
BRANCH   3   4
ATOM      4  C   UNL A   1      32.716  29.544  25.132  1.00  0.00     0.116 C 
BRANCH   4   5
ATOM      5  N   UNL A   1      31.418  29.960  24.619  1.00  0.00    -0.352 N 
ATOM      6  O   UNL A   1      29.501  29.762  23.431  1.00  0.00    -0.269 OA
ATOM      7  C   UNL A   1      30.508  29.228  23.888  1.00  0.00     0.251 C 
ATOM      8  H   UNL A   1      31.156  30.887  24.822  1.00  0.00     0.163 HD
BRANCH   7   9
ATOM      9  C   UNL A   1      30.756  27.791  23.631  1.00  0.00     0.039 A 
ATOM     10  C   UNL A   1      31.580  27.396  22.584  1.00  0.00     0.016 A 
ATOM     11  C   UNL A   1      30.137  26.818  24.419  1.00  0.00     0.016 A 
ATOM     12  C   UNL A   1      31.671  26.052  22.237  1.00  0.00     0.027 A 
ATOM     13  C   UNL A   1      30.314  25.459  24.118  1.00  0.00     0.027 A 
ATOM     14  C   UNL A   1      31.091  25.059  23.022  1.00  0.00     0.041 A 
BRANCH  14  15
ATOM     15  N   UNL A   1      31.224  23.675  22.784  1.00  0.00    -0.322 N 
ATOM     16  C   UNL A   1      32.017  22.694  23.348  1.00  0.00     0.255 C 
ATOM     17  H   UNL A   1      30.633  23.341  22.072  1.00  0.00     0.170 HD
ATOM     18  O   UNL A   1      32.025  21.560  22.875  1.00  0.00    -0.269 OA
BRANCH  16  19
ATOM     19  C   UNL A   1      32.857  22.962  24.526  1.00  0.00     0.044 A 
ATOM     20  C   UNL A   1      32.305  22.765  25.794  1.00  0.00     0.053 A 
ATOM     21  C   UNL A   1      34.208  23.305  24.376  1.00  0.00     0.029 A 
ATOM     22  C   UNL A   1      33.140  22.826  26.903  1.00  0.00     0.125 A 
ATOM     23  C   UNL A   1      35.028  23.335  25.505  1.00  0.00     0.021 A 
ATOM     24  F   UNL A   1      32.635  22.574  28.116  1.00  0.00    -0.207 F 
ATOM     25  C   UNL A   1      34.501  23.087  26.771  1.00  0.00     0.055 A 
ATOM     26  Br  UNL A   1      36.887  23.601  25.298  1.00  0.00    -0.051 Br
ENDBRANCH  16  19
ENDBRANCH  14  15
ENDBRANCH   7   9
ENDBRANCH   4   5
ENDBRANCH   3   4
ENDBRANCH   2   3
ENDBRANCH   1   2
BRANCH   1  27
ATOM     27  C   UNL A   1      35.340  32.095  27.709  1.00  0.00     0.021 C 
BRANCH  27  28
ATOM     28  C   UNL A   1      36.066  32.403  29.016  1.00  0.00     0.116 C 
BRANCH  28  29
ATOM     29  N   UNL A   1      35.700  31.504  30.095  1.00  0.00    -0.352 N 
ATOM     30  C   UNL A   1      36.399  30.451  30.632  1.00  0.00     0.251 C 
ATOM     31  H   UNL A   1      34.820  31.675  30.503  1.00  0.00     0.163 HD
ATOM     32  O   UNL A   1      35.863  29.737  31.475  1.00  0.00    -0.269 OA
BRANCH  30  33
ATOM     33  C   UNL A   1      37.778  30.153  30.181  1.00  0.00     0.039 A 
ATOM     34  C   UNL A   1      38.779  30.012  31.147  1.00  0.00     0.014 A 
ATOM     35  C   UNL A   1      38.096  30.033  28.826  1.00  0.00     0.014 A 
ATOM     36  C   UNL A   1      40.083  29.689  30.759  1.00  0.00     0.010 A 
ATOM     37  C   UNL A   1      39.384  29.656  28.442  1.00  0.00     0.010 A 
ATOM     38  C   UNL A   1      40.389  29.479  29.405  1.00  0.00    -0.014 A 
BRANCH  38  39
ATOM     39  C   UNL A   1      41.751  29.060  28.983  1.00  0.00     0.031 A 
ATOM     40  C   UNL A   1      42.873  30.060  28.936  1.00  0.00     0.074 A 
ATOM     41  C   UNL A   1      41.960  27.792  28.578  1.00  0.00     0.049 A 
ATOM     42  N   UNL A   1      44.105  29.897  28.526  1.00  0.00    -0.248 NA
ATOM     43  C   UNL A   1      42.566  31.426  29.387  1.00  0.00     0.031 C 
ATOM     44  C   UNL A   1      40.942  26.740  28.533  1.00  0.00     0.029 A 
ATOM     45  N   UNL A   1      43.096  27.174  28.116  1.00  0.00    -0.354 N 
ATOM     46  C   UNL A   1      44.713  31.141  28.646  1.00  0.00     0.074 A 
ATOM     47  C   UNL A   1      43.705  32.057  29.138  1.00  0.00     0.031 C 
ATOM     48  C   UNL A   1      41.503  25.605  28.085  1.00  0.00     0.029 A 
ATOM     49  C   UNL A   1      42.909  25.854  27.782  1.00  0.00     0.049 A 
ATOM     50  H   UNL A   1      43.963  27.635  28.032  1.00  0.00     0.167 HD
ATOM     51  C   UNL A   1      45.996  31.486  28.385  1.00  0.00     0.037 A 
ATOM     52  C   UNL A   1      43.770  24.947  27.282  1.00  0.00     0.037 A 
ATOM     53  C   UNL A   1      47.007  30.565  27.934  1.00  0.00     0.049 A 
ATOM     54  C   UNL A   1      45.198  25.344  27.031  1.00  0.00     0.074 A 
ATOM     55  C   UNL A   1      48.353  30.804  27.714  1.00  0.00     0.029 A 
ATOM     56  N   UNL A   1      46.787  29.227  27.638  1.00  0.00    -0.354 N 
ATOM     57  N   UNL A   1      45.769  26.513  27.202  1.00  0.00    -0.248 NA
ATOM     58  C   UNL A   1      46.100  24.302  26.523  1.00  0.00     0.031 C 
ATOM     59  C   UNL A   1      48.940  29.620  27.253  1.00  0.00     0.029 A 
ATOM     60  C   UNL A   1      47.966  28.634  27.222  1.00  0.00     0.049 A 
ATOM     61  H   UNL A   1      45.918  28.769  27.712  1.00  0.00     0.167 HD
ATOM     62  C   UNL A   1      47.100  26.341  26.844  1.00  0.00     0.074 A 
ATOM     63  C   UNL A   1      47.254  24.953  26.454  1.00  0.00     0.031 C 
ATOM     64  C   UNL A   1      48.105  27.250  26.841  1.00  0.00     0.037 A 
BRANCH  51  65
ATOM     65  C   UNL A   1      46.386  32.924  28.584  1.00  0.00     0.058 A 
ATOM     66  C   UNL A   1      46.298  33.860  27.543  1.00  0.00     0.135 A 
ATOM     67  C   UNL A   1      46.813  33.378  29.843  1.00  0.00     0.135 A 
ATOM     68  F   UNL A   1      45.910  33.475  26.318  1.00  0.00    -0.206 F 
ATOM     69  C   UNL A   1      46.646  35.194  27.735  1.00  0.00     0.059 A 
ATOM     70  C   UNL A   1      47.143  34.713  30.063  1.00  0.00     0.059 A 
ATOM     71  F   UNL A   1      46.915  32.523  30.872  1.00  0.00    -0.206 F 
ATOM     72  C   UNL A   1      47.069  35.610  28.998  1.00  0.00     0.060 A 
BRANCH  72  73
ATOM     73  S   UNL A   1      47.512  37.344  29.235  1.00  0.00     0.124 S 
ATOM     74  O   UNL A   1      47.702  37.400  30.682  1.00  0.00    -0.237 OA
ATOM     75  O   UNL A   1      48.724  37.472  28.433  1.00  0.00    -0.237 OA
ATOM     76  O   UNL A   1      46.349  38.064  28.726  1.00  0.00    -0.744 OA
ENDBRANCH  72  73
ENDBRANCH  51  65
BRANCH  52  77
ATOM     77  C   UNL A   1      43.306  23.561  27.018  1.00  0.00     0.058 A 
ATOM     78  C   UNL A   1      43.069  23.121  25.709  1.00  0.00     0.135 A 
ATOM     79  C   UNL A   1      43.129  22.641  28.063  1.00  0.00     0.135 A 
ATOM     80  F   UNL A   1      43.218  23.968  24.679  1.00  0.00    -0.206 F 
ATOM     81  C   UNL A   1      42.669  21.816  25.440  1.00  0.00     0.059 A 
ATOM     82  C   UNL A   1      42.749  21.324  27.819  1.00  0.00     0.059 A 
ATOM     83  F   UNL A   1      43.360  23.011  29.331  1.00  0.00    -0.206 F 
ATOM     84  C   UNL A   1      42.517  20.923  26.503  1.00  0.00     0.060 A 
BRANCH  84  85
ATOM     85  S   UNL A   1      42.074  19.210  26.140  1.00  0.00     0.124 S 
ATOM     86  O   UNL A   1      42.875  18.944  24.951  1.00  0.00    -0.237 OA
ATOM     87  O   UNL A   1      42.490  18.520  27.359  1.00  0.00    -0.237 OA
ATOM     88  O   UNL A   1      40.631  19.275  25.931  1.00  0.00    -0.744 OA
ENDBRANCH  84  85
ENDBRANCH  52  77
BRANCH  64  89
ATOM     89  C   UNL A   1      49.468  26.774  26.425  1.00  0.00     0.058 A 
ATOM     90  C   UNL A   1      50.324  26.124  27.327  1.00  0.00     0.135 A 
ATOM     91  C   UNL A   1      49.899  26.921  25.097  1.00  0.00     0.135 A 
ATOM     92  F   UNL A   1      49.960  25.965  28.609  1.00  0.00    -0.206 F 
ATOM     93  C   UNL A   1      51.571  25.651  26.929  1.00  0.00     0.059 A 
ATOM     94  C   UNL A   1      51.132  26.436  24.673  1.00  0.00     0.059 A 
ATOM     95  F   UNL A   1      49.111  27.528  24.195  1.00  0.00    -0.206 F 
ATOM     96  C   UNL A   1      51.966  25.812  25.600  1.00  0.00     0.060 A 
BRANCH  96  97
ATOM     97  S   UNL A   1      53.569  25.161  25.084  1.00  0.00     0.124 S 
ATOM     98  O   UNL A   1      53.648  25.634  23.706  1.00  0.00    -0.237 OA
ATOM     99  O   UNL A   1      54.486  25.797  26.026  1.00  0.00    -0.237 OA
ATOM    100  O   UNL A   1      53.416  23.718  25.246  1.00  0.00    -0.744 OA
ENDBRANCH  96  97
ENDBRANCH  64  89
ENDBRANCH  38  39
ENDBRANCH  30  33
ENDBRANCH  28  29
ENDBRANCH  27  28
ENDBRANCH   1  27
TORSDOF 18
ENDMDL
