MODEL 1
REMARK VINA RESULT:     -11.6      0.000      0.000
REMARK SMILES COc1cccc(/C=C(/CC(=O)NCCCCCCNC(=O)c2ccc(-c3c4nc(c(-c5c(F)cc(S(=O)(=O)[O-])cc5F)c5ccc([nH]5)c(-c5c(F)cc(S(=O)(=O)[O-])cc5F)c5nc(c(-c6c(F)cc(S(=O)(=O)[O-])cc6F)c6ccc3[nH]6)C=C5)C=C4)cc2)c2nc3ccccc3o2)c1
REMARK SMILES IDX 16 1 15 2 14 3 13 4 11 5 12 6 10 8 9 9 8 10 7 11 3 12 4 13
REMARK SMILES IDX 98 14 5 15 6 16 2 17 1 18 89 19 90 20 97 21 91 22 96 23
REMARK SMILES IDX 92 24 95 25 93 26 94 27 17 28 18 29 19 30 20 31 21 32 22 34
REMARK SMILES IDX 23 35 24 36 88 37 25 38 87 39 26 40 27 41 28 42 81 43 29 44
REMARK SMILES IDX 86 45 80 46 82 47 30 48 85 49 79 50 78 51 31 53 65 54 44 55
REMARK SMILES IDX 64 56 45 57 48 58 63 59 83 60 46 61 47 62 62 64 84 65 49 66
REMARK SMILES IDX 32 67 33 68 42 69 34 70 35 71 41 72 43 73 36 74 37 75 38 76
REMARK SMILES IDX 39 77 40 78 66 79 67 80 76 81 68 82 69 83 75 84 77 85 70 86
REMARK SMILES IDX 71 87 72 88 73 89 74 90 50 91 51 92 60 93 52 94 53 95 59 96
REMARK SMILES IDX 61 97 54 98 55 99 56 100 57 101 58 102
REMARK H PARENT 13 7 20 33 82 52 48 63
REMARK Flexibility Score: inf
ROOT
ATOM      1  C   UNL A   1      34.637  20.763  24.970  1.00  0.00     0.002 C 
ENDROOT
BRANCH   1   2
ATOM      2  C   UNL A   1      33.192  20.407  25.343  1.00  0.00     0.021 C 
BRANCH   2   3
ATOM      3  C   UNL A   1      32.149  21.419  24.870  1.00  0.00     0.116 C 
BRANCH   3   4
ATOM      4  N   UNL A   1      31.651  22.242  25.953  1.00  0.00    -0.356 N 
ATOM      5  C   UNL A   1      31.603  23.603  26.060  1.00  0.00     0.224 C 
ATOM      6  O   UNL A   1      31.061  24.096  27.052  1.00  0.00    -0.275 OA
ATOM      7  H   UNL A   1      31.295  21.749  26.726  1.00  0.00     0.163 HD
BRANCH   5   8
ATOM      8  C   UNL A   1      32.134  24.484  24.927  1.00  0.00     0.141 C 
BRANCH   8   9
ATOM      9  C   UNL A   1      31.433  25.839  24.826  1.00  0.00     0.025 C 
ATOM     10  C   UNL A   1      30.261  25.887  24.141  1.00  0.00     0.018 C 
BRANCH  10  11
ATOM     11  C   UNL A   1      29.335  26.937  23.641  1.00  0.00    -0.021 A 
ATOM     12  C   UNL A   1      29.119  29.024  22.359  1.00  0.00     0.119 A 
ATOM     13  C   UNL A   1      27.770  29.087  22.686  1.00  0.00     0.046 A 
ATOM     14  C   UNL A   1      29.892  27.955  22.828  1.00  0.00     0.054 A 
ATOM     15  C   UNL A   1      27.196  28.091  23.466  1.00  0.00     0.004 A 
ATOM     16  C   UNL A   1      27.977  27.035  23.946  1.00  0.00     0.008 A 
BRANCH  12  17
ATOM     17  O   UNL A   1      29.579  30.090  21.638  1.00  0.00    -0.497 OA
ATOM     18  C   UNL A   1      28.645  31.125  21.358  1.00  0.00     0.278 C 
ENDBRANCH  12  17
ENDBRANCH  10  11
BRANCH   9  19
ATOM     19  C   UNL A   1      32.061  26.989  25.410  1.00  0.00     0.223 A 
ATOM     20  N   UNL A   1      33.330  27.022  25.801  1.00  0.00    -0.210 NA
ATOM     21  O   UNL A   1      31.386  28.151  25.759  1.00  0.00    -0.436 OA
ATOM     22  C   UNL A   1      33.506  28.240  26.392  1.00  0.00     0.110 A 
ATOM     23  C   UNL A   1      32.326  28.951  26.339  1.00  0.00     0.155 A 
ATOM     24  C   UNL A   1      34.628  28.817  26.996  1.00  0.00     0.032 A 
ATOM     25  C   UNL A   1      32.165  30.250  26.805  1.00  0.00     0.049 A 
ATOM     26  C   UNL A   1      34.509  30.124  27.491  1.00  0.00     0.003 A 
ATOM     27  C   UNL A   1      33.303  30.830  27.384  1.00  0.00     0.004 A 
ENDBRANCH   9  19
ENDBRANCH   8   9
ENDBRANCH   5   8
ENDBRANCH   3   4
ENDBRANCH   2   3
ENDBRANCH   1   2
BRANCH   1  28
ATOM     28  C   UNL A   1      34.851  22.186  24.442  1.00  0.00     0.002 C 
BRANCH  28  29
ATOM     29  C   UNL A   1      35.527  23.153  25.418  1.00  0.00     0.021 C 
BRANCH  29  30
ATOM     30  C   UNL A   1      36.918  23.621  24.997  1.00  0.00     0.116 C 
BRANCH  30  31
ATOM     31  N   UNL A   1      37.953  22.660  25.352  1.00  0.00    -0.352 N 
ATOM     32  C   UNL A   1      39.128  22.857  26.036  1.00  0.00     0.251 C 
ATOM     33  H   UNL A   1      37.786  21.735  25.060  1.00  0.00     0.163 HD
ATOM     34  O   UNL A   1      39.972  21.964  26.082  1.00  0.00    -0.269 OA
BRANCH  32  35
ATOM     35  C   UNL A   1      39.387  24.155  26.695  1.00  0.00     0.039 A 
ATOM     36  C   UNL A   1      38.901  24.369  27.988  1.00  0.00     0.014 A 
ATOM     37  C   UNL A   1      40.124  25.150  26.048  1.00  0.00     0.014 A 
ATOM     38  C   UNL A   1      39.232  25.546  28.665  1.00  0.00     0.010 A 
ATOM     39  C   UNL A   1      40.508  26.291  26.747  1.00  0.00     0.010 A 
ATOM     40  C   UNL A   1      40.080  26.493  28.068  1.00  0.00    -0.014 A 
BRANCH  40  41
ATOM     41  C   UNL A   1      40.575  27.676  28.819  1.00  0.00     0.031 A 
ATOM     42  C   UNL A   1      41.920  27.643  29.489  1.00  0.00     0.074 A 
ATOM     43  C   UNL A   1      39.770  28.748  28.971  1.00  0.00     0.049 A 
ATOM     44  N   UNL A   1      42.471  28.529  30.278  1.00  0.00    -0.248 NA
ATOM     45  C   UNL A   1      42.744  26.445  29.262  1.00  0.00     0.031 C 
ATOM     46  C   UNL A   1      38.428  28.884  28.398  1.00  0.00     0.029 A 
ATOM     47  N   UNL A   1      39.951  29.916  29.669  1.00  0.00    -0.354 N 
ATOM     48  C   UNL A   1      43.699  27.995  30.650  1.00  0.00     0.074 A 
ATOM     49  C   UNL A   1      43.792  26.687  30.037  1.00  0.00     0.031 C 
ATOM     50  C   UNL A   1      37.915  30.072  28.756  1.00  0.00     0.029 A 
ATOM     51  C   UNL A   1      38.866  30.761  29.623  1.00  0.00     0.049 A 
ATOM     52  H   UNL A   1      40.780  30.130  30.155  1.00  0.00     0.167 HD
ATOM     53  C   UNL A   1      44.666  28.553  31.418  1.00  0.00     0.037 A 
ATOM     54  C   UNL A   1      38.650  31.945  30.228  1.00  0.00     0.037 A 
ATOM     55  C   UNL A   1      44.568  29.860  32.016  1.00  0.00     0.049 A 
ATOM     56  C   UNL A   1      39.723  32.526  31.108  1.00  0.00     0.074 A 
ATOM     57  C   UNL A   1      45.516  30.535  32.764  1.00  0.00     0.029 A 
ATOM     58  N   UNL A   1      43.454  30.685  31.945  1.00  0.00    -0.354 N 
ATOM     59  N   UNL A   1      40.904  32.037  31.397  1.00  0.00    -0.248 NA
ATOM     60  C   UNL A   1      39.434  33.818  31.747  1.00  0.00     0.031 C 
ATOM     61  C   UNL A   1      44.956  31.744  33.192  1.00  0.00     0.029 A 
ATOM     62  C   UNL A   1      43.679  31.847  32.663  1.00  0.00     0.049 A 
ATOM     63  H   UNL A   1      42.626  30.474  31.456  1.00  0.00     0.167 HD
ATOM     64  C   UNL A   1      41.509  32.970  32.232  1.00  0.00     0.074 A 
ATOM     65  C   UNL A   1      40.567  34.059  32.392  1.00  0.00     0.031 C 
ATOM     66  C   UNL A   1      42.733  32.927  32.813  1.00  0.00     0.037 A 
BRANCH  53  67
ATOM     67  C   UNL A   1      45.916  27.749  31.659  1.00  0.00     0.058 A 
ATOM     68  C   UNL A   1      45.976  26.761  32.656  1.00  0.00     0.135 A 
ATOM     69  C   UNL A   1      47.054  27.941  30.860  1.00  0.00     0.135 A 
ATOM     70  F   UNL A   1      44.922  26.543  33.457  1.00  0.00    -0.206 F 
ATOM     71  C   UNL A   1      47.131  26.016  32.872  1.00  0.00     0.059 A 
ATOM     72  C   UNL A   1      48.210  27.186  31.039  1.00  0.00     0.059 A 
ATOM     73  F   UNL A   1      47.052  28.870  29.890  1.00  0.00    -0.206 F 
ATOM     74  C   UNL A   1      48.244  26.236  32.059  1.00  0.00     0.060 A 
BRANCH  74  75
ATOM     75  S   UNL A   1      49.734  25.260  32.355  1.00  0.00     0.124 S 
ATOM     76  O   UNL A   1      50.011  24.740  31.020  1.00  0.00    -0.237 OA
ATOM     77  O   UNL A   1      50.669  26.263  32.852  1.00  0.00    -0.237 OA
ATOM     78  O   UNL A   1      49.302  24.270  33.336  1.00  0.00    -0.744 OA
ENDBRANCH  74  75
ENDBRANCH  53  67
BRANCH  54  79
ATOM     79  C   UNL A   1      37.362  32.660  30.018  1.00  0.00     0.058 A 
ATOM     80  C   UNL A   1      37.250  33.674  29.054  1.00  0.00     0.135 A 
ATOM     81  C   UNL A   1      36.215  32.334  30.759  1.00  0.00     0.135 A 
ATOM     82  F   UNL A   1      38.319  34.029  28.327  1.00  0.00    -0.206 F 
ATOM     83  C   UNL A   1      36.051  34.347  28.840  1.00  0.00     0.059 A 
ATOM     84  C   UNL A   1      34.998  32.973  30.544  1.00  0.00     0.059 A 
ATOM     85  F   UNL A   1      36.265  31.361  31.683  1.00  0.00    -0.206 F 
ATOM     86  C   UNL A   1      34.928  33.984  29.587  1.00  0.00     0.060 A 
BRANCH  86  87
ATOM     87  S   UNL A   1      33.364  34.827  29.263  1.00  0.00     0.124 S 
ATOM     88  O   UNL A   1      32.731  33.919  28.315  1.00  0.00    -0.237 OA
ATOM     89  O   UNL A   1      32.766  34.883  30.593  1.00  0.00    -0.237 OA
ATOM     90  O   UNL A   1      33.785  36.115  28.720  1.00  0.00    -0.744 OA
ENDBRANCH  86  87
ENDBRANCH  54  79
BRANCH  66  91
ATOM     91  C   UNL A   1      43.143  34.099  33.662  1.00  0.00     0.058 A 
ATOM     92  C   UNL A   1      43.731  35.244  33.102  1.00  0.00     0.135 A 
ATOM     93  C   UNL A   1      42.877  34.107  35.041  1.00  0.00     0.135 A 
ATOM     94  F   UNL A   1      44.016  35.284  31.791  1.00  0.00    -0.206 F 
ATOM     95  C   UNL A   1      44.048  36.352  33.880  1.00  0.00     0.059 A 
ATOM     96  C   UNL A   1      43.160  35.214  35.834  1.00  0.00     0.059 A 
ATOM     97  F   UNL A   1      42.310  33.039  35.626  1.00  0.00    -0.206 F 
ATOM     98  C   UNL A   1      43.751  36.331  35.245  1.00  0.00     0.060 A 
BRANCH  98  99
ATOM     99  S   UNL A   1      44.113  37.800  36.230  1.00  0.00     0.124 S 
ATOM    100  O   UNL A   1      43.794  38.871  35.291  1.00  0.00    -0.237 OA
ATOM    101  O   UNL A   1      43.198  37.651  37.357  1.00  0.00    -0.237 OA
ATOM    102  O   UNL A   1      45.528  37.652  36.556  1.00  0.00    -0.744 OA
ENDBRANCH  98  99
ENDBRANCH  66  91
ENDBRANCH  40  41
ENDBRANCH  32  35
ENDBRANCH  30  31
ENDBRANCH  29  30
ENDBRANCH  28  29
ENDBRANCH   1  28
TORSDOF 20
ENDMDL
MODEL 2
REMARK VINA RESULT:     -11.5      2.956      9.321
REMARK SMILES COc1cccc(/C=C(/CC(=O)NCCCCCCNC(=O)c2ccc(-c3c4nc(c(-c5c(F)cc(S(=O)(=O)[O-])cc5F)c5ccc([nH]5)c(-c5c(F)cc(S(=O)(=O)[O-])cc5F)c5nc(c(-c6c(F)cc(S(=O)(=O)[O-])cc6F)c6ccc3[nH]6)C=C5)C=C4)cc2)c2nc3ccccc3o2)c1
REMARK SMILES IDX 16 1 15 2 14 3 13 4 11 5 12 6 10 8 9 9 8 10 7 11 3 12 4 13
REMARK SMILES IDX 98 14 5 15 6 16 2 17 1 18 89 19 90 20 97 21 91 22 96 23
REMARK SMILES IDX 92 24 95 25 93 26 94 27 17 28 18 29 19 30 20 31 21 32 22 34
REMARK SMILES IDX 23 35 24 36 88 37 25 38 87 39 26 40 27 41 28 42 81 43 29 44
REMARK SMILES IDX 86 45 80 46 82 47 30 48 85 49 79 50 78 51 31 53 65 54 44 55
REMARK SMILES IDX 64 56 45 57 48 58 63 59 83 60 46 61 47 62 62 64 84 65 49 66
REMARK SMILES IDX 32 67 33 68 42 69 34 70 35 71 41 72 43 73 36 74 37 75 38 76
REMARK SMILES IDX 39 77 40 78 66 79 67 80 76 81 68 82 69 83 75 84 77 85 70 86
REMARK SMILES IDX 71 87 72 88 73 89 74 90 50 91 51 92 60 93 52 94 53 95 59 96
REMARK SMILES IDX 61 97 54 98 55 99 56 100 57 101 58 102
REMARK H PARENT 13 7 20 33 82 52 48 63
REMARK Flexibility Score: inf
ROOT
ATOM      1  C   UNL A   1      30.555  27.474  24.944  1.00  0.00     0.002 C 
ENDROOT
BRANCH   1   2
ATOM      2  C   UNL A   1      30.217  27.682  23.461  1.00  0.00     0.021 C 
BRANCH   2   3
ATOM      3  C   UNL A   1      31.355  28.275  22.630  1.00  0.00     0.116 C 
BRANCH   3   4
ATOM      4  N   UNL A   1      31.843  27.350  21.626  1.00  0.00    -0.356 N 
ATOM      5  C   UNL A   1      32.932  26.527  21.658  1.00  0.00     0.224 C 
ATOM      6  O   UNL A   1      33.116  25.760  20.710  1.00  0.00    -0.275 OA
ATOM      7  H   UNL A   1      31.311  27.310  20.799  1.00  0.00     0.163 HD
BRANCH   5   8
ATOM      8  C   UNL A   1      33.844  26.504  22.886  1.00  0.00     0.141 C 
BRANCH   8   9
ATOM      9  C   UNL A   1      33.678  25.250  23.747  1.00  0.00     0.025 C 
ATOM     10  C   UNL A   1      32.414  24.891  24.090  1.00  0.00     0.018 C 
BRANCH  10  11
ATOM     11  C   UNL A   1      31.771  23.910  25.003  1.00  0.00    -0.021 A 
ATOM     12  C   UNL A   1      31.504  21.536  25.586  1.00  0.00     0.119 A 
ATOM     13  C   UNL A   1      30.569  21.878  26.555  1.00  0.00     0.046 A 
ATOM     14  C   UNL A   1      32.103  22.545  24.821  1.00  0.00     0.054 A 
ATOM     15  C   UNL A   1      30.240  23.211  26.766  1.00  0.00     0.004 A 
ATOM     16  C   UNL A   1      30.828  24.212  25.987  1.00  0.00     0.008 A 
BRANCH  12  17
ATOM     17  O   UNL A   1      31.700  20.193  25.433  1.00  0.00    -0.497 OA
ATOM     18  C   UNL A   1      32.439  19.778  24.291  1.00  0.00     0.278 C 
ENDBRANCH  12  17
ENDBRANCH  10  11
BRANCH   9  19
ATOM     19  C   UNL A   1      34.851  24.551  24.186  1.00  0.00     0.223 A 
ATOM     20  N   UNL A   1      35.275  23.409  23.656  1.00  0.00    -0.210 NA
ATOM     21  O   UNL A   1      35.601  24.910  25.297  1.00  0.00    -0.436 OA
ATOM     22  C   UNL A   1      36.343  23.021  24.412  1.00  0.00     0.110 A 
ATOM     23  C   UNL A   1      36.570  23.956  25.400  1.00  0.00     0.155 A 
ATOM     24  C   UNL A   1      37.171  21.896  24.329  1.00  0.00     0.032 A 
ATOM     25  C   UNL A   1      37.611  23.899  26.317  1.00  0.00     0.049 A 
ATOM     26  C   UNL A   1      38.230  21.791  25.243  1.00  0.00     0.003 A 
ATOM     27  C   UNL A   1      38.452  22.781  26.209  1.00  0.00     0.004 A 
ENDBRANCH   9  19
ENDBRANCH   8   9
ENDBRANCH   5   8
ENDBRANCH   3   4
ENDBRANCH   2   3
ENDBRANCH   1   2
BRANCH   1  28
ATOM     28  C   UNL A   1      31.709  28.327  25.484  1.00  0.00     0.002 C 
BRANCH  28  29
ATOM     29  C   UNL A   1      32.154  27.999  26.911  1.00  0.00     0.021 C 
BRANCH  29  30
ATOM     30  C   UNL A   1      33.543  28.511  27.283  1.00  0.00     0.116 C 
BRANCH  30  31
ATOM     31  N   UNL A   1      33.523  29.907  27.696  1.00  0.00    -0.352 N 
ATOM     32  C   UNL A   1      34.498  30.647  28.320  1.00  0.00     0.251 C 
ATOM     33  H   UNL A   1      32.689  30.392  27.498  1.00  0.00     0.163 HD
ATOM     34  O   UNL A   1      34.237  31.763  28.763  1.00  0.00    -0.269 OA
BRANCH  32  35
ATOM     35  C   UNL A   1      35.856  30.085  28.482  1.00  0.00     0.039 A 
ATOM     36  C   UNL A   1      36.728  30.090  27.389  1.00  0.00     0.014 A 
ATOM     37  C   UNL A   1      36.275  29.575  29.713  1.00  0.00     0.014 A 
ATOM     38  C   UNL A   1      38.048  29.665  27.556  1.00  0.00     0.010 A 
ATOM     39  C   UNL A   1      37.608  29.216  29.895  1.00  0.00     0.010 A 
ATOM     40  C   UNL A   1      38.512  29.273  28.822  1.00  0.00    -0.014 A 
BRANCH  40  41
ATOM     41  C   UNL A   1      39.946  28.968  29.065  1.00  0.00     0.031 A 
ATOM     42  C   UNL A   1      40.878  30.036  29.563  1.00  0.00     0.074 A 
ATOM     43  C   UNL A   1      40.425  27.747  28.747  1.00  0.00     0.049 A 
ATOM     44  N   UNL A   1      42.175  29.991  29.725  1.00  0.00    -0.248 NA
ATOM     45  C   UNL A   1      40.275  31.336  29.902  1.00  0.00     0.031 C 
ATOM     46  C   UNL A   1      39.627  26.637  28.222  1.00  0.00     0.029 A 
ATOM     47  N   UNL A   1      41.700  27.241  28.800  1.00  0.00    -0.354 N 
ATOM     48  C   UNL A   1      42.547  31.253  30.174  1.00  0.00     0.074 A 
ATOM     49  C   UNL A   1      41.343  32.056  30.213  1.00  0.00     0.031 C 
ATOM     50  C   UNL A   1      40.427  25.579  28.013  1.00  0.00     0.029 A 
ATOM     51  C   UNL A   1      41.800  25.947  28.342  1.00  0.00     0.049 A 
ATOM     52  H   UNL A   1      42.471  27.755  29.135  1.00  0.00     0.167 HD
ATOM     53  C   UNL A   1      43.776  31.694  30.535  1.00  0.00     0.037 A 
ATOM     54  C   UNL A   1      42.877  25.154  28.181  1.00  0.00     0.037 A 
ATOM     55  C   UNL A   1      44.967  30.884  30.500  1.00  0.00     0.049 A 
ATOM     56  C   UNL A   1      44.237  25.679  28.552  1.00  0.00     0.074 A 
ATOM     57  C   UNL A   1      46.248  31.222  30.898  1.00  0.00     0.029 A 
ATOM     58  N   UNL A   1      45.026  29.578  30.032  1.00  0.00    -0.354 N 
ATOM     59  N   UNL A   1      44.562  26.854  29.035  1.00  0.00    -0.248 NA
ATOM     60  C   UNL A   1      45.378  24.775  28.353  1.00  0.00     0.031 C 
ATOM     61  C   UNL A   1      47.092  30.142  30.619  1.00  0.00     0.029 A 
ATOM     62  C   UNL A   1      46.328  29.110  30.100  1.00  0.00     0.049 A 
ATOM     63  H   UNL A   1      44.257  29.062  29.700  1.00  0.00     0.167 HD
ATOM     64  C   UNL A   1      45.940  26.822  29.220  1.00  0.00     0.074 A 
ATOM     65  C   UNL A   1      46.386  25.508  28.808  1.00  0.00     0.031 C 
ATOM     66  C   UNL A   1      46.759  27.795  29.688  1.00  0.00     0.037 A 
BRANCH  53  67
ATOM     67  C   UNL A   1      43.898  33.122  30.996  1.00  0.00     0.058 A 
ATOM     68  C   UNL A   1      43.741  33.477  32.346  1.00  0.00     0.135 A 
ATOM     69  C   UNL A   1      44.213  34.142  30.084  1.00  0.00     0.135 A 
ATOM     70  F   UNL A   1      43.428  32.545  33.259  1.00  0.00    -0.206 F 
ATOM     71  C   UNL A   1      43.861  34.797  32.769  1.00  0.00     0.059 A 
ATOM     72  C   UNL A   1      44.367  35.465  30.490  1.00  0.00     0.059 A 
ATOM     73  F   UNL A   1      44.377  33.860  28.782  1.00  0.00    -0.206 F 
ATOM     74  C   UNL A   1      44.173  35.785  31.833  1.00  0.00     0.060 A 
BRANCH  74  75
ATOM     75  S   UNL A   1      44.324  37.492  32.401  1.00  0.00     0.124 S 
ATOM     76  O   UNL A   1      45.731  37.548  32.784  1.00  0.00    -0.237 OA
ATOM     77  O   UNL A   1      43.961  38.250  31.208  1.00  0.00    -0.237 OA
ATOM     78  O   UNL A   1      43.370  37.569  33.503  1.00  0.00    -0.744 OA
ENDBRANCH  74  75
ENDBRANCH  53  67
BRANCH  54  79
ATOM     79  C   UNL A   1      42.710  23.776  27.646  1.00  0.00     0.058 A 
ATOM     80  C   UNL A   1      42.595  22.675  28.509  1.00  0.00     0.135 A 
ATOM     81  C   UNL A   1      42.639  23.531  26.264  1.00  0.00     0.135 A 
ATOM     82  F   UNL A   1      42.665  22.855  29.836  1.00  0.00    -0.206 F 
ATOM     83  C   UNL A   1      42.430  21.382  28.024  1.00  0.00     0.059 A 
ATOM     84  C   UNL A   1      42.447  22.251  25.756  1.00  0.00     0.059 A 
ATOM     85  F   UNL A   1      42.728  24.551  25.396  1.00  0.00    -0.206 F 
ATOM     86  C   UNL A   1      42.352  21.181  26.644  1.00  0.00     0.060 A 
BRANCH  86  87
ATOM     87  S   UNL A   1      42.083  19.505  26.028  1.00  0.00     0.124 S 
ATOM     88  O   UNL A   1      42.896  19.502  24.818  1.00  0.00    -0.237 OA
ATOM     89  O   UNL A   1      42.577  18.690  27.133  1.00  0.00    -0.237 OA
ATOM     90  O   UNL A   1      40.639  19.454  25.819  1.00  0.00    -0.744 OA
ENDBRANCH  86  87
ENDBRANCH  54  79
BRANCH  66  91
ATOM     91  C   UNL A   1      48.224  27.476  29.805  1.00  0.00     0.058 A 
ATOM     92  C   UNL A   1      49.148  27.892  28.834  1.00  0.00     0.135 A 
ATOM     93  C   UNL A   1      48.720  26.811  30.939  1.00  0.00     0.135 A 
ATOM     94  F   UNL A   1      48.727  28.521  27.726  1.00  0.00    -0.206 F 
ATOM     95  C   UNL A   1      50.511  27.652  28.979  1.00  0.00     0.059 A 
ATOM     96  C   UNL A   1      50.080  26.586  31.118  1.00  0.00     0.059 A 
ATOM     97  F   UNL A   1      47.879  26.398  31.901  1.00  0.00    -0.206 F 
ATOM     98  C   UNL A   1      50.969  27.006  30.129  1.00  0.00     0.060 A 
BRANCH  98  99
ATOM     99  S   UNL A   1      52.746  26.757  30.330  1.00  0.00     0.124 S 
ATOM    100  O   UNL A   1      53.216  28.125  30.519  1.00  0.00    -0.237 OA
ATOM    101  O   UNL A   1      52.807  25.897  31.508  1.00  0.00    -0.237 OA
ATOM    102  O   UNL A   1      53.145  26.122  29.078  1.00  0.00    -0.744 OA
ENDBRANCH  98  99
ENDBRANCH  66  91
ENDBRANCH  40  41
ENDBRANCH  32  35
ENDBRANCH  30  31
ENDBRANCH  29  30
ENDBRANCH  28  29
ENDBRANCH   1  28
TORSDOF 20
ENDMDL
MODEL 3
REMARK VINA RESULT:     -11.4      0.791      2.840
REMARK SMILES COc1cccc(/C=C(/CC(=O)NCCCCCCNC(=O)c2ccc(-c3c4nc(c(-c5c(F)cc(S(=O)(=O)[O-])cc5F)c5ccc([nH]5)c(-c5c(F)cc(S(=O)(=O)[O-])cc5F)c5nc(c(-c6c(F)cc(S(=O)(=O)[O-])cc6F)c6ccc3[nH]6)C=C5)C=C4)cc2)c2nc3ccccc3o2)c1
REMARK SMILES IDX 16 1 15 2 14 3 13 4 11 5 12 6 10 8 9 9 8 10 7 11 3 12 4 13
REMARK SMILES IDX 98 14 5 15 6 16 2 17 1 18 89 19 90 20 97 21 91 22 96 23
REMARK SMILES IDX 92 24 95 25 93 26 94 27 17 28 18 29 19 30 20 31 21 32 22 34
REMARK SMILES IDX 23 35 24 36 88 37 25 38 87 39 26 40 27 41 28 42 81 43 29 44
REMARK SMILES IDX 86 45 80 46 82 47 30 48 85 49 79 50 78 51 31 53 65 54 44 55
REMARK SMILES IDX 64 56 45 57 48 58 63 59 83 60 46 61 47 62 62 64 84 65 49 66
REMARK SMILES IDX 32 67 33 68 42 69 34 70 35 71 41 72 43 73 36 74 37 75 38 76
REMARK SMILES IDX 39 77 40 78 66 79 67 80 76 81 68 82 69 83 75 84 77 85 70 86
REMARK SMILES IDX 71 87 72 88 73 89 74 90 50 91 51 92 60 93 52 94 53 95 59 96
REMARK SMILES IDX 61 97 54 98 55 99 56 100 57 101 58 102
REMARK H PARENT 13 7 20 33 82 52 48 63
REMARK Flexibility Score: inf
ROOT
ATOM      1  C   UNL A   1      34.502  20.844  24.977  1.00  0.00     0.002 C 
ENDROOT
BRANCH   1   2
ATOM      2  C   UNL A   1      33.079  20.909  25.548  1.00  0.00     0.021 C 
BRANCH   2   3
ATOM      3  C   UNL A   1      32.171  21.935  24.871  1.00  0.00     0.116 C 
BRANCH   3   4
ATOM      4  N   UNL A   1      31.588  22.864  25.819  1.00  0.00    -0.356 N 
ATOM      5  C   UNL A   1      31.688  24.225  25.876  1.00  0.00     0.224 C 
ATOM      6  O   UNL A   1      31.038  24.825  26.735  1.00  0.00    -0.275 OA
ATOM      7  H   UNL A   1      31.041  22.453  26.526  1.00  0.00     0.163 HD
BRANCH   5   8
ATOM      8  C   UNL A   1      32.519  24.980  24.837  1.00  0.00     0.141 C 
BRANCH   8   9
ATOM      9  C   UNL A   1      32.456  26.501  24.994  1.00  0.00     0.025 C 
ATOM     10  C   UNL A   1      33.294  27.070  25.898  1.00  0.00     0.018 C 
BRANCH  10  11
ATOM     11  C   UNL A   1      33.486  28.411  26.511  1.00  0.00    -0.021 A 
ATOM     12  C   UNL A   1      32.504  30.629  26.912  1.00  0.00     0.119 A 
ATOM     13  C   UNL A   1      33.689  31.048  27.506  1.00  0.00     0.046 A 
ATOM     14  C   UNL A   1      32.403  29.321  26.424  1.00  0.00     0.054 A 
ATOM     15  C   UNL A   1      34.759  30.168  27.620  1.00  0.00     0.004 A 
ATOM     16  C   UNL A   1      34.658  28.869  27.115  1.00  0.00     0.008 A 
BRANCH  12  17
ATOM     17  O   UNL A   1      31.549  31.600  26.806  1.00  0.00    -0.497 OA
ATOM     18  C   UNL A   1      30.759  31.595  25.624  1.00  0.00     0.278 C 
ENDBRANCH  12  17
ENDBRANCH  10  11
BRANCH   9  19
ATOM     19  C   UNL A   1      31.496  27.238  24.224  1.00  0.00     0.223 A 
ATOM     20  N   UNL A   1      31.816  28.185  23.351  1.00  0.00    -0.210 NA
ATOM     21  O   UNL A   1      30.122  27.143  24.399  1.00  0.00    -0.436 OA
ATOM     22  C   UNL A   1      30.631  28.707  22.917  1.00  0.00     0.110 A 
ATOM     23  C   UNL A   1      29.587  28.048  23.530  1.00  0.00     0.155 A 
ATOM     24  C   UNL A   1      30.355  29.737  22.010  1.00  0.00     0.032 A 
ATOM     25  C   UNL A   1      28.243  28.294  23.280  1.00  0.00     0.049 A 
ATOM     26  C   UNL A   1      29.011  30.026  21.735  1.00  0.00     0.003 A 
ATOM     27  C   UNL A   1      27.976  29.309  22.350  1.00  0.00     0.004 A 
ENDBRANCH   9  19
ENDBRANCH   8   9
ENDBRANCH   5   8
ENDBRANCH   3   4
ENDBRANCH   2   3
ENDBRANCH   1   2
BRANCH   1  28
ATOM     28  C   UNL A   1      35.044  22.160  24.407  1.00  0.00     0.002 C 
BRANCH  28  29
ATOM     29  C   UNL A   1      35.617  23.135  25.439  1.00  0.00     0.021 C 
BRANCH  29  30
ATOM     30  C   UNL A   1      36.992  23.701  25.093  1.00  0.00     0.116 C 
BRANCH  30  31
ATOM     31  N   UNL A   1      38.065  22.771  25.413  1.00  0.00    -0.352 N 
ATOM     32  C   UNL A   1      39.238  22.994  26.094  1.00  0.00     0.251 C 
ATOM     33  H   UNL A   1      37.932  21.849  25.096  1.00  0.00     0.163 HD
ATOM     34  O   UNL A   1      40.116  22.133  26.108  1.00  0.00    -0.269 OA
BRANCH  32  35
ATOM     35  C   UNL A   1      39.452  24.282  26.788  1.00  0.00     0.039 A 
ATOM     36  C   UNL A   1      38.930  24.457  28.072  1.00  0.00     0.014 A 
ATOM     37  C   UNL A   1      40.185  25.305  26.181  1.00  0.00     0.014 A 
ATOM     38  C   UNL A   1      39.218  25.625  28.783  1.00  0.00     0.010 A 
ATOM     39  C   UNL A   1      40.526  26.438  26.915  1.00  0.00     0.010 A 
ATOM     40  C   UNL A   1      40.060  26.602  28.229  1.00  0.00    -0.014 A 
BRANCH  40  41
ATOM     41  C   UNL A   1      40.512  27.778  29.018  1.00  0.00     0.031 A 
ATOM     42  C   UNL A   1      41.820  27.742  29.756  1.00  0.00     0.074 A 
ATOM     43  C   UNL A   1      39.695  28.845  29.141  1.00  0.00     0.049 A 
ATOM     44  N   UNL A   1      42.326  28.620  30.583  1.00  0.00    -0.248 NA
ATOM     45  C   UNL A   1      42.661  26.550  29.557  1.00  0.00     0.031 C 
ATOM     46  C   UNL A   1      38.384  28.983  28.502  1.00  0.00     0.029 A 
ATOM     47  N   UNL A   1      39.835  30.005  29.861  1.00  0.00    -0.354 N 
ATOM     48  C   UNL A   1      43.536  28.087  31.010  1.00  0.00     0.074 A 
ATOM     49  C   UNL A   1      43.666  26.786  30.388  1.00  0.00     0.031 C 
ATOM     50  C   UNL A   1      37.847  30.164  28.847  1.00  0.00     0.029 A 
ATOM     51  C   UNL A   1      38.750  30.847  29.769  1.00  0.00     0.049 A 
ATOM     52  H   UNL A   1      40.637  30.216  30.392  1.00  0.00     0.167 HD
ATOM     53  C   UNL A   1      44.460  28.639  31.833  1.00  0.00     0.037 A 
ATOM     54  C   UNL A   1      38.498  32.022  30.376  1.00  0.00     0.037 A 
ATOM     55  C   UNL A   1      44.326  29.939  32.442  1.00  0.00     0.049 A 
ATOM     56  C   UNL A   1      39.521  32.597  31.317  1.00  0.00     0.074 A 
ATOM     57  C   UNL A   1      45.231  30.609  33.245  1.00  0.00     0.029 A 
ATOM     58  N   UNL A   1      43.213  30.760  32.323  1.00  0.00    -0.354 N 
ATOM     59  N   UNL A   1      40.689  32.109  31.661  1.00  0.00    -0.248 NA
ATOM     60  C   UNL A   1      39.195  33.880  31.955  1.00  0.00     0.031 C 
ATOM     61  C   UNL A   1      44.645  31.810  33.657  1.00  0.00     0.029 A 
ATOM     62  C   UNL A   1      43.396  31.915  33.065  1.00  0.00     0.049 A 
ATOM     63  H   UNL A   1      42.412  30.552  31.790  1.00  0.00     0.167 HD
ATOM     64  C   UNL A   1      41.246  33.034  32.537  1.00  0.00     0.074 A 
ATOM     65  C   UNL A   1      40.292  34.117  32.661  1.00  0.00     0.031 C 
ATOM     66  C   UNL A   1      42.438  32.989  33.179  1.00  0.00     0.037 A 
BRANCH  53  67
ATOM     67  C   UNL A   1      45.700  27.838  32.129  1.00  0.00     0.058 A 
ATOM     68  C   UNL A   1      45.784  26.997  33.252  1.00  0.00     0.135 A 
ATOM     69  C   UNL A   1      46.801  27.879  31.260  1.00  0.00     0.135 A 
ATOM     70  F   UNL A   1      44.765  26.927  34.122  1.00  0.00    -0.206 F 
ATOM     71  C   UNL A   1      46.928  26.252  33.518  1.00  0.00     0.059 A 
ATOM     72  C   UNL A   1      47.946  27.120  31.492  1.00  0.00     0.059 A 
ATOM     73  F   UNL A   1      46.775  28.663  30.171  1.00  0.00    -0.206 F 
ATOM     74  C   UNL A   1      48.005  26.321  32.633  1.00  0.00     0.060 A 
BRANCH  74  75
ATOM     75  S   UNL A   1      49.482  25.349  32.996  1.00  0.00     0.124 S 
ATOM     76  O   UNL A   1      50.288  26.311  33.742  1.00  0.00    -0.237 OA
ATOM     77  O   UNL A   1      48.940  24.239  33.774  1.00  0.00    -0.237 OA
ATOM     78  O   UNL A   1      49.990  24.995  31.675  1.00  0.00    -0.744 OA
ENDBRANCH  74  75
ENDBRANCH  53  67
BRANCH  54  79
ATOM     79  C   UNL A   1      37.220  32.735  30.109  1.00  0.00     0.058 A 
ATOM     80  C   UNL A   1      36.089  32.514  30.910  1.00  0.00     0.135 A 
ATOM     81  C   UNL A   1      37.106  33.665  29.063  1.00  0.00     0.135 A 
ATOM     82  F   UNL A   1      36.143  31.629  31.916  1.00  0.00    -0.206 F 
ATOM     83  C   UNL A   1      34.889  33.179  30.678  1.00  0.00     0.059 A 
ATOM     84  C   UNL A   1      35.926  34.363  28.828  1.00  0.00     0.059 A 
ATOM     85  F   UNL A   1      38.162  33.924  28.276  1.00  0.00    -0.206 F 
ATOM     86  C   UNL A   1      34.820  34.107  29.637  1.00  0.00     0.060 A 
BRANCH  86  87
ATOM     87  S   UNL A   1      33.274  35.004  29.379  1.00  0.00     0.124 S 
ATOM     88  O   UNL A   1      32.645  34.212  28.329  1.00  0.00    -0.237 OA
ATOM     89  O   UNL A   1      32.652  34.928  30.697  1.00  0.00    -0.237 OA
ATOM     90  O   UNL A   1      33.723  36.336  28.983  1.00  0.00    -0.744 OA
ENDBRANCH  86  87
ENDBRANCH  54  79
BRANCH  66  91
ATOM     91  C   UNL A   1      42.800  34.152  34.061  1.00  0.00     0.058 A 
ATOM     92  C   UNL A   1      42.503  34.156  35.433  1.00  0.00     0.135 A 
ATOM     93  C   UNL A   1      43.518  35.243  33.543  1.00  0.00     0.135 A 
ATOM     94  F   UNL A   1      41.809  33.144  35.977  1.00  0.00    -0.206 F 
ATOM     95  C   UNL A   1      42.897  35.204  36.258  1.00  0.00     0.059 A 
ATOM     96  C   UNL A   1      43.946  36.288  34.354  1.00  0.00     0.059 A 
ATOM     97  F   UNL A   1      43.833  35.285  32.238  1.00  0.00    -0.206 F 
ATOM     98  C   UNL A   1      43.626  36.263  35.712  1.00  0.00     0.060 A 
BRANCH  98  99
ATOM     99  S   UNL A   1      44.183  37.585  36.807  1.00  0.00     0.124 S 
ATOM    100  O   UNL A   1      43.191  37.520  37.875  1.00  0.00    -0.237 OA
ATOM    101  O   UNL A   1      45.528  37.145  37.164  1.00  0.00    -0.237 OA
ATOM    102  O   UNL A   1      44.122  38.775  35.964  1.00  0.00    -0.744 OA
ENDBRANCH  98  99
ENDBRANCH  66  91
ENDBRANCH  40  41
ENDBRANCH  32  35
ENDBRANCH  30  31
ENDBRANCH  29  30
ENDBRANCH  28  29
ENDBRANCH   1  28
TORSDOF 20
ENDMDL
