MODEL 1
REMARK VINA RESULT:     -11.8      0.000      0.000
REMARK SMILES C[C@@H](C(=O)NCCCCCCNC(=O)c1ccc(-c2c3nc(c(-c4c(F)cc(S(=O)(=O)[O-])cc4F)c4ccc([nH]4)c(-c4c(F)cc(S(=O)(=O)[O-])cc4F)c4nc(c(-c5c(F)cc(S(=O)(=O)[O-])cc5F)c5ccc2[nH]5)C=C4)C=C3)cc1)c1ccc2c3cc(Cl)ccc3n(C(=O)c3ccc(Cl)cc3)c2c1
REMARK SMILES IDX 8 1 7 2 6 3 5 4 3 5 4 6 2 8 1 9 81 10 82 11 103 12 83 13
REMARK SMILES IDX 102 14 84 15 92 16 85 17 91 18 86 19 90 20 87 21 89 22 88 23
REMARK SMILES IDX 93 24 94 25 95 26 96 27 101 28 97 29 100 30 98 31 99 32 9 33
REMARK SMILES IDX 10 34 11 35 12 36 13 37 14 39 15 40 16 41 80 42 17 43 79 44
REMARK SMILES IDX 18 45 19 46 20 47 73 48 21 49 78 50 72 51 74 52 22 53 77 54
REMARK SMILES IDX 71 55 70 56 23 58 57 59 36 60 56 61 37 62 40 63 55 64 75 65
REMARK SMILES IDX 38 66 39 67 54 69 76 70 41 71 24 72 25 73 34 74 26 75 27 76
REMARK SMILES IDX 33 77 35 78 28 79 29 80 30 81 31 82 32 83 58 84 59 85 68 86
REMARK SMILES IDX 60 87 61 88 67 89 69 90 62 91 63 92 64 93 65 94 66 95 42 96
REMARK SMILES IDX 43 97 52 98 44 99 45 100 51 101 53 102 46 103 47 104 48 105
REMARK SMILES IDX 49 106 50 107
REMARK H PARENT 5 7 12 38 74 57 40 68
REMARK Flexibility Score: inf
ROOT
ATOM      1  C   UNL A   1      36.381  21.147  24.800  1.00  0.00     0.002 C 
ENDROOT
BRANCH   1   2
ATOM      2  C   UNL A   1      35.784  21.825  26.040  1.00  0.00     0.021 C 
BRANCH   2   3
ATOM      3  C   UNL A   1      35.675  23.349  25.924  1.00  0.00     0.116 C 
BRANCH   3   4
ATOM      4  N   UNL A   1      35.608  23.724  24.527  1.00  0.00    -0.356 N 
ATOM      5  C   UNL A   1      34.563  23.554  23.662  1.00  0.00     0.227 C 
ATOM      6  O   UNL A   1      34.840  23.433  22.467  1.00  0.00    -0.274 OA
ATOM      7  H   UNL A   1      36.411  24.155  24.155  1.00  0.00     0.163 HD
BRANCH   5   8
ATOM      8  C   UNL A   1      33.122  23.541  24.214  1.00  0.00     0.105 C 
ATOM      9  C   UNL A   1      32.451  22.233  23.778  1.00  0.00     0.023 C 
BRANCH   8  10
ATOM     10  C   UNL A   1      32.317  24.795  23.841  1.00  0.00    -0.034 A 
ATOM     11  C   UNL A   1      31.764  24.971  22.570  1.00  0.00     0.005 A 
ATOM     12  C   UNL A   1      32.083  25.791  24.808  1.00  0.00     0.032 A 
ATOM     13  C   UNL A   1      31.043  26.125  22.240  1.00  0.00     0.011 A 
ATOM     14  C   UNL A   1      31.450  27.001  24.451  1.00  0.00     0.057 A 
ATOM     15  C   UNL A   1      30.901  27.160  23.185  1.00  0.00     0.008 A 
ATOM     16  N   UNL A   1      31.241  28.185  25.182  1.00  0.00    -0.276 N 
ATOM     17  C   UNL A   1      30.305  28.445  23.135  1.00  0.00     0.009 A 
ATOM     18  C   UNL A   1      30.606  29.108  24.334  1.00  0.00     0.057 A 
ATOM     19  C   UNL A   1      29.596  29.115  22.114  1.00  0.00     0.031 A 
ATOM     20  C   UNL A   1      30.323  30.483  24.463  1.00  0.00     0.029 A 
ATOM     21  C   UNL A   1      29.256  30.453  22.283  1.00  0.00     0.041 A 
ATOM     22  C   UNL A   1      29.635  31.136  23.430  1.00  0.00     0.023 A 
ATOM     23  Cl  UNL A   1      28.403  31.273  21.033  1.00  0.00    -0.084 Cl
BRANCH  16  24
ATOM     24  C   UNL A   1      31.699  28.370  26.518  1.00  0.00     0.262 C 
ATOM     25  O   UNL A   1      31.000  27.883  27.409  1.00  0.00    -0.268 OA
BRANCH  24  26
ATOM     26  C   UNL A   1      32.893  29.105  27.020  1.00  0.00     0.040 A 
ATOM     27  C   UNL A   1      32.720  30.472  27.324  1.00  0.00     0.015 A 
ATOM     28  C   UNL A   1      34.185  28.572  27.055  1.00  0.00     0.015 A 
ATOM     29  C   UNL A   1      33.801  31.283  27.671  1.00  0.00     0.021 A 
ATOM     30  C   UNL A   1      35.268  29.378  27.439  1.00  0.00     0.021 A 
ATOM     31  C   UNL A   1      35.073  30.729  27.736  1.00  0.00     0.041 A 
ATOM     32  Cl  UNL A   1      36.414  31.722  28.153  1.00  0.00    -0.084 Cl
ENDBRANCH  24  26
ENDBRANCH  16  24
ENDBRANCH   8  10
ENDBRANCH   5   8
ENDBRANCH   3   4
ENDBRANCH   2   3
ENDBRANCH   1   2
BRANCH   1  33
ATOM     33  C   UNL A   1      37.794  20.589  24.990  1.00  0.00     0.002 C 
BRANCH  33  34
ATOM     34  C   UNL A   1      38.819  21.609  25.484  1.00  0.00     0.021 C 
BRANCH  34  35
ATOM     35  C   UNL A   1      39.715  21.102  26.608  1.00  0.00     0.116 C 
BRANCH  35  36
ATOM     36  N   UNL A   1      40.592  20.032  26.161  1.00  0.00    -0.352 N 
ATOM     37  C   UNL A   1      41.930  20.101  25.851  1.00  0.00     0.251 C 
ATOM     38  H   UNL A   1      40.175  19.145  26.069  1.00  0.00     0.163 HD
ATOM     39  O   UNL A   1      42.495  19.168  25.300  1.00  0.00    -0.269 OA
BRANCH  37  40
ATOM     40  C   UNL A   1      42.669  21.338  26.183  1.00  0.00     0.039 A 
ATOM     41  C   UNL A   1      42.755  22.360  25.235  1.00  0.00     0.014 A 
ATOM     42  C   UNL A   1      43.236  21.492  27.451  1.00  0.00     0.014 A 
ATOM     43  C   UNL A   1      43.364  23.568  25.582  1.00  0.00     0.010 A 
ATOM     44  C   UNL A   1      43.778  22.717  27.814  1.00  0.00     0.010 A 
ATOM     45  C   UNL A   1      43.853  23.765  26.882  1.00  0.00    -0.014 A 
BRANCH  45  46
ATOM     46  C   UNL A   1      44.473  25.045  27.308  1.00  0.00     0.031 A 
ATOM     47  C   UNL A   1      43.665  26.020  28.117  1.00  0.00     0.074 A 
ATOM     48  C   UNL A   1      45.702  25.379  26.870  1.00  0.00     0.049 A 
ATOM     49  N   UNL A   1      43.934  27.259  28.430  1.00  0.00    -0.248 NA
ATOM     50  C   UNL A   1      42.361  25.543  28.603  1.00  0.00     0.031 C 
ATOM     51  C   UNL A   1      46.567  24.532  26.047  1.00  0.00     0.029 A 
ATOM     52  N   UNL A   1      46.421  26.538  27.026  1.00  0.00    -0.354 N 
ATOM     53  C   UNL A   1      42.817  27.724  29.114  1.00  0.00     0.074 A 
ATOM     54  C   UNL A   1      41.854  26.644  29.134  1.00  0.00     0.031 C 
ATOM     55  C   UNL A   1      47.696  25.202  25.765  1.00  0.00     0.029 A 
ATOM     56  C   UNL A   1      47.617  26.538  26.348  1.00  0.00     0.049 A 
ATOM     57  H   UNL A   1      46.111  27.296  27.573  1.00  0.00     0.167 HD
ATOM     58  C   UNL A   1      42.619  28.937  29.685  1.00  0.00     0.037 A 
ATOM     59  C   UNL A   1      48.535  27.513  26.191  1.00  0.00     0.037 A 
ATOM     60  C   UNL A   1      43.597  29.990  29.684  1.00  0.00     0.049 A 
ATOM     61  C   UNL A   1      48.310  28.847  26.849  1.00  0.00     0.074 A 
ATOM     62  C   UNL A   1      43.526  31.232  30.289  1.00  0.00     0.029 A 
ATOM     63  N   UNL A   1      44.826  29.928  29.040  1.00  0.00    -0.354 N 
ATOM     64  N   UNL A   1      47.275  29.255  27.543  1.00  0.00    -0.248 NA
ATOM     65  C   UNL A   1      49.375  29.850  26.711  1.00  0.00     0.031 C 
ATOM     66  C   UNL A   1      44.694  31.935  29.978  1.00  0.00     0.029 A 
ATOM     67  C   UNL A   1      45.515  31.114  29.221  1.00  0.00     0.049 A 
ATOM     68  H   UNL A   1      45.158  29.154  28.531  1.00  0.00     0.167 HD
ATOM     69  C   UNL A   1      47.575  30.550  27.951  1.00  0.00     0.074 A 
ATOM     70  C   UNL A   1      48.887  30.860  27.422  1.00  0.00     0.031 C 
ATOM     71  C   UNL A   1      46.832  31.400  28.702  1.00  0.00     0.037 A 
BRANCH  58  72
ATOM     72  C   UNL A   1      41.286  29.181  30.335  1.00  0.00     0.058 A 
ATOM     73  C   UNL A   1      41.085  28.989  31.713  1.00  0.00     0.135 A 
ATOM     74  C   UNL A   1      40.185  29.592  29.566  1.00  0.00     0.135 A 
ATOM     75  F   UNL A   1      42.100  28.584  32.494  1.00  0.00    -0.206 F 
ATOM     76  C   UNL A   1      39.830  29.137  32.292  1.00  0.00     0.059 A 
ATOM     77  C   UNL A   1      38.927  29.779  30.132  1.00  0.00     0.059 A 
ATOM     78  F   UNL A   1      40.319  29.797  28.247  1.00  0.00    -0.206 F 
ATOM     79  C   UNL A   1      38.754  29.521  31.491  1.00  0.00     0.060 A 
BRANCH  79  80
ATOM     80  S   UNL A   1      37.120  29.660  32.245  1.00  0.00     0.124 S 
ATOM     81  O   UNL A   1      37.173  28.596  33.245  1.00  0.00    -0.237 OA
ATOM     82  O   UNL A   1      37.129  31.021  32.770  1.00  0.00    -0.237 OA
ATOM     83  O   UNL A   1      36.210  29.427  31.129  1.00  0.00    -0.744 OA
ENDBRANCH  79  80
ENDBRANCH  58  72
BRANCH  59  84
ATOM     84  C   UNL A   1      49.752  27.239  25.385  1.00  0.00     0.058 A 
ATOM     85  C   UNL A   1      49.749  27.419  23.994  1.00  0.00     0.135 A 
ATOM     86  C   UNL A   1      50.961  26.871  25.995  1.00  0.00     0.135 A 
ATOM     87  F   UNL A   1      48.616  27.763  23.364  1.00  0.00    -0.206 F 
ATOM     88  C   UNL A   1      50.905  27.255  23.236  1.00  0.00     0.059 A 
ATOM     89  C   UNL A   1      52.134  26.720  25.262  1.00  0.00     0.059 A 
ATOM     90  F   UNL A   1      51.018  26.702  27.325  1.00  0.00    -0.206 F 
ATOM     91  C   UNL A   1      52.096  26.917  23.882  1.00  0.00     0.060 A 
BRANCH  91  92
ATOM     92  S   UNL A   1      53.611  26.810  22.903  1.00  0.00     0.124 S 
ATOM     93  O   UNL A   1      53.183  25.970  21.790  1.00  0.00    -0.237 OA
ATOM     94  O   UNL A   1      53.868  28.211  22.585  1.00  0.00    -0.237 OA
ATOM     95  O   UNL A   1      54.563  26.201  23.826  1.00  0.00    -0.744 OA
ENDBRANCH  91  92
ENDBRANCH  59  84
BRANCH  71  96
ATOM     96  C   UNL A   1      47.425  32.736  29.048  1.00  0.00     0.058 A 
ATOM     97  C   UNL A   1      47.244  33.859  28.229  1.00  0.00     0.135 A 
ATOM     98  C   UNL A   1      48.078  32.916  30.279  1.00  0.00     0.135 A 
ATOM     99  F   UNL A   1      46.634  33.737  27.040  1.00  0.00    -0.206 F 
ATOM    100  C   UNL A   1      47.685  35.119  28.621  1.00  0.00     0.059 A 
ATOM    101  C   UNL A   1      48.507  34.170  30.700  1.00  0.00     0.059 A 
ATOM    102  F   UNL A   1      48.269  31.873  31.102  1.00  0.00    -0.206 F 
ATOM    103  C   UNL A   1      48.304  35.267  29.864  1.00  0.00     0.060 A 
BRANCH 103 104
ATOM    104  S   UNL A   1      48.789  36.922  30.401  1.00  0.00     0.124 S 
ATOM    105  O   UNL A   1      49.181  36.680  31.785  1.00  0.00    -0.237 OA
ATOM    106  O   UNL A   1      49.875  37.244  29.480  1.00  0.00    -0.237 OA
ATOM    107  O   UNL A   1      47.571  37.708  30.222  1.00  0.00    -0.744 OA
ENDBRANCH 103 104
ENDBRANCH  71  96
ENDBRANCH  45  46
ENDBRANCH  37  40
ENDBRANCH  35  36
ENDBRANCH  34  35
ENDBRANCH  33  34
ENDBRANCH   1  33
TORSDOF 19
ENDMDL
MODEL 2
REMARK VINA RESULT:     -11.5      5.901     10.336
REMARK SMILES C[C@@H](C(=O)NCCCCCCNC(=O)c1ccc(-c2c3nc(c(-c4c(F)cc(S(=O)(=O)[O-])cc4F)c4ccc([nH]4)c(-c4c(F)cc(S(=O)(=O)[O-])cc4F)c4nc(c(-c5c(F)cc(S(=O)(=O)[O-])cc5F)c5ccc2[nH]5)C=C4)C=C3)cc1)c1ccc2c3cc(Cl)ccc3n(C(=O)c3ccc(Cl)cc3)c2c1
REMARK SMILES IDX 8 1 7 2 6 3 5 4 3 5 4 6 2 8 1 9 81 10 82 11 103 12 83 13
REMARK SMILES IDX 102 14 84 15 92 16 85 17 91 18 86 19 90 20 87 21 89 22 88 23
REMARK SMILES IDX 93 24 94 25 95 26 96 27 101 28 97 29 100 30 98 31 99 32 9 33
REMARK SMILES IDX 10 34 11 35 12 36 13 37 14 39 15 40 16 41 80 42 17 43 79 44
REMARK SMILES IDX 18 45 19 46 20 47 73 48 21 49 78 50 72 51 74 52 22 53 77 54
REMARK SMILES IDX 71 55 70 56 23 58 57 59 36 60 56 61 37 62 40 63 55 64 75 65
REMARK SMILES IDX 38 66 39 67 54 69 76 70 41 71 24 72 25 73 34 74 26 75 27 76
REMARK SMILES IDX 33 77 35 78 28 79 29 80 30 81 31 82 32 83 58 84 59 85 68 86
REMARK SMILES IDX 60 87 61 88 67 89 69 90 62 91 63 92 64 93 65 94 66 95 42 96
REMARK SMILES IDX 43 97 52 98 44 99 45 100 51 101 53 102 46 103 47 104 48 105
REMARK SMILES IDX 49 106 50 107
REMARK H PARENT 5 7 12 38 74 57 40 68
REMARK Flexibility Score: inf
ROOT
ATOM      1  C   UNL A   1      40.369  22.103  27.647  1.00  0.00     0.002 C 
ENDROOT
BRANCH   1   2
ATOM      2  C   UNL A   1      39.624  22.356  26.330  1.00  0.00     0.021 C 
BRANCH   2   3
ATOM      3  C   UNL A   1      38.674  23.559  26.375  1.00  0.00     0.116 C 
BRANCH   3   4
ATOM      4  N   UNL A   1      37.986  23.678  25.106  1.00  0.00    -0.356 N 
ATOM      5  C   UNL A   1      36.639  23.632  24.875  1.00  0.00     0.227 C 
ATOM      6  O   UNL A   1      36.276  23.229  23.769  1.00  0.00    -0.274 OA
ATOM      7  H   UNL A   1      38.557  23.811  24.315  1.00  0.00     0.163 HD
BRANCH   5   8
ATOM      8  C   UNL A   1      35.668  24.094  25.982  1.00  0.00     0.105 C 
ATOM      9  C   UNL A   1      35.040  22.850  26.622  1.00  0.00     0.023 C 
BRANCH   8  10
ATOM     10  C   UNL A   1      34.633  25.119  25.493  1.00  0.00    -0.034 A 
ATOM     11  C   UNL A   1      34.781  26.489  25.722  1.00  0.00     0.005 A 
ATOM     12  C   UNL A   1      33.513  24.687  24.756  1.00  0.00     0.032 A 
ATOM     13  C   UNL A   1      33.823  27.410  25.282  1.00  0.00     0.011 A 
ATOM     14  C   UNL A   1      32.494  25.598  24.404  1.00  0.00     0.057 A 
ATOM     15  C   UNL A   1      32.657  26.958  24.633  1.00  0.00     0.008 A 
ATOM     16  N   UNL A   1      31.234  25.390  23.814  1.00  0.00    -0.276 N 
ATOM     17  C   UNL A   1      31.501  27.616  24.143  1.00  0.00     0.009 A 
ATOM     18  C   UNL A   1      30.587  26.635  23.732  1.00  0.00     0.057 A 
ATOM     19  C   UNL A   1      31.143  28.981  24.097  1.00  0.00     0.031 A 
ATOM     20  C   UNL A   1      29.265  27.002  23.406  1.00  0.00     0.029 A 
ATOM     21  C   UNL A   1      29.858  29.338  23.702  1.00  0.00     0.041 A 
ATOM     22  C   UNL A   1      28.923  28.363  23.384  1.00  0.00     0.023 A 
ATOM     23  Cl  UNL A   1      29.418  31.001  23.658  1.00  0.00    -0.084 Cl
BRANCH  16  24
ATOM     24  C   UNL A   1      30.736  24.102  23.466  1.00  0.00     0.262 C 
ATOM     25  O   UNL A   1      29.676  24.075  22.838  1.00  0.00    -0.268 OA
BRANCH  24  26
ATOM     26  C   UNL A   1      31.288  22.754  23.779  1.00  0.00     0.040 A 
ATOM     27  C   UNL A   1      31.290  22.364  25.136  1.00  0.00     0.015 A 
ATOM     28  C   UNL A   1      31.935  21.935  22.849  1.00  0.00     0.015 A 
ATOM     29  C   UNL A   1      31.904  21.184  25.553  1.00  0.00     0.021 A 
ATOM     30  C   UNL A   1      32.522  20.730  23.263  1.00  0.00     0.021 A 
ATOM     31  C   UNL A   1      32.512  20.364  24.611  1.00  0.00     0.041 A 
ATOM     32  Cl  UNL A   1      33.281  18.911  25.116  1.00  0.00    -0.084 Cl
ENDBRANCH  24  26
ENDBRANCH  16  24
ENDBRANCH   8  10
ENDBRANCH   5   8
ENDBRANCH   3   4
ENDBRANCH   2   3
ENDBRANCH   1   2
BRANCH   1  33
ATOM     33  C   UNL A   1      41.880  21.896  27.500  1.00  0.00     0.002 C 
BRANCH  33  34
ATOM     34  C   UNL A   1      42.726  22.629  28.542  1.00  0.00     0.021 C 
BRANCH  34  35
ATOM     35  C   UNL A   1      43.616  23.723  27.966  1.00  0.00     0.116 C 
BRANCH  35  36
ATOM     36  N   UNL A   1      43.208  24.105  26.624  1.00  0.00    -0.352 N 
ATOM     37  C   UNL A   1      42.406  25.156  26.244  1.00  0.00     0.251 C 
ATOM     38  H   UNL A   1      43.548  23.540  25.894  1.00  0.00     0.163 HD
ATOM     39  O   UNL A   1      41.984  25.242  25.101  1.00  0.00    -0.269 OA
BRANCH  37  40
ATOM     40  C   UNL A   1      42.049  26.173  27.256  1.00  0.00     0.039 A 
ATOM     41  C   UNL A   1      41.003  25.917  28.145  1.00  0.00     0.014 A 
ATOM     42  C   UNL A   1      42.784  27.358  27.342  1.00  0.00     0.014 A 
ATOM     43  C   UNL A   1      40.731  26.831  29.166  1.00  0.00     0.010 A 
ATOM     44  C   UNL A   1      42.555  28.230  28.398  1.00  0.00     0.010 A 
ATOM     45  C   UNL A   1      41.524  27.978  29.317  1.00  0.00    -0.014 A 
BRANCH  45  46
ATOM     46  C   UNL A   1      41.297  28.958  30.408  1.00  0.00     0.031 A 
ATOM     47  C   UNL A   1      42.100  28.848  31.674  1.00  0.00     0.074 A 
ATOM     48  C   UNL A   1      40.298  29.858  30.313  1.00  0.00     0.049 A 
ATOM     49  N   UNL A   1      41.939  29.466  32.813  1.00  0.00    -0.248 NA
ATOM     50  C   UNL A   1      43.208  27.881  31.662  1.00  0.00     0.031 C 
ATOM     51  C   UNL A   1      39.427  30.034  29.151  1.00  0.00     0.029 A 
ATOM     52  N   UNL A   1      39.827  30.768  31.225  1.00  0.00    -0.354 N 
ATOM     53  C   UNL A   1      42.898  28.934  33.667  1.00  0.00     0.074 A 
ATOM     54  C   UNL A   1      43.608  27.917  32.923  1.00  0.00     0.031 C 
ATOM     55  C   UNL A   1      38.521  30.988  29.423  1.00  0.00     0.029 A 
ATOM     56  C   UNL A   1      38.720  31.459  30.791  1.00  0.00     0.049 A 
ATOM     57  H   UNL A   1      40.242  30.913  32.106  1.00  0.00     0.167 HD
ATOM     58  C   UNL A   1      43.169  29.274  34.950  1.00  0.00     0.037 A 
ATOM     59  C   UNL A   1      37.938  32.351  31.430  1.00  0.00     0.037 A 
ATOM     60  C   UNL A   1      42.475  30.309  35.667  1.00  0.00     0.049 A 
ATOM     61  C   UNL A   1      38.265  32.734  32.847  1.00  0.00     0.074 A 
ATOM     62  C   UNL A   1      42.714  30.779  36.946  1.00  0.00     0.029 A 
ATOM     63  N   UNL A   1      41.400  31.032  35.169  1.00  0.00    -0.354 N 
ATOM     64  N   UNL A   1      39.212  32.266  33.625  1.00  0.00    -0.248 NA
ATOM     65  C   UNL A   1      37.428  33.766  33.473  1.00  0.00     0.031 C 
ATOM     66  C   UNL A   1      41.759  31.758  37.235  1.00  0.00     0.029 A 
ATOM     67  C   UNL A   1      40.955  31.935  36.119  1.00  0.00     0.049 A 
ATOM     68  H   UNL A   1      41.012  30.920  34.271  1.00  0.00     0.167 HD
ATOM     69  C   UNL A   1      39.105  32.967  34.821  1.00  0.00     0.074 A 
ATOM     70  C   UNL A   1      37.998  33.888  34.666  1.00  0.00     0.031 C 
ATOM     71  C   UNL A   1      39.861  32.860  35.941  1.00  0.00     0.037 A 
BRANCH  58  72
ATOM     72  C   UNL A   1      44.249  28.499  35.652  1.00  0.00     0.058 A 
ATOM     73  C   UNL A   1      45.600  28.881  35.585  1.00  0.00     0.135 A 
ATOM     74  C   UNL A   1      43.933  27.345  36.387  1.00  0.00     0.135 A 
ATOM     75  F   UNL A   1      45.961  29.969  34.887  1.00  0.00    -0.206 F 
ATOM     76  C   UNL A   1      46.602  28.113  36.169  1.00  0.00     0.059 A 
ATOM     77  C   UNL A   1      44.916  26.580  37.006  1.00  0.00     0.059 A 
ATOM     78  F   UNL A   1      42.658  26.937  36.491  1.00  0.00    -0.206 F 
ATOM     79  C   UNL A   1      46.252  26.958  36.867  1.00  0.00     0.060 A 
BRANCH  79  80
ATOM     80  S   UNL A   1      47.566  25.942  37.576  1.00  0.00     0.124 S 
ATOM     81  O   UNL A   1      48.650  26.914  37.690  1.00  0.00    -0.237 OA
ATOM     82  O   UNL A   1      46.977  25.501  38.836  1.00  0.00    -0.237 OA
ATOM     83  O   UNL A   1      47.761  24.896  36.578  1.00  0.00    -0.744 OA
ENDBRANCH  79  80
ENDBRANCH  58  72
BRANCH  59  84
ATOM     84  C   UNL A   1      36.781  32.945  30.711  1.00  0.00     0.058 A 
ATOM     85  C   UNL A   1      35.469  32.546  31.006  1.00  0.00     0.135 A 
ATOM     86  C   UNL A   1      36.958  33.978  29.778  1.00  0.00     0.135 A 
ATOM     87  F   UNL A   1      35.250  31.558  31.886  1.00  0.00    -0.206 F 
ATOM     88  C   UNL A   1      34.371  33.157  30.408  1.00  0.00     0.059 A 
ATOM     89  C   UNL A   1      35.875  34.617  29.181  1.00  0.00     0.059 A 
ATOM     90  F   UNL A   1      38.193  34.406  29.475  1.00  0.00    -0.206 F 
ATOM     91  C   UNL A   1      34.584  34.201  29.505  1.00  0.00     0.060 A 
BRANCH  91  92
ATOM     92  S   UNL A   1      33.150  35.057  28.817  1.00  0.00     0.124 S 
ATOM     93  O   UNL A   1      32.398  35.387  30.023  1.00  0.00    -0.237 OA
ATOM     94  O   UNL A   1      33.769  36.180  28.122  1.00  0.00    -0.237 OA
ATOM     95  O   UNL A   1      32.544  34.050  27.950  1.00  0.00    -0.744 OA
ENDBRANCH  91  92
ENDBRANCH  59  84
BRANCH  71  96
ATOM     96  C   UNL A   1      39.564  33.789  37.084  1.00  0.00     0.058 A 
ATOM     97  C   UNL A   1      38.684  33.432  38.115  1.00  0.00     0.135 A 
ATOM     98  C   UNL A   1      40.264  35.000  37.204  1.00  0.00     0.135 A 
ATOM     99  F   UNL A   1      37.984  32.289  38.043  1.00  0.00    -0.206 F 
ATOM    100  C   UNL A   1      38.514  34.243  39.234  1.00  0.00     0.059 A 
ATOM    101  C   UNL A   1      40.126  35.815  38.323  1.00  0.00     0.059 A 
ATOM    102  F   UNL A   1      41.123  35.382  36.246  1.00  0.00    -0.206 F 
ATOM    103  C   UNL A   1      39.249  35.426  39.334  1.00  0.00     0.060 A 
BRANCH 103 104
ATOM    104  S   UNL A   1      39.088  36.422  40.832  1.00  0.00     0.124 S 
ATOM    105  O   UNL A   1      38.520  37.658  40.305  1.00  0.00    -0.237 OA
ATOM    106  O   UNL A   1      38.194  35.611  41.652  1.00  0.00    -0.237 OA
ATOM    107  O   UNL A   1      40.460  36.521  41.323  1.00  0.00    -0.744 OA
ENDBRANCH 103 104
ENDBRANCH  71  96
ENDBRANCH  45  46
ENDBRANCH  37  40
ENDBRANCH  35  36
ENDBRANCH  34  35
ENDBRANCH  33  34
ENDBRANCH   1  33
TORSDOF 19
ENDMDL
MODEL 3
REMARK VINA RESULT:     -11.5      5.929      8.926
REMARK SMILES C[C@@H](C(=O)NCCCCCCNC(=O)c1ccc(-c2c3nc(c(-c4c(F)cc(S(=O)(=O)[O-])cc4F)c4ccc([nH]4)c(-c4c(F)cc(S(=O)(=O)[O-])cc4F)c4nc(c(-c5c(F)cc(S(=O)(=O)[O-])cc5F)c5ccc2[nH]5)C=C4)C=C3)cc1)c1ccc2c3cc(Cl)ccc3n(C(=O)c3ccc(Cl)cc3)c2c1
REMARK SMILES IDX 8 1 7 2 6 3 5 4 3 5 4 6 2 8 1 9 81 10 82 11 103 12 83 13
REMARK SMILES IDX 102 14 84 15 92 16 85 17 91 18 86 19 90 20 87 21 89 22 88 23
REMARK SMILES IDX 93 24 94 25 95 26 96 27 101 28 97 29 100 30 98 31 99 32 9 33
REMARK SMILES IDX 10 34 11 35 12 36 13 37 14 39 15 40 16 41 80 42 17 43 79 44
REMARK SMILES IDX 18 45 19 46 20 47 73 48 21 49 78 50 72 51 74 52 22 53 77 54
REMARK SMILES IDX 71 55 70 56 23 58 57 59 36 60 56 61 37 62 40 63 55 64 75 65
REMARK SMILES IDX 38 66 39 67 54 69 76 70 41 71 24 72 25 73 34 74 26 75 27 76
REMARK SMILES IDX 33 77 35 78 28 79 29 80 30 81 31 82 32 83 58 84 59 85 68 86
REMARK SMILES IDX 60 87 61 88 67 89 69 90 62 91 63 92 64 93 65 94 66 95 42 96
REMARK SMILES IDX 43 97 52 98 44 99 45 100 51 101 53 102 46 103 47 104 48 105
REMARK SMILES IDX 49 106 50 107
REMARK H PARENT 5 7 12 38 74 57 40 68
REMARK Flexibility Score: inf
ROOT
ATOM      1  C   UNL A   1      40.414  22.121  27.597  1.00  0.00     0.002 C 
ENDROOT
BRANCH   1   2
ATOM      2  C   UNL A   1      39.357  22.222  26.490  1.00  0.00     0.021 C 
BRANCH   2   3
ATOM      3  C   UNL A   1      38.645  23.579  26.432  1.00  0.00     0.116 C 
BRANCH   3   4
ATOM      4  N   UNL A   1      37.989  23.726  25.150  1.00  0.00    -0.356 N 
ATOM      5  C   UNL A   1      36.652  23.640  24.877  1.00  0.00     0.227 C 
ATOM      6  O   UNL A   1      36.336  23.270  23.745  1.00  0.00    -0.274 OA
ATOM      7  H   UNL A   1      38.576  23.913  24.382  1.00  0.00     0.163 HD
BRANCH   5   8
ATOM      8  C   UNL A   1      35.634  24.019  25.972  1.00  0.00     0.105 C 
ATOM      9  C   UNL A   1      34.989  22.731  26.498  1.00  0.00     0.023 C 
BRANCH   8  10
ATOM     10  C   UNL A   1      34.611  25.071  25.513  1.00  0.00    -0.034 A 
ATOM     11  C   UNL A   1      34.775  26.432  25.783  1.00  0.00     0.005 A 
ATOM     12  C   UNL A   1      33.487  24.675  24.763  1.00  0.00     0.032 A 
ATOM     13  C   UNL A   1      33.829  27.377  25.370  1.00  0.00     0.011 A 
ATOM     14  C   UNL A   1      32.480  25.608  24.437  1.00  0.00     0.057 A 
ATOM     15  C   UNL A   1      32.659  26.959  24.706  1.00  0.00     0.008 A 
ATOM     16  N   UNL A   1      31.218  25.434  23.840  1.00  0.00    -0.276 N 
ATOM     17  C   UNL A   1      31.511  27.645  24.236  1.00  0.00     0.009 A 
ATOM     18  C   UNL A   1      30.586  26.687  23.794  1.00  0.00     0.057 A 
ATOM     19  C   UNL A   1      31.169  29.015  24.231  1.00  0.00     0.031 A 
ATOM     20  C   UNL A   1      29.269  27.080  23.478  1.00  0.00     0.029 A 
ATOM     21  C   UNL A   1      29.890  29.399  23.845  1.00  0.00     0.041 A 
ATOM     22  C   UNL A   1      28.943  28.445  23.497  1.00  0.00     0.023 A 
ATOM     23  Cl  UNL A   1      29.470  31.068  23.850  1.00  0.00    -0.084 Cl
BRANCH  16  24
ATOM     24  C   UNL A   1      30.705  24.162  23.452  1.00  0.00     0.262 C 
ATOM     25  O   UNL A   1      29.631  24.166  22.849  1.00  0.00    -0.268 OA
BRANCH  24  26
ATOM     26  C   UNL A   1      31.257  22.800  23.699  1.00  0.00     0.040 A 
ATOM     27  C   UNL A   1      31.234  22.334  25.031  1.00  0.00     0.015 A 
ATOM     28  C   UNL A   1      31.926  22.039  22.736  1.00  0.00     0.015 A 
ATOM     29  C   UNL A   1      31.845  21.133  25.392  1.00  0.00     0.021 A 
ATOM     30  C   UNL A   1      32.510  20.813  23.092  1.00  0.00     0.021 A 
ATOM     31  C   UNL A   1      32.475  20.371  24.417  1.00  0.00     0.041 A 
ATOM     32  Cl  UNL A   1      33.241  18.894  24.853  1.00  0.00    -0.084 Cl
ENDBRANCH  24  26
ENDBRANCH  16  24
ENDBRANCH   8  10
ENDBRANCH   5   8
ENDBRANCH   3   4
ENDBRANCH   2   3
ENDBRANCH   1   2
BRANCH   1  33
ATOM     33  C   UNL A   1      41.860  22.285  27.120  1.00  0.00     0.002 C 
BRANCH  33  34
ATOM     34  C   UNL A   1      42.761  23.064  28.079  1.00  0.00     0.021 C 
BRANCH  34  35
ATOM     35  C   UNL A   1      43.538  24.199  27.423  1.00  0.00     0.116 C 
BRANCH  35  36
ATOM     36  N   UNL A   1      42.898  24.660  26.201  1.00  0.00    -0.352 N 
ATOM     37  C   UNL A   1      41.903  25.600  26.065  1.00  0.00     0.251 C 
ATOM     38  H   UNL A   1      43.217  24.248  25.367  1.00  0.00     0.163 HD
ATOM     39  O   UNL A   1      41.321  25.747  25.000  1.00  0.00    -0.269 OA
BRANCH  37  40
ATOM     40  C   UNL A   1      41.539  26.420  27.240  1.00  0.00     0.039 A 
ATOM     41  C   UNL A   1      40.495  26.003  28.069  1.00  0.00     0.014 A 
ATOM     42  C   UNL A   1      42.266  27.576  27.536  1.00  0.00     0.014 A 
ATOM     43  C   UNL A   1      40.216  26.719  29.235  1.00  0.00     0.010 A 
ATOM     44  C   UNL A   1      42.031  28.245  28.729  1.00  0.00     0.010 A 
ATOM     45  C   UNL A   1      41.001  27.827  29.588  1.00  0.00    -0.014 A 
BRANCH  45  46
ATOM     46  C   UNL A   1      40.768  28.597  30.836  1.00  0.00     0.031 A 
ATOM     47  C   UNL A   1      39.691  29.644  30.862  1.00  0.00     0.074 A 
ATOM     48  C   UNL A   1      41.593  28.443  31.889  1.00  0.00     0.049 A 
ATOM     49  N   UNL A   1      39.442  30.554  31.767  1.00  0.00    -0.248 NA
ATOM     50  C   UNL A   1      38.800  29.696  29.693  1.00  0.00     0.031 C 
ATOM     51  C   UNL A   1      42.698  27.486  31.966  1.00  0.00     0.029 A 
ATOM     52  N   UNL A   1      41.651  29.117  33.083  1.00  0.00    -0.354 N 
ATOM     53  C   UNL A   1      38.394  31.311  31.258  1.00  0.00     0.074 A 
ATOM     54  C   UNL A   1      38.083  30.778  29.950  1.00  0.00     0.031 C 
ATOM     55  C   UNL A   1      43.329  27.639  33.142  1.00  0.00     0.029 A 
ATOM     56  C   UNL A   1      42.703  28.732  33.881  1.00  0.00     0.049 A 
ATOM     57  H   UNL A   1      41.002  29.809  33.345  1.00  0.00     0.167 HD
ATOM     58  C   UNL A   1      37.743  32.349  31.837  1.00  0.00     0.037 A 
ATOM     59  C   UNL A   1      43.131  29.220  35.062  1.00  0.00     0.037 A 
ATOM     60  C   UNL A   1      38.043  32.850  33.151  1.00  0.00     0.049 A 
ATOM     61  C   UNL A   1      42.384  30.359  35.701  1.00  0.00     0.074 A 
ATOM     62  C   UNL A   1      37.403  33.851  33.857  1.00  0.00     0.029 A 
ATOM     63  N   UNL A   1      39.077  32.389  33.956  1.00  0.00    -0.354 N 
ATOM     64  N   UNL A   1      41.358  31.030  35.236  1.00  0.00    -0.248 NA
ATOM     65  C   UNL A   1      42.845  30.804  37.024  1.00  0.00     0.031 C 
ATOM     66  C   UNL A   1      38.073  34.023  35.073  1.00  0.00     0.029 A 
ATOM     67  C   UNL A   1      39.100  33.094  35.146  1.00  0.00     0.049 A 
ATOM     68  H   UNL A   1      39.700  31.665  33.715  1.00  0.00     0.167 HD
ATOM     69  C   UNL A   1      41.029  31.956  36.220  1.00  0.00     0.074 A 
ATOM     70  C   UNL A   1      41.970  31.762  37.305  1.00  0.00     0.031 C 
ATOM     71  C   UNL A   1      40.034  32.876  36.225  1.00  0.00     0.037 A 
BRANCH  58  72
ATOM     72  C   UNL A   1      36.660  33.014  31.033  1.00  0.00     0.058 A 
ATOM     73  C   UNL A   1      36.953  33.888  29.973  1.00  0.00     0.135 A 
ATOM     74  C   UNL A   1      35.308  32.792  31.342  1.00  0.00     0.135 A 
ATOM     75  F   UNL A   1      38.228  34.147  29.642  1.00  0.00    -0.206 F 
ATOM     76  C   UNL A   1      35.948  34.563  29.288  1.00  0.00     0.059 A 
ATOM     77  C   UNL A   1      34.285  33.431  30.648  1.00  0.00     0.059 A 
ATOM     78  F   UNL A   1      34.969  31.962  32.341  1.00  0.00    -0.206 F 
ATOM     79  C   UNL A   1      34.617  34.337  29.641  1.00  0.00     0.060 A 
BRANCH  79  80
ATOM     80  S   UNL A   1      33.325  35.257  28.780  1.00  0.00     0.124 S 
ATOM     81  O   UNL A   1      34.116  36.211  28.008  1.00  0.00    -0.237 OA
ATOM     82  O   UNL A   1      32.659  34.215  28.005  1.00  0.00    -0.237 OA
ATOM     83  O   UNL A   1      32.535  35.829  29.865  1.00  0.00    -0.744 OA
ENDBRANCH  79  80
ENDBRANCH  58  72
BRANCH  59  84
ATOM     84  C   UNL A   1      44.321  28.610  35.709  1.00  0.00     0.058 A 
ATOM     85  C   UNL A   1      45.603  29.141  35.505  1.00  0.00     0.135 A 
ATOM     86  C   UNL A   1      44.191  27.539  36.606  1.00  0.00     0.135 A 
ATOM     87  F   UNL A   1      45.778  30.160  34.651  1.00  0.00    -0.206 F 
ATOM     88  C   UNL A   1      46.714  28.638  36.174  1.00  0.00     0.059 A 
ATOM     89  C   UNL A   1      45.285  27.032  37.303  1.00  0.00     0.059 A 
ATOM     90  F   UNL A   1      42.983  27.007  36.848  1.00  0.00    -0.206 F 
ATOM     91  C   UNL A   1      46.543  27.590  37.082  1.00  0.00     0.060 A 
BRANCH  91  92
ATOM     92  S   UNL A   1      47.974  27.018  38.023  1.00  0.00     0.124 S 
ATOM     93  O   UNL A   1      48.930  26.732  36.960  1.00  0.00    -0.237 OA
ATOM     94  O   UNL A   1      48.274  28.176  38.859  1.00  0.00    -0.237 OA
ATOM     95  O   UNL A   1      47.459  25.855  38.741  1.00  0.00    -0.744 OA
ENDBRANCH  91  92
ENDBRANCH  59  84
BRANCH  71  96
ATOM     96  C   UNL A   1      39.863  33.723  37.454  1.00  0.00     0.058 A 
ATOM     97  C   UNL A   1      40.439  34.996  37.559  1.00  0.00     0.135 A 
ATOM     98  C   UNL A   1      39.010  33.298  38.486  1.00  0.00     0.135 A 
ATOM     99  F   UNL A   1      41.269  35.444  36.604  1.00  0.00    -0.206 F 
ATOM    100  C   UNL A   1      40.170  35.825  38.644  1.00  0.00     0.059 A 
ATOM    101  C   UNL A   1      38.709  34.119  39.568  1.00  0.00     0.059 A 
ATOM    102  F   UNL A   1      38.428  32.090  38.428  1.00  0.00    -0.206 F 
ATOM    103  C   UNL A   1      39.294  35.382  39.637  1.00  0.00     0.060 A 
BRANCH 103 104
ATOM    104  S   UNL A   1      38.880  36.503  40.992  1.00  0.00     0.124 S 
ATOM    105  O   UNL A   1      40.145  36.570  41.716  1.00  0.00    -0.237 OA
ATOM    106  O   UNL A   1      38.489  37.718  40.284  1.00  0.00    -0.237 OA
ATOM    107  O   UNL A   1      37.795  35.813  41.684  1.00  0.00    -0.744 OA
ENDBRANCH 103 104
ENDBRANCH  71  96
ENDBRANCH  45  46
ENDBRANCH  37  40
ENDBRANCH  35  36
ENDBRANCH  34  35
ENDBRANCH  33  34
ENDBRANCH   1  33
TORSDOF 19
ENDMDL
