MODEL 1
REMARK VINA RESULT:     -10.9      0.000      0.000
REMARK SMILES C[C@@H](C(=O)NCCCCCCNC(=O)c1ccc(-c2c3nc(c(-c4c(F)cc(S(=O)(=O)[O-])cc4F)c4ccc([nH]4)c(-c4c(F)cc(S(=O)(=O)[O-])cc4F)c4nc(c(-c5c(F)cc(S(=O)(=O)[O-])cc5F)c5ccc2[nH]5)C=C4)C=C3)cc1)c1ccc(Cc2ccsc2)cc1F
REMARK SMILES IDX 8 1 7 2 6 3 5 4 3 5 4 6 2 8 1 9 81 10 82 11 92 12 83 13
REMARK SMILES IDX 91 14 93 15 84 16 85 17 86 18 87 19 90 20 88 21 89 22 9 23
REMARK SMILES IDX 10 24 11 25 12 26 13 27 14 29 15 30 16 31 80 32 17 33 79 34
REMARK SMILES IDX 18 35 19 36 20 37 73 38 21 39 78 40 72 41 74 42 22 43 77 44
REMARK SMILES IDX 71 45 70 46 23 48 57 49 36 50 56 51 37 52 40 53 55 54 75 55
REMARK SMILES IDX 38 56 39 57 54 59 76 60 41 61 24 62 25 63 34 64 26 65 27 66
REMARK SMILES IDX 33 67 35 68 28 69 29 70 30 71 31 72 32 73 58 74 59 75 68 76
REMARK SMILES IDX 60 77 61 78 67 79 69 80 62 81 63 82 64 83 65 84 66 85 42 86
REMARK SMILES IDX 43 87 52 88 44 89 45 90 51 91 53 92 46 93 47 94 48 95 49 96
REMARK SMILES IDX 50 97
REMARK H PARENT 5 7 12 28 74 47 40 58
REMARK Flexibility Score: inf
ROOT
ATOM      1  C   UNL A   1      36.048  30.890  27.561  1.00  0.00     0.002 C 
ENDROOT
BRANCH   1   2
ATOM      2  C   UNL A   1      34.993  29.846  27.949  1.00  0.00     0.021 C 
BRANCH   2   3
ATOM      3  C   UNL A   1      33.618  30.063  27.305  1.00  0.00     0.116 C 
BRANCH   3   4
ATOM      4  N   UNL A   1      32.744  28.941  27.593  1.00  0.00    -0.356 N 
ATOM      5  C   UNL A   1      31.944  28.216  26.757  1.00  0.00     0.227 C 
ATOM      6  O   UNL A   1      31.078  27.517  27.291  1.00  0.00    -0.274 OA
ATOM      7  H   UNL A   1      32.726  28.658  28.536  1.00  0.00     0.163 HD
BRANCH   5   8
ATOM      8  C   UNL A   1      32.168  28.266  25.229  1.00  0.00     0.108 C 
ATOM      9  C   UNL A   1      30.903  28.843  24.582  1.00  0.00     0.023 C 
BRANCH   8  10
ATOM     10  C   UNL A   1      32.619  26.917  24.653  1.00  0.00    -0.000 A 
ATOM     11  C   UNL A   1      31.857  26.296  23.646  1.00  0.00     0.008 A 
ATOM     12  C   UNL A   1      33.764  26.231  25.081  1.00  0.00     0.127 A 
ATOM     13  C   UNL A   1      32.290  25.123  23.018  1.00  0.00     0.004 A 
ATOM     14  C   UNL A   1      34.187  25.043  24.479  1.00  0.00     0.043 A 
ATOM     15  F   UNL A   1      34.519  26.701  26.083  1.00  0.00    -0.207 F 
ATOM     16  C   UNL A   1      33.474  24.489  23.412  1.00  0.00    -0.041 A 
BRANCH  16  17
ATOM     17  C   UNL A   1      34.008  23.292  22.666  1.00  0.00     0.072 C 
BRANCH  17  18
ATOM     18  C   UNL A   1      35.043  22.636  23.530  1.00  0.00    -0.033 A 
ATOM     19  C   UNL A   1      36.459  22.874  23.447  1.00  0.00     0.015 A 
ATOM     20  C   UNL A   1      34.764  21.766  24.571  1.00  0.00     0.068 A 
ATOM     21  C   UNL A   1      37.178  22.170  24.386  1.00  0.00     0.065 A 
ATOM     22  S   UNL A   1      36.165  21.240  25.398  1.00  0.00    -0.152 S 
ENDBRANCH  17  18
ENDBRANCH  16  17
ENDBRANCH   8  10
ENDBRANCH   5   8
ENDBRANCH   3   4
ENDBRANCH   2   3
ENDBRANCH   1   2
BRANCH   1  23
ATOM     23  C   UNL A   1      35.776  32.310  28.064  1.00  0.00     0.002 C 
BRANCH  23  24
ATOM     24  C   UNL A   1      35.329  32.410  29.525  1.00  0.00     0.021 C 
BRANCH  24  25
ATOM     25  C   UNL A   1      36.461  32.468  30.550  1.00  0.00     0.116 C 
BRANCH  25  26
ATOM     26  N   UNL A   1      36.282  31.508  31.625  1.00  0.00    -0.352 N 
ATOM     27  C   UNL A   1      37.024  30.399  31.941  1.00  0.00     0.251 C 
ATOM     28  H   UNL A   1      35.512  31.678  32.214  1.00  0.00     0.163 HD
ATOM     29  O   UNL A   1      36.599  29.611  32.790  1.00  0.00    -0.269 OA
BRANCH  27  30
ATOM     30  C   UNL A   1      38.312  30.129  31.266  1.00  0.00     0.039 A 
ATOM     31  C   UNL A   1      39.394  29.698  32.041  1.00  0.00     0.014 A 
ATOM     32  C   UNL A   1      38.477  30.332  29.892  1.00  0.00     0.014 A 
ATOM     33  C   UNL A   1      40.620  29.421  31.432  1.00  0.00     0.010 A 
ATOM     34  C   UNL A   1      39.686  30.001  29.277  1.00  0.00     0.010 A 
ATOM     35  C   UNL A   1      40.769  29.545  30.040  1.00  0.00    -0.014 A 
BRANCH  35  36
ATOM     36  C   UNL A   1      42.055  29.185  29.386  1.00  0.00     0.031 A 
ATOM     37  C   UNL A   1      43.145  30.208  29.220  1.00  0.00     0.074 A 
ATOM     38  C   UNL A   1      42.227  27.934  28.916  1.00  0.00     0.049 A 
ATOM     39  N   UNL A   1      44.326  30.072  28.672  1.00  0.00    -0.248 NA
ATOM     40  C   UNL A   1      42.867  31.566  29.712  1.00  0.00     0.031 C 
ATOM     41  C   UNL A   1      41.222  26.867  28.961  1.00  0.00     0.029 A 
ATOM     42  N   UNL A   1      43.305  27.345  28.304  1.00  0.00    -0.354 N 
ATOM     43  C   UNL A   1      44.933  31.320  28.758  1.00  0.00     0.074 A 
ATOM     44  C   UNL A   1      43.968  32.215  29.360  1.00  0.00     0.031 C 
ATOM     45  C   UNL A   1      41.739  25.753  28.419  1.00  0.00     0.029 A 
ATOM     46  C   UNL A   1      43.099  26.027  27.968  1.00  0.00     0.049 A 
ATOM     47  H   UNL A   1      44.148  27.821  28.124  1.00  0.00     0.167 HD
ATOM     48  C   UNL A   1      46.188  31.680  28.395  1.00  0.00     0.037 A 
ATOM     49  C   UNL A   1      43.914  25.140  27.366  1.00  0.00     0.037 A 
ATOM     50  C   UNL A   1      47.152  30.785  27.809  1.00  0.00     0.049 A 
ATOM     51  C   UNL A   1      45.310  25.559  26.995  1.00  0.00     0.074 A 
ATOM     52  C   UNL A   1      48.458  31.049  27.435  1.00  0.00     0.029 A 
ATOM     53  N   UNL A   1      46.918  29.449  27.517  1.00  0.00    -0.354 N 
ATOM     54  N   UNL A   1      45.882  26.731  27.135  1.00  0.00    -0.248 NA
ATOM     55  C   UNL A   1      46.176  24.531  26.403  1.00  0.00     0.031 C 
ATOM     56  C   UNL A   1      49.006  29.880  26.893  1.00  0.00     0.029 A 
ATOM     57  C   UNL A   1      48.052  28.878  26.964  1.00  0.00     0.049 A 
ATOM     58  H   UNL A   1      46.070  28.976  27.681  1.00  0.00     0.167 HD
ATOM     59  C   UNL A   1      47.179  26.577  26.658  1.00  0.00     0.074 A 
ATOM     60  C   UNL A   1      47.314  25.194  26.251  1.00  0.00     0.031 C 
ATOM     61  C   UNL A   1      48.169  27.500  26.561  1.00  0.00     0.037 A 
BRANCH  48  62
ATOM     62  C   UNL A   1      46.602  33.105  28.643  1.00  0.00     0.058 A 
ATOM     63  C   UNL A   1      47.223  33.483  29.844  1.00  0.00     0.135 A 
ATOM     64  C   UNL A   1      46.424  34.090  27.659  1.00  0.00     0.135 A 
ATOM     65  F   UNL A   1      47.403  32.585  30.825  1.00  0.00    -0.206 F 
ATOM     66  C   UNL A   1      47.636  34.792  30.069  1.00  0.00     0.059 A 
ATOM     67  C   UNL A   1      46.850  35.401  27.853  1.00  0.00     0.059 A 
ATOM     68  F   UNL A   1      45.834  33.782  26.493  1.00  0.00    -0.206 F 
ATOM     69  C   UNL A   1      47.446  35.745  29.067  1.00  0.00     0.060 A 
BRANCH  69  70
ATOM     70  S   UNL A   1      48.004  37.435  29.367  1.00  0.00     0.124 S 
ATOM     71  O   UNL A   1      49.083  37.219  30.328  1.00  0.00    -0.237 OA
ATOM     72  O   UNL A   1      48.418  37.870  28.038  1.00  0.00    -0.237 OA
ATOM     73  O   UNL A   1      46.816  38.097  29.897  1.00  0.00    -0.744 OA
ENDBRANCH  69  70
ENDBRANCH  48  62
BRANCH  49  74
ATOM     74  C   UNL A   1      43.435  23.760  27.091  1.00  0.00     0.058 A 
ATOM     75  C   UNL A   1      43.132  23.346  25.786  1.00  0.00     0.135 A 
ATOM     76  C   UNL A   1      43.271  22.831  28.129  1.00  0.00     0.135 A 
ATOM     77  F   UNL A   1      43.269  24.201  24.761  1.00  0.00    -0.206 F 
ATOM     78  C   UNL A   1      42.659  22.064  25.520  1.00  0.00     0.059 A 
ATOM     79  C   UNL A   1      42.823  21.536  27.886  1.00  0.00     0.059 A 
ATOM     80  F   UNL A   1      43.568  23.173  29.392  1.00  0.00    -0.206 F 
ATOM     81  C   UNL A   1      42.505  21.167  26.579  1.00  0.00     0.060 A 
BRANCH  81  82
ATOM     82  S   UNL A   1      41.927  19.493  26.226  1.00  0.00     0.124 S 
ATOM     83  O   UNL A   1      42.355  18.778  27.423  1.00  0.00    -0.237 OA
ATOM     84  O   UNL A   1      40.488  19.686  26.078  1.00  0.00    -0.237 OA
ATOM     85  O   UNL A   1      42.635  19.149  24.996  1.00  0.00    -0.744 OA
ENDBRANCH  81  82
ENDBRANCH  49  74
BRANCH  61  86
ATOM     86  C   UNL A   1      49.485  27.032  26.007  1.00  0.00     0.058 A 
ATOM     87  C   UNL A   1      50.460  26.448  26.830  1.00  0.00     0.135 A 
ATOM     88  C   UNL A   1      49.767  27.155  24.638  1.00  0.00     0.135 A 
ATOM     89  F   UNL A   1      50.240  26.313  28.148  1.00  0.00    -0.206 F 
ATOM     90  C   UNL A   1      51.686  26.033  26.320  1.00  0.00     0.059 A 
ATOM     91  C   UNL A   1      50.977  26.724  24.102  1.00  0.00     0.059 A 
ATOM     92  F   UNL A   1      48.864  27.696  23.806  1.00  0.00    -0.206 F 
ATOM     93  C   UNL A   1      51.938  26.181  24.956  1.00  0.00     0.060 A 
BRANCH  93  94
ATOM     94  S   UNL A   1      53.530  25.637  24.302  1.00  0.00     0.124 S 
ATOM     95  O   UNL A   1      54.457  26.487  25.042  1.00  0.00    -0.237 OA
ATOM     96  O   UNL A   1      53.549  24.221  24.656  1.00  0.00    -0.237 OA
ATOM     97  O   UNL A   1      53.423  25.917  22.873  1.00  0.00    -0.744 OA
ENDBRANCH  93  94
ENDBRANCH  61  86
ENDBRANCH  35  36
ENDBRANCH  27  30
ENDBRANCH  25  26
ENDBRANCH  24  25
ENDBRANCH  23  24
ENDBRANCH   1  23
TORSDOF 19
ENDMDL
MODEL 2
REMARK VINA RESULT:     -10.6      2.968      9.095
REMARK SMILES C[C@@H](C(=O)NCCCCCCNC(=O)c1ccc(-c2c3nc(c(-c4c(F)cc(S(=O)(=O)[O-])cc4F)c4ccc([nH]4)c(-c4c(F)cc(S(=O)(=O)[O-])cc4F)c4nc(c(-c5c(F)cc(S(=O)(=O)[O-])cc5F)c5ccc2[nH]5)C=C4)C=C3)cc1)c1ccc(Cc2ccsc2)cc1F
REMARK SMILES IDX 8 1 7 2 6 3 5 4 3 5 4 6 2 8 1 9 81 10 82 11 92 12 83 13
REMARK SMILES IDX 91 14 93 15 84 16 85 17 86 18 87 19 90 20 88 21 89 22 9 23
REMARK SMILES IDX 10 24 11 25 12 26 13 27 14 29 15 30 16 31 80 32 17 33 79 34
REMARK SMILES IDX 18 35 19 36 20 37 73 38 21 39 78 40 72 41 74 42 22 43 77 44
REMARK SMILES IDX 71 45 70 46 23 48 57 49 36 50 56 51 37 52 40 53 55 54 75 55
REMARK SMILES IDX 38 56 39 57 54 59 76 60 41 61 24 62 25 63 34 64 26 65 27 66
REMARK SMILES IDX 33 67 35 68 28 69 29 70 30 71 31 72 32 73 58 74 59 75 68 76
REMARK SMILES IDX 60 77 61 78 67 79 69 80 62 81 63 82 64 83 65 84 66 85 42 86
REMARK SMILES IDX 43 87 52 88 44 89 45 90 51 91 53 92 46 93 47 94 48 95 49 96
REMARK SMILES IDX 50 97
REMARK H PARENT 5 7 12 28 74 47 40 58
REMARK Flexibility Score: inf
ROOT
ATOM      1  C   UNL A   1      40.679  21.996  25.900  1.00  0.00     0.002 C 
ENDROOT
BRANCH   1   2
ATOM      2  C   UNL A   1      40.310  23.229  26.736  1.00  0.00     0.021 C 
BRANCH   2   3
ATOM      3  C   UNL A   1      38.804  23.428  26.943  1.00  0.00     0.116 C 
BRANCH   3   4
ATOM      4  N   UNL A   1      38.158  23.734  25.681  1.00  0.00    -0.356 N 
ATOM      5  C   UNL A   1      37.216  23.032  24.985  1.00  0.00     0.227 C 
ATOM      6  O   UNL A   1      37.052  23.350  23.804  1.00  0.00    -0.274 OA
ATOM      7  H   UNL A   1      38.442  24.578  25.261  1.00  0.00     0.163 HD
BRANCH   5   8
ATOM      8  C   UNL A   1      36.391  21.931  25.688  1.00  0.00     0.108 C 
ATOM      9  C   UNL A   1      36.604  20.618  24.924  1.00  0.00     0.023 C 
BRANCH   8  10
ATOM     10  C   UNL A   1      34.919  22.324  25.879  1.00  0.00    -0.000 A 
ATOM     11  C   UNL A   1      34.437  22.622  27.167  1.00  0.00     0.008 A 
ATOM     12  C   UNL A   1      33.991  22.397  24.832  1.00  0.00     0.127 A 
ATOM     13  C   UNL A   1      33.133  23.089  27.370  1.00  0.00     0.004 A 
ATOM     14  C   UNL A   1      32.678  22.834  25.032  1.00  0.00     0.043 A 
ATOM     15  F   UNL A   1      34.331  22.065  23.579  1.00  0.00    -0.207 F 
ATOM     16  C   UNL A   1      32.240  23.222  26.301  1.00  0.00    -0.041 A 
BRANCH  16  17
ATOM     17  C   UNL A   1      30.874  23.833  26.492  1.00  0.00     0.072 C 
BRANCH  17  18
ATOM     18  C   UNL A   1      30.903  25.215  25.910  1.00  0.00    -0.033 A 
ATOM     19  C   UNL A   1      31.630  26.327  26.460  1.00  0.00     0.015 A 
ATOM     20  C   UNL A   1      30.288  25.584  24.725  1.00  0.00     0.068 A 
ATOM     21  C   UNL A   1      31.516  27.471  25.704  1.00  0.00     0.065 A 
ATOM     22  S   UNL A   1      30.563  27.220  24.310  1.00  0.00    -0.152 S 
ENDBRANCH  17  18
ENDBRANCH  16  17
ENDBRANCH   8  10
ENDBRANCH   5   8
ENDBRANCH   3   4
ENDBRANCH   2   3
ENDBRANCH   1   2
BRANCH   1  23
ATOM     23  C   UNL A   1      39.976  20.699  26.306  1.00  0.00     0.002 C 
BRANCH  23  24
ATOM     24  C   UNL A   1      40.829  19.432  26.195  1.00  0.00     0.021 C 
BRANCH  24  25
ATOM     25  C   UNL A   1      42.321  19.627  26.461  1.00  0.00     0.116 C 
BRANCH  25  26
ATOM     26  N   UNL A   1      43.140  19.224  25.332  1.00  0.00    -0.352 N 
ATOM     27  C   UNL A   1      44.029  19.958  24.589  1.00  0.00     0.251 C 
ATOM     28  H   UNL A   1      43.042  18.284  25.057  1.00  0.00     0.163 HD
ATOM     29  O   UNL A   1      44.493  19.475  23.554  1.00  0.00    -0.269 OA
BRANCH  27  30
ATOM     30  C   UNL A   1      44.420  21.323  25.004  1.00  0.00     0.039 A 
ATOM     31  C   UNL A   1      43.971  22.407  24.243  1.00  0.00     0.014 A 
ATOM     32  C   UNL A   1      45.252  21.544  26.107  1.00  0.00     0.014 A 
ATOM     33  C   UNL A   1      44.312  23.709  24.617  1.00  0.00     0.010 A 
ATOM     34  C   UNL A   1      45.545  22.849  26.512  1.00  0.00     0.010 A 
ATOM     35  C   UNL A   1      45.080  23.943  25.769  1.00  0.00    -0.014 A 
BRANCH  35  36
ATOM     36  C   UNL A   1      45.383  25.332  26.203  1.00  0.00     0.031 A 
ATOM     37  C   UNL A   1      46.774  25.891  26.072  1.00  0.00     0.074 A 
ATOM     38  C   UNL A   1      44.403  26.082  26.744  1.00  0.00     0.049 A 
ATOM     39  N   UNL A   1      47.220  27.077  26.401  1.00  0.00    -0.248 NA
ATOM     40  C   UNL A   1      47.803  24.996  25.519  1.00  0.00     0.031 C 
ATOM     41  C   UNL A   1      43.028  25.634  26.982  1.00  0.00     0.029 A 
ATOM     42  N   UNL A   1      44.411  27.379  27.195  1.00  0.00    -0.354 N 
ATOM     43  C   UNL A   1      48.575  27.075  26.091  1.00  0.00     0.074 A 
ATOM     44  C   UNL A   1      48.891  25.749  25.600  1.00  0.00     0.031 C 
ATOM     45  C   UNL A   1      42.323  26.644  27.517  1.00  0.00     0.029 A 
ATOM     46  C   UNL A   1      43.196  27.802  27.681  1.00  0.00     0.049 A 
ATOM     47  H   UNL A   1      45.211  27.952  27.172  1.00  0.00     0.167 HD
ATOM     48  C   UNL A   1      49.468  28.090  26.181  1.00  0.00     0.037 A 
ATOM     49  C   UNL A   1      42.825  28.989  28.198  1.00  0.00     0.037 A 
ATOM     50  C   UNL A   1      49.149  29.412  26.655  1.00  0.00     0.049 A 
ATOM     51  C   UNL A   1      43.829  30.106  28.264  1.00  0.00     0.074 A 
ATOM     52  C   UNL A   1      49.978  30.515  26.755  1.00  0.00     0.029 A 
ATOM     53  N   UNL A   1      47.899  29.812  27.105  1.00  0.00    -0.354 N 
ATOM     54  N   UNL A   1      45.094  30.099  27.916  1.00  0.00    -0.248 NA
ATOM     55  C   UNL A   1      43.353  31.398  28.776  1.00  0.00     0.031 C 
ATOM     56  C   UNL A   1      49.236  31.576  27.289  1.00  0.00     0.029 A 
ATOM     57  C   UNL A   1      47.936  31.143  27.487  1.00  0.00     0.049 A 
ATOM     58  H   UNL A   1      47.102  29.234  27.145  1.00  0.00     0.167 HD
ATOM     59  C   UNL A   1      45.560  31.387  28.155  1.00  0.00     0.074 A 
ATOM     60  C   UNL A   1      44.436  32.152  28.653  1.00  0.00     0.031 C 
ATOM     61  C   UNL A   1      46.808  31.889  27.984  1.00  0.00     0.037 A 
BRANCH  48  62
ATOM     62  C   UNL A   1      50.878  27.818  25.733  1.00  0.00     0.058 A 
ATOM     63  C   UNL A   1      51.884  27.488  26.655  1.00  0.00     0.135 A 
ATOM     64  C   UNL A   1      51.218  27.836  24.371  1.00  0.00     0.135 A 
ATOM     65  F   UNL A   1      51.617  27.472  27.970  1.00  0.00    -0.206 F 
ATOM     66  C   UNL A   1      53.183  27.206  26.246  1.00  0.00     0.059 A 
ATOM     67  C   UNL A   1      52.507  27.534  23.937  1.00  0.00     0.059 A 
ATOM     68  F   UNL A   1      50.295  28.146  23.448  1.00  0.00    -0.206 F 
ATOM     69  C   UNL A   1      53.485  27.231  24.883  1.00  0.00     0.060 A 
BRANCH  69  70
ATOM     70  S   UNL A   1      55.171  26.843  24.367  1.00  0.00     0.124 S 
ATOM     71  O   UNL A   1      55.937  27.849  25.098  1.00  0.00    -0.237 OA
ATOM     72  O   UNL A   1      55.332  25.469  24.826  1.00  0.00    -0.237 OA
ATOM     73  O   UNL A   1      55.131  27.016  22.918  1.00  0.00    -0.744 OA
ENDBRANCH  69  70
ENDBRANCH  48  62
BRANCH  49  74
ATOM     74  C   UNL A   1      41.434  29.187  28.680  1.00  0.00     0.058 A 
ATOM     75  C   UNL A   1      41.141  29.228  30.051  1.00  0.00     0.135 A 
ATOM     76  C   UNL A   1      40.370  29.338  27.778  1.00  0.00     0.135 A 
ATOM     77  F   UNL A   1      42.126  29.084  30.952  1.00  0.00    -0.206 F 
ATOM     78  C   UNL A   1      39.839  29.388  30.514  1.00  0.00     0.059 A 
ATOM     79  C   UNL A   1      39.062  29.524  28.216  1.00  0.00     0.059 A 
ATOM     80  F   UNL A   1      40.601  29.327  26.457  1.00  0.00    -0.206 F 
ATOM     81  C   UNL A   1      38.805  29.532  29.586  1.00  0.00     0.060 A 
BRANCH  81  82
ATOM     82  S   UNL A   1      37.121  29.776  30.190  1.00  0.00     0.124 S 
ATOM     83  O   UNL A   1      37.088  28.875  31.336  1.00  0.00    -0.237 OA
ATOM     84  O   UNL A   1      37.104  31.203  30.498  1.00  0.00    -0.237 OA
ATOM     85  O   UNL A   1      36.298  29.380  29.050  1.00  0.00    -0.744 OA
ENDBRANCH  81  82
ENDBRANCH  49  74
BRANCH  61  86
ATOM     86  C   UNL A   1      47.012  33.339  28.323  1.00  0.00     0.058 A 
ATOM     87  C   UNL A   1      47.396  33.744  29.610  1.00  0.00     0.135 A 
ATOM     88  C   UNL A   1      46.836  34.332  27.346  1.00  0.00     0.135 A 
ATOM     89  F   UNL A   1      47.572  32.832  30.581  1.00  0.00    -0.206 F 
ATOM     90  C   UNL A   1      47.565  35.087  29.929  1.00  0.00     0.059 A 
ATOM     91  C   UNL A   1      47.023  35.680  27.636  1.00  0.00     0.059 A 
ATOM     92  F   UNL A   1      46.480  33.997  26.097  1.00  0.00    -0.206 F 
ATOM     93  C   UNL A   1      47.370  36.048  28.936  1.00  0.00     0.060 A 
BRANCH  93  94
ATOM     94  S   UNL A   1      47.595  37.790  29.357  1.00  0.00     0.124 S 
ATOM     95  O   UNL A   1      46.309  38.355  28.962  1.00  0.00    -0.237 OA
ATOM     96  O   UNL A   1      47.849  37.737  30.794  1.00  0.00    -0.237 OA
ATOM     97  O   UNL A   1      48.736  38.190  28.540  1.00  0.00    -0.744 OA
ENDBRANCH  93  94
ENDBRANCH  61  86
ENDBRANCH  35  36
ENDBRANCH  27  30
ENDBRANCH  25  26
ENDBRANCH  24  25
ENDBRANCH  23  24
ENDBRANCH   1  23
TORSDOF 19
ENDMDL
MODEL 3
REMARK VINA RESULT:     -10.2      3.745     10.512
REMARK SMILES C[C@@H](C(=O)NCCCCCCNC(=O)c1ccc(-c2c3nc(c(-c4c(F)cc(S(=O)(=O)[O-])cc4F)c4ccc([nH]4)c(-c4c(F)cc(S(=O)(=O)[O-])cc4F)c4nc(c(-c5c(F)cc(S(=O)(=O)[O-])cc5F)c5ccc2[nH]5)C=C4)C=C3)cc1)c1ccc(Cc2ccsc2)cc1F
REMARK SMILES IDX 8 1 7 2 6 3 5 4 3 5 4 6 2 8 1 9 81 10 82 11 92 12 83 13
REMARK SMILES IDX 91 14 93 15 84 16 85 17 86 18 87 19 90 20 88 21 89 22 9 23
REMARK SMILES IDX 10 24 11 25 12 26 13 27 14 29 15 30 16 31 80 32 17 33 79 34
REMARK SMILES IDX 18 35 19 36 20 37 73 38 21 39 78 40 72 41 74 42 22 43 77 44
REMARK SMILES IDX 71 45 70 46 23 48 57 49 36 50 56 51 37 52 40 53 55 54 75 55
REMARK SMILES IDX 38 56 39 57 54 59 76 60 41 61 24 62 25 63 34 64 26 65 27 66
REMARK SMILES IDX 33 67 35 68 28 69 29 70 30 71 31 72 32 73 58 74 59 75 68 76
REMARK SMILES IDX 60 77 61 78 67 79 69 80 62 81 63 82 64 83 65 84 66 85 42 86
REMARK SMILES IDX 43 87 52 88 44 89 45 90 51 91 53 92 46 93 47 94 48 95 49 96
REMARK SMILES IDX 50 97
REMARK H PARENT 5 7 12 28 74 47 40 58
REMARK Flexibility Score: inf
ROOT
ATOM      1  C   UNL A   1      35.824  33.126  32.045  1.00  0.00     0.002 C 
ENDROOT
BRANCH   1   2
ATOM      2  C   UNL A   1      37.287  33.152  31.584  1.00  0.00     0.021 C 
BRANCH   2   3
ATOM      3  C   UNL A   1      38.215  32.209  32.359  1.00  0.00     0.116 C 
BRANCH   3   4
ATOM      4  N   UNL A   1      37.726  32.021  33.712  1.00  0.00    -0.356 N 
ATOM      5  C   UNL A   1      38.404  31.703  34.854  1.00  0.00     0.227 C 
ATOM      6  O   UNL A   1      37.725  31.306  35.806  1.00  0.00    -0.274 OA
ATOM      7  H   UNL A   1      36.755  32.142  33.825  1.00  0.00     0.163 HD
BRANCH   5   8
ATOM      8  C   UNL A   1      39.936  31.882  34.923  1.00  0.00     0.108 C 
ATOM      9  C   UNL A   1      40.318  33.064  34.023  1.00  0.00     0.023 C 
BRANCH   8  10
ATOM     10  C   UNL A   1      40.699  30.583  34.624  1.00  0.00    -0.000 A 
ATOM     11  C   UNL A   1      40.435  29.875  33.437  1.00  0.00     0.008 A 
ATOM     12  C   UNL A   1      41.657  30.030  35.482  1.00  0.00     0.127 A 
ATOM     13  C   UNL A   1      41.183  28.749  33.076  1.00  0.00     0.004 A 
ATOM     14  C   UNL A   1      42.388  28.887  35.142  1.00  0.00     0.043 A 
ATOM     15  F   UNL A   1      41.931  30.588  36.669  1.00  0.00    -0.207 F 
ATOM     16  C   UNL A   1      42.186  28.250  33.914  1.00  0.00    -0.041 A 
BRANCH  16  17
ATOM     17  C   UNL A   1      43.074  27.109  33.483  1.00  0.00     0.072 C 
BRANCH  17  18
ATOM     18  C   UNL A   1      43.288  26.218  34.670  1.00  0.00    -0.033 A 
ATOM     19  C   UNL A   1      42.277  25.396  35.277  1.00  0.00     0.015 A 
ATOM     20  C   UNL A   1      44.508  26.018  35.294  1.00  0.00     0.068 A 
ATOM     21  C   UNL A   1      42.754  24.646  36.328  1.00  0.00     0.065 A 
ATOM     22  S   UNL A   1      44.424  24.894  36.581  1.00  0.00    -0.152 S 
ENDBRANCH  17  18
ENDBRANCH  16  17
ENDBRANCH   8  10
ENDBRANCH   5   8
ENDBRANCH   3   4
ENDBRANCH   2   3
ENDBRANCH   1   2
BRANCH   1  23
ATOM     23  C   UNL A   1      34.853  32.419  31.096  1.00  0.00     0.002 C 
BRANCH  23  24
ATOM     24  C   UNL A   1      34.471  33.213  29.843  1.00  0.00     0.021 C 
BRANCH  24  25
ATOM     25  C   UNL A   1      34.922  32.597  28.520  1.00  0.00     0.116 C 
BRANCH  25  26
ATOM     26  N   UNL A   1      34.185  31.389  28.194  1.00  0.00    -0.352 N 
ATOM     27  C   UNL A   1      34.643  30.114  27.980  1.00  0.00     0.251 C 
ATOM     28  H   UNL A   1      33.210  31.502  28.113  1.00  0.00     0.163 HD
ATOM     29  O   UNL A   1      33.870  29.262  27.538  1.00  0.00    -0.269 OA
BRANCH  27  30
ATOM     30  C   UNL A   1      36.052  29.757  28.257  1.00  0.00     0.039 A 
ATOM     31  C   UNL A   1      36.976  29.828  27.210  1.00  0.00     0.014 A 
ATOM     32  C   UNL A   1      36.463  29.320  29.520  1.00  0.00     0.014 A 
ATOM     33  C   UNL A   1      38.317  29.511  27.442  1.00  0.00     0.010 A 
ATOM     34  C   UNL A   1      37.813  29.058  29.764  1.00  0.00     0.010 A 
ATOM     35  C   UNL A   1      38.752  29.148  28.727  1.00  0.00    -0.014 A 
BRANCH  35  36
ATOM     36  C   UNL A   1      40.191  28.878  28.987  1.00  0.00     0.031 A 
ATOM     37  C   UNL A   1      40.793  27.541  28.651  1.00  0.00     0.074 A 
ATOM     38  C   UNL A   1      40.950  29.837  29.553  1.00  0.00     0.049 A 
ATOM     39  N   UNL A   1      42.025  27.129  28.812  1.00  0.00    -0.248 NA
ATOM     40  C   UNL A   1      39.892  26.527  28.083  1.00  0.00     0.031 C 
ATOM     41  C   UNL A   1      40.469  31.154  29.980  1.00  0.00     0.029 A 
ATOM     42  N   UNL A   1      42.285  29.854  29.870  1.00  0.00    -0.354 N 
ATOM     43  C   UNL A   1      42.050  25.814  28.360  1.00  0.00     0.074 A 
ATOM     44  C   UNL A   1      40.696  25.479  27.971  1.00  0.00     0.031 C 
ATOM     45  C   UNL A   1      41.497  31.855  30.486  1.00  0.00     0.029 A 
ATOM     46  C   UNL A   1      42.703  31.034  30.440  1.00  0.00     0.049 A 
ATOM     47  H   UNL A   1      42.887  29.093  29.705  1.00  0.00     0.167 HD
ATOM     48  C   UNL A   1      43.107  24.974  28.253  1.00  0.00     0.037 A 
ATOM     49  C   UNL A   1      43.919  31.413  30.874  1.00  0.00     0.037 A 
ATOM     50  C   UNL A   1      44.456  25.314  28.625  1.00  0.00     0.049 A 
ATOM     51  C   UNL A   1      45.081  30.470  30.721  1.00  0.00     0.074 A 
ATOM     52  C   UNL A   1      45.599  24.540  28.526  1.00  0.00     0.029 A 
ATOM     53  N   UNL A   1      44.846  26.531  29.165  1.00  0.00    -0.354 N 
ATOM     54  N   UNL A   1      45.092  29.249  30.241  1.00  0.00    -0.248 NA
ATOM     55  C   UNL A   1      46.397  30.962  31.151  1.00  0.00     0.031 C 
ATOM     56  C   UNL A   1      46.677  25.280  29.029  1.00  0.00     0.029 A 
ATOM     57  C   UNL A   1      46.210  26.528  29.408  1.00  0.00     0.049 A 
ATOM     58  H   UNL A   1      44.241  27.287  29.347  1.00  0.00     0.167 HD
ATOM     59  C   UNL A   1      46.418  28.832  30.300  1.00  0.00     0.074 A 
ATOM     60  C   UNL A   1      47.181  29.939  30.838  1.00  0.00     0.031 C 
ATOM     61  C   UNL A   1      46.954  27.637  29.947  1.00  0.00     0.037 A 
BRANCH  48  62
ATOM     62  C   UNL A   1      42.852  23.604  27.684  1.00  0.00     0.058 A 
ATOM     63  C   UNL A   1      42.975  23.353  26.308  1.00  0.00     0.135 A 
ATOM     64  C   UNL A   1      42.533  22.524  28.522  1.00  0.00     0.135 A 
ATOM     65  F   UNL A   1      43.263  24.353  25.461  1.00  0.00    -0.206 F 
ATOM     66  C   UNL A   1      42.770  22.084  25.779  1.00  0.00     0.059 A 
ATOM     67  C   UNL A   1      42.346  21.240  28.017  1.00  0.00     0.059 A 
ATOM     68  F   UNL A   1      42.402  22.709  29.844  1.00  0.00    -0.206 F 
ATOM     69  C   UNL A   1      42.457  21.031  26.642  1.00  0.00     0.060 A 
BRANCH  69  70
ATOM     70  S   UNL A   1      42.213  19.386  25.941  1.00  0.00     0.124 S 
ATOM     71  O   UNL A   1      42.705  18.535  27.021  1.00  0.00    -0.237 OA
ATOM     72  O   UNL A   1      40.772  19.352  25.716  1.00  0.00    -0.237 OA
ATOM     73  O   UNL A   1      43.032  19.405  24.734  1.00  0.00    -0.744 OA
ENDBRANCH  69  70
ENDBRANCH  48  62
BRANCH  49  74
ATOM     74  C   UNL A   1      44.106  32.757  31.482  1.00  0.00     0.058 A 
ATOM     75  C   UNL A   1      44.467  33.862  30.698  1.00  0.00     0.135 A 
ATOM     76  C   UNL A   1      43.929  32.959  32.859  1.00  0.00     0.135 A 
ATOM     77  F   UNL A   1      44.651  33.717  29.377  1.00  0.00    -0.206 F 
ATOM     78  C   UNL A   1      44.668  35.119  31.260  1.00  0.00     0.059 A 
ATOM     79  C   UNL A   1      44.101  34.211  33.441  1.00  0.00     0.059 A 
ATOM     80  F   UNL A   1      43.564  31.937  33.648  1.00  0.00    -0.206 F 
ATOM     81  C   UNL A   1      44.486  35.282  32.635  1.00  0.00     0.060 A 
BRANCH  81  82
ATOM     82  S   UNL A   1      44.713  36.922  33.356  1.00  0.00     0.124 S 
ATOM     83  O   UNL A   1      45.170  37.688  32.201  1.00  0.00    -0.237 OA
ATOM     84  O   UNL A   1      43.374  37.236  33.842  1.00  0.00    -0.237 OA
ATOM     85  O   UNL A   1      45.711  36.692  34.397  1.00  0.00    -0.744 OA
ENDBRANCH  81  82
ENDBRANCH  49  74
BRANCH  61  86
ATOM     86  C   UNL A   1      48.438  27.480  30.117  1.00  0.00     0.058 A 
ATOM     87  C   UNL A   1      49.331  27.770  29.074  1.00  0.00     0.135 A 
ATOM     88  C   UNL A   1      48.974  27.049  31.341  1.00  0.00     0.135 A 
ATOM     89  F   UNL A   1      48.867  28.180  27.883  1.00  0.00    -0.206 F 
ATOM     90  C   UNL A   1      50.704  27.604  29.226  1.00  0.00     0.059 A 
ATOM     91  C   UNL A   1      50.346  26.900  31.523  1.00  0.00     0.059 A 
ATOM     92  F   UNL A   1      48.164  26.769  32.374  1.00  0.00    -0.206 F 
ATOM     93  C   UNL A   1      51.201  27.163  30.453  1.00  0.00     0.060 A 
BRANCH  93  94
ATOM     94  S   UNL A   1      52.984  26.955  30.644  1.00  0.00     0.124 S 
ATOM     95  O   UNL A   1      53.359  28.211  31.284  1.00  0.00    -0.237 OA
ATOM     96  O   UNL A   1      53.076  25.764  31.483  1.00  0.00    -0.237 OA
ATOM     97  O   UNL A   1      53.453  26.784  29.272  1.00  0.00    -0.744 OA
ENDBRANCH  93  94
ENDBRANCH  61  86
ENDBRANCH  35  36
ENDBRANCH  27  30
ENDBRANCH  25  26
ENDBRANCH  24  25
ENDBRANCH  23  24
ENDBRANCH   1  23
TORSDOF 19
ENDMDL
