MODEL 1
REMARK VINA RESULT:      -9.9      0.000      0.000
REMARK SMILES COC(=O)c1sc(SCC(=O)NCCCCCCNC(=O)c2ccc(-c3c4nc(c(-c5c(F)cc(S(=O)(=O)[O-])cc5F)c5ccc([nH]5)c(-c5c(F)cc(S(=O)(=O)[O-])cc5F)c5nc(c(-c6c(F)cc(S(=O)(=O)[O-])cc6F)c6ccc3[nH]6)C=C5)C=C4)cc2)c(NC(=O)c2ccccc2)c1O
REMARK SMILES IDX 15 1 14 2 13 3 12 4 10 5 11 6 9 8 8 9 7 10 5 11 6 12 98 13
REMARK SMILES IDX 88 14 3 15 4 16 2 17 1 18 99 19 89 21 90 22 91 24 92 25
REMARK SMILES IDX 93 26 97 27 94 28 96 29 95 30 16 31 17 32 18 33 19 34 20 35
REMARK SMILES IDX 21 37 22 38 23 39 87 40 24 41 86 42 25 43 26 44 27 45 80 46
REMARK SMILES IDX 28 47 85 48 79 49 81 50 29 51 84 52 78 53 77 54 30 56 64 57
REMARK SMILES IDX 43 58 63 59 44 60 47 61 62 62 82 63 45 64 46 65 61 67 83 68
REMARK SMILES IDX 48 69 31 70 32 71 41 72 33 73 34 74 40 75 42 76 35 77 36 78
REMARK SMILES IDX 37 79 38 80 39 81 65 82 66 83 75 84 67 85 68 86 74 87 76 88
REMARK SMILES IDX 69 89 70 90 71 91 72 92 73 93 49 94 50 95 59 96 51 97 52 98
REMARK SMILES IDX 58 99 60 100 53 101 54 102 55 103 56 104 57 105
REMARK H PARENT 12 7 99 20 89 23 19 36 81 55 47 66
REMARK Flexibility Score: inf
ROOT
ATOM      1  C   UNL A   1      45.165  25.188  26.234  1.00  0.00     0.002 C 
ENDROOT
BRANCH   1   2
ATOM      2  C   UNL A   1      46.422  25.975  25.866  1.00  0.00     0.021 C 
BRANCH   2   3
ATOM      3  C   UNL A   1      47.721  25.172  25.909  1.00  0.00     0.116 C 
BRANCH   3   4
ATOM      4  N   UNL A   1      48.223  24.999  27.250  1.00  0.00    -0.355 N 
ATOM      5  C   UNL A   1      48.945  25.850  28.047  1.00  0.00     0.230 C 
ATOM      6  O   UNL A   1      49.022  25.520  29.235  1.00  0.00    -0.274 OA
ATOM      7  H   UNL A   1      48.015  24.128  27.660  1.00  0.00     0.163 HD
BRANCH   5   8
ATOM      8  C   UNL A   1      49.554  27.357  27.425  1.00  0.00     0.175 C 
BRANCH   8   9
ATOM      9  S   UNL A   1      51.997  28.103  27.013  1.00  0.00    -0.103 SA
BRANCH   9  10
ATOM     10  C   UNL A   1      52.376  29.255  25.624  1.00  0.00     0.089 A 
ATOM     11  C   UNL A   1      52.492  31.344  24.248  1.00  0.00     0.157 A 
ATOM     12  S   UNL A   1      51.874  30.904  25.785  1.00  0.00    -0.116 S 
ATOM     13  C   UNL A   1      53.091  30.260  23.643  1.00  0.00     0.166 A 
ATOM     14  C   UNL A   1      53.073  29.074  24.429  1.00  0.00     0.109 A 
BRANCH  11  15
ATOM     15  C   UNL A   1      52.353  32.707  23.772  1.00  0.00     0.352 C 
ATOM     16  O   UNL A   1      51.497  33.519  24.090  1.00  0.00    -0.245 OA
BRANCH  15  17
ATOM     17  O   UNL A   1      53.374  32.979  22.895  1.00  0.00    -0.465 OA
ATOM     18  C   UNL A   1      54.432  33.777  23.433  1.00  0.00     0.282 C 
ENDBRANCH  15  17
ENDBRANCH  11  15
BRANCH  13  19
ATOM     19  O   UNL A   1      53.643  30.289  22.406  1.00  0.00    -0.504 OA
ATOM     20  H   UNL A   1      53.134  30.040  21.661  1.00  0.00     0.293 HD
ENDBRANCH  13  19
BRANCH  14  21
ATOM     21  N   UNL A   1      53.680  27.921  23.937  1.00  0.00    -0.317 N 
ATOM     22  C   UNL A   1      53.077  26.944  23.203  1.00  0.00     0.255 C 
ATOM     23  H   UNL A   1      54.637  27.802  24.137  1.00  0.00     0.170 HD
ATOM     24  O   UNL A   1      53.539  25.824  23.047  1.00  0.00    -0.269 OA
BRANCH  22  25
ATOM     25  C   UNL A   1      51.791  27.333  22.634  1.00  0.00     0.040 A 
ATOM     26  C   UNL A   1      51.734  27.656  20.872  1.00  0.00     0.014 A 
ATOM     27  C   UNL A   1      50.240  27.004  23.568  1.00  0.00     0.014 A 
ATOM     28  C   UNL A   1      50.145  27.643  20.030  1.00  0.00     0.001 A 
ATOM     29  C   UNL A   1      48.671  26.969  22.684  1.00  0.00     0.001 A 
ATOM     30  C   UNL A   1      48.634  27.280  20.915  1.00  0.00     0.000 A 
ENDBRANCH  22  25
ENDBRANCH  14  21
ENDBRANCH   9  10
ENDBRANCH   8   9
ENDBRANCH   5   8
ENDBRANCH   3   4
ENDBRANCH   2   3
ENDBRANCH   1   2
BRANCH   1  31
ATOM     31  C   UNL A   1      44.181  24.938  25.085  1.00  0.00     0.002 C 
BRANCH  31  32
ATOM     32  C   UNL A   1      44.236  23.548  24.431  1.00  0.00     0.021 C 
BRANCH  32  33
ATOM     33  C   UNL A   1      44.110  22.398  25.414  1.00  0.00     0.116 C 
BRANCH  33  34
ATOM     34  N   UNL A   1      42.817  21.745  25.306  1.00  0.00    -0.352 N 
ATOM     35  C   UNL A   1      41.709  21.930  26.098  1.00  0.00     0.251 C 
ATOM     36  H   UNL A   1      42.724  21.088  24.578  1.00  0.00     0.163 HD
ATOM     37  O   UNL A   1      40.852  21.056  26.165  1.00  0.00    -0.269 OA
BRANCH  35  38
ATOM     38  C   UNL A   1      41.572  23.180  26.866  1.00  0.00     0.039 A 
ATOM     39  C   UNL A   1      42.254  23.328  28.073  1.00  0.00     0.014 A 
ATOM     40  C   UNL A   1      40.749  24.203  26.385  1.00  0.00     0.014 A 
ATOM     41  C   UNL A   1      42.148  24.533  28.758  1.00  0.00     0.010 A 
ATOM     42  C   UNL A   1      40.740  25.436  27.003  1.00  0.00     0.010 A 
ATOM     43  C   UNL A   1      41.409  25.598  28.208  1.00  0.00    -0.014 A 
BRANCH  43  44
ATOM     44  C   UNL A   1      41.485  26.916  28.835  1.00  0.00     0.031 A 
ATOM     45  C   UNL A   1      42.649  27.720  28.368  1.00  0.00     0.074 A 
ATOM     46  C   UNL A   1      40.544  27.462  29.635  1.00  0.00     0.049 A 
ATOM     47  N   UNL A   1      43.721  27.997  29.033  1.00  0.00    -0.248 NA
ATOM     48  C   UNL A   1      42.718  28.095  26.945  1.00  0.00     0.031 C 
ATOM     49  C   UNL A   1      39.206  26.959  29.956  1.00  0.00     0.029 A 
ATOM     50  N   UNL A   1      40.569  28.659  30.286  1.00  0.00    -0.354 N 
ATOM     51  C   UNL A   1      44.489  28.799  28.196  1.00  0.00     0.074 A 
ATOM     52  C   UNL A   1      43.929  28.654  26.878  1.00  0.00     0.031 C 
ATOM     53  C   UNL A   1      38.477  27.941  30.535  1.00  0.00     0.029 A 
ATOM     54  C   UNL A   1      39.338  29.085  30.780  1.00  0.00     0.049 A 
ATOM     55  H   UNL A   1      41.394  29.184  30.397  1.00  0.00     0.167 HD
ATOM     56  C   UNL A   1      45.352  29.717  28.711  1.00  0.00     0.037 A 
ATOM     57  C   UNL A   1      39.049  30.296  31.328  1.00  0.00     0.037 A 
ATOM     58  C   UNL A   1      45.664  29.424  30.089  1.00  0.00     0.049 A 
ATOM     59  C   UNL A   1      40.342  30.876  31.784  1.00  0.00     0.074 A 
ATOM     60  C   UNL A   1      46.153  28.310  30.749  1.00  0.00     0.029 A 
ATOM     61  N   UNL A   1      45.082  30.200  31.064  1.00  0.00    -0.354 N 
ATOM     62  N   UNL A   1      41.059  30.383  32.757  1.00  0.00    -0.248 NA
ATOM     63  C   UNL A   1      41.062  31.720  30.843  1.00  0.00     0.031 C 
ATOM     64  C   UNL A   1      45.383  28.227  31.946  1.00  0.00     0.029 A 
ATOM     65  C   UNL A   1      44.545  29.342  31.993  1.00  0.00     0.049 A 
ATOM     66  H   UNL A   1      45.055  31.183  31.093  1.00  0.00     0.167 HD
ATOM     67  C   UNL A   1      42.368  30.480  32.313  1.00  0.00     0.074 A 
ATOM     68  C   UNL A   1      42.312  31.374  31.157  1.00  0.00     0.031 C 
ATOM     69  C   UNL A   1      43.336  29.614  32.739  1.00  0.00     0.037 A 
BRANCH  56  70
ATOM     70  C   UNL A   1      45.602  31.067  28.083  1.00  0.00     0.058 A 
ATOM     71  C   UNL A   1      44.516  31.929  27.830  1.00  0.00     0.135 A 
ATOM     72  C   UNL A   1      46.824  31.436  27.475  1.00  0.00     0.135 A 
ATOM     73  F   UNL A   1      43.299  31.659  28.331  1.00  0.00    -0.206 F 
ATOM     74  C   UNL A   1      44.625  33.047  27.002  1.00  0.00     0.059 A 
ATOM     75  C   UNL A   1      46.969  32.575  26.694  1.00  0.00     0.059 A 
ATOM     76  F   UNL A   1      47.915  30.665  27.529  1.00  0.00    -0.206 F 
ATOM     77  C   UNL A   1      45.858  33.358  26.435  1.00  0.00     0.060 A 
BRANCH  77  78
ATOM     78  S   UNL A   1      45.995  34.768  25.326  1.00  0.00     0.124 S 
ATOM     79  O   UNL A   1      45.131  34.357  24.225  1.00  0.00    -0.237 OA
ATOM     80  O   UNL A   1      45.493  35.855  26.162  1.00  0.00    -0.237 OA
ATOM     81  O   UNL A   1      47.422  34.822  25.028  1.00  0.00    -0.744 OA
ENDBRANCH  77  78
ENDBRANCH  56  70
BRANCH  57  82
ATOM     82  C   UNL A   1      37.823  31.132  31.164  1.00  0.00     0.058 A 
ATOM     83  C   UNL A   1      36.725  30.979  32.034  1.00  0.00     0.135 A 
ATOM     84  C   UNL A   1      37.815  32.295  30.367  1.00  0.00     0.135 A 
ATOM     85  F   UNL A   1      36.642  29.905  32.835  1.00  0.00    -0.206 F 
ATOM     86  C   UNL A   1      35.731  31.955  32.171  1.00  0.00     0.059 A 
ATOM     87  C   UNL A   1      36.828  33.276  30.476  1.00  0.00     0.059 A 
ATOM     88  F   UNL A   1      38.822  32.563  29.524  1.00  0.00    -0.206 F 
ATOM     89  C   UNL A   1      35.808  33.118  31.407  1.00  0.00     0.060 A 
BRANCH  89  90
ATOM     90  S   UNL A   1      34.659  34.478  31.738  1.00  0.00     0.124 S 
ATOM     91  O   UNL A   1      35.497  35.405  32.491  1.00  0.00    -0.237 OA
ATOM     92  O   UNL A   1      34.289  34.904  30.393  1.00  0.00    -0.237 OA
ATOM     93  O   UNL A   1      33.589  33.840  32.500  1.00  0.00    -0.744 OA
ENDBRANCH  89  90
ENDBRANCH  57  82
BRANCH  69  94
ATOM     94  C   UNL A   1      43.064  28.734  33.934  1.00  0.00     0.058 A 
ATOM     95  C   UNL A   1      43.144  29.139  35.279  1.00  0.00     0.135 A 
ATOM     96  C   UNL A   1      42.537  27.456  33.685  1.00  0.00     0.135 A 
ATOM     97  F   UNL A   1      43.542  30.377  35.608  1.00  0.00    -0.206 F 
ATOM     98  C   UNL A   1      42.751  28.298  36.325  1.00  0.00     0.059 A 
ATOM     99  C   UNL A   1      42.107  26.616  34.708  1.00  0.00     0.059 A 
ATOM    100  F   UNL A   1      42.385  27.025  32.422  1.00  0.00    -0.206 F 
ATOM    101  C   UNL A   1      42.227  27.038  36.028  1.00  0.00     0.060 A 
BRANCH 101 102
ATOM    102  S   UNL A   1      41.647  25.978  37.372  1.00  0.00     0.124 S 
ATOM    103  O   UNL A   1      42.731  26.090  38.341  1.00  0.00    -0.237 OA
ATOM    104  O   UNL A   1      40.387  26.609  37.752  1.00  0.00    -0.237 OA
ATOM    105  O   UNL A   1      41.511  24.668  36.739  1.00  0.00    -0.744 OA
ENDBRANCH 101 102
ENDBRANCH  69  94
ENDBRANCH  43  44
ENDBRANCH  35  38
ENDBRANCH  33  34
ENDBRANCH  32  33
ENDBRANCH  31  32
ENDBRANCH   1  31
TORSDOF 23
ENDMDL
MODEL 2
REMARK VINA RESULT:      -9.7      4.381     12.243
REMARK SMILES COC(=O)c1sc(SCC(=O)NCCCCCCNC(=O)c2ccc(-c3c4nc(c(-c5c(F)cc(S(=O)(=O)[O-])cc5F)c5ccc([nH]5)c(-c5c(F)cc(S(=O)(=O)[O-])cc5F)c5nc(c(-c6c(F)cc(S(=O)(=O)[O-])cc6F)c6ccc3[nH]6)C=C5)C=C4)cc2)c(NC(=O)c2ccccc2)c1O
REMARK SMILES IDX 15 1 14 2 13 3 12 4 10 5 11 6 9 8 8 9 7 10 5 11 6 12 98 13
REMARK SMILES IDX 88 14 3 15 4 16 2 17 1 18 99 19 89 21 90 22 91 24 92 25
REMARK SMILES IDX 93 26 97 27 94 28 96 29 95 30 16 31 17 32 18 33 19 34 20 35
REMARK SMILES IDX 21 37 22 38 23 39 87 40 24 41 86 42 25 43 26 44 27 45 80 46
REMARK SMILES IDX 28 47 85 48 79 49 81 50 29 51 84 52 78 53 77 54 30 56 64 57
REMARK SMILES IDX 43 58 63 59 44 60 47 61 62 62 82 63 45 64 46 65 61 67 83 68
REMARK SMILES IDX 48 69 31 70 32 71 41 72 33 73 34 74 40 75 42 76 35 77 36 78
REMARK SMILES IDX 37 79 38 80 39 81 65 82 66 83 75 84 67 85 68 86 74 87 76 88
REMARK SMILES IDX 69 89 70 90 71 91 72 92 73 93 49 94 50 95 59 96 51 97 52 98
REMARK SMILES IDX 58 99 60 100 53 101 54 102 55 103 56 104 57 105
REMARK H PARENT 12 7 99 20 89 23 19 36 81 55 47 66
REMARK Flexibility Score: inf
ROOT
ATOM      1  C   UNL A   1      47.825  20.411  33.988  1.00  0.00     0.002 C 
ENDROOT
BRANCH   1   2
ATOM      2  C   UNL A   1      46.983  19.174  34.295  1.00  0.00     0.021 C 
BRANCH   2   3
ATOM      3  C   UNL A   1      45.772  19.424  35.191  1.00  0.00     0.116 C 
BRANCH   3   4
ATOM      4  N   UNL A   1      45.971  18.950  36.539  1.00  0.00    -0.355 N 
ATOM      5  C   UNL A   1      46.180  19.643  37.704  1.00  0.00     0.230 C 
ATOM      6  O   UNL A   1      46.073  18.976  38.739  1.00  0.00    -0.274 OA
ATOM      7  H   UNL A   1      45.955  17.971  36.640  1.00  0.00     0.163 HD
BRANCH   5   8
ATOM      8  C   UNL A   1      46.416  21.367  37.690  1.00  0.00     0.175 C 
BRANCH   8   9
ATOM      9  S   UNL A   1      45.436  23.178  39.256  1.00  0.00    -0.103 SA
BRANCH   9  10
ATOM     10  C   UNL A   1      45.318  24.922  38.670  1.00  0.00     0.089 A 
ATOM     11  C   UNL A   1      45.968  27.265  38.069  1.00  0.00     0.157 A 
ATOM     12  S   UNL A   1      46.766  25.872  38.670  1.00  0.00    -0.116 S 
ATOM     13  C   UNL A   1      44.635  26.997  37.848  1.00  0.00     0.166 A 
ATOM     14  C   UNL A   1      44.256  25.658  38.144  1.00  0.00     0.109 A 
BRANCH  11  15
ATOM     15  C   UNL A   1      46.713  28.491  37.852  1.00  0.00     0.352 C 
ATOM     16  O   UNL A   1      47.916  28.660  37.982  1.00  0.00    -0.245 OA
BRANCH  15  17
ATOM     17  O   UNL A   1      45.845  29.472  37.438  1.00  0.00    -0.465 OA
ATOM     18  C   UNL A   1      46.345  30.806  37.558  1.00  0.00     0.282 C 
ENDBRANCH  15  17
ENDBRANCH  11  15
BRANCH  13  19
ATOM     19  O   UNL A   1      43.739  27.911  37.404  1.00  0.00    -0.504 OA
ATOM     20  H   UNL A   1      43.281  28.453  38.015  1.00  0.00     0.293 HD
ENDBRANCH  13  19
BRANCH  14  21
ATOM     21  N   UNL A   1      42.939  25.259  37.925  1.00  0.00    -0.317 N 
ATOM     22  C   UNL A   1      42.365  25.004  36.716  1.00  0.00     0.255 C 
ATOM     23  H   UNL A   1      42.369  25.149  38.721  1.00  0.00     0.170 HD
ATOM     24  O   UNL A   1      41.159  24.954  36.530  1.00  0.00    -0.269 OA
BRANCH  22  25
ATOM     25  C   UNL A   1      43.321  24.826  35.627  1.00  0.00     0.040 A 
ATOM     26  C   UNL A   1      43.822  23.150  35.238  1.00  0.00     0.014 A 
ATOM     27  C   UNL A   1      43.582  26.180  34.410  1.00  0.00     0.014 A 
ATOM     28  C   UNL A   1      44.574  22.810  33.640  1.00  0.00     0.001 A 
ATOM     29  C   UNL A   1      44.309  25.794  32.808  1.00  0.00     0.001 A 
ATOM     30  C   UNL A   1      44.793  24.106  32.428  1.00  0.00     0.000 A 
ENDBRANCH  22  25
ENDBRANCH  14  21
ENDBRANCH   9  10
ENDBRANCH   8   9
ENDBRANCH   5   8
ENDBRANCH   3   4
ENDBRANCH   2   3
ENDBRANCH   1   2
BRANCH   1  31
ATOM     31  C   UNL A   1      49.334  20.168  33.851  1.00  0.00     0.002 C 
BRANCH  31  32
ATOM     32  C   UNL A   1      50.250  21.343  34.225  1.00  0.00     0.021 C 
BRANCH  32  33
ATOM     33  C   UNL A   1      49.525  22.512  34.868  1.00  0.00     0.116 C 
BRANCH  33  34
ATOM     34  N   UNL A   1      50.442  23.590  35.198  1.00  0.00    -0.352 N 
ATOM     35  C   UNL A   1      50.976  24.532  34.352  1.00  0.00     0.251 C 
ATOM     36  H   UNL A   1      50.715  23.652  36.142  1.00  0.00     0.163 HD
ATOM     37  O   UNL A   1      52.016  25.107  34.655  1.00  0.00    -0.269 OA
BRANCH  35  38
ATOM     38  C   UNL A   1      50.292  24.832  33.082  1.00  0.00     0.039 A 
ATOM     39  C   UNL A   1      48.953  25.221  33.092  1.00  0.00     0.014 A 
ATOM     40  C   UNL A   1      50.988  24.715  31.875  1.00  0.00     0.014 A 
ATOM     41  C   UNL A   1      48.341  25.546  31.887  1.00  0.00     0.010 A 
ATOM     42  C   UNL A   1      50.417  25.151  30.698  1.00  0.00     0.010 A 
ATOM     43  C   UNL A   1      49.083  25.535  30.691  1.00  0.00    -0.014 A 
BRANCH  43  44
ATOM     44  C   UNL A   1      48.482  26.081  29.476  1.00  0.00     0.031 A 
ATOM     45  C   UNL A   1      47.403  27.070  29.750  1.00  0.00     0.074 A 
ATOM     46  C   UNL A   1      48.924  25.870  28.216  1.00  0.00     0.049 A 
ATOM     47  N   UNL A   1      46.132  26.900  29.591  1.00  0.00    -0.248 NA
ATOM     48  C   UNL A   1      47.754  28.314  30.458  1.00  0.00     0.031 C 
ATOM     49  C   UNL A   1      50.141  25.188  27.772  1.00  0.00     0.029 A 
ATOM     50  N   UNL A   1      48.390  26.308  27.041  1.00  0.00    -0.354 N 
ATOM     51  C   UNL A   1      45.543  28.110  29.940  1.00  0.00     0.074 A 
ATOM     52  C   UNL A   1      46.549  28.856  30.650  1.00  0.00     0.031 C 
ATOM     53  C   UNL A   1      50.366  25.461  26.467  1.00  0.00     0.029 A 
ATOM     54  C   UNL A   1      49.230  26.195  25.936  1.00  0.00     0.049 A 
ATOM     55  H   UNL A   1      47.479  26.676  26.979  1.00  0.00     0.167 HD
ATOM     56  C   UNL A   1      44.363  28.497  29.381  1.00  0.00     0.037 A 
ATOM     57  C   UNL A   1      49.012  26.689  24.688  1.00  0.00     0.037 A 
ATOM     58  C   UNL A   1      43.664  27.371  28.808  1.00  0.00     0.049 A 
ATOM     59  C   UNL A   1      47.544  26.900  24.563  1.00  0.00     0.074 A 
ATOM     60  C   UNL A   1      43.252  26.145  29.298  1.00  0.00     0.029 A 
ATOM     61  N   UNL A   1      43.665  27.236  27.440  1.00  0.00    -0.354 N 
ATOM     62  N   UNL A   1      46.668  25.931  24.549  1.00  0.00    -0.248 NA
ATOM     63  C   UNL A   1      47.025  28.207  24.932  1.00  0.00     0.031 C 
ATOM     64  C   UNL A   1      43.547  25.217  28.257  1.00  0.00     0.029 A 
ATOM     65  C   UNL A   1      44.027  25.940  27.164  1.00  0.00     0.049 A 
ATOM     66  H   UNL A   1      43.447  27.935  26.782  1.00  0.00     0.167 HD
ATOM     67  C   UNL A   1      45.616  26.398  25.321  1.00  0.00     0.074 A 
ATOM     68  C   UNL A   1      45.863  27.832  25.473  1.00  0.00     0.031 C 
ATOM     69  C   UNL A   1      44.794  25.547  26.003  1.00  0.00     0.037 A 
BRANCH  56  70
ATOM     70  C   UNL A   1      44.039  29.928  29.029  1.00  0.00     0.058 A 
ATOM     71  C   UNL A   1      44.915  30.656  28.199  1.00  0.00     0.135 A 
ATOM     72  C   UNL A   1      43.050  30.695  29.687  1.00  0.00     0.135 A 
ATOM     73  F   UNL A   1      45.914  30.035  27.548  1.00  0.00    -0.206 F 
ATOM     74  C   UNL A   1      44.842  32.043  28.068  1.00  0.00     0.059 A 
ATOM     75  C   UNL A   1      42.923  32.068  29.527  1.00  0.00     0.059 A 
ATOM     76  F   UNL A   1      42.217  30.168  30.591  1.00  0.00    -0.206 F 
ATOM     77  C   UNL A   1      43.843  32.741  28.742  1.00  0.00     0.060 A 
BRANCH  77  78
ATOM     78  S   UNL A   1      43.774  34.534  28.617  1.00  0.00     0.124 S 
ATOM     79  O   UNL A   1      42.831  34.863  29.680  1.00  0.00    -0.237 OA
ATOM     80  O   UNL A   1      45.165  34.905  28.857  1.00  0.00    -0.237 OA
ATOM     81  O   UNL A   1      43.298  34.756  27.255  1.00  0.00    -0.744 OA
ENDBRANCH  77  78
ENDBRANCH  56  70
BRANCH  57  82
ATOM     82  C   UNL A   1      49.984  27.324  23.748  1.00  0.00     0.058 A 
ATOM     83  C   UNL A   1      49.752  27.312  22.357  1.00  0.00     0.135 A 
ATOM     84  C   UNL A   1      50.981  28.214  24.195  1.00  0.00     0.135 A 
ATOM     85  F   UNL A   1      48.821  26.500  21.834  1.00  0.00    -0.206 F 
ATOM     86  C   UNL A   1      50.403  28.187  21.479  1.00  0.00     0.059 A 
ATOM     87  C   UNL A   1      51.652  29.087  23.336  1.00  0.00     0.059 A 
ATOM     88  F   UNL A   1      51.267  28.334  25.499  1.00  0.00    -0.206 F 
ATOM     89  C   UNL A   1      51.332  29.094  21.984  1.00  0.00     0.060 A 
BRANCH  89  90
ATOM     90  S   UNL A   1      52.007  30.374  20.896  1.00  0.00     0.124 S 
ATOM     91  O   UNL A   1      52.757  29.583  19.925  1.00  0.00    -0.237 OA
ATOM     92  O   UNL A   1      50.799  31.020  20.392  1.00  0.00    -0.237 OA
ATOM     93  O   UNL A   1      52.816  31.193  21.795  1.00  0.00    -0.744 OA
ENDBRANCH  89  90
ENDBRANCH  57  82
BRANCH  69  94
ATOM     94  C   UNL A   1      44.827  24.073  25.681  1.00  0.00     0.058 A 
ATOM     95  C   UNL A   1      45.804  23.164  26.125  1.00  0.00     0.135 A 
ATOM     96  C   UNL A   1      43.711  23.534  25.019  1.00  0.00     0.135 A 
ATOM     97  F   UNL A   1      46.855  23.574  26.851  1.00  0.00    -0.206 F 
ATOM     98  C   UNL A   1      45.691  21.789  25.890  1.00  0.00     0.059 A 
ATOM     99  C   UNL A   1      43.561  22.167  24.805  1.00  0.00     0.059 A 
ATOM    100  F   UNL A   1      42.715  24.339  24.614  1.00  0.00    -0.206 F 
ATOM    101  C   UNL A   1      44.561  21.300  25.233  1.00  0.00     0.060 A 
BRANCH 101 102
ATOM    102  S   UNL A   1      44.374  19.518  24.994  1.00  0.00     0.124 S 
ATOM    103  O   UNL A   1      45.611  19.000  25.572  1.00  0.00    -0.237 OA
ATOM    104  O   UNL A   1      43.154  19.224  25.739  1.00  0.00    -0.237 OA
ATOM    105  O   UNL A   1      44.258  19.378  23.545  1.00  0.00    -0.744 OA
ENDBRANCH 101 102
ENDBRANCH  69  94
ENDBRANCH  43  44
ENDBRANCH  35  38
ENDBRANCH  33  34
ENDBRANCH  32  33
ENDBRANCH  31  32
ENDBRANCH   1  31
TORSDOF 23
ENDMDL
MODEL 3
REMARK VINA RESULT:      -9.4      2.108      3.629
REMARK SMILES COC(=O)c1sc(SCC(=O)NCCCCCCNC(=O)c2ccc(-c3c4nc(c(-c5c(F)cc(S(=O)(=O)[O-])cc5F)c5ccc([nH]5)c(-c5c(F)cc(S(=O)(=O)[O-])cc5F)c5nc(c(-c6c(F)cc(S(=O)(=O)[O-])cc6F)c6ccc3[nH]6)C=C5)C=C4)cc2)c(NC(=O)c2ccccc2)c1O
REMARK SMILES IDX 15 1 14 2 13 3 12 4 10 5 11 6 9 8 8 9 7 10 5 11 6 12 98 13
REMARK SMILES IDX 88 14 3 15 4 16 2 17 1 18 99 19 89 21 90 22 91 24 92 25
REMARK SMILES IDX 93 26 97 27 94 28 96 29 95 30 16 31 17 32 18 33 19 34 20 35
REMARK SMILES IDX 21 37 22 38 23 39 87 40 24 41 86 42 25 43 26 44 27 45 80 46
REMARK SMILES IDX 28 47 85 48 79 49 81 50 29 51 84 52 78 53 77 54 30 56 64 57
REMARK SMILES IDX 43 58 63 59 44 60 47 61 62 62 82 63 45 64 46 65 61 67 83 68
REMARK SMILES IDX 48 69 31 70 32 71 41 72 33 73 34 74 40 75 42 76 35 77 36 78
REMARK SMILES IDX 37 79 38 80 39 81 65 82 66 83 75 84 67 85 68 86 74 87 76 88
REMARK SMILES IDX 69 89 70 90 71 91 72 92 73 93 49 94 50 95 59 96 51 97 52 98
REMARK SMILES IDX 58 99 60 100 53 101 54 102 55 103 56 104 57 105
REMARK H PARENT 12 7 99 20 89 23 19 36 81 55 47 66
REMARK Flexibility Score: inf
ROOT
ATOM      1  C   UNL A   1      45.090  25.593  25.729  1.00  0.00     0.002 C 
ENDROOT
BRANCH   1   2
ATOM      2  C   UNL A   1      45.719  26.787  25.013  1.00  0.00     0.021 C 
BRANCH   2   3
ATOM      3  C   UNL A   1      46.817  27.504  25.796  1.00  0.00     0.116 C 
BRANCH   3   4
ATOM      4  N   UNL A   1      47.624  26.599  26.576  1.00  0.00    -0.355 N 
ATOM      5  C   UNL A   1      48.873  26.086  26.333  1.00  0.00     0.230 C 
ATOM      6  O   UNL A   1      49.409  25.529  27.298  1.00  0.00    -0.274 OA
ATOM      7  H   UNL A   1      47.213  26.300  27.420  1.00  0.00     0.163 HD
BRANCH   5   8
ATOM      8  C   UNL A   1      49.673  26.362  24.813  1.00  0.00     0.175 C 
BRANCH   8   9
ATOM      9  S   UNL A   1      48.745  27.377  22.622  1.00  0.00    -0.103 SA
BRANCH   9  10
ATOM     10  C   UNL A   1      49.785  27.364  21.100  1.00  0.00     0.089 A 
ATOM     11  C   UNL A   1      50.897  26.571  19.001  1.00  0.00     0.157 A 
ATOM     12  S   UNL A   1      49.804  25.918  20.149  1.00  0.00    -0.116 S 
ATOM     13  C   UNL A   1      51.214  27.872  19.326  1.00  0.00     0.166 A 
ATOM     14  C   UNL A   1      50.557  28.355  20.493  1.00  0.00     0.109 A 
BRANCH  11  15
ATOM     15  C   UNL A   1      51.338  25.765  17.879  1.00  0.00     0.352 C 
ATOM     16  O   UNL A   1      52.195  26.047  17.054  1.00  0.00    -0.245 OA
BRANCH  15  17
ATOM     17  O   UNL A   1      50.646  24.578  17.884  1.00  0.00    -0.465 OA
ATOM     18  C   UNL A   1      51.016  23.663  16.849  1.00  0.00     0.282 C 
ENDBRANCH  15  17
ENDBRANCH  11  15
BRANCH  13  19
ATOM     19  O   UNL A   1      52.080  28.641  18.624  1.00  0.00    -0.504 OA
ATOM     20  H   UNL A   1      52.623  29.261  19.069  1.00  0.00     0.293 HD
ENDBRANCH  13  19
BRANCH  14  21
ATOM     21  N   UNL A   1      50.772  29.669  20.900  1.00  0.00    -0.317 N 
ATOM     22  C   UNL A   1      51.692  30.089  21.813  1.00  0.00     0.255 C 
ATOM     23  H   UNL A   1      50.206  30.362  20.487  1.00  0.00     0.170 HD
ATOM     24  O   UNL A   1      51.656  31.177  22.367  1.00  0.00    -0.269 OA
BRANCH  22  25
ATOM     25  C   UNL A   1      52.726  29.105  22.114  1.00  0.00     0.040 A 
ATOM     26  C   UNL A   1      54.296  29.275  21.266  1.00  0.00     0.014 A 
ATOM     27  C   UNL A   1      52.601  28.083  23.639  1.00  0.00     0.014 A 
ATOM     28  C   UNL A   1      55.745  28.443  21.930  1.00  0.00     0.001 A 
ATOM     29  C   UNL A   1      54.082  27.291  24.292  1.00  0.00     0.001 A 
ATOM     30  C   UNL A   1      55.650  27.484  23.436  1.00  0.00     0.000 A 
ENDBRANCH  22  25
ENDBRANCH  14  21
ENDBRANCH   9  10
ENDBRANCH   8   9
ENDBRANCH   5   8
ENDBRANCH   3   4
ENDBRANCH   2   3
ENDBRANCH   1   2
BRANCH   1  31
ATOM     31  C   UNL A   1      45.646  24.218  25.337  1.00  0.00     0.002 C 
BRANCH  31  32
ATOM     32  C   UNL A   1      44.668  23.037  25.427  1.00  0.00     0.021 C 
BRANCH  32  33
ATOM     33  C   UNL A   1      43.399  23.221  24.615  1.00  0.00     0.116 C 
BRANCH  33  34
ATOM     34  N   UNL A   1      42.279  22.511  25.209  1.00  0.00    -0.352 N 
ATOM     35  C   UNL A   1      41.638  22.785  26.393  1.00  0.00     0.251 C 
ATOM     36  H   UNL A   1      41.940  21.738  24.702  1.00  0.00     0.163 HD
ATOM     37  O   UNL A   1      41.007  21.903  26.966  1.00  0.00    -0.269 OA
BRANCH  35  38
ATOM     38  C   UNL A   1      41.725  24.140  26.965  1.00  0.00     0.039 A 
ATOM     39  C   UNL A   1      40.949  25.168  26.430  1.00  0.00     0.014 A 
ATOM     40  C   UNL A   1      42.594  24.388  28.031  1.00  0.00     0.014 A 
ATOM     41  C   UNL A   1      41.011  26.428  27.015  1.00  0.00     0.010 A 
ATOM     42  C   UNL A   1      42.566  25.603  28.684  1.00  0.00     0.010 A 
ATOM     43  C   UNL A   1      41.803  26.638  28.160  1.00  0.00    -0.014 A 
BRANCH  43  44
ATOM     44  C   UNL A   1      41.690  27.904  28.881  1.00  0.00     0.031 A 
ATOM     45  C   UNL A   1      42.669  28.929  28.422  1.00  0.00     0.074 A 
ATOM     46  C   UNL A   1      40.719  28.223  29.765  1.00  0.00     0.049 A 
ATOM     47  N   UNL A   1      43.716  29.343  29.055  1.00  0.00    -0.248 NA
ATOM     48  C   UNL A   1      42.587  29.404  27.030  1.00  0.00     0.031 C 
ATOM     49  C   UNL A   1      39.508  27.474  30.109  1.00  0.00     0.029 A 
ATOM     50  N   UNL A   1      40.578  29.360  30.503  1.00  0.00    -0.354 N 
ATOM     51  C   UNL A   1      44.284  30.321  28.245  1.00  0.00     0.074 A 
ATOM     52  C   UNL A   1      43.678  30.169  26.948  1.00  0.00     0.031 C 
ATOM     53  C   UNL A   1      38.658  28.272  30.795  1.00  0.00     0.029 A 
ATOM     54  C   UNL A   1      39.324  29.530  31.086  1.00  0.00     0.049 A 
ATOM     55  H   UNL A   1      41.306  30.012  30.615  1.00  0.00     0.167 HD
ATOM     56  C   UNL A   1      45.007  31.339  28.787  1.00  0.00     0.037 A 
ATOM     57  C   UNL A   1      38.867  30.632  31.738  1.00  0.00     0.037 A 
ATOM     58  C   UNL A   1      45.446  31.014  30.123  1.00  0.00     0.049 A 
ATOM     59  C   UNL A   1      40.067  31.397  32.175  1.00  0.00     0.074 A 
ATOM     60  C   UNL A   1      46.157  29.961  30.672  1.00  0.00     0.029 A 
ATOM     61  N   UNL A   1      44.800  31.609  31.181  1.00  0.00    -0.354 N 
ATOM     62  N   UNL A   1      40.914  30.973  33.072  1.00  0.00    -0.248 NA
ATOM     63  C   UNL A   1      40.573  32.415  31.268  1.00  0.00     0.031 C 
ATOM     64  C   UNL A   1      45.486  29.665  31.894  1.00  0.00     0.029 A 
ATOM     65  C   UNL A   1      44.474  30.610  32.066  1.00  0.00     0.049 A 
ATOM     66  H   UNL A   1      44.608  32.569  31.286  1.00  0.00     0.167 HD
ATOM     67  C   UNL A   1      42.159  31.327  32.575  1.00  0.00     0.074 A 
ATOM     68  C   UNL A   1      41.881  32.273  31.495  1.00  0.00     0.031 C 
ATOM     69  C   UNL A   1      43.283  30.617  32.887  1.00  0.00     0.037 A 
BRANCH  56  70
ATOM     70  C   UNL A   1      44.984  32.751  28.253  1.00  0.00     0.058 A 
ATOM     71  C   UNL A   1      46.185  33.354  27.830  1.00  0.00     0.135 A 
ATOM     72  C   UNL A   1      43.882  33.626  28.392  1.00  0.00     0.135 A 
ATOM     73  F   UNL A   1      47.305  32.624  27.694  1.00  0.00    -0.206 F 
ATOM     74  C   UNL A   1      46.294  34.727  27.604  1.00  0.00     0.059 A 
ATOM     75  C   UNL A   1      43.953  34.986  28.118  1.00  0.00     0.059 A 
ATOM     76  F   UNL A   1      42.706  33.227  28.890  1.00  0.00    -0.206 F 
ATOM     77  C   UNL A   1      45.170  35.535  27.757  1.00  0.00     0.060 A 
BRANCH  77  78
ATOM     78  S   UNL A   1      45.315  37.312  27.516  1.00  0.00     0.124 S 
ATOM     79  O   UNL A   1      46.497  37.394  26.664  1.00  0.00    -0.237 OA
ATOM     80  O   UNL A   1      44.043  37.632  26.878  1.00  0.00    -0.237 OA
ATOM     81  O   UNL A   1      45.475  37.821  28.874  1.00  0.00    -0.744 OA
ENDBRANCH  77  78
ENDBRANCH  56  70
BRANCH  57  82
ATOM     82  C   UNL A   1      37.508  31.250  31.696  1.00  0.00     0.058 A 
ATOM     83  C   UNL A   1      36.810  31.536  32.887  1.00  0.00     0.135 A 
ATOM     84  C   UNL A   1      37.000  31.856  30.529  1.00  0.00     0.135 A 
ATOM     85  F   UNL A   1      37.217  31.009  34.052  1.00  0.00    -0.206 F 
ATOM     86  C   UNL A   1      35.734  32.431  32.933  1.00  0.00     0.059 A 
ATOM     87  C   UNL A   1      35.920  32.741  30.548  1.00  0.00     0.059 A 
ATOM     88  F   UNL A   1      37.599  31.681  29.342  1.00  0.00    -0.206 F 
ATOM     89  C   UNL A   1      35.315  33.053  31.759  1.00  0.00     0.060 A 
BRANCH  89  90
ATOM     90  S   UNL A   1      34.080  34.375  31.845  1.00  0.00     0.124 S 
ATOM     91  O   UNL A   1      34.896  35.528  32.213  1.00  0.00    -0.237 OA
ATOM     92  O   UNL A   1      33.542  34.384  30.488  1.00  0.00    -0.237 OA
ATOM     93  O   UNL A   1      33.154  33.908  32.873  1.00  0.00    -0.744 OA
ENDBRANCH  89  90
ENDBRANCH  57  82
BRANCH  69  94
ATOM     94  C   UNL A   1      43.239  29.624  34.023  1.00  0.00     0.058 A 
ATOM     95  C   UNL A   1      42.808  28.288  33.920  1.00  0.00     0.135 A 
ATOM     96  C   UNL A   1      43.821  30.013  35.241  1.00  0.00     0.135 A 
ATOM     97  F   UNL A   1      42.330  27.800  32.766  1.00  0.00    -0.206 F 
ATOM     98  C   UNL A   1      42.920  27.396  34.991  1.00  0.00     0.059 A 
ATOM     99  C   UNL A   1      43.974  29.132  36.308  1.00  0.00     0.059 A 
ATOM    100  F   UNL A   1      44.301  31.258  35.390  1.00  0.00    -0.206 F 
ATOM    101  C   UNL A   1      43.511  27.827  36.181  1.00  0.00     0.060 A 
BRANCH 101 102
ATOM    102  S   UNL A   1      43.727  26.656  37.540  1.00  0.00     0.124 S 
ATOM    103  O   UNL A   1      42.347  26.333  37.890  1.00  0.00    -0.237 OA
ATOM    104  O   UNL A   1      44.491  25.581  36.915  1.00  0.00    -0.237 OA
ATOM    105  O   UNL A   1      44.458  27.427  38.543  1.00  0.00    -0.744 OA
ENDBRANCH 101 102
ENDBRANCH  69  94
ENDBRANCH  43  44
ENDBRANCH  35  38
ENDBRANCH  33  34
ENDBRANCH  32  33
ENDBRANCH  31  32
ENDBRANCH   1  31
TORSDOF 23
ENDMDL
