MODEL 1
REMARK VINA RESULT:     -10.5      0.000      0.000
REMARK SMILES CCCOc1cc(NC[C@H]2CC[C@@H](C(=O)NCCCCCCNC(=O)c3ccc(-c4c5nc(c(-c6c(F)cc(S(=O)(=O)[O-])cc6F)c6ccc([nH]6)c(-c6c(F)cc(S(=O)(=O)[O-])cc6F)c6nc(c(-c7c(F)cc(S(=O)(=O)[O-])cc7F)c7ccc4[nH]7)C=C6)C=C5)cc3)O2)ncn1
REMARK SMILES IDX 18 1 17 2 16 3 14 4 15 5 13 7 10 8 11 9 92 10 12 11 9 12
REMARK SMILES IDX 8 13 7 15 5 16 6 17 95 18 94 19 93 20 4 21 3 22 2 23 1 24
REMARK SMILES IDX 19 25 20 26 21 27 22 28 23 29 24 30 25 32 26 33 27 34 91 35
REMARK SMILES IDX 28 36 90 37 29 38 30 39 31 40 84 41 32 42 89 43 83 44 85 45
REMARK SMILES IDX 33 46 88 47 82 48 81 49 34 51 68 52 47 53 67 54 48 55 51 56
REMARK SMILES IDX 66 57 86 58 49 59 50 60 65 62 87 63 52 64 35 65 36 66 45 67
REMARK SMILES IDX 37 68 38 69 44 70 46 71 39 72 40 73 41 74 42 75 43 76 69 77
REMARK SMILES IDX 70 78 79 79 71 80 72 81 78 82 80 83 73 84 74 85 75 86 76 87
REMARK SMILES IDX 77 88 53 89 54 90 63 91 55 92 56 93 62 94 64 95 57 96 58 97
REMARK SMILES IDX 59 98 60 99 61 100
REMARK H PARENT 16 6 8 14 23 31 85 50 51 61
REMARK Flexibility Score: inf
ROOT
ATOM      1  C   UNL A   1      38.055  23.399  26.071  1.00  0.00     0.021 C 
ENDROOT
BRANCH   1   2
ATOM      2  C   UNL A   1      36.564  23.672  25.957  1.00  0.00     0.116 C 
BRANCH   2   3
ATOM      3  N   UNL A   1      36.080  23.943  24.625  1.00  0.00    -0.354 N 
ATOM      4  C   UNL A   1      35.028  23.368  23.966  1.00  0.00     0.249 C 
ATOM      5  O   UNL A   1      34.711  23.848  22.872  1.00  0.00    -0.272 OA
ATOM      6  H   UNL A   1      36.572  24.633  24.124  1.00  0.00     0.163 HD
BRANCH   4   7
ATOM      7  C   UNL A   1      34.191  22.208  24.583  1.00  0.00     0.207 C 
ATOM      8  C   UNL A   1      32.201  21.682  25.731  1.00  0.00     0.138 C 
ATOM      9  C   UNL A   1      32.214  20.901  24.425  1.00  0.00     0.037 C 
ATOM     10  O   UNL A   1      33.424  22.454  25.761  1.00  0.00    -0.363 OA
ATOM     11  C   UNL A   1      33.223  21.628  23.566  1.00  0.00     0.045 C 
BRANCH   8  12
ATOM     12  C   UNL A   1      30.954  22.584  25.944  1.00  0.00     0.146 C 
BRANCH  12  13
ATOM     13  N   UNL A   1      30.614  23.320  24.739  1.00  0.00    -0.367 N 
ATOM     14  H   UNL A   1      29.974  22.909  24.115  1.00  0.00     0.162 HD
BRANCH  13  15
ATOM     15  C   UNL A   1      31.128  24.561  24.407  1.00  0.00     0.133 A 
ATOM     16  C   UNL A   1      32.182  26.508  25.156  1.00  0.00     0.218 A 
ATOM     17  C   UNL A   1      31.437  25.399  25.452  1.00  0.00     0.115 A 
ATOM     18  N   UNL A   1      32.475  26.893  23.913  1.00  0.00    -0.202 NA
ATOM     19  C   UNL A   1      31.995  26.087  22.955  1.00  0.00     0.228 A 
ATOM     20  N   UNL A   1      31.364  24.910  23.139  1.00  0.00    -0.219 NA
BRANCH  16  21
ATOM     21  O   UNL A   1      32.685  27.257  26.193  1.00  0.00    -0.478 OA
BRANCH  21  22
ATOM     22  C   UNL A   1      31.662  28.094  26.757  1.00  0.00     0.231 C 
BRANCH  22  23
ATOM     23  C   UNL A   1      32.234  29.434  27.247  1.00  0.00     0.038 C 
ATOM     24  C   UNL A   1      33.506  29.851  26.514  1.00  0.00     0.007 C 
ENDBRANCH  22  23
ENDBRANCH  21  22
ENDBRANCH  16  21
ENDBRANCH  13  15
ENDBRANCH  12  13
ENDBRANCH   8  12
ENDBRANCH   4   7
ENDBRANCH   2   3
ENDBRANCH   1   2
BRANCH   1  25
ATOM     25  C   UNL A   1      38.485  21.970  25.750  1.00  0.00     0.002 C 
BRANCH  25  26
ATOM     26  C   UNL A   1      39.878  21.560  26.239  1.00  0.00     0.002 C 
BRANCH  26  27
ATOM     27  C   UNL A   1      40.393  22.266  27.496  1.00  0.00     0.021 C 
BRANCH  27  28
ATOM     28  C   UNL A   1      41.734  22.979  27.361  1.00  0.00     0.116 C 
BRANCH  28  29
ATOM     29  N   UNL A   1      41.801  23.822  26.182  1.00  0.00    -0.352 N 
ATOM     30  C   UNL A   1      41.611  25.175  26.053  1.00  0.00     0.251 C 
ATOM     31  H   UNL A   1      42.017  23.350  25.345  1.00  0.00     0.163 HD
ATOM     32  O   UNL A   1      41.551  25.671  24.932  1.00  0.00    -0.269 OA
BRANCH  30  33
ATOM     33  C   UNL A   1      41.460  26.031  27.251  1.00  0.00     0.039 A 
ATOM     34  C   UNL A   1      42.433  27.001  27.509  1.00  0.00     0.014 A 
ATOM     35  C   UNL A   1      40.387  25.869  28.133  1.00  0.00     0.014 A 
ATOM     36  C   UNL A   1      42.303  27.840  28.617  1.00  0.00     0.010 A 
ATOM     37  C   UNL A   1      40.220  26.755  29.195  1.00  0.00     0.010 A 
ATOM     38  C   UNL A   1      41.178  27.745  29.453  1.00  0.00    -0.014 A 
BRANCH  38  39
ATOM     39  C   UNL A   1      40.991  28.677  30.597  1.00  0.00     0.031 A 
ATOM     40  C   UNL A   1      41.854  28.557  31.824  1.00  0.00     0.074 A 
ATOM     41  C   UNL A   1      40.006  29.595  30.551  1.00  0.00     0.049 A 
ATOM     42  N   UNL A   1      41.808  29.244  32.936  1.00  0.00    -0.248 NA
ATOM     43  C   UNL A   1      42.890  27.511  31.810  1.00  0.00     0.031 C 
ATOM     44  C   UNL A   1      39.073  29.778  29.436  1.00  0.00     0.029 A 
ATOM     45  N   UNL A   1      39.618  30.544  31.464  1.00  0.00    -0.354 N 
ATOM     46  C   UNL A   1      42.791  28.705  33.759  1.00  0.00     0.074 A 
ATOM     47  C   UNL A   1      43.387  27.603  33.036  1.00  0.00     0.031 C 
ATOM     48  C   UNL A   1      38.241  30.793  29.719  1.00  0.00     0.029 A 
ATOM     49  C   UNL A   1      38.552  31.306  31.050  1.00  0.00     0.049 A 
ATOM     50  H   UNL A   1      40.063  30.667  32.334  1.00  0.00     0.167 HD
ATOM     51  C   UNL A   1      43.175  29.106  34.994  1.00  0.00     0.037 A 
ATOM     52  C   UNL A   1      37.892  32.304  31.673  1.00  0.00     0.037 A 
ATOM     53  C   UNL A   1      42.595  30.223  35.695  1.00  0.00     0.049 A 
ATOM     54  C   UNL A   1      38.340  32.732  33.044  1.00  0.00     0.074 A 
ATOM     55  C   UNL A   1      42.960  30.751  36.922  1.00  0.00     0.029 A 
ATOM     56  N   UNL A   1      41.526  30.980  35.237  1.00  0.00    -0.354 N 
ATOM     57  N   UNL A   1      39.316  32.256  33.779  1.00  0.00    -0.248 NA
ATOM     58  C   UNL A   1      37.602  33.839  33.668  1.00  0.00     0.031 C 
ATOM     59  C   UNL A   1      42.078  31.793  37.228  1.00  0.00     0.029 A 
ATOM     60  C   UNL A   1      41.201  31.953  36.167  1.00  0.00     0.049 A 
ATOM     61  H   UNL A   1      41.066  30.845  34.377  1.00  0.00     0.167 HD
ATOM     62  C   UNL A   1      39.329  33.022  34.939  1.00  0.00     0.074 A 
ATOM     63  C   UNL A   1      38.269  34.000  34.803  1.00  0.00     0.031 C 
ATOM     64  C   UNL A   1      40.146  32.926  36.017  1.00  0.00     0.037 A 
BRANCH  51  65
ATOM     65  C   UNL A   1      44.275  28.335  35.673  1.00  0.00     0.058 A 
ATOM     66  C   UNL A   1      45.628  28.670  35.504  1.00  0.00     0.135 A 
ATOM     67  C   UNL A   1      43.969  27.275  36.543  1.00  0.00     0.135 A 
ATOM     68  F   UNL A   1      45.981  29.664  34.673  1.00  0.00    -0.206 F 
ATOM     69  C   UNL A   1      46.639  27.966  36.152  1.00  0.00     0.059 A 
ATOM     70  C   UNL A   1      44.962  26.577  37.225  1.00  0.00     0.059 A 
ATOM     71  F   UNL A   1      42.693  26.911  36.743  1.00  0.00    -0.206 F 
ATOM     72  C   UNL A   1      46.296  26.922  37.012  1.00  0.00     0.060 A 
BRANCH  72  73
ATOM     73  S   UNL A   1      47.619  26.029  37.854  1.00  0.00     0.124 S 
ATOM     74  O   UNL A   1      47.263  26.234  39.255  1.00  0.00    -0.237 OA
ATOM     75  O   UNL A   1      47.448  24.670  37.350  1.00  0.00    -0.237 OA
ATOM     76  O   UNL A   1      48.829  26.712  37.409  1.00  0.00    -0.744 OA
ENDBRANCH  72  73
ENDBRANCH  51  65
BRANCH  52  77
ATOM     77  C   UNL A   1      36.757  32.981  30.990  1.00  0.00     0.058 A 
ATOM     78  C   UNL A   1      35.433  32.748  31.389  1.00  0.00     0.135 A 
ATOM     79  C   UNL A   1      36.972  33.889  29.941  1.00  0.00     0.135 A 
ATOM     80  F   UNL A   1      35.175  31.884  32.383  1.00  0.00    -0.206 F 
ATOM     81  C   UNL A   1      34.361  33.379  30.766  1.00  0.00     0.059 A 
ATOM     82  C   UNL A   1      35.919  34.553  29.320  1.00  0.00     0.059 A 
ATOM     83  F   UNL A   1      38.221  34.157  29.530  1.00  0.00    -0.206 F 
ATOM     84  C   UNL A   1      34.615  34.284  29.734  1.00  0.00     0.060 A 
BRANCH  84  85
ATOM     85  S   UNL A   1      33.218  35.134  28.968  1.00  0.00     0.124 S 
ATOM     86  O   UNL A   1      33.872  36.291  28.366  1.00  0.00    -0.237 OA
ATOM     87  O   UNL A   1      32.720  34.126  28.037  1.00  0.00    -0.237 OA
ATOM     88  O   UNL A   1      32.339  35.423  30.097  1.00  0.00    -0.744 OA
ENDBRANCH  84  85
ENDBRANCH  52  77
BRANCH  64  89
ATOM     89  C   UNL A   1      39.956  33.926  37.125  1.00  0.00     0.058 A 
ATOM     90  C   UNL A   1      40.567  35.189  37.097  1.00  0.00     0.135 A 
ATOM     91  C   UNL A   1      39.105  33.633  38.205  1.00  0.00     0.135 A 
ATOM     92  F   UNL A   1      41.394  35.518  36.092  1.00  0.00    -0.206 F 
ATOM     93  C   UNL A   1      40.360  36.118  38.112  1.00  0.00     0.059 A 
ATOM     94  C   UNL A   1      38.861  34.558  39.214  1.00  0.00     0.059 A 
ATOM     95  F   UNL A   1      38.487  32.444  38.276  1.00  0.00    -0.206 F 
ATOM     96  C   UNL A   1      39.503  35.794  39.165  1.00  0.00     0.060 A 
BRANCH  96  97
ATOM     97  S   UNL A   1      39.217  37.023  40.457  1.00  0.00     0.124 S 
ATOM     98  O   UNL A   1      40.581  37.398  40.814  1.00  0.00    -0.237 OA
ATOM     99  O   UNL A   1      38.442  38.042  39.754  1.00  0.00    -0.237 OA
ATOM    100  O   UNL A   1      38.483  36.280  41.478  1.00  0.00    -0.744 OA
ENDBRANCH  96  97
ENDBRANCH  64  89
ENDBRANCH  38  39
ENDBRANCH  30  33
ENDBRANCH  28  29
ENDBRANCH  27  28
ENDBRANCH  26  27
ENDBRANCH  25  26
ENDBRANCH   1  25
TORSDOF 22
ENDMDL
MODEL 2
REMARK VINA RESULT:     -10.1      1.304      8.264
REMARK SMILES CCCOc1cc(NC[C@H]2CC[C@@H](C(=O)NCCCCCCNC(=O)c3ccc(-c4c5nc(c(-c6c(F)cc(S(=O)(=O)[O-])cc6F)c6ccc([nH]6)c(-c6c(F)cc(S(=O)(=O)[O-])cc6F)c6nc(c(-c7c(F)cc(S(=O)(=O)[O-])cc7F)c7ccc4[nH]7)C=C6)C=C5)cc3)O2)ncn1
REMARK SMILES IDX 18 1 17 2 16 3 14 4 15 5 13 7 10 8 11 9 92 10 12 11 9 12
REMARK SMILES IDX 8 13 7 15 5 16 6 17 95 18 94 19 93 20 4 21 3 22 2 23 1 24
REMARK SMILES IDX 19 25 20 26 21 27 22 28 23 29 24 30 25 32 26 33 27 34 91 35
REMARK SMILES IDX 28 36 90 37 29 38 30 39 31 40 84 41 32 42 89 43 83 44 85 45
REMARK SMILES IDX 33 46 88 47 82 48 81 49 34 51 68 52 47 53 67 54 48 55 51 56
REMARK SMILES IDX 66 57 86 58 49 59 50 60 65 62 87 63 52 64 35 65 36 66 45 67
REMARK SMILES IDX 37 68 38 69 44 70 46 71 39 72 40 73 41 74 42 75 43 76 69 77
REMARK SMILES IDX 70 78 79 79 71 80 72 81 78 82 80 83 73 84 74 85 75 86 76 87
REMARK SMILES IDX 77 88 53 89 54 90 63 91 55 92 56 93 62 94 64 95 57 96 58 97
REMARK SMILES IDX 59 98 60 99 61 100
REMARK H PARENT 16 6 8 14 23 31 85 50 51 61
REMARK Flexibility Score: inf
ROOT
ATOM      1  C   UNL A   1      38.191  23.309  25.786  1.00  0.00     0.021 C 
ENDROOT
BRANCH   1   2
ATOM      2  C   UNL A   1      36.688  23.530  25.803  1.00  0.00     0.116 C 
BRANCH   2   3
ATOM      3  N   UNL A   1      36.084  23.800  24.521  1.00  0.00    -0.354 N 
ATOM      4  C   UNL A   1      34.892  23.346  24.026  1.00  0.00     0.249 C 
ATOM      5  O   UNL A   1      34.509  23.812  22.947  1.00  0.00    -0.272 OA
ATOM      6  H   UNL A   1      36.597  24.390  23.923  1.00  0.00     0.163 HD
BRANCH   4   7
ATOM      7  C   UNL A   1      33.991  22.345  24.809  1.00  0.00     0.207 C 
ATOM      8  C   UNL A   1      31.996  22.126  26.045  1.00  0.00     0.138 C 
ATOM      9  C   UNL A   1      31.925  21.173  24.861  1.00  0.00     0.037 C 
ATOM     10  O   UNL A   1      33.269  22.806  25.951  1.00  0.00    -0.363 OA
ATOM     11  C   UNL A   1      32.963  21.701  23.896  1.00  0.00     0.045 C 
BRANCH   8  12
ATOM     12  C   UNL A   1      30.819  23.135  26.146  1.00  0.00     0.146 C 
BRANCH  12  13
ATOM     13  N   UNL A   1      30.527  23.748  24.861  1.00  0.00    -0.367 N 
ATOM     14  H   UNL A   1      30.161  23.173  24.151  1.00  0.00     0.162 HD
BRANCH  13  15
ATOM     15  C   UNL A   1      30.727  25.084  24.566  1.00  0.00     0.133 A 
ATOM     16  C   UNL A   1      29.805  27.066  23.739  1.00  0.00     0.218 A 
ATOM     17  C   UNL A   1      29.755  25.701  23.814  1.00  0.00     0.115 A 
ATOM     18  N   UNL A   1      30.817  27.797  24.210  1.00  0.00    -0.202 NA
ATOM     19  C   UNL A   1      31.793  27.084  24.792  1.00  0.00     0.228 A 
ATOM     20  N   UNL A   1      31.783  25.758  25.031  1.00  0.00    -0.219 NA
BRANCH  16  21
ATOM     21  O   UNL A   1      28.743  27.732  23.176  1.00  0.00    -0.478 OA
BRANCH  21  22
ATOM     22  C   UNL A   1      29.093  29.098  22.894  1.00  0.00     0.231 C 
BRANCH  22  23
ATOM     23  C   UNL A   1      27.848  29.954  22.612  1.00  0.00     0.038 C 
ATOM     24  C   UNL A   1      28.039  30.935  21.459  1.00  0.00     0.007 C 
ENDBRANCH  22  23
ENDBRANCH  21  22
ENDBRANCH  16  21
ENDBRANCH  13  15
ENDBRANCH  12  13
ENDBRANCH   8  12
ENDBRANCH   4   7
ENDBRANCH   2   3
ENDBRANCH   1   2
BRANCH   1  25
ATOM     25  C   UNL A   1      38.639  21.853  25.879  1.00  0.00     0.002 C 
BRANCH  25  26
ATOM     26  C   UNL A   1      40.027  21.612  26.482  1.00  0.00     0.002 C 
BRANCH  26  27
ATOM     27  C   UNL A   1      40.459  22.567  27.599  1.00  0.00     0.021 C 
BRANCH  27  28
ATOM     28  C   UNL A   1      41.763  23.321  27.368  1.00  0.00     0.116 C 
BRANCH  28  29
ATOM     29  N   UNL A   1      41.698  24.210  26.222  1.00  0.00    -0.352 N 
ATOM     30  C   UNL A   1      41.398  25.548  26.160  1.00  0.00     0.251 C 
ATOM     31  H   UNL A   1      41.902  23.788  25.356  1.00  0.00     0.163 HD
ATOM     32  O   UNL A   1      41.237  26.078  25.065  1.00  0.00    -0.269 OA
BRANCH  30  33
ATOM     33  C   UNL A   1      41.250  26.344  27.399  1.00  0.00     0.039 A 
ATOM     34  C   UNL A   1      42.236  27.284  27.713  1.00  0.00     0.014 A 
ATOM     35  C   UNL A   1      40.168  26.155  28.262  1.00  0.00     0.014 A 
ATOM     36  C   UNL A   1      42.109  28.068  28.862  1.00  0.00     0.010 A 
ATOM     37  C   UNL A   1      40.004  26.988  29.367  1.00  0.00     0.010 A 
ATOM     38  C   UNL A   1      40.976  27.949  29.683  1.00  0.00    -0.014 A 
BRANCH  38  39
ATOM     39  C   UNL A   1      40.794  28.824  30.871  1.00  0.00     0.031 A 
ATOM     40  C   UNL A   1      39.733  29.891  30.874  1.00  0.00     0.074 A 
ATOM     41  C   UNL A   1      41.622  28.691  31.926  1.00  0.00     0.049 A 
ATOM     42  N   UNL A   1      39.457  30.778  31.795  1.00  0.00    -0.248 NA
ATOM     43  C   UNL A   1      38.887  29.992  29.674  1.00  0.00     0.031 C 
ATOM     44  C   UNL A   1      42.719  27.725  32.023  1.00  0.00     0.029 A 
ATOM     45  N   UNL A   1      41.677  29.373  33.116  1.00  0.00    -0.354 N 
ATOM     46  C   UNL A   1      38.421  31.552  31.282  1.00  0.00     0.074 A 
ATOM     47  C   UNL A   1      38.150  31.060  29.948  1.00  0.00     0.031 C 
ATOM     48  C   UNL A   1      43.319  27.857  33.216  1.00  0.00     0.029 A 
ATOM     49  C   UNL A   1      42.680  28.943  33.953  1.00  0.00     0.049 A 
ATOM     50  H   UNL A   1      41.057  30.101  33.349  1.00  0.00     0.167 HD
ATOM     51  C   UNL A   1      37.747  32.565  31.875  1.00  0.00     0.037 A 
ATOM     52  C   UNL A   1      43.049  29.377  35.175  1.00  0.00     0.037 A 
ATOM     53  C   UNL A   1      38.006  33.029  33.214  1.00  0.00     0.049 A 
ATOM     54  C   UNL A   1      42.281  30.502  35.814  1.00  0.00     0.074 A 
ATOM     55  C   UNL A   1      37.332  34.004  33.931  1.00  0.00     0.029 A 
ATOM     56  N   UNL A   1      39.020  32.559  34.036  1.00  0.00    -0.354 N 
ATOM     57  N   UNL A   1      41.260  31.176  35.341  1.00  0.00    -0.248 NA
ATOM     58  C   UNL A   1      42.710  30.921  37.156  1.00  0.00     0.031 C 
ATOM     59  C   UNL A   1      37.972  34.159  35.165  1.00  0.00     0.029 A 
ATOM     60  C   UNL A   1      39.007  33.241  35.242  1.00  0.00     0.049 A 
ATOM     61  H   UNL A   1      39.656  31.846  33.797  1.00  0.00     0.167 HD
ATOM     62  C   UNL A   1      40.906  32.080  36.338  1.00  0.00     0.074 A 
ATOM     63  C   UNL A   1      41.815  31.857  37.443  1.00  0.00     0.031 C 
ATOM     64  C   UNL A   1      39.915  33.006  36.338  1.00  0.00     0.037 A 
BRANCH  51  65
ATOM     65  C   UNL A   1      36.661  33.244  31.085  1.00  0.00     0.058 A 
ATOM     66  C   UNL A   1      36.951  34.107  30.016  1.00  0.00     0.135 A 
ATOM     67  C   UNL A   1      35.308  32.991  31.370  1.00  0.00     0.135 A 
ATOM     68  F   UNL A   1      38.226  34.397  29.708  1.00  0.00    -0.206 F 
ATOM     69  C   UNL A   1      35.942  34.716  29.276  1.00  0.00     0.059 A 
ATOM     70  C   UNL A   1      34.283  33.565  30.624  1.00  0.00     0.059 A 
ATOM     71  F   UNL A   1      34.971  32.174  32.380  1.00  0.00    -0.206 F 
ATOM     72  C   UNL A   1      34.610  34.437  29.587  1.00  0.00     0.060 A 
BRANCH  72  73
ATOM     73  S   UNL A   1      33.314  35.224  28.608  1.00  0.00     0.124 S 
ATOM     74  O   UNL A   1      32.663  34.067  28.002  1.00  0.00    -0.237 OA
ATOM     75  O   UNL A   1      32.538  35.927  29.624  1.00  0.00    -0.237 OA
ATOM     76  O   UNL A   1      34.055  36.080  27.686  1.00  0.00    -0.744 OA
ENDBRANCH  72  73
ENDBRANCH  51  65
BRANCH  52  77
ATOM     77  C   UNL A   1      44.183  28.724  35.882  1.00  0.00     0.058 A 
ATOM     78  C   UNL A   1      45.499  29.176  35.706  1.00  0.00     0.135 A 
ATOM     79  C   UNL A   1      43.975  27.650  36.763  1.00  0.00     0.135 A 
ATOM     80  F   UNL A   1      45.751  30.195  34.869  1.00  0.00    -0.206 F 
ATOM     81  C   UNL A   1      46.570  28.582  36.365  1.00  0.00     0.059 A 
ATOM     82  C   UNL A   1      45.026  27.057  37.454  1.00  0.00     0.059 A 
ATOM     83  F   UNL A   1      42.733  27.188  36.977  1.00  0.00    -0.206 F 
ATOM     84  C   UNL A   1      46.322  27.524  37.242  1.00  0.00     0.060 A 
BRANCH  84  85
ATOM     85  S   UNL A   1      47.715  26.794  38.129  1.00  0.00     0.124 S 
ATOM     86  O   UNL A   1      47.819  27.673  39.288  1.00  0.00    -0.237 OA
ATOM     87  O   UNL A   1      47.234  25.441  38.395  1.00  0.00    -0.237 OA
ATOM     88  O   UNL A   1      48.811  26.884  37.169  1.00  0.00    -0.744 OA
ENDBRANCH  84  85
ENDBRANCH  52  77
BRANCH  64  89
ATOM     89  C   UNL A   1      39.733  33.829  37.584  1.00  0.00     0.058 A 
ATOM     90  C   UNL A   1      38.838  33.453  38.597  1.00  0.00     0.135 A 
ATOM     91  C   UNL A   1      40.507  34.984  37.789  1.00  0.00     0.135 A 
ATOM     92  F   UNL A   1      38.070  32.362  38.449  1.00  0.00    -0.206 F 
ATOM     93  C   UNL A   1      38.699  34.205  39.759  1.00  0.00     0.059 A 
ATOM     94  C   UNL A   1      40.407  35.734  38.956  1.00  0.00     0.059 A 
ATOM     95  F   UNL A   1      41.387  35.383  36.857  1.00  0.00    -0.206 F 
ATOM     96  C   UNL A   1      39.490  35.343  39.930  1.00  0.00     0.060 A 
BRANCH  96  97
ATOM     97  S   UNL A   1      39.324  36.289  41.459  1.00  0.00     0.124 S 
ATOM     98  O   UNL A   1      38.257  35.564  42.140  1.00  0.00    -0.237 OA
ATOM     99  O   UNL A   1      40.653  36.165  42.051  1.00  0.00    -0.237 OA
ATOM    100  O   UNL A   1      38.975  37.629  40.995  1.00  0.00    -0.744 OA
ENDBRANCH  96  97
ENDBRANCH  64  89
ENDBRANCH  38  39
ENDBRANCH  30  33
ENDBRANCH  28  29
ENDBRANCH  27  28
ENDBRANCH  26  27
ENDBRANCH  25  26
ENDBRANCH   1  25
TORSDOF 22
ENDMDL
MODEL 3
REMARK VINA RESULT:     -10.0      4.211      7.280
REMARK SMILES CCCOc1cc(NC[C@H]2CC[C@@H](C(=O)NCCCCCCNC(=O)c3ccc(-c4c5nc(c(-c6c(F)cc(S(=O)(=O)[O-])cc6F)c6ccc([nH]6)c(-c6c(F)cc(S(=O)(=O)[O-])cc6F)c6nc(c(-c7c(F)cc(S(=O)(=O)[O-])cc7F)c7ccc4[nH]7)C=C6)C=C5)cc3)O2)ncn1
REMARK SMILES IDX 18 1 17 2 16 3 14 4 15 5 13 7 10 8 11 9 92 10 12 11 9 12
REMARK SMILES IDX 8 13 7 15 5 16 6 17 95 18 94 19 93 20 4 21 3 22 2 23 1 24
REMARK SMILES IDX 19 25 20 26 21 27 22 28 23 29 24 30 25 32 26 33 27 34 91 35
REMARK SMILES IDX 28 36 90 37 29 38 30 39 31 40 84 41 32 42 89 43 83 44 85 45
REMARK SMILES IDX 33 46 88 47 82 48 81 49 34 51 68 52 47 53 67 54 48 55 51 56
REMARK SMILES IDX 66 57 86 58 49 59 50 60 65 62 87 63 52 64 35 65 36 66 45 67
REMARK SMILES IDX 37 68 38 69 44 70 46 71 39 72 40 73 41 74 42 75 43 76 69 77
REMARK SMILES IDX 70 78 79 79 71 80 72 81 78 82 80 83 73 84 74 85 75 86 76 87
REMARK SMILES IDX 77 88 53 89 54 90 63 91 55 92 56 93 62 94 64 95 57 96 58 97
REMARK SMILES IDX 59 98 60 99 61 100
REMARK H PARENT 16 6 8 14 23 31 85 50 51 61
REMARK Flexibility Score: inf
ROOT
ATOM      1  C   UNL A   1      44.001  23.303  28.613  1.00  0.00     0.021 C 
ENDROOT
BRANCH   1   2
ATOM      2  C   UNL A   1      45.332  23.537  27.917  1.00  0.00     0.116 C 
BRANCH   2   3
ATOM      3  N   UNL A   1      45.692  22.561  26.918  1.00  0.00    -0.354 N 
ATOM      4  C   UNL A   1      46.087  22.770  25.624  1.00  0.00     0.249 C 
ATOM      5  O   UNL A   1      46.474  21.786  24.982  1.00  0.00    -0.272 OA
ATOM      6  H   UNL A   1      45.648  21.620  27.204  1.00  0.00     0.163 HD
BRANCH   4   7
ATOM      7  C   UNL A   1      46.139  24.190  24.986  1.00  0.00     0.207 C 
ATOM      8  C   UNL A   1      45.291  26.384  25.124  1.00  0.00     0.138 C 
ATOM      9  C   UNL A   1      46.806  26.453  25.259  1.00  0.00     0.037 C 
ATOM     10  O   UNL A   1      44.955  24.986  24.965  1.00  0.00    -0.363 OA
ATOM     11  C   UNL A   1      47.210  25.047  25.638  1.00  0.00     0.045 C 
BRANCH   8  12
ATOM     12  C   UNL A   1      44.498  27.030  26.293  1.00  0.00     0.146 C 
BRANCH  12  13
ATOM     13  N   UNL A   1      45.343  27.893  27.101  1.00  0.00    -0.367 N 
ATOM     14  H   UNL A   1      45.961  27.466  27.736  1.00  0.00     0.162 HD
BRANCH  13  15
ATOM     15  C   UNL A   1      45.339  29.275  27.039  1.00  0.00     0.133 A 
ATOM     16  C   UNL A   1      44.856  31.283  28.135  1.00  0.00     0.218 A 
ATOM     17  C   UNL A   1      44.651  29.934  28.031  1.00  0.00     0.115 A 
ATOM     18  N   UNL A   1      45.542  31.998  27.242  1.00  0.00    -0.202 NA
ATOM     19  C   UNL A   1      46.045  31.282  26.225  1.00  0.00     0.228 A 
ATOM     20  N   UNL A   1      46.012  29.940  26.097  1.00  0.00    -0.219 NA
BRANCH  16  21
ATOM     21  O   UNL A   1      44.355  31.941  29.232  1.00  0.00    -0.478 OA
BRANCH  21  22
ATOM     22  C   UNL A   1      43.162  32.665  28.888  1.00  0.00     0.231 C 
BRANCH  22  23
ATOM     23  C   UNL A   1      43.346  34.180  29.078  1.00  0.00     0.038 C 
ATOM     24  C   UNL A   1      43.286  34.963  27.769  1.00  0.00     0.007 C 
ENDBRANCH  22  23
ENDBRANCH  21  22
ENDBRANCH  16  21
ENDBRANCH  13  15
ENDBRANCH  12  13
ENDBRANCH   8  12
ENDBRANCH   4   7
ENDBRANCH   2   3
ENDBRANCH   1   2
BRANCH   1  25
ATOM     25  C   UNL A   1      42.763  23.661  27.794  1.00  0.00     0.002 C 
BRANCH  25  26
ATOM     26  C   UNL A   1      42.605  22.929  26.457  1.00  0.00     0.002 C 
BRANCH  26  27
ATOM     27  C   UNL A   1      41.821  21.614  26.489  1.00  0.00     0.021 C 
BRANCH  27  28
ATOM     28  C   UNL A   1      40.449  21.670  27.154  1.00  0.00     0.116 C 
BRANCH  28  29
ATOM     29  N   UNL A   1      39.393  22.021  26.223  1.00  0.00    -0.352 N 
ATOM     30  C   UNL A   1      38.704  23.199  26.074  1.00  0.00     0.251 C 
ATOM     31  H   UNL A   1      39.129  21.303  25.603  1.00  0.00     0.163 HD
ATOM     32  O   UNL A   1      37.729  23.237  25.331  1.00  0.00    -0.269 OA
BRANCH  30  33
ATOM     33  C   UNL A   1      39.119  24.412  26.815  1.00  0.00     0.039 A 
ATOM     34  C   UNL A   1      38.687  24.572  28.134  1.00  0.00     0.014 A 
ATOM     35  C   UNL A   1      39.905  25.399  26.214  1.00  0.00     0.014 A 
ATOM     36  C   UNL A   1      39.085  25.693  28.865  1.00  0.00     0.010 A 
ATOM     37  C   UNL A   1      40.362  26.479  26.967  1.00  0.00     0.010 A 
ATOM     38  C   UNL A   1      39.952  26.641  28.298  1.00  0.00    -0.014 A 
BRANCH  38  39
ATOM     39  C   UNL A   1      40.440  27.804  29.086  1.00  0.00     0.031 A 
ATOM     40  C   UNL A   1      41.809  27.780  29.710  1.00  0.00     0.074 A 
ATOM     41  C   UNL A   1      39.625  28.860  29.285  1.00  0.00     0.049 A 
ATOM     42  N   UNL A   1      42.387  28.676  30.468  1.00  0.00    -0.248 NA
ATOM     43  C   UNL A   1      42.629  26.581  29.471  1.00  0.00     0.031 C 
ATOM     44  C   UNL A   1      38.258  28.980  28.771  1.00  0.00     0.029 A 
ATOM     45  N   UNL A   1      39.822  30.029  29.976  1.00  0.00    -0.354 N 
ATOM     46  C   UNL A   1      43.626  28.144  30.811  1.00  0.00     0.074 A 
ATOM     47  C   UNL A   1      43.696  26.827  30.217  1.00  0.00     0.031 C 
ATOM     48  C   UNL A   1      37.751  30.167  29.142  1.00  0.00     0.029 A 
ATOM     49  C   UNL A   1      38.738  30.874  29.952  1.00  0.00     0.049 A 
ATOM     50  H   UNL A   1      40.662  30.243  30.445  1.00  0.00     0.167 HD
ATOM     51  C   UNL A   1      44.619  28.710  31.537  1.00  0.00     0.037 A 
ATOM     52  C   UNL A   1      38.555  32.082  30.524  1.00  0.00     0.037 A 
ATOM     53  C   UNL A   1      44.549  30.034  32.101  1.00  0.00     0.049 A 
ATOM     54  C   UNL A   1      39.674  32.690  31.323  1.00  0.00     0.074 A 
ATOM     55  C   UNL A   1      45.528  30.724  32.795  1.00  0.00     0.029 A 
ATOM     56  N   UNL A   1      43.440  30.865  32.044  1.00  0.00    -0.354 N 
ATOM     57  N   UNL A   1      40.864  32.202  31.579  1.00  0.00    -0.248 NA
ATOM     58  C   UNL A   1      39.430  34.017  31.904  1.00  0.00     0.031 C 
ATOM     59  C   UNL A   1      44.993  31.951  33.202  1.00  0.00     0.029 A 
ATOM     60  C   UNL A   1      43.701  32.051  32.711  1.00  0.00     0.049 A 
ATOM     61  H   UNL A   1      42.592  30.645  31.595  1.00  0.00     0.167 HD
ATOM     62  C   UNL A   1      41.522  33.173  32.327  1.00  0.00     0.074 A 
ATOM     63  C   UNL A   1      40.600  34.281  32.472  1.00  0.00     0.031 C 
ATOM     64  C   UNL A   1      42.775  33.150  32.843  1.00  0.00     0.037 A 
BRANCH  51  65
ATOM     65  C   UNL A   1      45.869  27.905  31.766  1.00  0.00     0.058 A 
ATOM     66  C   UNL A   1      45.958  26.950  32.792  1.00  0.00     0.135 A 
ATOM     67  C   UNL A   1      46.978  28.056  30.917  1.00  0.00     0.135 A 
ATOM     68  F   UNL A   1      44.935  26.774  33.643  1.00  0.00    -0.206 F 
ATOM     69  C   UNL A   1      47.110  26.194  32.985  1.00  0.00     0.059 A 
ATOM     70  C   UNL A   1      48.130  27.288  31.072  1.00  0.00     0.059 A 
ATOM     71  F   UNL A   1      46.950  28.953  29.919  1.00  0.00    -0.206 F 
ATOM     72  C   UNL A   1      48.191  26.369  32.119  1.00  0.00     0.060 A 
BRANCH  72  73
ATOM     73  S   UNL A   1      49.672  25.370  32.375  1.00  0.00     0.124 S 
ATOM     74  O   UNL A   1      50.596  26.355  32.927  1.00  0.00    -0.237 OA
ATOM     75  O   UNL A   1      49.202  24.350  33.307  1.00  0.00    -0.237 OA
ATOM     76  O   UNL A   1      49.996  24.890  31.035  1.00  0.00    -0.744 OA
ENDBRANCH  72  73
ENDBRANCH  51  65
BRANCH  52  77
ATOM     77  C   UNL A   1      37.267  32.803  30.334  1.00  0.00     0.058 A 
ATOM     78  C   UNL A   1      36.224  32.673  31.263  1.00  0.00     0.135 A 
ATOM     79  C   UNL A   1      37.060  33.651  29.234  1.00  0.00     0.135 A 
ATOM     80  F   UNL A   1      36.371  31.869  32.326  1.00  0.00    -0.206 F 
ATOM     81  C   UNL A   1      35.018  33.346  31.104  1.00  0.00     0.059 A 
ATOM     82  C   UNL A   1      35.872  34.356  29.068  1.00  0.00     0.059 A 
ATOM     83  F   UNL A   1      38.031  33.821  28.323  1.00  0.00    -0.206 F 
ATOM     84  C   UNL A   1      34.853  34.191  30.004  1.00  0.00     0.060 A 
BRANCH  84  85
ATOM     85  S   UNL A   1      33.300  35.097  29.837  1.00  0.00     0.124 S 
ATOM     86  O   UNL A   1      32.602  34.303  28.832  1.00  0.00    -0.237 OA
ATOM     87  O   UNL A   1      32.760  35.031  31.191  1.00  0.00    -0.237 OA
ATOM     88  O   UNL A   1      33.729  36.424  29.405  1.00  0.00    -0.744 OA
ENDBRANCH  84  85
ENDBRANCH  52  77
BRANCH  64  89
ATOM     89  C   UNL A   1      43.245  34.371  33.585  1.00  0.00     0.058 A 
ATOM     90  C   UNL A   1      44.048  35.347  32.974  1.00  0.00     0.135 A 
ATOM     91  C   UNL A   1      42.839  34.595  34.912  1.00  0.00     0.135 A 
ATOM     92  F   UNL A   1      44.469  35.181  31.710  1.00  0.00    -0.206 F 
ATOM     93  C   UNL A   1      44.452  36.489  33.659  1.00  0.00     0.059 A 
ATOM     94  C   UNL A   1      43.206  35.743  35.605  1.00  0.00     0.059 A 
ATOM     95  F   UNL A   1      42.061  33.699  35.541  1.00  0.00    -0.206 F 
ATOM     96  C   UNL A   1      44.023  36.679  34.974  1.00  0.00     0.060 A 
BRANCH  96  97
ATOM     97  S   UNL A   1      44.526  38.182  35.839  1.00  0.00     0.124 S 
ATOM     98  O   UNL A   1      43.960  37.961  37.165  1.00  0.00    -0.237 OA
ATOM     99  O   UNL A   1      45.982  38.121  35.753  1.00  0.00    -0.237 OA
ATOM    100  O   UNL A   1      43.902  39.248  35.060  1.00  0.00    -0.744 OA
ENDBRANCH  96  97
ENDBRANCH  64  89
ENDBRANCH  38  39
ENDBRANCH  30  33
ENDBRANCH  28  29
ENDBRANCH  27  28
ENDBRANCH  26  27
ENDBRANCH  25  26
ENDBRANCH   1  25
TORSDOF 22
ENDMDL
