MODEL 1
REMARK VINA RESULT:     -11.8      0.000      0.000
REMARK SMILES Cc1ccc2nc(C(=O)NCCCCCCNC(=O)c3ccc(-c4c5nc(c(-c6c(F)cc(S(=O)(=O)[O-])cc6F)c6ccc([nH]6)c(-c6c(F)cc(S(=O)(=O)[O-])cc6F)c6nc(c(-c7c(F)cc(S(=O)(=O)[O-])cc7F)c7ccc4[nH]7)C=C6)C=C5)cc3)cc(N3CCOCC3)c2c1
REMARK SMILES IDX 14 1 13 2 12 3 11 4 10 5 8 6 9 7 7 9 1 10 2 11 3 12 95 13
REMARK SMILES IDX 4 14 94 15 5 16 87 17 6 18 86 19 88 20 89 21 93 22 90 23
REMARK SMILES IDX 92 24 91 25 15 26 16 27 17 28 18 29 19 31 20 32 21 33 85 34
REMARK SMILES IDX 22 35 84 36 23 37 24 38 25 39 78 40 26 41 83 42 77 43 79 44
REMARK SMILES IDX 27 45 82 46 76 47 75 48 28 50 62 51 41 52 61 53 42 54 45 55
REMARK SMILES IDX 60 56 80 57 43 58 44 59 59 61 81 62 46 63 29 64 30 65 39 66
REMARK SMILES IDX 31 67 32 68 38 69 40 70 33 71 34 72 35 73 36 74 37 75 63 76
REMARK SMILES IDX 64 77 73 78 65 79 66 80 72 81 74 82 67 83 68 84 69 85 70 86
REMARK SMILES IDX 71 87 47 88 48 89 57 90 49 91 50 92 56 93 58 94 51 95 52 96
REMARK SMILES IDX 53 97 54 98 55 99
REMARK H PARENT 10 8 17 30 79 49 45 60
REMARK Flexibility Score: inf
ROOT
ATOM      1  C   UNL A   1      32.454  26.879  24.933  1.00  0.00     0.002 C 
ENDROOT
BRANCH   1   2
ATOM      2  C   UNL A   1      32.281  26.199  23.568  1.00  0.00     0.002 C 
BRANCH   2   3
ATOM      3  C   UNL A   1      30.823  25.941  23.165  1.00  0.00     0.021 C 
BRANCH   3   4
ATOM      4  C   UNL A   1      30.354  24.526  23.516  1.00  0.00     0.116 C 
BRANCH   4   5
ATOM      5  N   UNL A   1      30.122  24.428  24.942  1.00  0.00    -0.351 N 
ATOM      6  C   UNL A   1      30.698  23.681  25.943  1.00  0.00     0.269 C 
ATOM      7  O   UNL A   1      30.191  23.808  27.062  1.00  0.00    -0.268 OA
ATOM      8  H   UNL A   1      29.403  25.020  25.261  1.00  0.00     0.163 HD
BRANCH   6   9
ATOM      9  C   UNL A   1      31.902  22.792  25.758  1.00  0.00     0.130 A 
ATOM     10  C   UNL A   1      38.021  20.823  25.036  1.00  0.00     0.044 C 
ATOM     11  C   UNL A   1      36.716  21.521  25.266  1.00  0.00    -0.050 A 
ATOM     12  C   UNL A   1      36.659  22.835  25.721  1.00  0.00     0.005 A 
ATOM     13  C   UNL A   1      35.517  20.842  25.034  1.00  0.00     0.016 A 
ATOM     14  C   UNL A   1      35.420  23.450  25.919  1.00  0.00     0.029 A 
ATOM     15  C   UNL A   1      34.259  21.435  25.298  1.00  0.00     0.024 A 
ATOM     16  C   UNL A   1      34.224  22.779  25.710  1.00  0.00     0.073 A 
ATOM     17  C   UNL A   1      33.026  20.746  25.169  1.00  0.00     0.049 A 
ATOM     18  N   UNL A   1      33.082  23.447  25.904  1.00  0.00    -0.242 NA
ATOM     19  C   UNL A   1      31.851  21.441  25.466  1.00  0.00     0.060 A 
BRANCH  17  20
ATOM     20  N   UNL A   1      32.980  19.416  24.763  1.00  0.00    -0.366 N 
ATOM     21  C   UNL A   1      32.804  18.377  25.792  1.00  0.00     0.145 C 
ATOM     22  C   UNL A   1      32.440  19.043  23.445  1.00  0.00     0.145 C 
ATOM     23  C   UNL A   1      33.400  17.059  25.271  1.00  0.00     0.181 C 
ATOM     24  C   UNL A   1      33.024  17.682  23.022  1.00  0.00     0.181 C 
ATOM     25  O   UNL A   1      32.799  16.674  24.024  1.00  0.00    -0.378 OA
ENDBRANCH  17  20
ENDBRANCH   6   9
ENDBRANCH   4   5
ENDBRANCH   3   4
ENDBRANCH   2   3
ENDBRANCH   1   2
BRANCH   1  26
ATOM     26  C   UNL A   1      33.799  27.583  25.129  1.00  0.00     0.021 C 
BRANCH  26  27
ATOM     27  C   UNL A   1      34.126  27.892  26.586  1.00  0.00     0.116 C 
BRANCH  27  28
ATOM     28  N   UNL A   1      33.749  29.253  26.935  1.00  0.00    -0.352 N 
ATOM     29  C   UNL A   1      34.411  30.156  27.730  1.00  0.00     0.251 C 
ATOM     30  H   UNL A   1      32.901  29.571  26.548  1.00  0.00     0.163 HD
ATOM     31  O   UNL A   1      33.831  31.157  28.138  1.00  0.00    -0.269 OA
BRANCH  29  32
ATOM     32  C   UNL A   1      35.822  29.909  28.091  1.00  0.00     0.039 A 
ATOM     33  C   UNL A   1      36.132  29.506  29.390  1.00  0.00     0.014 A 
ATOM     34  C   UNL A   1      36.837  30.086  27.144  1.00  0.00     0.014 A 
ATOM     35  C   UNL A   1      37.459  29.231  29.728  1.00  0.00     0.010 A 
ATOM     36  C   UNL A   1      38.145  29.739  27.460  1.00  0.00     0.010 A 
ATOM     37  C   UNL A   1      38.472  29.317  28.757  1.00  0.00    -0.014 A 
BRANCH  37  38
ATOM     38  C   UNL A   1      39.879  28.975  29.081  1.00  0.00     0.031 A 
ATOM     39  C   UNL A   1      40.781  30.006  29.705  1.00  0.00     0.074 A 
ATOM     40  C   UNL A   1      40.360  27.760  28.753  1.00  0.00     0.049 A 
ATOM     41  N   UNL A   1      42.052  29.921  29.998  1.00  0.00    -0.248 NA
ATOM     42  C   UNL A   1      40.181  31.314  30.015  1.00  0.00     0.031 C 
ATOM     43  C   UNL A   1      39.594  26.696  28.099  1.00  0.00     0.029 A 
ATOM     44  N   UNL A   1      41.610  27.218  28.912  1.00  0.00    -0.354 N 
ATOM     45  C   UNL A   1      42.407  31.162  30.513  1.00  0.00     0.074 A 
ATOM     46  C   UNL A   1      41.232  32.001  30.439  1.00  0.00     0.031 C 
ATOM     47  C   UNL A   1      40.384  25.623  27.935  1.00  0.00     0.029 A 
ATOM     48  C   UNL A   1      41.720  25.934  28.433  1.00  0.00     0.049 A 
ATOM     49  H   UNL A   1      42.358  27.702  29.331  1.00  0.00     0.167 HD
ATOM     50  C   UNL A   1      43.597  31.559  31.022  1.00  0.00     0.037 A 
ATOM     51  C   UNL A   1      42.780  25.104  28.390  1.00  0.00     0.037 A 
ATOM     52  C   UNL A   1      44.756  30.709  31.110  1.00  0.00     0.049 A 
ATOM     53  C   UNL A   1      44.094  25.567  28.958  1.00  0.00     0.074 A 
ATOM     54  C   UNL A   1      45.993  30.994  31.661  1.00  0.00     0.029 A 
ATOM     55  N   UNL A   1      44.823  29.407  30.633  1.00  0.00    -0.354 N 
ATOM     56  N   UNL A   1      44.394  26.724  29.502  1.00  0.00    -0.248 NA
ATOM     57  C   UNL A   1      45.210  24.613  28.917  1.00  0.00     0.031 C 
ATOM     58  C   UNL A   1      46.822  29.884  31.472  1.00  0.00     0.029 A 
ATOM     59  C   UNL A   1      46.086  28.885  30.856  1.00  0.00     0.049 A 
ATOM     60  H   UNL A   1      44.081  28.926  30.200  1.00  0.00     0.167 HD
ATOM     61  C   UNL A   1      45.725  26.625  29.893  1.00  0.00     0.074 A 
ATOM     62  C   UNL A   1      46.167  25.293  29.533  1.00  0.00     0.031 C 
ATOM     63  C   UNL A   1      46.508  27.552  30.499  1.00  0.00     0.037 A 
BRANCH  50  64
ATOM     64  C   UNL A   1      43.707  32.974  31.524  1.00  0.00     0.058 A 
ATOM     65  C   UNL A   1      43.413  33.310  32.857  1.00  0.00     0.135 A 
ATOM     66  C   UNL A   1      44.142  34.002  30.674  1.00  0.00     0.135 A 
ATOM     67  F   UNL A   1      42.979  32.370  33.711  1.00  0.00    -0.206 F 
ATOM     68  C   UNL A   1      43.515  34.618  33.318  1.00  0.00     0.059 A 
ATOM     69  C   UNL A   1      44.282  35.314  31.122  1.00  0.00     0.059 A 
ATOM     70  F   UNL A   1      44.437  33.740  29.391  1.00  0.00    -0.206 F 
ATOM     71  C   UNL A   1      43.950  35.614  32.441  1.00  0.00     0.060 A 
BRANCH  71  72
ATOM     72  S   UNL A   1      44.078  37.306  33.057  1.00  0.00     0.124 S 
ATOM     73  O   UNL A   1      42.919  37.381  33.942  1.00  0.00    -0.237 OA
ATOM     74  O   UNL A   1      45.379  37.301  33.716  1.00  0.00    -0.237 OA
ATOM     75  O   UNL A   1      43.995  38.115  31.846  1.00  0.00    -0.744 OA
ENDBRANCH  71  72
ENDBRANCH  50  64
BRANCH  51  76
ATOM     76  C   UNL A   1      42.634  23.743  27.808  1.00  0.00     0.058 A 
ATOM     77  C   UNL A   1      42.693  23.540  26.421  1.00  0.00     0.135 A 
ATOM     78  C   UNL A   1      42.456  22.615  28.625  1.00  0.00     0.135 A 
ATOM     79  F   UNL A   1      42.859  24.586  25.597  1.00  0.00    -0.206 F 
ATOM     80  C   UNL A   1      42.563  22.272  25.862  1.00  0.00     0.059 A 
ATOM     81  C   UNL A   1      42.349  21.335  28.092  1.00  0.00     0.059 A 
ATOM     82  F   UNL A   1      42.411  22.752  29.959  1.00  0.00    -0.206 F 
ATOM     83  C   UNL A   1      42.394  21.174  26.708  1.00  0.00     0.060 A 
BRANCH  83  84
ATOM     84  S   UNL A   1      42.279  19.527  25.976  1.00  0.00     0.124 S 
ATOM     85  O   UNL A   1      42.764  18.688  27.065  1.00  0.00    -0.237 OA
ATOM     86  O   UNL A   1      40.855  19.426  25.675  1.00  0.00    -0.237 OA
ATOM     87  O   UNL A   1      43.154  19.618  24.810  1.00  0.00    -0.744 OA
ENDBRANCH  83  84
ENDBRANCH  51  76
BRANCH  63  88
ATOM     88  C   UNL A   1      47.915  27.150  30.851  1.00  0.00     0.058 A 
ATOM     89  C   UNL A   1      48.217  26.489  32.050  1.00  0.00     0.135 A 
ATOM     90  C   UNL A   1      48.963  27.378  29.944  1.00  0.00     0.135 A 
ATOM     91  F   UNL A   1      47.254  26.252  32.955  1.00  0.00    -0.206 F 
ATOM     92  C   UNL A   1      49.515  26.087  32.350  1.00  0.00     0.059 A 
ATOM     93  C   UNL A   1      50.263  26.959  30.209  1.00  0.00     0.059 A 
ATOM     94  F   UNL A   1      48.726  27.998  28.777  1.00  0.00    -0.206 F 
ATOM     95  C   UNL A   1      50.531  26.323  31.421  1.00  0.00     0.060 A 
BRANCH  95  96
ATOM     96  S   UNL A   1      52.203  25.760  31.804  1.00  0.00     0.124 S 
ATOM     97  O   UNL A   1      52.555  26.629  32.923  1.00  0.00    -0.237 OA
ATOM     98  O   UNL A   1      51.990  24.355  32.136  1.00  0.00    -0.237 OA
ATOM     99  O   UNL A   1      52.936  26.002  30.566  1.00  0.00    -0.744 OA
ENDBRANCH  95  96
ENDBRANCH  63  88
ENDBRANCH  37  38
ENDBRANCH  29  32
ENDBRANCH  27  28
ENDBRANCH  26  27
ENDBRANCH   1  26
TORSDOF 17
ENDMDL
MODEL 2
REMARK VINA RESULT:     -10.9      5.075      7.282
REMARK SMILES Cc1ccc2nc(C(=O)NCCCCCCNC(=O)c3ccc(-c4c5nc(c(-c6c(F)cc(S(=O)(=O)[O-])cc6F)c6ccc([nH]6)c(-c6c(F)cc(S(=O)(=O)[O-])cc6F)c6nc(c(-c7c(F)cc(S(=O)(=O)[O-])cc7F)c7ccc4[nH]7)C=C6)C=C5)cc3)cc(N3CCOCC3)c2c1
REMARK SMILES IDX 14 1 13 2 12 3 11 4 10 5 8 6 9 7 7 9 1 10 2 11 3 12 95 13
REMARK SMILES IDX 4 14 94 15 5 16 87 17 6 18 86 19 88 20 89 21 93 22 90 23
REMARK SMILES IDX 92 24 91 25 15 26 16 27 17 28 18 29 19 31 20 32 21 33 85 34
REMARK SMILES IDX 22 35 84 36 23 37 24 38 25 39 78 40 26 41 83 42 77 43 79 44
REMARK SMILES IDX 27 45 82 46 76 47 75 48 28 50 62 51 41 52 61 53 42 54 45 55
REMARK SMILES IDX 60 56 80 57 43 58 44 59 59 61 81 62 46 63 29 64 30 65 39 66
REMARK SMILES IDX 31 67 32 68 38 69 40 70 33 71 34 72 35 73 36 74 37 75 63 76
REMARK SMILES IDX 64 77 73 78 65 79 66 80 72 81 74 82 67 83 68 84 69 85 70 86
REMARK SMILES IDX 71 87 47 88 48 89 57 90 49 91 50 92 56 93 58 94 51 95 52 96
REMARK SMILES IDX 53 97 54 98 55 99
REMARK H PARENT 10 8 17 30 79 49 45 60
REMARK Flexibility Score: inf
ROOT
ATOM      1  C   UNL A   1      35.236  33.504  27.975  1.00  0.00     0.002 C 
ENDROOT
BRANCH   1   2
ATOM      2  C   UNL A   1      34.736  32.221  28.650  1.00  0.00     0.002 C 
BRANCH   2   3
ATOM      3  C   UNL A   1      35.178  30.923  27.960  1.00  0.00     0.021 C 
BRANCH   3   4
ATOM      4  C   UNL A   1      34.086  30.328  27.067  1.00  0.00     0.116 C 
BRANCH   4   5
ATOM      5  N   UNL A   1      33.296  29.382  27.826  1.00  0.00    -0.351 N 
ATOM      6  C   UNL A   1      32.388  28.411  27.473  1.00  0.00     0.269 C 
ATOM      7  O   UNL A   1      31.845  27.822  28.412  1.00  0.00    -0.268 OA
ATOM      8  H   UNL A   1      33.440  29.447  28.798  1.00  0.00     0.163 HD
BRANCH   6   9
ATOM      9  C   UNL A   1      32.077  28.011  26.052  1.00  0.00     0.130 A 
ATOM     10  C   UNL A   1      32.585  25.357  20.175  1.00  0.00     0.044 C 
ATOM     11  C   UNL A   1      32.683  25.814  21.598  1.00  0.00    -0.050 A 
ATOM     12  C   UNL A   1      33.596  25.253  22.486  1.00  0.00     0.005 A 
ATOM     13  C   UNL A   1      31.830  26.819  22.064  1.00  0.00     0.016 A 
ATOM     14  C   UNL A   1      33.657  25.712  23.805  1.00  0.00     0.029 A 
ATOM     15  C   UNL A   1      31.838  27.239  23.414  1.00  0.00     0.024 A 
ATOM     16  C   UNL A   1      32.803  26.695  24.282  1.00  0.00     0.073 A 
ATOM     17  C   UNL A   1      30.924  28.185  23.946  1.00  0.00     0.049 A 
ATOM     18  N   UNL A   1      32.940  27.090  25.551  1.00  0.00    -0.242 NA
ATOM     19  C   UNL A   1      31.030  28.513  25.300  1.00  0.00     0.060 A 
BRANCH  17  20
ATOM     20  N   UNL A   1      29.944  28.770  23.150  1.00  0.00    -0.366 N 
ATOM     21  C   UNL A   1      30.373  29.601  22.012  1.00  0.00     0.145 C 
ATOM     22  C   UNL A   1      28.639  28.118  22.949  1.00  0.00     0.145 C 
ATOM     23  C   UNL A   1      29.260  30.613  21.692  1.00  0.00     0.181 C 
ATOM     24  C   UNL A   1      27.593  29.179  22.560  1.00  0.00     0.181 C 
ATOM     25  O   UNL A   1      28.016  29.948  21.420  1.00  0.00    -0.378 OA
ENDBRANCH  17  20
ENDBRANCH   6   9
ENDBRANCH   4   5
ENDBRANCH   3   4
ENDBRANCH   2   3
ENDBRANCH   1   2
BRANCH   1  26
ATOM     26  C   UNL A   1      34.254  34.677  28.027  1.00  0.00     0.021 C 
BRANCH  26  27
ATOM     27  C   UNL A   1      32.919  34.335  28.680  1.00  0.00     0.116 C 
BRANCH  27  28
ATOM     28  N   UNL A   1      32.554  35.322  29.685  1.00  0.00    -0.352 N 
ATOM     29  C   UNL A   1      32.980  35.429  30.986  1.00  0.00     0.251 C 
ATOM     30  H   UNL A   1      31.912  36.008  29.392  1.00  0.00     0.163 HD
ATOM     31  O   UNL A   1      32.377  36.150  31.773  1.00  0.00    -0.269 OA
BRANCH  29  32
ATOM     32  C   UNL A   1      34.165  34.665  31.427  1.00  0.00     0.039 A 
ATOM     33  C   UNL A   1      35.439  35.169  31.162  1.00  0.00     0.014 A 
ATOM     34  C   UNL A   1      34.012  33.445  32.096  1.00  0.00     0.014 A 
ATOM     35  C   UNL A   1      36.562  34.474  31.612  1.00  0.00     0.010 A 
ATOM     36  C   UNL A   1      35.129  32.794  32.609  1.00  0.00     0.010 A 
ATOM     37  C   UNL A   1      36.415  33.296  32.364  1.00  0.00    -0.014 A 
BRANCH  37  38
ATOM     38  C   UNL A   1      37.595  32.572  32.899  1.00  0.00     0.031 A 
ATOM     39  C   UNL A   1      38.195  32.978  34.219  1.00  0.00     0.074 A 
ATOM     40  C   UNL A   1      38.163  31.594  32.166  1.00  0.00     0.049 A 
ATOM     41  N   UNL A   1      39.260  32.515  34.818  1.00  0.00    -0.248 NA
ATOM     42  C   UNL A   1      37.524  34.067  34.947  1.00  0.00     0.031 C 
ATOM     43  C   UNL A   1      37.700  31.147  30.850  1.00  0.00     0.029 A 
ATOM     44  N   UNL A   1      39.259  30.807  32.416  1.00  0.00    -0.354 N 
ATOM     45  C   UNL A   1      39.395  33.261  35.983  1.00  0.00     0.074 A 
ATOM     46  C   UNL A   1      38.336  34.245  35.978  1.00  0.00     0.031 C 
ATOM     47  C   UNL A   1      38.492  30.151  30.421  1.00  0.00     0.029 A 
ATOM     48  C   UNL A   1      39.541  29.916  31.408  1.00  0.00     0.049 A 
ATOM     49  H   UNL A   1      39.793  30.874  33.240  1.00  0.00     0.167 HD
ATOM     50  C   UNL A   1      40.304  33.122  36.977  1.00  0.00     0.037 A 
ATOM     51  C   UNL A   1      40.537  29.018  31.288  1.00  0.00     0.037 A 
ATOM     52  C   UNL A   1      41.342  32.124  36.982  1.00  0.00     0.049 A 
ATOM     53  C   UNL A   1      41.538  28.884  32.403  1.00  0.00     0.074 A 
ATOM     54  C   UNL A   1      42.278  31.861  37.966  1.00  0.00     0.029 A 
ATOM     55  N   UNL A   1      41.583  31.225  35.952  1.00  0.00    -0.354 N 
ATOM     56  N   UNL A   1      41.612  29.554  33.529  1.00  0.00    -0.248 NA
ATOM     57  C   UNL A   1      42.586  27.867  32.238  1.00  0.00     0.031 C 
ATOM     58  C   UNL A   1      43.116  30.838  37.511  1.00  0.00     0.029 A 
ATOM     59  C   UNL A   1      42.667  30.423  36.267  1.00  0.00     0.049 A 
ATOM     60  H   UNL A   1      41.060  31.167  35.120  1.00  0.00     0.167 HD
ATOM     61  C   UNL A   1      42.695  29.021  34.218  1.00  0.00     0.074 A 
ATOM     62  C   UNL A   1      43.239  27.966  33.388  1.00  0.00     0.031 C 
ATOM     63  C   UNL A   1      43.191  29.370  35.431  1.00  0.00     0.037 A 
BRANCH  50  64
ATOM     64  C   UNL A   1      40.217  34.071  38.142  1.00  0.00     0.058 A 
ATOM     65  C   UNL A   1      39.395  33.807  39.251  1.00  0.00     0.135 A 
ATOM     66  C   UNL A   1      40.989  35.243  38.168  1.00  0.00     0.135 A 
ATOM     67  F   UNL A   1      38.624  32.708  39.274  1.00  0.00    -0.206 F 
ATOM     68  C   UNL A   1      39.316  34.686  40.325  1.00  0.00     0.059 A 
ATOM     69  C   UNL A   1      40.949  36.123  39.248  1.00  0.00     0.059 A 
ATOM     70  F   UNL A   1      41.792  35.547  37.137  1.00  0.00    -0.206 F 
ATOM     71  C   UNL A   1      40.098  35.842  40.314  1.00  0.00     0.060 A 
BRANCH  71  72
ATOM     72  S   UNL A   1      39.984  36.972  41.718  1.00  0.00     0.124 S 
ATOM     73  O   UNL A   1      41.394  37.202  42.020  1.00  0.00    -0.237 OA
ATOM     74  O   UNL A   1      39.266  38.106  41.149  1.00  0.00    -0.237 OA
ATOM     75  O   UNL A   1      39.247  36.202  42.715  1.00  0.00    -0.744 OA
ENDBRANCH  71  72
ENDBRANCH  50  64
BRANCH  51  76
ATOM     76  C   UNL A   1      40.621  28.160  30.075  1.00  0.00     0.058 A 
ATOM     77  C   UNL A   1      41.615  28.371  29.109  1.00  0.00     0.135 A 
ATOM     78  C   UNL A   1      39.724  27.100  29.869  1.00  0.00     0.135 A 
ATOM     79  F   UNL A   1      42.495  29.373  29.258  1.00  0.00    -0.206 F 
ATOM     80  C   UNL A   1      41.709  27.574  27.972  1.00  0.00     0.059 A 
ATOM     81  C   UNL A   1      39.813  26.273  28.754  1.00  0.00     0.059 A 
ATOM     82  F   UNL A   1      38.765  26.844  30.772  1.00  0.00    -0.206 F 
ATOM     83  C   UNL A   1      40.804  26.524  27.805  1.00  0.00     0.060 A 
BRANCH  83  84
ATOM     84  S   UNL A   1      40.966  25.463  26.353  1.00  0.00     0.124 S 
ATOM     85  O   UNL A   1      39.652  24.834  26.301  1.00  0.00    -0.237 OA
ATOM     86  O   UNL A   1      41.256  26.430  25.299  1.00  0.00    -0.237 OA
ATOM     87  O   UNL A   1      42.076  24.581  26.706  1.00  0.00    -0.744 OA
ENDBRANCH  83  84
ENDBRANCH  51  76
BRANCH  63  88
ATOM     88  C   UNL A   1      44.359  28.581  35.957  1.00  0.00     0.058 A 
ATOM     89  C   UNL A   1      45.684  28.985  35.738  1.00  0.00     0.135 A 
ATOM     90  C   UNL A   1      44.142  27.437  36.743  1.00  0.00     0.135 A 
ATOM     91  F   UNL A   1      45.947  30.067  34.988  1.00  0.00    -0.206 F 
ATOM     92  C   UNL A   1      46.757  28.269  36.261  1.00  0.00     0.059 A 
ATOM     93  C   UNL A   1      45.198  26.723  37.301  1.00  0.00     0.059 A 
ATOM     94  F   UNL A   1      42.893  27.013  36.992  1.00  0.00    -0.206 F 
ATOM     95  C   UNL A   1      46.504  27.142  37.045  1.00  0.00     0.060 A 
BRANCH  95  96
ATOM     96  S   UNL A   1      47.903  26.246  37.751  1.00  0.00     0.124 S 
ATOM     97  O   UNL A   1      47.243  25.413  38.752  1.00  0.00    -0.237 OA
ATOM     98  O   UNL A   1      48.437  25.539  36.592  1.00  0.00    -0.237 OA
ATOM     99  O   UNL A   1      48.755  27.306  38.279  1.00  0.00    -0.744 OA
ENDBRANCH  95  96
ENDBRANCH  63  88
ENDBRANCH  37  38
ENDBRANCH  29  32
ENDBRANCH  27  28
ENDBRANCH  26  27
ENDBRANCH   1  26
TORSDOF 17
ENDMDL
MODEL 3
REMARK VINA RESULT:     -10.8      2.341      3.026
REMARK SMILES Cc1ccc2nc(C(=O)NCCCCCCNC(=O)c3ccc(-c4c5nc(c(-c6c(F)cc(S(=O)(=O)[O-])cc6F)c6ccc([nH]6)c(-c6c(F)cc(S(=O)(=O)[O-])cc6F)c6nc(c(-c7c(F)cc(S(=O)(=O)[O-])cc7F)c7ccc4[nH]7)C=C6)C=C5)cc3)cc(N3CCOCC3)c2c1
REMARK SMILES IDX 14 1 13 2 12 3 11 4 10 5 8 6 9 7 7 9 1 10 2 11 3 12 95 13
REMARK SMILES IDX 4 14 94 15 5 16 87 17 6 18 86 19 88 20 89 21 93 22 90 23
REMARK SMILES IDX 92 24 91 25 15 26 16 27 17 28 18 29 19 31 20 32 21 33 85 34
REMARK SMILES IDX 22 35 84 36 23 37 24 38 25 39 78 40 26 41 83 42 77 43 79 44
REMARK SMILES IDX 27 45 82 46 76 47 75 48 28 50 62 51 41 52 61 53 42 54 45 55
REMARK SMILES IDX 60 56 80 57 43 58 44 59 59 61 81 62 46 63 29 64 30 65 39 66
REMARK SMILES IDX 31 67 32 68 38 69 40 70 33 71 34 72 35 73 36 74 37 75 63 76
REMARK SMILES IDX 64 77 73 78 65 79 66 80 72 81 74 82 67 83 68 84 69 85 70 86
REMARK SMILES IDX 71 87 47 88 48 89 57 90 49 91 50 92 56 93 58 94 51 95 52 96
REMARK SMILES IDX 53 97 54 98 55 99
REMARK H PARENT 10 8 17 30 79 49 45 60
REMARK Flexibility Score: inf
ROOT
ATOM      1  C   UNL A   1      33.478  27.168  26.143  1.00  0.00     0.002 C 
ENDROOT
BRANCH   1   2
ATOM      2  C   UNL A   1      32.739  26.478  24.988  1.00  0.00     0.002 C 
BRANCH   2   3
ATOM      3  C   UNL A   1      31.211  26.604  25.043  1.00  0.00     0.021 C 
BRANCH   3   4
ATOM      4  C   UNL A   1      30.497  25.305  24.661  1.00  0.00     0.116 C 
BRANCH   4   5
ATOM      5  N   UNL A   1      30.037  24.631  25.857  1.00  0.00    -0.351 N 
ATOM      6  C   UNL A   1      30.452  23.502  26.525  1.00  0.00     0.269 C 
ATOM      7  O   UNL A   1      29.767  23.177  27.499  1.00  0.00    -0.268 OA
ATOM      8  H   UNL A   1      29.265  25.073  26.280  1.00  0.00     0.163 HD
BRANCH   6   9
ATOM      9  C   UNL A   1      31.684  22.708  26.171  1.00  0.00     0.130 A 
ATOM     10  C   UNL A   1      37.835  21.173  24.885  1.00  0.00     0.044 C 
ATOM     11  C   UNL A   1      36.514  21.768  25.267  1.00  0.00    -0.050 A 
ATOM     12  C   UNL A   1      36.422  23.016  25.876  1.00  0.00     0.005 A 
ATOM     13  C   UNL A   1      35.337  21.055  25.024  1.00  0.00     0.016 A 
ATOM     14  C   UNL A   1      35.169  23.536  26.212  1.00  0.00     0.029 A 
ATOM     15  C   UNL A   1      34.071  21.543  25.425  1.00  0.00     0.024 A 
ATOM     16  C   UNL A   1      33.996  22.828  25.993  1.00  0.00     0.073 A 
ATOM     17  C   UNL A   1      32.867  20.808  25.284  1.00  0.00     0.049 A 
ATOM     18  N   UNL A   1      32.837  23.406  26.326  1.00  0.00    -0.242 NA
ATOM     19  C   UNL A   1      31.680  21.398  25.725  1.00  0.00     0.060 A 
BRANCH  17  20
ATOM     20  N   UNL A   1      32.860  19.532  24.728  1.00  0.00    -0.366 N 
ATOM     21  C   UNL A   1      32.794  18.374  25.636  1.00  0.00     0.145 C 
ATOM     22  C   UNL A   1      32.261  19.283  23.405  1.00  0.00     0.145 C 
ATOM     23  C   UNL A   1      33.421  17.159  24.933  1.00  0.00     0.181 C 
ATOM     24  C   UNL A   1      32.883  18.013  22.796  1.00  0.00     0.181 C 
ATOM     25  O   UNL A   1      32.766  16.887  23.684  1.00  0.00    -0.378 OA
ENDBRANCH  17  20
ENDBRANCH   6   9
ENDBRANCH   4   5
ENDBRANCH   3   4
ENDBRANCH   2   3
ENDBRANCH   1   2
BRANCH   1  26
ATOM     26  C   UNL A   1      33.997  28.572  25.820  1.00  0.00     0.021 C 
BRANCH  26  27
ATOM     27  C   UNL A   1      34.985  29.114  26.846  1.00  0.00     0.116 C 
BRANCH  27  28
ATOM     28  N   UNL A   1      34.563  30.410  27.354  1.00  0.00    -0.352 N 
ATOM     29  C   UNL A   1      35.035  31.111  28.436  1.00  0.00     0.251 C 
ATOM     30  H   UNL A   1      33.837  30.846  26.851  1.00  0.00     0.163 HD
ATOM     31  O   UNL A   1      34.394  32.055  28.884  1.00  0.00    -0.269 OA
BRANCH  29  32
ATOM     32  C   UNL A   1      36.316  30.713  29.056  1.00  0.00     0.039 A 
ATOM     33  C   UNL A   1      36.324  29.693  30.008  1.00  0.00     0.014 A 
ATOM     34  C   UNL A   1      37.505  31.359  28.700  1.00  0.00     0.014 A 
ATOM     35  C   UNL A   1      37.536  29.283  30.567  1.00  0.00     0.010 A 
ATOM     36  C   UNL A   1      38.717  30.899  29.202  1.00  0.00     0.010 A 
ATOM     37  C   UNL A   1      38.745  29.864  30.148  1.00  0.00    -0.014 A 
BRANCH  37  38
ATOM     38  C   UNL A   1      40.048  29.405  30.690  1.00  0.00     0.031 A 
ATOM     39  C   UNL A   1      40.665  30.110  31.867  1.00  0.00     0.074 A 
ATOM     40  C   UNL A   1      40.703  28.397  30.080  1.00  0.00     0.049 A 
ATOM     41  N   UNL A   1      41.823  29.903  32.439  1.00  0.00    -0.248 NA
ATOM     42  C   UNL A   1      39.892  31.212  32.463  1.00  0.00     0.031 C 
ATOM     43  C   UNL A   1      40.227  27.671  28.901  1.00  0.00     0.029 A 
ATOM     44  N   UNL A   1      41.915  27.817  30.360  1.00  0.00    -0.354 N 
ATOM     45  C   UNL A   1      41.922  30.852  33.450  1.00  0.00     0.074 A 
ATOM     46  C   UNL A   1      40.734  31.673  33.376  1.00  0.00     0.031 C 
ATOM     47  C   UNL A   1      41.126  26.728  28.573  1.00  0.00     0.029 A 
ATOM     48  C   UNL A   1      42.258  26.809  29.491  1.00  0.00     0.049 A 
ATOM     49  H   UNL A   1      42.485  28.096  31.112  1.00  0.00     0.167 HD
ATOM     50  C   UNL A   1      42.902  31.009  34.370  1.00  0.00     0.037 A 
ATOM     51  C   UNL A   1      43.364  26.042  29.433  1.00  0.00     0.037 A 
ATOM     52  C   UNL A   1      44.072  30.173  34.448  1.00  0.00     0.049 A 
ATOM     53  C   UNL A   1      44.442  26.237  30.464  1.00  0.00     0.074 A 
ATOM     54  C   UNL A   1      45.097  30.211  35.377  1.00  0.00     0.029 A 
ATOM     55  N   UNL A   1      44.374  29.147  33.563  1.00  0.00    -0.354 N 
ATOM     56  N   UNL A   1      44.489  27.098  31.453  1.00  0.00    -0.248 NA
ATOM     57  C   UNL A   1      45.613  25.354  30.377  1.00  0.00     0.031 C 
ATOM     58  C   UNL A   1      46.043  29.243  35.024  1.00  0.00     0.029 A 
ATOM     59  C   UNL A   1      45.580  28.562  33.909  1.00  0.00     0.049 A 
ATOM     60  H   UNL A   1      43.814  28.877  32.800  1.00  0.00     0.167 HD
ATOM     61  C   UNL A   1      45.680  26.839  32.124  1.00  0.00     0.074 A 
ATOM     62  C   UNL A   1      46.317  25.737  31.434  1.00  0.00     0.031 C 
ATOM     63  C   UNL A   1      46.197  27.457  33.215  1.00  0.00     0.037 A 
BRANCH  50  64
ATOM     64  C   UNL A   1      42.754  32.128  35.367  1.00  0.00     0.058 A 
ATOM     65  C   UNL A   1      43.241  33.420  35.106  1.00  0.00     0.135 A 
ATOM     66  C   UNL A   1      42.087  31.916  36.584  1.00  0.00     0.135 A 
ATOM     67  F   UNL A   1      43.900  33.676  33.965  1.00  0.00    -0.206 F 
ATOM     68  C   UNL A   1      43.104  34.451  36.029  1.00  0.00     0.059 A 
ATOM     69  C   UNL A   1      41.910  32.942  37.510  1.00  0.00     0.059 A 
ATOM     70  F   UNL A   1      41.600  30.703  36.887  1.00  0.00    -0.206 F 
ATOM     71  C   UNL A   1      42.436  34.201  37.229  1.00  0.00     0.060 A 
BRANCH  71  72
ATOM     72  S   UNL A   1      42.264  35.551  38.415  1.00  0.00     0.124 S 
ATOM     73  O   UNL A   1      40.935  35.291  38.960  1.00  0.00    -0.237 OA
ATOM     74  O   UNL A   1      43.379  35.311  39.325  1.00  0.00    -0.237 OA
ATOM     75  O   UNL A   1      42.379  36.747  37.588  1.00  0.00    -0.744 OA
ENDBRANCH  71  72
ENDBRANCH  50  64
BRANCH  51  76
ATOM     76  C   UNL A   1      43.493  25.004  28.375  1.00  0.00     0.058 A 
ATOM     77  C   UNL A   1      44.004  25.324  27.108  1.00  0.00     0.135 A 
ATOM     78  C   UNL A   1      43.130  23.669  28.614  1.00  0.00     0.135 A 
ATOM     79  F   UNL A   1      44.363  26.586  26.829  1.00  0.00    -0.206 F 
ATOM     80  C   UNL A   1      44.136  24.363  26.110  1.00  0.00     0.059 A 
ATOM     81  C   UNL A   1      43.276  22.686  27.642  1.00  0.00     0.059 A 
ATOM     82  F   UNL A   1      42.652  23.307  29.815  1.00  0.00    -0.206 F 
ATOM     83  C   UNL A   1      43.771  23.044  26.389  1.00  0.00     0.060 A 
BRANCH  83  84
ATOM     84  S   UNL A   1      43.995  21.795  25.104  1.00  0.00     0.124 S 
ATOM     85  O   UNL A   1      42.888  20.887  25.382  1.00  0.00    -0.237 OA
ATOM     86  O   UNL A   1      43.882  22.587  23.884  1.00  0.00    -0.237 OA
ATOM     87  O   UNL A   1      45.329  21.267  25.380  1.00  0.00    -0.744 OA
ENDBRANCH  83  84
ENDBRANCH  51  76
BRANCH  63  88
ATOM     88  C   UNL A   1      47.497  26.932  33.760  1.00  0.00     0.058 A 
ATOM     89  C   UNL A   1      48.734  27.456  33.356  1.00  0.00     0.135 A 
ATOM     90  C   UNL A   1      47.498  25.932  34.746  1.00  0.00     0.135 A 
ATOM     91  F   UNL A   1      48.790  28.409  32.412  1.00  0.00    -0.206 F 
ATOM     92  C   UNL A   1      49.930  26.990  33.894  1.00  0.00     0.059 A 
ATOM     93  C   UNL A   1      48.679  25.471  35.319  1.00  0.00     0.059 A 
ATOM     94  F   UNL A   1      46.341  25.404  35.176  1.00  0.00    -0.206 F 
ATOM     95  C   UNL A   1      49.892  26.000  34.878  1.00  0.00     0.060 A 
BRANCH  95  96
ATOM     96  S   UNL A   1      51.448  25.433  35.597  1.00  0.00     0.124 S 
ATOM     97  O   UNL A   1      52.211  25.082  34.403  1.00  0.00    -0.237 OA
ATOM     98  O   UNL A   1      51.908  26.617  36.317  1.00  0.00    -0.237 OA
ATOM     99  O   UNL A   1      51.046  24.311  36.438  1.00  0.00    -0.744 OA
ENDBRANCH  95  96
ENDBRANCH  63  88
ENDBRANCH  37  38
ENDBRANCH  29  32
ENDBRANCH  27  28
ENDBRANCH  26  27
ENDBRANCH   1  26
TORSDOF 17
ENDMDL
