MODEL 1
REMARK VINA RESULT:     -11.6      0.000      0.000
REMARK SMILES Cc1cc(Cl)cc2c1O[C@H](C(F)(F)F)C(C(=O)NCCCCCCNC(=O)c1ccc(-c3c4nc(c(-c5c(F)cc(S(=O)(=O)[O-])cc5F)c5ccc([nH]5)c(-c5c(F)cc(S(=O)(=O)[O-])cc5F)c5nc(c(-c6c(F)cc(S(=O)(=O)[O-])cc6F)c6ccc3[nH]6)C=C5)C=C4)cc1)=C2
REMARK SMILES IDX 22 1 21 2 20 3 19 4 18 5 16 6 17 7 15 9 1 10 2 11 3 12 8 13
REMARK SMILES IDX 4 14 7 15 9 16 5 17 6 18 94 19 10 20 11 21 12 22 13 23 14 24
REMARK SMILES IDX 23 25 24 26 25 27 26 28 27 30 28 31 29 32 93 33 30 34 92 35
REMARK SMILES IDX 31 36 32 37 33 38 86 39 34 40 91 41 85 42 87 43 35 44 90 45
REMARK SMILES IDX 84 46 83 47 36 49 70 50 49 51 69 52 50 53 53 54 68 55 88 56
REMARK SMILES IDX 51 57 52 58 67 60 89 61 54 62 37 63 38 64 47 65 39 66 40 67
REMARK SMILES IDX 46 68 48 69 41 70 42 71 43 72 44 73 45 74 71 75 72 76 81 77
REMARK SMILES IDX 73 78 74 79 80 80 82 81 75 82 76 83 77 84 78 85 79 86 55 87
REMARK SMILES IDX 56 88 65 89 57 90 58 91 64 92 66 93 59 94 60 95 61 96 62 97
REMARK SMILES IDX 63 98
REMARK H PARENT 18 8 25 29 87 48 53 59
REMARK Flexibility Score: inf
ROOT
ATOM      1  C   UNL A   1      32.860  29.335  24.755  1.00  0.00     0.002 C 
ENDROOT
BRANCH   1   2
ATOM      2  C   UNL A   1      31.400  28.988  24.431  1.00  0.00     0.002 C 
BRANCH   2   3
ATOM      3  C   UNL A   1      31.190  28.247  23.109  1.00  0.00     0.021 C 
BRANCH   3   4
ATOM      4  C   UNL A   1      31.038  26.738  23.272  1.00  0.00     0.116 C 
BRANCH   4   5
ATOM      5  N   UNL A   1      30.599  26.379  24.610  1.00  0.00    -0.352 N 
ATOM      6  C   UNL A   1      30.917  25.452  25.542  1.00  0.00     0.251 C 
ATOM      7  O   UNL A   1      30.291  25.534  26.605  1.00  0.00    -0.270 OA
ATOM      8  H   UNL A   1      29.874  26.968  24.921  1.00  0.00     0.163 HD
BRANCH   6   9
ATOM      9  C   UNL A   1      31.937  24.373  25.372  1.00  0.00     0.067 C 
ATOM     10  C   UNL A   1      34.518  19.925  24.905  1.00  0.00     0.048 C 
ATOM     11  C   UNL A   1      34.869  21.355  25.207  1.00  0.00    -0.007 A 
ATOM     12  C   UNL A   1      36.210  21.700  25.418  1.00  0.00     0.027 A 
ATOM     13  C   UNL A   1      33.897  22.362  25.288  1.00  0.00     0.131 A 
ATOM     14  C   UNL A   1      36.560  23.019  25.712  1.00  0.00     0.042 A 
ATOM     15  C   UNL A   1      34.242  23.682  25.594  1.00  0.00     0.019 A 
ATOM     16  O   UNL A   1      32.600  21.982  25.108  1.00  0.00    -0.475 OA
ATOM     17  Cl  UNL A   1      38.211  23.421  25.978  1.00  0.00    -0.084 Cl
ATOM     18  C   UNL A   1      35.584  24.010  25.805  1.00  0.00     0.032 A 
ATOM     19  C   UNL A   1      33.193  24.686  25.738  1.00  0.00     0.025 C 
ATOM     20  C   UNL A   1      31.637  23.018  24.799  1.00  0.00     0.314 C 
BRANCH  20  21
ATOM     21  C   UNL A   1      31.402  23.059  23.278  1.00  0.00     0.429 C 
ATOM     22  F   UNL A   1      32.320  23.852  22.675  1.00  0.00    -0.167 F 
ATOM     23  F   UNL A   1      31.514  21.839  22.703  1.00  0.00    -0.167 F 
ATOM     24  F   UNL A   1      30.177  23.533  22.957  1.00  0.00    -0.167 F 
ENDBRANCH  20  21
ENDBRANCH   6   9
ENDBRANCH   4   5
ENDBRANCH   3   4
ENDBRANCH   2   3
ENDBRANCH   1   2
BRANCH   1  25
ATOM     25  C   UNL A   1      33.663  28.221  25.437  1.00  0.00     0.021 C 
BRANCH  25  26
ATOM     26  C   UNL A   1      33.803  28.372  26.947  1.00  0.00     0.116 C 
BRANCH  26  27
ATOM     27  N   UNL A   1      33.627  29.753  27.368  1.00  0.00    -0.352 N 
ATOM     28  C   UNL A   1      34.464  30.546  28.105  1.00  0.00     0.251 C 
ATOM     29  H   UNL A   1      32.786  30.178  27.083  1.00  0.00     0.163 HD
ATOM     30  O   UNL A   1      34.051  31.616  28.558  1.00  0.00    -0.269 OA
BRANCH  28  31
ATOM     31  C   UNL A   1      35.853  30.120  28.362  1.00  0.00     0.039 A 
ATOM     32  C   UNL A   1      36.782  30.173  27.320  1.00  0.00     0.014 A 
ATOM     33  C   UNL A   1      36.231  29.647  29.623  1.00  0.00     0.014 A 
ATOM     34  C   UNL A   1      38.106  29.797  27.555  1.00  0.00     0.010 A 
ATOM     35  C   UNL A   1      37.563  29.329  29.871  1.00  0.00     0.010 A 
ATOM     36  C   UNL A   1      38.511  29.398  28.838  1.00  0.00    -0.014 A 
BRANCH  36  37
ATOM     37  C   UNL A   1      39.922  29.049  29.130  1.00  0.00     0.031 A 
ATOM     38  C   UNL A   1      40.842  30.078  29.726  1.00  0.00     0.074 A 
ATOM     39  C   UNL A   1      40.386  27.829  28.796  1.00  0.00     0.049 A 
ATOM     40  N   UNL A   1      42.128  30.006  29.946  1.00  0.00    -0.248 NA
ATOM     41  C   UNL A   1      40.238  31.366  30.107  1.00  0.00     0.031 C 
ATOM     42  C   UNL A   1      39.589  26.757  28.197  1.00  0.00     0.029 A 
ATOM     43  N   UNL A   1      41.643  27.289  28.902  1.00  0.00    -0.354 N 
ATOM     44  C   UNL A   1      42.490  31.236  30.485  1.00  0.00     0.074 A 
ATOM     45  C   UNL A   1      41.296  32.052  30.514  1.00  0.00     0.031 C 
ATOM     46  C   UNL A   1      40.372  25.684  28.001  1.00  0.00     0.029 A 
ATOM     47  C   UNL A   1      41.733  26.005  28.418  1.00  0.00     0.049 A 
ATOM     48  H   UNL A   1      42.407  27.775  29.287  1.00  0.00     0.167 HD
ATOM     49  C   UNL A   1      43.704  31.636  30.931  1.00  0.00     0.037 A 
ATOM     50  C   UNL A   1      42.796  25.184  28.310  1.00  0.00     0.037 A 
ATOM     51  C   UNL A   1      44.883  30.809  30.908  1.00  0.00     0.049 A 
ATOM     52  C   UNL A   1      44.138  25.664  28.790  1.00  0.00     0.074 A 
ATOM     53  C   UNL A   1      46.158  31.115  31.353  1.00  0.00     0.029 A 
ATOM     54  N   UNL A   1      44.933  29.511  30.421  1.00  0.00    -0.354 N 
ATOM     55  N   UNL A   1      44.463  26.826  29.305  1.00  0.00    -0.248 NA
ATOM     56  C   UNL A   1      45.259  24.721  28.679  1.00  0.00     0.031 C 
ATOM     57  C   UNL A   1      46.987  30.019  31.097  1.00  0.00     0.029 A 
ATOM     58  C   UNL A   1      46.217  29.006  30.545  1.00  0.00     0.049 A 
ATOM     59  H   UNL A   1      44.168  29.020  30.042  1.00  0.00     0.167 HD
ATOM     60  C   UNL A   1      45.817  26.741  29.615  1.00  0.00     0.074 A 
ATOM     61  C   UNL A   1      46.246  25.411  29.233  1.00  0.00     0.031 C 
ATOM     62  C   UNL A   1      46.627  27.677  30.169  1.00  0.00     0.037 A 
BRANCH  49  63
ATOM     63  C   UNL A   1      43.824  33.027  31.492  1.00  0.00     0.058 A 
ATOM     64  C   UNL A   1      44.048  34.137  30.661  1.00  0.00     0.135 A 
ATOM     65  C   UNL A   1      43.643  33.263  32.864  1.00  0.00     0.135 A 
ATOM     66  F   UNL A   1      44.247  33.967  29.346  1.00  0.00    -0.206 F 
ATOM     67  C   UNL A   1      44.096  35.430  31.173  1.00  0.00     0.059 A 
ATOM     68  C   UNL A   1      43.662  34.551  33.393  1.00  0.00     0.059 A 
ATOM     69  F   UNL A   1      43.433  32.238  33.705  1.00  0.00    -0.206 F 
ATOM     70  C   UNL A   1      43.894  35.627  32.540  1.00  0.00     0.060 A 
BRANCH  70  71
ATOM     71  S   UNL A   1      43.923  37.316  33.176  1.00  0.00     0.124 S 
ATOM     72  O   UNL A   1      45.218  37.353  33.850  1.00  0.00    -0.237 OA
ATOM     73  O   UNL A   1      43.821  38.110  31.956  1.00  0.00    -0.237 OA
ATOM     74  O   UNL A   1      42.759  37.369  34.056  1.00  0.00    -0.744 OA
ENDBRANCH  70  71
ENDBRANCH  49  63
BRANCH  50  75
ATOM     75  C   UNL A   1      42.626  23.817  27.749  1.00  0.00     0.058 A 
ATOM     76  C   UNL A   1      42.516  22.703  28.591  1.00  0.00     0.135 A 
ATOM     77  C   UNL A   1      42.548  23.601  26.364  1.00  0.00     0.135 A 
ATOM     78  F   UNL A   1      42.590  22.857  29.922  1.00  0.00    -0.206 F 
ATOM     79  C   UNL A   1      42.350  21.418  28.084  1.00  0.00     0.059 A 
ATOM     80  C   UNL A   1      42.354  22.330  25.833  1.00  0.00     0.059 A 
ATOM     81  F   UNL A   1      42.630  24.637  25.515  1.00  0.00    -0.206 F 
ATOM     82  C   UNL A   1      42.264  21.243  26.701  1.00  0.00     0.060 A 
BRANCH  82  83
ATOM     83  S   UNL A   1      41.997  19.576  26.058  1.00  0.00     0.124 S 
ATOM     84  O   UNL A   1      40.562  19.588  25.799  1.00  0.00    -0.237 OA
ATOM     85  O   UNL A   1      42.860  19.564  24.881  1.00  0.00    -0.237 OA
ATOM     86  O   UNL A   1      42.434  18.719  27.156  1.00  0.00    -0.744 OA
ENDBRANCH  82  83
ENDBRANCH  50  75
BRANCH  62  87
ATOM     87  C   UNL A   1      48.051  27.279  30.446  1.00  0.00     0.058 A 
ATOM     88  C   UNL A   1      48.432  26.676  31.655  1.00  0.00     0.135 A 
ATOM     89  C   UNL A   1      49.040  27.470  29.468  1.00  0.00     0.135 A 
ATOM     90  F   UNL A   1      47.525  26.473  32.624  1.00  0.00    -0.206 F 
ATOM     91  C   UNL A   1      49.751  26.311  31.899  1.00  0.00     0.059 A 
ATOM     92  C   UNL A   1      50.360  27.084  29.679  1.00  0.00     0.059 A 
ATOM     93  F   UNL A   1      48.727  28.029  28.288  1.00  0.00    -0.206 F 
ATOM     94  C   UNL A   1      50.709  26.520  30.905  1.00  0.00     0.060 A 
BRANCH  94  95
ATOM     95  S   UNL A   1      52.416  26.034  31.233  1.00  0.00     0.124 S 
ATOM     96  O   UNL A   1      52.991  26.058  29.893  1.00  0.00    -0.237 OA
ATOM     97  O   UNL A   1      52.871  27.085  32.137  1.00  0.00    -0.237 OA
ATOM     98  O   UNL A   1      52.284  24.711  31.836  1.00  0.00    -0.744 OA
ENDBRANCH  94  95
ENDBRANCH  62  87
ENDBRANCH  36  37
ENDBRANCH  28  31
ENDBRANCH  26  27
ENDBRANCH  25  26
ENDBRANCH   1  25
TORSDOF 17
ENDMDL
MODEL 2
REMARK VINA RESULT:     -11.3      1.542      2.240
REMARK SMILES Cc1cc(Cl)cc2c1O[C@H](C(F)(F)F)C(C(=O)NCCCCCCNC(=O)c1ccc(-c3c4nc(c(-c5c(F)cc(S(=O)(=O)[O-])cc5F)c5ccc([nH]5)c(-c5c(F)cc(S(=O)(=O)[O-])cc5F)c5nc(c(-c6c(F)cc(S(=O)(=O)[O-])cc6F)c6ccc3[nH]6)C=C5)C=C4)cc1)=C2
REMARK SMILES IDX 22 1 21 2 20 3 19 4 18 5 16 6 17 7 15 9 1 10 2 11 3 12 8 13
REMARK SMILES IDX 4 14 7 15 9 16 5 17 6 18 94 19 10 20 11 21 12 22 13 23 14 24
REMARK SMILES IDX 23 25 24 26 25 27 26 28 27 30 28 31 29 32 93 33 30 34 92 35
REMARK SMILES IDX 31 36 32 37 33 38 86 39 34 40 91 41 85 42 87 43 35 44 90 45
REMARK SMILES IDX 84 46 83 47 36 49 70 50 49 51 69 52 50 53 53 54 68 55 88 56
REMARK SMILES IDX 51 57 52 58 67 60 89 61 54 62 37 63 38 64 47 65 39 66 40 67
REMARK SMILES IDX 46 68 48 69 41 70 42 71 43 72 44 73 45 74 71 75 72 76 81 77
REMARK SMILES IDX 73 78 74 79 80 80 82 81 75 82 76 83 77 84 78 85 79 86 55 87
REMARK SMILES IDX 56 88 65 89 57 90 58 91 64 92 66 93 59 94 60 95 61 96 62 97
REMARK SMILES IDX 63 98
REMARK H PARENT 18 8 25 29 87 48 53 59
REMARK Flexibility Score: inf
ROOT
ATOM      1  C   UNL A   1      31.894  28.033  25.434  1.00  0.00     0.002 C 
ENDROOT
BRANCH   1   2
ATOM      2  C   UNL A   1      30.549  27.355  25.140  1.00  0.00     0.002 C 
BRANCH   2   3
ATOM      3  C   UNL A   1      30.233  27.163  23.655  1.00  0.00     0.021 C 
BRANCH   3   4
ATOM      4  C   UNL A   1      30.538  25.759  23.142  1.00  0.00     0.116 C 
BRANCH   4   5
ATOM      5  N   UNL A   1      31.530  25.772  22.080  1.00  0.00    -0.352 N 
ATOM      6  C   UNL A   1      32.665  25.104  21.776  1.00  0.00     0.251 C 
ATOM      7  O   UNL A   1      33.197  25.424  20.707  1.00  0.00    -0.270 OA
ATOM      8  H   UNL A   1      31.318  26.451  21.400  1.00  0.00     0.163 HD
BRANCH   6   9
ATOM      9  C   UNL A   1      33.296  24.047  22.623  1.00  0.00     0.067 C 
ATOM     10  C   UNL A   1      36.475  21.003  25.325  1.00  0.00     0.048 C 
ATOM     11  C   UNL A   1      35.093  20.884  24.746  1.00  0.00    -0.007 A 
ATOM     12  C   UNL A   1      34.372  19.698  24.934  1.00  0.00     0.027 A 
ATOM     13  C   UNL A   1      34.497  21.922  24.017  1.00  0.00     0.131 A 
ATOM     14  C   UNL A   1      33.092  19.559  24.395  1.00  0.00     0.042 A 
ATOM     15  C   UNL A   1      33.219  21.782  23.466  1.00  0.00     0.019 A 
ATOM     16  O   UNL A   1      35.240  23.049  23.828  1.00  0.00    -0.475 OA
ATOM     17  Cl  UNL A   1      32.227  18.090  24.629  1.00  0.00    -0.084 Cl
ATOM     18  C   UNL A   1      32.514  20.592  23.659  1.00  0.00     0.032 A 
ATOM     19  C   UNL A   1      32.662  22.860  22.654  1.00  0.00     0.025 C 
ATOM     20  C   UNL A   1      34.540  24.255  23.436  1.00  0.00     0.314 C 
BRANCH  20  21
ATOM     21  C   UNL A   1      34.293  25.127  24.681  1.00  0.00     0.429 C 
ATOM     22  F   UNL A   1      33.069  24.875  25.204  1.00  0.00    -0.167 F 
ATOM     23  F   UNL A   1      35.188  24.888  25.669  1.00  0.00    -0.167 F 
ATOM     24  F   UNL A   1      34.357  26.449  24.406  1.00  0.00    -0.167 F 
ENDBRANCH  20  21
ENDBRANCH   6   9
ENDBRANCH   4   5
ENDBRANCH   3   4
ENDBRANCH   2   3
ENDBRANCH   1   2
BRANCH   1  25
ATOM     25  C   UNL A   1      32.502  27.717  26.806  1.00  0.00     0.021 C 
BRANCH  25  26
ATOM     26  C   UNL A   1      33.854  28.373  27.068  1.00  0.00     0.116 C 
BRANCH  26  27
ATOM     27  N   UNL A   1      33.711  29.775  27.425  1.00  0.00    -0.352 N 
ATOM     28  C   UNL A   1      34.559  30.577  28.138  1.00  0.00     0.251 C 
ATOM     29  H   UNL A   1      32.885  30.209  27.110  1.00  0.00     0.163 HD
ATOM     30  O   UNL A   1      34.170  31.677  28.538  1.00  0.00    -0.269 OA
BRANCH  28  31
ATOM     31  C   UNL A   1      35.933  30.126  28.432  1.00  0.00     0.039 A 
ATOM     32  C   UNL A   1      36.892  30.167  27.418  1.00  0.00     0.014 A 
ATOM     33  C   UNL A   1      36.266  29.640  29.702  1.00  0.00     0.014 A 
ATOM     34  C   UNL A   1      38.202  29.767  27.690  1.00  0.00     0.010 A 
ATOM     35  C   UNL A   1      37.585  29.298  29.986  1.00  0.00     0.010 A 
ATOM     36  C   UNL A   1      38.563  29.355  28.982  1.00  0.00    -0.014 A 
BRANCH  36  37
ATOM     37  C   UNL A   1      39.959  28.980  29.312  1.00  0.00     0.031 A 
ATOM     38  C   UNL A   1      40.865  29.976  29.981  1.00  0.00     0.074 A 
ATOM     39  C   UNL A   1      40.424  27.769  28.950  1.00  0.00     0.049 A 
ATOM     40  N   UNL A   1      42.142  29.882  30.246  1.00  0.00    -0.248 NA
ATOM     41  C   UNL A   1      40.260  31.255  30.387  1.00  0.00     0.031 C 
ATOM     42  C   UNL A   1      39.640  26.728  28.281  1.00  0.00     0.029 A 
ATOM     43  N   UNL A   1      41.671  27.211  29.082  1.00  0.00    -0.354 N 
ATOM     44  C   UNL A   1      42.495  31.087  30.844  1.00  0.00     0.074 A 
ATOM     45  C   UNL A   1      41.308  31.915  30.860  1.00  0.00     0.031 C 
ATOM     46  C   UNL A   1      40.419  25.655  28.074  1.00  0.00     0.029 A 
ATOM     47  C   UNL A   1      41.766  25.945  28.554  1.00  0.00     0.049 A 
ATOM     48  H   UNL A   1      42.424  27.674  29.514  1.00  0.00     0.167 HD
ATOM     49  C   UNL A   1      43.695  31.456  31.350  1.00  0.00     0.037 A 
ATOM     50  C   UNL A   1      42.825  25.118  28.454  1.00  0.00     0.037 A 
ATOM     51  C   UNL A   1      44.866  30.619  31.339  1.00  0.00     0.049 A 
ATOM     52  C   UNL A   1      44.153  25.565  29.001  1.00  0.00     0.074 A 
ATOM     53  C   UNL A   1      46.126  30.894  31.842  1.00  0.00     0.029 A 
ATOM     54  N   UNL A   1      44.922  29.339  30.805  1.00  0.00    -0.354 N 
ATOM     55  N   UNL A   1      44.469  26.703  29.572  1.00  0.00    -0.248 NA
ATOM     56  C   UNL A   1      45.269  24.614  28.897  1.00  0.00     0.031 C 
ATOM     57  C   UNL A   1      46.954  29.799  31.576  1.00  0.00     0.029 A 
ATOM     58  C   UNL A   1      46.195  28.817  30.958  1.00  0.00     0.049 A 
ATOM     59  H   UNL A   1      44.167  28.871  30.380  1.00  0.00     0.167 HD
ATOM     60  C   UNL A   1      45.809  26.592  29.928  1.00  0.00     0.074 A 
ATOM     61  C   UNL A   1      46.240  25.273  29.513  1.00  0.00     0.031 C 
ATOM     62  C   UNL A   1      46.607  27.497  30.547  1.00  0.00     0.037 A 
BRANCH  49  63
ATOM     63  C   UNL A   1      43.807  32.824  31.967  1.00  0.00     0.058 A 
ATOM     64  C   UNL A   1      43.996  33.971  31.180  1.00  0.00     0.135 A 
ATOM     65  C   UNL A   1      43.652  32.999  33.352  1.00  0.00     0.135 A 
ATOM     66  F   UNL A   1      44.170  33.861  29.855  1.00  0.00    -0.206 F 
ATOM     67  C   UNL A   1      44.037  35.242  31.745  1.00  0.00     0.059 A 
ATOM     68  C   UNL A   1      43.663  34.263  33.935  1.00  0.00     0.059 A 
ATOM     69  F   UNL A   1      43.474  31.936  34.152  1.00  0.00    -0.206 F 
ATOM     70  C   UNL A   1      43.862  35.379  33.123  1.00  0.00     0.060 A 
BRANCH  70  71
ATOM     71  S   UNL A   1      43.880  37.039  33.831  1.00  0.00     0.124 S 
ATOM     72  O   UNL A   1      44.553  36.806  35.106  1.00  0.00    -0.237 OA
ATOM     73  O   UNL A   1      44.642  37.790  32.840  1.00  0.00    -0.237 OA
ATOM     74  O   UNL A   1      42.465  37.385  33.925  1.00  0.00    -0.744 OA
ENDBRANCH  70  71
ENDBRANCH  49  63
BRANCH  50  75
ATOM     75  C   UNL A   1      42.663  23.775  27.835  1.00  0.00     0.058 A 
ATOM     76  C   UNL A   1      42.760  23.606  26.447  1.00  0.00     0.135 A 
ATOM     77  C   UNL A   1      42.431  22.634  28.618  1.00  0.00     0.135 A 
ATOM     78  F   UNL A   1      42.975  24.668  25.656  1.00  0.00    -0.206 F 
ATOM     79  C   UNL A   1      42.618  22.357  25.852  1.00  0.00     0.059 A 
ATOM     80  C   UNL A   1      42.313  21.369  28.050  1.00  0.00     0.059 A 
ATOM     81  F   UNL A   1      42.347  22.738  29.954  1.00  0.00    -0.206 F 
ATOM     82  C   UNL A   1      42.400  21.242  26.664  1.00  0.00     0.060 A 
BRANCH  82  83
ATOM     83  S   UNL A   1      42.268  19.619  25.884  1.00  0.00     0.124 S 
ATOM     84  O   UNL A   1      42.656  18.735  26.976  1.00  0.00    -0.237 OA
ATOM     85  O   UNL A   1      40.861  19.581  25.498  1.00  0.00    -0.237 OA
ATOM     86  O   UNL A   1      43.213  19.703  24.774  1.00  0.00    -0.744 OA
ENDBRANCH  82  83
ENDBRANCH  50  75
BRANCH  62  87
ATOM     87  C   UNL A   1      48.016  27.074  30.862  1.00  0.00     0.058 A 
ATOM     88  C   UNL A   1      48.346  26.427  32.063  1.00  0.00     0.135 A 
ATOM     89  C   UNL A   1      49.042  27.286  29.927  1.00  0.00     0.135 A 
ATOM     90  F   UNL A   1      47.403  26.202  32.991  1.00  0.00    -0.206 F 
ATOM     91  C   UNL A   1      49.651  26.038  32.342  1.00  0.00     0.059 A 
ATOM     92  C   UNL A   1      50.349  26.879  30.172  1.00  0.00     0.059 A 
ATOM     93  F   UNL A   1      48.778  27.888  28.757  1.00  0.00    -0.206 F 
ATOM     94  C   UNL A   1      50.647  26.270  31.391  1.00  0.00     0.060 A 
BRANCH  94  95
ATOM     95  S   UNL A   1      52.336  25.753  31.763  1.00  0.00     0.124 S 
ATOM     96  O   UNL A   1      52.648  26.585  32.921  1.00  0.00    -0.237 OA
ATOM     97  O   UNL A   1      52.174  24.328  32.031  1.00  0.00    -0.237 OA
ATOM     98  O   UNL A   1      53.069  26.077  30.544  1.00  0.00    -0.744 OA
ENDBRANCH  94  95
ENDBRANCH  62  87
ENDBRANCH  36  37
ENDBRANCH  28  31
ENDBRANCH  26  27
ENDBRANCH  25  26
ENDBRANCH   1  25
TORSDOF 17
ENDMDL
MODEL 3
REMARK VINA RESULT:     -11.2      4.735     10.272
REMARK SMILES Cc1cc(Cl)cc2c1O[C@H](C(F)(F)F)C(C(=O)NCCCCCCNC(=O)c1ccc(-c3c4nc(c(-c5c(F)cc(S(=O)(=O)[O-])cc5F)c5ccc([nH]5)c(-c5c(F)cc(S(=O)(=O)[O-])cc5F)c5nc(c(-c6c(F)cc(S(=O)(=O)[O-])cc6F)c6ccc3[nH]6)C=C5)C=C4)cc1)=C2
REMARK SMILES IDX 22 1 21 2 20 3 19 4 18 5 16 6 17 7 15 9 1 10 2 11 3 12 8 13
REMARK SMILES IDX 4 14 7 15 9 16 5 17 6 18 94 19 10 20 11 21 12 22 13 23 14 24
REMARK SMILES IDX 23 25 24 26 25 27 26 28 27 30 28 31 29 32 93 33 30 34 92 35
REMARK SMILES IDX 31 36 32 37 33 38 86 39 34 40 91 41 85 42 87 43 35 44 90 45
REMARK SMILES IDX 84 46 83 47 36 49 70 50 49 51 69 52 50 53 53 54 68 55 88 56
REMARK SMILES IDX 51 57 52 58 67 60 89 61 54 62 37 63 38 64 47 65 39 66 40 67
REMARK SMILES IDX 46 68 48 69 41 70 42 71 43 72 44 73 45 74 71 75 72 76 81 77
REMARK SMILES IDX 73 78 74 79 80 80 82 81 75 82 76 83 77 84 78 85 79 86 55 87
REMARK SMILES IDX 56 88 65 89 57 90 58 91 64 92 66 93 59 94 60 95 61 96 62 97
REMARK SMILES IDX 63 98
REMARK H PARENT 18 8 25 29 87 48 53 59
REMARK Flexibility Score: inf
ROOT
ATOM      1  C   UNL A   1      36.098  23.723  25.797  1.00  0.00     0.002 C 
ENDROOT
BRANCH   1   2
ATOM      2  C   UNL A   1      35.084  22.671  26.269  1.00  0.00     0.002 C 
BRANCH   2   3
ATOM      3  C   UNL A   1      34.572  21.731  25.175  1.00  0.00     0.021 C 
BRANCH   3   4
ATOM      4  C   UNL A   1      33.239  22.163  24.574  1.00  0.00     0.116 C 
BRANCH   4   5
ATOM      5  N   UNL A   1      33.383  22.616  23.201  1.00  0.00    -0.352 N 
ATOM      6  C   UNL A   1      33.255  23.778  22.522  1.00  0.00     0.251 C 
ATOM      7  O   UNL A   1      33.523  23.719  21.316  1.00  0.00    -0.270 OA
ATOM      8  H   UNL A   1      33.644  21.878  22.605  1.00  0.00     0.163 HD
BRANCH   6   9
ATOM      9  C   UNL A   1      32.822  25.080  23.115  1.00  0.00     0.067 C 
ATOM     10  C   UNL A   1      30.652  29.643  24.183  1.00  0.00     0.048 C 
ATOM     11  C   UNL A   1      31.859  28.881  24.652  1.00  0.00    -0.007 A 
ATOM     12  C   UNL A   1      32.676  29.438  25.644  1.00  0.00     0.027 A 
ATOM     13  C   UNL A   1      32.201  27.626  24.129  1.00  0.00     0.131 A 
ATOM     14  C   UNL A   1      33.810  28.755  26.087  1.00  0.00     0.042 A 
ATOM     15  C   UNL A   1      33.343  26.944  24.563  1.00  0.00     0.019 A 
ATOM     16  O   UNL A   1      31.400  27.130  23.143  1.00  0.00    -0.475 OA
ATOM     17  Cl  UNL A   1      34.807  29.461  27.299  1.00  0.00    -0.084 Cl
ATOM     18  C   UNL A   1      34.150  27.514  25.550  1.00  0.00     0.032 A 
ATOM     19  C   UNL A   1      33.702  25.673  23.943  1.00  0.00     0.025 C 
ATOM     20  C   UNL A   1      31.484  25.712  22.864  1.00  0.00     0.314 C 
BRANCH  20  21
ATOM     21  C   UNL A   1      30.340  24.981  23.590  1.00  0.00     0.429 C 
ATOM     22  F   UNL A   1      30.676  24.731  24.879  1.00  0.00    -0.167 F 
ATOM     23  F   UNL A   1      29.199  25.709  23.627  1.00  0.00    -0.167 F 
ATOM     24  F   UNL A   1      30.031  23.799  23.011  1.00  0.00    -0.167 F 
ENDBRANCH  20  21
ENDBRANCH   6   9
ENDBRANCH   4   5
ENDBRANCH   3   4
ENDBRANCH   2   3
ENDBRANCH   1   2
BRANCH   1  25
ATOM     25  C   UNL A   1      37.563  23.270  25.800  1.00  0.00     0.021 C 
BRANCH  25  26
ATOM     26  C   UNL A   1      38.511  24.192  26.560  1.00  0.00     0.116 C 
BRANCH  26  27
ATOM     27  N   UNL A   1      39.880  24.062  26.086  1.00  0.00    -0.352 N 
ATOM     28  C   UNL A   1      40.976  24.825  26.388  1.00  0.00     0.251 C 
ATOM     29  H   UNL A   1      40.041  23.322  25.458  1.00  0.00     0.163 HD
ATOM     30  O   UNL A   1      42.005  24.709  25.718  1.00  0.00    -0.269 OA
BRANCH  28  31
ATOM     31  C   UNL A   1      40.924  25.786  27.506  1.00  0.00     0.039 A 
ATOM     32  C   UNL A   1      41.883  26.798  27.576  1.00  0.00     0.014 A 
ATOM     33  C   UNL A   1      39.942  25.673  28.497  1.00  0.00     0.014 A 
ATOM     34  C   UNL A   1      41.831  27.730  28.614  1.00  0.00     0.010 A 
ATOM     35  C   UNL A   1      39.856  26.636  29.497  1.00  0.00     0.010 A 
ATOM     36  C   UNL A   1      40.802  27.671  29.567  1.00  0.00    -0.014 A 
BRANCH  36  37
ATOM     37  C   UNL A   1      40.688  28.681  30.647  1.00  0.00     0.031 A 
ATOM     38  C   UNL A   1      41.560  28.576  31.866  1.00  0.00     0.074 A 
ATOM     39  C   UNL A   1      39.756  29.649  30.554  1.00  0.00     0.049 A 
ATOM     40  N   UNL A   1      41.533  29.286  32.963  1.00  0.00    -0.248 NA
ATOM     41  C   UNL A   1      42.585  27.519  31.860  1.00  0.00     0.031 C 
ATOM     42  C   UNL A   1      38.843  29.838  29.424  1.00  0.00     0.029 A 
ATOM     43  N   UNL A   1      39.413  30.649  31.428  1.00  0.00    -0.354 N 
ATOM     44  C   UNL A   1      42.529  28.762  33.779  1.00  0.00     0.074 A 
ATOM     45  C   UNL A   1      43.111  27.643  33.070  1.00  0.00     0.031 C 
ATOM     46  C   UNL A   1      38.054  30.896  29.668  1.00  0.00     0.029 A 
ATOM     47  C   UNL A   1      38.373  31.434  30.986  1.00  0.00     0.049 A 
ATOM     48  H   UNL A   1      39.867  30.790  32.289  1.00  0.00     0.167 HD
ATOM     49  C   UNL A   1      42.932  29.191  34.999  1.00  0.00     0.037 A 
ATOM     50  C   UNL A   1      37.739  32.462  31.584  1.00  0.00     0.037 A 
ATOM     51  C   UNL A   1      42.353  30.314  35.690  1.00  0.00     0.049 A 
ATOM     52  C   UNL A   1      38.190  32.900  32.951  1.00  0.00     0.074 A 
ATOM     53  C   UNL A   1      42.701  30.839  36.922  1.00  0.00     0.029 A 
ATOM     54  N   UNL A   1      41.309  31.091  35.207  1.00  0.00    -0.354 N 
ATOM     55  N   UNL A   1      39.140  32.400  33.705  1.00  0.00    -0.248 NA
ATOM     56  C   UNL A   1      37.489  34.045  33.546  1.00  0.00     0.031 C 
ATOM     57  C   UNL A   1      41.842  31.906  37.202  1.00  0.00     0.029 A 
ATOM     58  C   UNL A   1      40.995  32.084  36.119  1.00  0.00     0.049 A 
ATOM     59  H   UNL A   1      40.858  30.956  34.342  1.00  0.00     0.167 HD
ATOM     60  C   UNL A   1      39.175  33.193  34.848  1.00  0.00     0.074 A 
ATOM     61  C   UNL A   1      38.155  34.207  34.681  1.00  0.00     0.031 C 
ATOM     62  C   UNL A   1      39.982  33.092  35.934  1.00  0.00     0.037 A 
BRANCH  49  63
ATOM     63  C   UNL A   1      44.059  28.451  35.668  1.00  0.00     0.058 A 
ATOM     64  C   UNL A   1      43.816  27.386  36.550  1.00  0.00     0.135 A 
ATOM     65  C   UNL A   1      45.395  28.762  35.370  1.00  0.00     0.135 A 
ATOM     66  F   UNL A   1      42.559  27.058  36.885  1.00  0.00    -0.206 F 
ATOM     67  C   UNL A   1      44.858  26.662  37.120  1.00  0.00     0.059 A 
ATOM     68  C   UNL A   1      46.453  28.034  35.908  1.00  0.00     0.059 A 
ATOM     69  F   UNL A   1      45.684  29.775  34.538  1.00  0.00    -0.206 F 
ATOM     70  C   UNL A   1      46.174  26.989  36.787  1.00  0.00     0.060 A 
BRANCH  70  71
ATOM     71  S   UNL A   1      47.510  26.012  37.507  1.00  0.00     0.124 S 
ATOM     72  O   UNL A   1      48.602  26.982  37.530  1.00  0.00    -0.237 OA
ATOM     73  O   UNL A   1      46.960  25.646  38.808  1.00  0.00    -0.237 OA
ATOM     74  O   UNL A   1      47.673  24.909  36.565  1.00  0.00    -0.744 OA
ENDBRANCH  70  71
ENDBRANCH  49  63
BRANCH  50  75
ATOM     75  C   UNL A   1      36.631  33.161  30.881  1.00  0.00     0.058 A 
ATOM     76  C   UNL A   1      36.897  34.089  29.865  1.00  0.00     0.135 A 
ATOM     77  C   UNL A   1      35.288  32.901  31.194  1.00  0.00     0.135 A 
ATOM     78  F   UNL A   1      38.165  34.377  29.533  1.00  0.00    -0.206 F 
ATOM     79  C   UNL A   1      35.873  34.748  29.193  1.00  0.00     0.059 A 
ATOM     80  C   UNL A   1      34.246  33.526  30.518  1.00  0.00     0.059 A 
ATOM     81  F   UNL A   1      34.980  32.007  32.147  1.00  0.00    -0.206 F 
ATOM     82  C   UNL A   1      34.548  34.454  29.523  1.00  0.00     0.060 A 
BRANCH  82  83
ATOM     83  S   UNL A   1      33.227  35.278  28.607  1.00  0.00     0.124 S 
ATOM     84  O   UNL A   1      32.539  34.145  28.001  1.00  0.00    -0.237 OA
ATOM     85  O   UNL A   1      32.507  35.970  29.671  1.00  0.00    -0.237 OA
ATOM     86  O   UNL A   1      33.951  36.145  27.683  1.00  0.00    -0.744 OA
ENDBRANCH  82  83
ENDBRANCH  50  75
BRANCH  62  87
ATOM     87  C   UNL A   1      39.832  34.138  37.005  1.00  0.00     0.058 A 
ATOM     88  C   UNL A   1      40.399  35.416  36.880  1.00  0.00     0.135 A 
ATOM     89  C   UNL A   1      39.074  33.866  38.155  1.00  0.00     0.135 A 
ATOM     90  F   UNL A   1      41.134  35.727  35.801  1.00  0.00    -0.206 F 
ATOM     91  C   UNL A   1      40.250  36.375  37.876  1.00  0.00     0.059 A 
ATOM     92  C   UNL A   1      38.887  34.820  39.149  1.00  0.00     0.059 A 
ATOM     93  F   UNL A   1      38.497  32.664  38.317  1.00  0.00    -0.206 F 
ATOM     94  C   UNL A   1      39.494  36.067  39.008  1.00  0.00     0.060 A 
BRANCH  94  95
ATOM     95  S   UNL A   1      39.304  37.325  40.289  1.00  0.00     0.124 S 
ATOM     96  O   UNL A   1      40.695  37.646  40.594  1.00  0.00    -0.237 OA
ATOM     97  O   UNL A   1      38.551  38.365  39.596  1.00  0.00    -0.237 OA
ATOM     98  O   UNL A   1      38.576  36.629  41.345  1.00  0.00    -0.744 OA
ENDBRANCH  94  95
ENDBRANCH  62  87
ENDBRANCH  36  37
ENDBRANCH  28  31
ENDBRANCH  26  27
ENDBRANCH  25  26
ENDBRANCH   1  25
TORSDOF 17
ENDMDL
