MODEL 1
REMARK VINA RESULT:     -10.8      0.000      0.000
REMARK SMILES COc1cc(Cl)ccc1S(=O)(=O)Nc1cccc(C(=O)NCCCCCCNC(=O)c2ccc(-c3c4nc(c(-c5c(F)cc(S(=O)(=O)[O-])cc5F)c5ccc([nH]5)c(-c5c(F)cc(S(=O)(=O)[O-])cc5F)c5nc(c(-c6c(F)cc(S(=O)(=O)[O-])cc6F)c6ccc3[nH]6)C=C5)C=C4)cc2)c1
REMARK SMILES IDX 24 1 23 2 22 3 21 4 19 5 20 6 18 8 14 9 15 10 97 11 16 12
REMARK SMILES IDX 17 13 13 14 10 16 11 17 12 18 9 19 3 20 4 21 5 22 8 23 6 24
REMARK SMILES IDX 7 25 2 26 1 27 25 28 26 29 27 30 28 31 29 32 30 34 31 35
REMARK SMILES IDX 32 36 96 37 33 38 95 39 34 40 35 41 36 42 89 43 37 44 94 45
REMARK SMILES IDX 88 46 90 47 38 48 93 49 87 50 86 51 39 53 73 54 52 55 72 56
REMARK SMILES IDX 53 57 56 58 71 59 91 60 54 61 55 62 70 64 92 65 57 66 40 67
REMARK SMILES IDX 41 68 50 69 42 70 43 71 49 72 51 73 44 74 45 75 46 76 47 77
REMARK SMILES IDX 48 78 74 79 75 80 84 81 76 82 77 83 83 84 85 85 78 86 79 87
REMARK SMILES IDX 80 88 81 89 82 90 58 91 59 92 68 93 60 94 61 95 67 96 69 97
REMARK SMILES IDX 62 98 63 99 64 100 65 101 66 102
REMARK H PARENT 21 7 13 15 28 33 90 52 56 63
REMARK Flexibility Score: inf
ROOT
ATOM      1  C   UNL A   1      34.059  25.423  23.796  1.00  0.00     0.002 C 
ENDROOT
BRANCH   1   2
ATOM      2  C   UNL A   1      33.466  25.922  22.474  1.00  0.00     0.021 C 
BRANCH   2   3
ATOM      3  C   UNL A   1      33.715  27.414  22.248  1.00  0.00     0.116 C 
BRANCH   3   4
ATOM      4  N   UNL A   1      32.457  28.091  21.959  1.00  0.00    -0.352 N 
ATOM      5  C   UNL A   1      31.321  28.362  22.677  1.00  0.00     0.251 C 
ATOM      6  O   UNL A   1      30.435  29.005  22.112  1.00  0.00    -0.269 OA
ATOM      7  H   UNL A   1      32.414  28.431  21.036  1.00  0.00     0.163 HD
BRANCH   5   8
ATOM      8  C   UNL A   1      31.152  28.028  24.116  1.00  0.00     0.041 A 
ATOM      9  C   UNL A   1      30.682  26.472  25.904  1.00  0.00     0.050 A 
ATOM     10  C   UNL A   1      31.250  27.355  26.827  1.00  0.00     0.027 A 
ATOM     11  C   UNL A   1      30.522  26.873  24.579  1.00  0.00     0.040 A 
ATOM     12  C   UNL A   1      31.752  28.584  26.405  1.00  0.00     0.003 A 
ATOM     13  C   UNL A   1      31.733  28.903  25.049  1.00  0.00     0.014 A 
BRANCH   9  14
ATOM     14  N   UNL A   1      30.334  25.181  26.376  1.00  0.00    -0.279 N 
ATOM     15  H   UNL A   1      29.380  25.020  26.555  1.00  0.00     0.180 HD
BRANCH  14  16
ATOM     16  S   UNL A   1      31.371  23.906  26.660  1.00  0.00     0.265 S 
ATOM     17  O   UNL A   1      30.794  23.026  27.654  1.00  0.00    -0.201 OA
ATOM     18  O   UNL A   1      32.647  24.552  26.908  1.00  0.00    -0.201 OA
BRANCH  16  19
ATOM     19  C   UNL A   1      31.637  22.896  25.213  1.00  0.00     0.129 A 
ATOM     20  C   UNL A   1      32.405  21.734  25.111  1.00  0.00     0.140 A 
ATOM     21  C   UNL A   1      32.451  21.050  23.879  1.00  0.00     0.068 A 
ATOM     22  C   UNL A   1      31.823  21.559  22.746  1.00  0.00     0.044 A 
ATOM     23  C   UNL A   1      30.989  23.387  24.057  1.00  0.00     0.028 A 
ATOM     24  Cl  UNL A   1      31.969  20.730  21.247  1.00  0.00    -0.084 Cl
ATOM     25  C   UNL A   1      31.094  22.735  22.827  1.00  0.00     0.022 A 
BRANCH  20  26
ATOM     26  O   UNL A   1      33.077  21.206  26.174  1.00  0.00    -0.495 OA
ATOM     27  C   UNL A   1      34.442  20.890  25.868  1.00  0.00     0.278 C 
ENDBRANCH  20  26
ENDBRANCH  16  19
ENDBRANCH  14  16
ENDBRANCH   9  14
ENDBRANCH   5   8
ENDBRANCH   3   4
ENDBRANCH   2   3
ENDBRANCH   1   2
BRANCH   1  28
ATOM     28  C   UNL A   1      34.696  24.030  23.722  1.00  0.00     0.002 C 
BRANCH  28  29
ATOM     29  C   UNL A   1      36.214  23.986  23.923  1.00  0.00     0.021 C 
BRANCH  29  30
ATOM     30  C   UNL A   1      36.678  23.801  25.365  1.00  0.00     0.116 C 
BRANCH  30  31
ATOM     31  N   UNL A   1      37.768  22.846  25.483  1.00  0.00    -0.352 N 
ATOM     32  C   UNL A   1      39.010  22.998  26.045  1.00  0.00     0.251 C 
ATOM     33  H   UNL A   1      37.587  21.956  25.103  1.00  0.00     0.163 HD
ATOM     34  O   UNL A   1      39.847  22.109  25.918  1.00  0.00    -0.269 OA
BRANCH  32  35
ATOM     35  C   UNL A   1      39.353  24.238  26.778  1.00  0.00     0.039 A 
ATOM     36  C   UNL A   1      38.894  24.388  28.089  1.00  0.00     0.014 A 
ATOM     37  C   UNL A   1      40.104  25.254  26.178  1.00  0.00     0.014 A 
ATOM     38  C   UNL A   1      39.237  25.528  28.818  1.00  0.00     0.010 A 
ATOM     39  C   UNL A   1      40.497  26.362  26.927  1.00  0.00     0.010 A 
ATOM     40  C   UNL A   1      40.068  26.511  28.255  1.00  0.00    -0.014 A 
BRANCH  40  41
ATOM     41  C   UNL A   1      40.506  27.689  29.046  1.00  0.00     0.031 A 
ATOM     42  C   UNL A   1      41.835  27.681  29.750  1.00  0.00     0.074 A 
ATOM     43  C   UNL A   1      39.678  28.745  29.174  1.00  0.00     0.049 A 
ATOM     44  N   UNL A   1      42.365  28.595  30.523  1.00  0.00    -0.248 NA
ATOM     45  C   UNL A   1      42.669  26.481  29.583  1.00  0.00     0.031 C 
ATOM     46  C   UNL A   1      38.343  28.849  28.582  1.00  0.00     0.029 A 
ATOM     47  N   UNL A   1      39.832  29.927  29.853  1.00  0.00    -0.354 N 
ATOM     48  C   UNL A   1      43.584  28.077  30.945  1.00  0.00     0.074 A 
ATOM     49  C   UNL A   1      43.695  26.750  30.378  1.00  0.00     0.031 C 
ATOM     50  C   UNL A   1      37.808  30.036  28.908  1.00  0.00     0.029 A 
ATOM     51  C   UNL A   1      38.746  30.764  29.756  1.00  0.00     0.049 A 
ATOM     52  H   UNL A   1      40.644  30.155  30.361  1.00  0.00     0.167 HD
ATOM     53  C   UNL A   1      44.532  28.662  31.715  1.00  0.00     0.037 A 
ATOM     54  C   UNL A   1      38.526  31.979  30.295  1.00  0.00     0.037 A 
ATOM     55  C   UNL A   1      44.426  29.993  32.256  1.00  0.00     0.049 A 
ATOM     56  C   UNL A   1      39.598  32.613  31.138  1.00  0.00     0.074 A 
ATOM     57  C   UNL A   1      45.358  30.698  32.997  1.00  0.00     0.029 A 
ATOM     58  N   UNL A   1      43.319  30.819  32.117  1.00  0.00    -0.354 N 
ATOM     59  N   UNL A   1      40.774  32.135  31.471  1.00  0.00    -0.248 NA
ATOM     60  C   UNL A   1      39.320  33.954  31.672  1.00  0.00     0.031 C 
ATOM     61  C   UNL A   1      44.802  31.936  33.337  1.00  0.00     0.029 A 
ATOM     62  C   UNL A   1      43.540  32.020  32.772  1.00  0.00     0.049 A 
ATOM     63  H   UNL A   1      42.500  30.587  31.625  1.00  0.00     0.167 HD
ATOM     64  C   UNL A   1      41.383  33.124  32.236  1.00  0.00     0.074 A 
ATOM     65  C   UNL A   1      40.453  34.232  32.302  1.00  0.00     0.031 C 
ATOM     66  C   UNL A   1      42.602  33.115  32.829  1.00  0.00     0.037 A 
BRANCH  53  67
ATOM     67  C   UNL A   1      45.773  27.866  32.015  1.00  0.00     0.058 A 
ATOM     68  C   UNL A   1      45.874  27.070  33.167  1.00  0.00     0.135 A 
ATOM     69  C   UNL A   1      46.859  27.872  31.127  1.00  0.00     0.135 A 
ATOM     70  F   UNL A   1      44.870  27.036  34.058  1.00  0.00    -0.206 F 
ATOM     71  C   UNL A   1      47.021  26.331  33.443  1.00  0.00     0.059 A 
ATOM     72  C   UNL A   1      48.006  27.121  31.369  1.00  0.00     0.059 A 
ATOM     73  F   UNL A   1      46.815  28.615  30.010  1.00  0.00    -0.206 F 
ATOM     74  C   UNL A   1      48.084  26.366  32.539  1.00  0.00     0.060 A 
BRANCH  74  75
ATOM     75  S   UNL A   1      49.564  25.402  32.910  1.00  0.00     0.124 S 
ATOM     76  O   UNL A   1      50.329  26.344  33.718  1.00  0.00    -0.237 OA
ATOM     77  O   UNL A   1      49.019  24.252  33.624  1.00  0.00    -0.237 OA
ATOM     78  O   UNL A   1      50.119  25.110  31.591  1.00  0.00    -0.744 OA
ENDBRANCH  74  75
ENDBRANCH  53  67
BRANCH  54  79
ATOM     79  C   UNL A   1      37.244  32.686  30.032  1.00  0.00     0.058 A 
ATOM     80  C   UNL A   1      36.104  32.422  30.805  1.00  0.00     0.135 A 
ATOM     81  C   UNL A   1      37.140  33.651  29.018  1.00  0.00     0.135 A 
ATOM     82  F   UNL A   1      36.155  31.503  31.782  1.00  0.00    -0.206 F 
ATOM     83  C   UNL A   1      34.900  33.078  30.574  1.00  0.00     0.059 A 
ATOM     84  C   UNL A   1      35.952  34.337  28.784  1.00  0.00     0.059 A 
ATOM     85  F   UNL A   1      38.207  33.952  28.263  1.00  0.00    -0.206 F 
ATOM     86  C   UNL A   1      34.835  34.037  29.562  1.00  0.00     0.060 A 
BRANCH  86  87
ATOM     87  S   UNL A   1      33.283  34.925  29.307  1.00  0.00     0.124 S 
ATOM     88  O   UNL A   1      33.759  36.218  28.831  1.00  0.00    -0.237 OA
ATOM     89  O   UNL A   1      32.608  34.089  28.320  1.00  0.00    -0.237 OA
ATOM     90  O   UNL A   1      32.676  34.924  30.635  1.00  0.00    -0.744 OA
ENDBRANCH  86  87
ENDBRANCH  54  79
BRANCH  66  91
ATOM     91  C   UNL A   1      43.011  34.350  33.582  1.00  0.00     0.058 A 
ATOM     92  C   UNL A   1      42.840  34.456  34.970  1.00  0.00     0.135 A 
ATOM     93  C   UNL A   1      43.618  35.424  32.911  1.00  0.00     0.135 A 
ATOM     94  F   UNL A   1      42.258  33.459  35.657  1.00  0.00    -0.206 F 
ATOM     95  C   UNL A   1      43.232  35.595  35.665  1.00  0.00     0.059 A 
ATOM     96  C   UNL A   1      44.041  36.562  33.590  1.00  0.00     0.059 A 
ATOM     97  F   UNL A   1      43.814  35.369  31.583  1.00  0.00    -0.206 F 
ATOM     98  C   UNL A   1      43.832  36.643  34.965  1.00  0.00     0.060 A 
BRANCH  98  99
ATOM     99  S   UNL A   1      44.361  38.107  35.882  1.00  0.00     0.124 S 
ATOM    100  O   UNL A   1      43.904  39.182  35.008  1.00  0.00    -0.237 OA
ATOM    101  O   UNL A   1      43.641  37.966  37.143  1.00  0.00    -0.237 OA
ATOM    102  O   UNL A   1      45.809  37.943  35.973  1.00  0.00    -0.744 OA
ENDBRANCH  98  99
ENDBRANCH  66  91
ENDBRANCH  40  41
ENDBRANCH  32  35
ENDBRANCH  30  31
ENDBRANCH  29  30
ENDBRANCH  28  29
ENDBRANCH   1  28
TORSDOF 20
ENDMDL
MODEL 2
REMARK VINA RESULT:     -10.7      3.128      4.812
REMARK SMILES COc1cc(Cl)ccc1S(=O)(=O)Nc1cccc(C(=O)NCCCCCCNC(=O)c2ccc(-c3c4nc(c(-c5c(F)cc(S(=O)(=O)[O-])cc5F)c5ccc([nH]5)c(-c5c(F)cc(S(=O)(=O)[O-])cc5F)c5nc(c(-c6c(F)cc(S(=O)(=O)[O-])cc6F)c6ccc3[nH]6)C=C5)C=C4)cc2)c1
REMARK SMILES IDX 24 1 23 2 22 3 21 4 19 5 20 6 18 8 14 9 15 10 97 11 16 12
REMARK SMILES IDX 17 13 13 14 10 16 11 17 12 18 9 19 3 20 4 21 5 22 8 23 6 24
REMARK SMILES IDX 7 25 2 26 1 27 25 28 26 29 27 30 28 31 29 32 30 34 31 35
REMARK SMILES IDX 32 36 96 37 33 38 95 39 34 40 35 41 36 42 89 43 37 44 94 45
REMARK SMILES IDX 88 46 90 47 38 48 93 49 87 50 86 51 39 53 73 54 52 55 72 56
REMARK SMILES IDX 53 57 56 58 71 59 91 60 54 61 55 62 70 64 92 65 57 66 40 67
REMARK SMILES IDX 41 68 50 69 42 70 43 71 49 72 51 73 44 74 45 75 46 76 47 77
REMARK SMILES IDX 48 78 74 79 75 80 84 81 76 82 77 83 83 84 85 85 78 86 79 87
REMARK SMILES IDX 80 88 81 89 82 90 58 91 59 92 68 93 60 94 61 95 67 96 69 97
REMARK SMILES IDX 62 98 63 99 64 100 65 101 66 102
REMARK H PARENT 21 7 13 15 28 33 90 52 56 63
REMARK Flexibility Score: inf
ROOT
ATOM      1  C   UNL A   1      36.819  22.463  24.823  1.00  0.00     0.002 C 
ENDROOT
BRANCH   1   2
ATOM      2  C   UNL A   1      35.904  21.235  24.814  1.00  0.00     0.021 C 
BRANCH   2   3
ATOM      3  C   UNL A   1      35.085  21.108  26.101  1.00  0.00     0.116 C 
BRANCH   3   4
ATOM      4  N   UNL A   1      34.040  20.107  25.929  1.00  0.00    -0.352 N 
ATOM      5  C   UNL A   1      32.784  20.111  25.380  1.00  0.00     0.251 C 
ATOM      6  O   UNL A   1      32.167  19.044  25.372  1.00  0.00    -0.269 OA
ATOM      7  H   UNL A   1      34.295  19.227  26.289  1.00  0.00     0.163 HD
BRANCH   5   8
ATOM      8  C   UNL A   1      32.181  21.287  24.698  1.00  0.00     0.041 A 
ATOM      9  C   UNL A   1      31.148  23.471  24.726  1.00  0.00     0.050 A 
ATOM     10  C   UNL A   1      31.443  23.632  23.369  1.00  0.00     0.027 A 
ATOM     11  C   UNL A   1      31.405  22.249  25.344  1.00  0.00     0.040 A 
ATOM     12  C   UNL A   1      32.087  22.617  22.665  1.00  0.00     0.003 A 
ATOM     13  C   UNL A   1      32.485  21.463  23.338  1.00  0.00     0.014 A 
BRANCH   9  14
ATOM     14  N   UNL A   1      30.633  24.600  25.413  1.00  0.00    -0.279 N 
ATOM     15  H   UNL A   1      29.699  24.541  25.718  1.00  0.00     0.180 HD
BRANCH  14  16
ATOM     16  S   UNL A   1      31.443  26.016  25.759  1.00  0.00     0.265 S 
ATOM     17  O   UNL A   1      32.852  25.851  25.470  1.00  0.00    -0.201 OA
ATOM     18  O   UNL A   1      31.006  26.339  27.105  1.00  0.00    -0.201 OA
BRANCH  16  19
ATOM     19  C   UNL A   1      30.899  27.387  24.755  1.00  0.00     0.129 A 
ATOM     20  C   UNL A   1      31.158  28.746  24.949  1.00  0.00     0.140 A 
ATOM     21  C   UNL A   1      30.672  29.676  24.008  1.00  0.00     0.068 A 
ATOM     22  C   UNL A   1      29.868  29.276  22.945  1.00  0.00     0.044 A 
ATOM     23  C   UNL A   1      30.097  26.997  23.657  1.00  0.00     0.028 A 
ATOM     24  Cl  UNL A   1      29.237  30.456  21.865  1.00  0.00    -0.084 Cl
ATOM     25  C   UNL A   1      29.569  27.935  22.768  1.00  0.00     0.022 A 
BRANCH  20  26
ATOM     26  O   UNL A   1      31.906  29.204  25.993  1.00  0.00    -0.495 OA
ATOM     27  C   UNL A   1      33.303  29.290  25.680  1.00  0.00     0.278 C 
ENDBRANCH  20  26
ENDBRANCH  16  19
ENDBRANCH  14  16
ENDBRANCH   9  14
ENDBRANCH   5   8
ENDBRANCH   3   4
ENDBRANCH   2   3
ENDBRANCH   1   2
BRANCH   1  28
ATOM     28  C   UNL A   1      38.145  22.264  25.568  1.00  0.00     0.002 C 
BRANCH  28  29
ATOM     29  C   UNL A   1      38.626  23.463  26.392  1.00  0.00     0.021 C 
BRANCH  29  30
ATOM     30  C   UNL A   1      39.980  23.285  27.076  1.00  0.00     0.116 C 
BRANCH  30  31
ATOM     31  N   UNL A   1      41.089  23.712  26.238  1.00  0.00    -0.352 N 
ATOM     32  C   UNL A   1      41.789  24.892  26.244  1.00  0.00     0.251 C 
ATOM     33  H   UNL A   1      41.382  23.056  25.565  1.00  0.00     0.163 HD
ATOM     34  O   UNL A   1      42.605  25.119  25.356  1.00  0.00    -0.269 OA
BRANCH  32  35
ATOM     35  C   UNL A   1      41.543  25.902  27.298  1.00  0.00     0.039 A 
ATOM     36  C   UNL A   1      40.429  25.744  28.128  1.00  0.00     0.014 A 
ATOM     37  C   UNL A   1      42.388  27.004  27.462  1.00  0.00     0.014 A 
ATOM     38  C   UNL A   1      40.196  26.658  29.157  1.00  0.00     0.010 A 
ATOM     39  C   UNL A   1      42.188  27.880  28.528  1.00  0.00     0.010 A 
ATOM     40  C   UNL A   1      41.091  27.716  29.387  1.00  0.00    -0.014 A 
BRANCH  40  41
ATOM     41  C   UNL A   1      40.899  28.648  30.528  1.00  0.00     0.031 A 
ATOM     42  C   UNL A   1      41.726  28.504  31.775  1.00  0.00     0.074 A 
ATOM     43  C   UNL A   1      39.937  29.590  30.458  1.00  0.00     0.049 A 
ATOM     44  N   UNL A   1      41.667  29.192  32.888  1.00  0.00    -0.248 NA
ATOM     45  C   UNL A   1      42.736  27.434  31.784  1.00  0.00     0.031 C 
ATOM     46  C   UNL A   1      39.036  29.795  29.322  1.00  0.00     0.029 A 
ATOM     47  N   UNL A   1      39.550  30.544  31.364  1.00  0.00    -0.354 N 
ATOM     48  C   UNL A   1      42.619  28.631  33.732  1.00  0.00     0.074 A 
ATOM     49  C   UNL A   1      43.210  27.518  33.019  1.00  0.00     0.031 C 
ATOM     50  C   UNL A   1      38.214  30.822  29.592  1.00  0.00     0.029 A 
ATOM     51  C   UNL A   1      38.507  31.327  30.929  1.00  0.00     0.049 A 
ATOM     52  H   UNL A   1      39.979  30.658  32.243  1.00  0.00     0.167 HD
ATOM     53  C   UNL A   1      42.982  29.021  34.977  1.00  0.00     0.037 A 
ATOM     54  C   UNL A   1      37.854  32.335  31.540  1.00  0.00     0.037 A 
ATOM     55  C   UNL A   1      42.407  30.145  35.672  1.00  0.00     0.049 A 
ATOM     56  C   UNL A   1      38.283  32.758  32.918  1.00  0.00     0.074 A 
ATOM     57  C   UNL A   1      42.749  30.658  36.910  1.00  0.00     0.029 A 
ATOM     58  N   UNL A   1      41.368  30.928  35.189  1.00  0.00    -0.354 N 
ATOM     59  N   UNL A   1      39.231  32.259  33.675  1.00  0.00    -0.248 NA
ATOM     60  C   UNL A   1      37.560  33.885  33.523  1.00  0.00     0.031 C 
ATOM     61  C   UNL A   1      41.893  31.728  37.193  1.00  0.00     0.029 A 
ATOM     62  C   UNL A   1      41.046  31.909  36.112  1.00  0.00     0.049 A 
ATOM     63  H   UNL A   1      40.926  30.805  34.318  1.00  0.00     0.167 HD
ATOM     64  C   UNL A   1      39.232  33.023  34.837  1.00  0.00     0.074 A 
ATOM     65  C   UNL A   1      38.202  34.028  34.675  1.00  0.00     0.031 C 
ATOM     66  C   UNL A   1      40.017  32.904  35.936  1.00  0.00     0.037 A 
BRANCH  53  67
ATOM     67  C   UNL A   1      44.057  28.228  35.669  1.00  0.00     0.058 A 
ATOM     68  C   UNL A   1      45.417  28.533  35.502  1.00  0.00     0.135 A 
ATOM     69  C   UNL A   1      43.724  27.174  36.534  1.00  0.00     0.135 A 
ATOM     70  F   UNL A   1      45.793  29.523  34.676  1.00  0.00    -0.206 F 
ATOM     71  C   UNL A   1      46.411  27.801  36.145  1.00  0.00     0.059 A 
ATOM     72  C   UNL A   1      44.701  26.445  37.208  1.00  0.00     0.059 A 
ATOM     73  F   UNL A   1      42.439  26.841  36.731  1.00  0.00    -0.206 F 
ATOM     74  C   UNL A   1      46.043  26.757  36.994  1.00  0.00     0.060 A 
BRANCH  74  75
ATOM     75  S   UNL A   1      47.344  25.818  37.822  1.00  0.00     0.124 S 
ATOM     76  O   UNL A   1      48.463  26.752  37.756  1.00  0.00    -0.237 OA
ATOM     77  O   UNL A   1      46.778  25.600  39.149  1.00  0.00    -0.237 OA
ATOM     78  O   UNL A   1      47.477  24.621  36.997  1.00  0.00    -0.744 OA
ENDBRANCH  74  75
ENDBRANCH  53  67
BRANCH  54  79
ATOM     79  C   UNL A   1      36.742  33.030  30.840  1.00  0.00     0.058 A 
ATOM     80  C   UNL A   1      35.411  32.846  31.241  1.00  0.00     0.135 A 
ATOM     81  C   UNL A   1      36.989  33.905  29.770  1.00  0.00     0.135 A 
ATOM     82  F   UNL A   1      35.126  32.015  32.255  1.00  0.00    -0.206 F 
ATOM     83  C   UNL A   1      34.361  33.493  30.599  1.00  0.00     0.059 A 
ATOM     84  C   UNL A   1      35.957  34.581  29.128  1.00  0.00     0.059 A 
ATOM     85  F   UNL A   1      38.247  34.128  29.359  1.00  0.00    -0.206 F 
ATOM     86  C   UNL A   1      34.644  34.362  29.544  1.00  0.00     0.060 A 
BRANCH  86  87
ATOM     87  S   UNL A   1      33.279  35.241  28.754  1.00  0.00     0.124 S 
ATOM     88  O   UNL A   1      33.990  36.238  27.963  1.00  0.00    -0.237 OA
ATOM     89  O   UNL A   1      32.621  34.177  28.001  1.00  0.00    -0.237 OA
ATOM     90  O   UNL A   1      32.515  35.758  29.886  1.00  0.00    -0.744 OA
ENDBRANCH  86  87
ENDBRANCH  54  79
BRANCH  66  91
ATOM     91  C   UNL A   1      39.806  33.900  37.042  1.00  0.00     0.058 A 
ATOM     92  C   UNL A   1      39.064  33.580  38.189  1.00  0.00     0.135 A 
ATOM     93  C   UNL A   1      40.388  35.175  36.971  1.00  0.00     0.135 A 
ATOM     94  F   UNL A   1      38.481  32.376  38.303  1.00  0.00    -0.206 F 
ATOM     95  C   UNL A   1      38.884  34.499  39.217  1.00  0.00     0.059 A 
ATOM     96  C   UNL A   1      40.243  36.102  37.999  1.00  0.00     0.059 A 
ATOM     97  F   UNL A   1      41.117  35.528  35.899  1.00  0.00    -0.206 F 
ATOM     98  C   UNL A   1      39.478  35.759  39.112  1.00  0.00     0.060 A 
BRANCH  98  99
ATOM     99  S   UNL A   1      39.259  36.936  40.464  1.00  0.00     0.124 S 
ATOM    100  O   UNL A   1      38.278  36.248  41.296  1.00  0.00    -0.237 OA
ATOM    101  O   UNL A   1      40.605  37.031  41.020  1.00  0.00    -0.237 OA
ATOM    102  O   UNL A   1      38.780  38.139  39.791  1.00  0.00    -0.744 OA
ENDBRANCH  98  99
ENDBRANCH  66  91
ENDBRANCH  40  41
ENDBRANCH  32  35
ENDBRANCH  30  31
ENDBRANCH  29  30
ENDBRANCH  28  29
ENDBRANCH   1  28
TORSDOF 20
ENDMDL
MODEL 3
REMARK VINA RESULT:     -10.6      4.839      9.878
REMARK SMILES COc1cc(Cl)ccc1S(=O)(=O)Nc1cccc(C(=O)NCCCCCCNC(=O)c2ccc(-c3c4nc(c(-c5c(F)cc(S(=O)(=O)[O-])cc5F)c5ccc([nH]5)c(-c5c(F)cc(S(=O)(=O)[O-])cc5F)c5nc(c(-c6c(F)cc(S(=O)(=O)[O-])cc6F)c6ccc3[nH]6)C=C5)C=C4)cc2)c1
REMARK SMILES IDX 24 1 23 2 22 3 21 4 19 5 20 6 18 8 14 9 15 10 97 11 16 12
REMARK SMILES IDX 17 13 13 14 10 16 11 17 12 18 9 19 3 20 4 21 5 22 8 23 6 24
REMARK SMILES IDX 7 25 2 26 1 27 25 28 26 29 27 30 28 31 29 32 30 34 31 35
REMARK SMILES IDX 32 36 96 37 33 38 95 39 34 40 35 41 36 42 89 43 37 44 94 45
REMARK SMILES IDX 88 46 90 47 38 48 93 49 87 50 86 51 39 53 73 54 52 55 72 56
REMARK SMILES IDX 53 57 56 58 71 59 91 60 54 61 55 62 70 64 92 65 57 66 40 67
REMARK SMILES IDX 41 68 50 69 42 70 43 71 49 72 51 73 44 74 45 75 46 76 47 77
REMARK SMILES IDX 48 78 74 79 75 80 84 81 76 82 77 83 83 84 85 85 78 86 79 87
REMARK SMILES IDX 80 88 81 89 82 90 58 91 59 92 68 93 60 94 61 95 67 96 69 97
REMARK SMILES IDX 62 98 63 99 64 100 65 101 66 102
REMARK H PARENT 21 7 13 15 28 33 90 52 56 63
REMARK Flexibility Score: inf
ROOT
ATOM      1  C   UNL A   1      38.540  23.669  26.382  1.00  0.00     0.002 C 
ENDROOT
BRANCH   1   2
ATOM      2  C   UNL A   1      37.444  23.026  25.527  1.00  0.00     0.021 C 
BRANCH   2   3
ATOM      3  C   UNL A   1      36.083  23.698  25.719  1.00  0.00     0.116 C 
BRANCH   3   4
ATOM      4  N   UNL A   1      35.294  22.957  26.695  1.00  0.00    -0.352 N 
ATOM      5  C   UNL A   1      34.104  22.279  26.656  1.00  0.00     0.251 C 
ATOM      6  O   UNL A   1      33.737  21.721  27.692  1.00  0.00    -0.269 OA
ATOM      7  H   UNL A   1      35.714  22.939  27.585  1.00  0.00     0.163 HD
BRANCH   5   8
ATOM      8  C   UNL A   1      33.301  22.085  25.419  1.00  0.00     0.041 A 
ATOM      9  C   UNL A   1      32.170  22.926  23.457  1.00  0.00     0.050 A 
ATOM     10  C   UNL A   1      32.158  21.640  22.908  1.00  0.00     0.027 A 
ATOM     11  C   UNL A   1      32.625  23.111  24.761  1.00  0.00     0.040 A 
ATOM     12  C   UNL A   1      32.696  20.568  23.618  1.00  0.00     0.003 A 
ATOM     13  C   UNL A   1      33.296  20.799  24.855  1.00  0.00     0.014 A 
BRANCH   9  14
ATOM     14  N   UNL A   1      31.747  23.988  22.618  1.00  0.00    -0.279 N 
ATOM     15  H   UNL A   1      30.846  23.911  22.231  1.00  0.00     0.180 HD
BRANCH  14  16
ATOM     16  S   UNL A   1      32.617  25.354  22.219  1.00  0.00     0.265 S 
ATOM     17  O   UNL A   1      32.162  25.860  20.940  1.00  0.00    -0.201 OA
ATOM     18  O   UNL A   1      33.998  24.943  22.392  1.00  0.00    -0.201 OA
BRANCH  16  19
ATOM     19  C   UNL A   1      32.382  26.688  23.380  1.00  0.00     0.129 A 
ATOM     20  C   UNL A   1      31.346  26.848  24.302  1.00  0.00     0.140 A 
ATOM     21  C   UNL A   1      31.367  27.958  25.170  1.00  0.00     0.068 A 
ATOM     22  C   UNL A   1      32.348  28.940  25.064  1.00  0.00     0.044 A 
ATOM     23  C   UNL A   1      33.381  27.686  23.299  1.00  0.00     0.028 A 
ATOM     24  Cl  UNL A   1      32.290  30.315  26.094  1.00  0.00    -0.084 Cl
ATOM     25  C   UNL A   1      33.356  28.813  24.122  1.00  0.00     0.022 A 
BRANCH  20  26
ATOM     26  O   UNL A   1      30.334  25.941  24.428  1.00  0.00    -0.495 OA
ATOM     27  C   UNL A   1      30.060  25.600  25.793  1.00  0.00     0.278 C 
ENDBRANCH  20  26
ENDBRANCH  16  19
ENDBRANCH  14  16
ENDBRANCH   9  14
ENDBRANCH   5   8
ENDBRANCH   3   4
ENDBRANCH   2   3
ENDBRANCH   1   2
BRANCH   1  28
ATOM     28  C   UNL A   1      39.727  22.748  26.692  1.00  0.00     0.002 C 
BRANCH  28  29
ATOM     29  C   UNL A   1      39.647  21.341  26.089  1.00  0.00     0.021 C 
BRANCH  29  30
ATOM     30  C   UNL A   1      40.251  20.229  26.943  1.00  0.00     0.116 C 
BRANCH  30  31
ATOM     31  N   UNL A   1      41.213  19.423  26.210  1.00  0.00    -0.352 N 
ATOM     32  C   UNL A   1      42.438  19.769  25.696  1.00  0.00     0.251 C 
ATOM     33  H   UNL A   1      40.946  18.487  26.059  1.00  0.00     0.163 HD
ATOM     34  O   UNL A   1      43.042  18.976  24.980  1.00  0.00    -0.269 OA
BRANCH  32  35
ATOM     35  C   UNL A   1      43.017  21.102  25.979  1.00  0.00     0.039 A 
ATOM     36  C   UNL A   1      43.116  22.023  24.932  1.00  0.00     0.014 A 
ATOM     37  C   UNL A   1      43.475  21.440  27.256  1.00  0.00     0.014 A 
ATOM     38  C   UNL A   1      43.619  23.302  25.178  1.00  0.00     0.010 A 
ATOM     39  C   UNL A   1      43.919  22.737  27.513  1.00  0.00     0.010 A 
ATOM     40  C   UNL A   1      43.995  23.681  26.478  1.00  0.00    -0.014 A 
BRANCH  40  41
ATOM     41  C   UNL A   1      44.456  25.063  26.768  1.00  0.00     0.031 A 
ATOM     42  C   UNL A   1      43.497  26.085  27.313  1.00  0.00     0.074 A 
ATOM     43  C   UNL A   1      45.728  25.408  26.488  1.00  0.00     0.049 A 
ATOM     44  N   UNL A   1      43.705  27.349  27.583  1.00  0.00    -0.248 NA
ATOM     45  C   UNL A   1      42.119  25.637  27.567  1.00  0.00     0.031 C 
ATOM     46  C   UNL A   1      46.738  24.520  25.909  1.00  0.00     0.029 A 
ATOM     47  N   UNL A   1      46.387  26.602  26.641  1.00  0.00    -0.354 N 
ATOM     48  C   UNL A   1      42.486  27.850  28.024  1.00  0.00     0.074 A 
ATOM     49  C   UNL A   1      41.532  26.764  27.943  1.00  0.00     0.031 C 
ATOM     50  C   UNL A   1      47.892  25.193  25.773  1.00  0.00     0.029 A 
ATOM     51  C   UNL A   1      47.697  26.567  26.224  1.00  0.00     0.049 A 
ATOM     52  H   UNL A   1      45.962  27.408  27.015  1.00  0.00     0.167 HD
ATOM     53  C   UNL A   1      42.193  29.093  28.475  1.00  0.00     0.037 A 
ATOM     54  C   UNL A   1      48.635  27.534  26.202  1.00  0.00     0.037 A 
ATOM     55  C   UNL A   1      43.153  30.162  28.576  1.00  0.00     0.049 A 
ATOM     56  C   UNL A   1      48.289  28.903  26.719  1.00  0.00     0.074 A 
ATOM     57  C   UNL A   1      42.970  31.439  29.078  1.00  0.00     0.029 A 
ATOM     58  N   UNL A   1      44.476  30.082  28.166  1.00  0.00    -0.354 N 
ATOM     59  N   UNL A   1      47.147  29.340  27.195  1.00  0.00    -0.248 NA
ATOM     60  C   UNL A   1      49.360  29.910  26.703  1.00  0.00     0.031 C 
ATOM     61  C   UNL A   1      44.171  32.142  28.938  1.00  0.00     0.029 A 
ATOM     62  C   UNL A   1      45.115  31.290  28.388  1.00  0.00     0.049 A 
ATOM     63  H   UNL A   1      44.898  29.283  27.776  1.00  0.00     0.167 HD
ATOM     64  C   UNL A   1      47.368  30.665  27.554  1.00  0.00     0.074 A 
ATOM     65  C   UNL A   1      48.755  30.953  27.256  1.00  0.00     0.031 C 
ATOM     66  C   UNL A   1      46.499  31.561  28.085  1.00  0.00     0.037 A 
BRANCH  53  67
ATOM     67  C   UNL A   1      40.775  29.363  28.900  1.00  0.00     0.058 A 
ATOM     68  C   UNL A   1      39.738  29.485  27.962  1.00  0.00     0.135 A 
ATOM     69  C   UNL A   1      40.443  29.467  30.259  1.00  0.00     0.135 A 
ATOM     70  F   UNL A   1      40.000  29.406  26.647  1.00  0.00    -0.206 F 
ATOM     71  C   UNL A   1      38.426  29.732  28.356  1.00  0.00     0.059 A 
ATOM     72  C   UNL A   1      39.133  29.689  30.677  1.00  0.00     0.059 A 
ATOM     73  F   UNL A   1      41.396  29.357  31.198  1.00  0.00    -0.206 F 
ATOM     74  C   UNL A   1      38.134  29.835  29.716  1.00  0.00     0.060 A 
BRANCH  74  75
ATOM     75  S   UNL A   1      36.428  30.155  30.211  1.00  0.00     0.124 S 
ATOM     76  O   UNL A   1      36.430  31.608  30.339  1.00  0.00    -0.237 OA
ATOM     77  O   UNL A   1      35.669  29.619  29.086  1.00  0.00    -0.237 OA
ATOM     78  O   UNL A   1      36.292  29.415  31.462  1.00  0.00    -0.744 OA
ENDBRANCH  74  75
ENDBRANCH  53  67
BRANCH  54  79
ATOM     79  C   UNL A   1      49.998  27.231  25.693  1.00  0.00     0.058 A 
ATOM     80  C   UNL A   1      50.321  27.417  24.341  1.00  0.00     0.135 A 
ATOM     81  C   UNL A   1      51.010  26.771  26.551  1.00  0.00     0.135 A 
ATOM     82  F   UNL A   1      49.384  27.849  23.483  1.00  0.00    -0.206 F 
ATOM     83  C   UNL A   1      51.593  27.143  23.852  1.00  0.00     0.059 A 
ATOM     84  C   UNL A   1      52.297  26.513  26.088  1.00  0.00     0.059 A 
ATOM     85  F   UNL A   1      50.757  26.594  27.857  1.00  0.00    -0.206 F 
ATOM     86  C   UNL A   1      52.576  26.693  24.734  1.00  0.00     0.060 A 
BRANCH  86  87
ATOM     87  S   UNL A   1      54.241  26.395  24.101  1.00  0.00     0.124 S 
ATOM     88  O   UNL A   1      53.977  26.138  22.690  1.00  0.00    -0.237 OA
ATOM     89  O   UNL A   1      54.917  27.652  24.407  1.00  0.00    -0.237 OA
ATOM     90  O   UNL A   1      54.693  25.246  24.879  1.00  0.00    -0.744 OA
ENDBRANCH  86  87
ENDBRANCH  54  79
BRANCH  66  91
ATOM     91  C   UNL A   1      47.031  32.932  28.398  1.00  0.00     0.058 A 
ATOM     92  C   UNL A   1      46.977  33.974  27.461  1.00  0.00     0.135 A 
ATOM     93  C   UNL A   1      47.565  33.216  29.665  1.00  0.00     0.135 A 
ATOM     94  F   UNL A   1      46.482  33.753  26.232  1.00  0.00    -0.206 F 
ATOM     95  C   UNL A   1      47.456  35.245  27.759  1.00  0.00     0.059 A 
ATOM     96  C   UNL A   1      48.027  34.486  29.994  1.00  0.00     0.059 A 
ATOM     97  F   UNL A   1      47.631  32.256  30.602  1.00  0.00    -0.206 F 
ATOM     98  C   UNL A   1      47.980  35.490  29.030  1.00  0.00     0.060 A 
BRANCH  98  99
ATOM     99  S   UNL A   1      48.577  37.151  29.416  1.00  0.00     0.124 S 
ATOM    100  O   UNL A   1      49.607  36.870  30.410  1.00  0.00    -0.237 OA
ATOM    101  O   UNL A   1      49.058  37.622  28.121  1.00  0.00    -0.237 OA
ATOM    102  O   UNL A   1      47.386  37.830  29.919  1.00  0.00    -0.744 OA
ENDBRANCH  98  99
ENDBRANCH  66  91
ENDBRANCH  40  41
ENDBRANCH  32  35
ENDBRANCH  30  31
ENDBRANCH  29  30
ENDBRANCH  28  29
ENDBRANCH   1  28
TORSDOF 20
ENDMDL
