MODEL 1
REMARK VINA RESULT:     -11.5      0.000      0.000
REMARK SMILES CN1C=C/C(=C\C=C/C=N\c2ccc(C(=O)NCCCCCCNC(=O)c3ccc(-c4c5nc(c(-c6c(F)cc(S(=O)(=O)[O-])cc6F)c6ccc([nH]6)c(-c6c(F)cc(S(=O)(=O)[O-])cc6F)c6nc(c(-c7c(F)cc(S(=O)(=O)[O-])cc7F)c7ccc4[nH]7)C=C6)C=C5)cc3)cc2)c2ccccc21
REMARK SMILES IDX 20 1 19 2 18 3 17 4 15 5 16 6 14 8 11 9 12 10 94 11 13 12
REMARK SMILES IDX 93 13 10 14 9 15 8 16 7 17 6 18 1 19 2 20 3 21 100 22 4 23
REMARK SMILES IDX 95 24 99 25 5 26 96 27 98 28 97 29 21 30 22 31 23 32 24 33
REMARK SMILES IDX 25 34 26 36 27 37 28 38 92 39 29 40 91 41 30 42 31 43 32 44
REMARK SMILES IDX 85 45 33 46 90 47 84 48 86 49 34 50 89 51 83 52 82 53 35 55
REMARK SMILES IDX 69 56 48 57 68 58 49 59 52 60 67 61 87 62 50 63 51 64 66 66
REMARK SMILES IDX 88 67 53 68 36 69 37 70 46 71 38 72 39 73 45 74 47 75 40 76
REMARK SMILES IDX 41 77 42 78 43 79 44 80 70 81 71 82 80 83 72 84 73 85 79 86
REMARK SMILES IDX 81 87 74 88 75 89 76 90 77 91 78 92 54 93 55 94 64 95 56 96
REMARK SMILES IDX 57 97 63 98 65 99 58 100 59 101 60 102 61 103 62 104
REMARK H PARENT 17 7 24 35 86 54 52 65
REMARK Flexibility Score: inf
ROOT
ATOM      1  C   UNL A   1      34.001  21.936  23.870  1.00  0.00     0.002 C 
ENDROOT
BRANCH   1   2
ATOM      2  C   UNL A   1      33.572  21.182  25.131  1.00  0.00     0.021 C 
BRANCH   2   3
ATOM      3  C   UNL A   1      33.692  21.924  26.460  1.00  0.00     0.116 C 
BRANCH   3   4
ATOM      4  N   UNL A   1      32.430  22.122  27.143  1.00  0.00    -0.352 N 
ATOM      5  C   UNL A   1      31.379  22.963  26.867  1.00  0.00     0.251 C 
ATOM      6  O   UNL A   1      30.411  22.951  27.628  1.00  0.00    -0.269 OA
ATOM      7  H   UNL A   1      32.305  21.560  27.941  1.00  0.00     0.163 HD
BRANCH   5   8
ATOM      8  C   UNL A   1      31.396  23.928  25.732  1.00  0.00     0.039 A 
ATOM      9  C   UNL A   1      31.719  25.755  23.605  1.00  0.00     0.063 A 
ATOM     10  C   UNL A   1      32.254  26.033  24.865  1.00  0.00     0.029 A 
ATOM     11  C   UNL A   1      30.906  24.630  23.463  1.00  0.00     0.029 A 
ATOM     12  C   UNL A   1      32.125  25.112  25.909  1.00  0.00     0.016 A 
ATOM     13  C   UNL A   1      30.716  23.738  24.527  1.00  0.00     0.016 A 
BRANCH   9  14
ATOM     14  N   UNL A   1      31.893  26.593  22.498  1.00  0.00    -0.257 NA
ATOM     15  C   UNL A   1      31.194  27.669  22.319  1.00  0.00     0.111 C 
BRANCH  15  16
ATOM     16  C   UNL A   1      30.102  28.254  23.148  1.00  0.00     0.020 C 
ATOM     17  C   UNL A   1      30.276  28.958  24.278  1.00  0.00     0.002 C 
BRANCH  17  18
ATOM     18  C   UNL A   1      31.518  29.176  24.994  1.00  0.00     0.009 C 
ATOM     19  C   UNL A   1      32.898  33.673  28.161  1.00  0.00     0.149 C 
ATOM     20  N   UNL A   1      32.581  32.522  27.320  1.00  0.00    -0.351 N 
ATOM     21  C   UNL A   1      31.456  32.500  26.516  1.00  0.00     0.086 C 
ATOM     22  C   UNL A   1      33.455  31.395  27.341  1.00  0.00     0.048 A 
ATOM     23  C   UNL A   1      31.081  31.475  25.741  1.00  0.00     0.026 C 
ATOM     24  C   UNL A   1      33.171  30.256  26.524  1.00  0.00     0.005 A 
ATOM     25  C   UNL A   1      34.608  31.364  28.152  1.00  0.00     0.027 A 
ATOM     26  C   UNL A   1      31.894  30.260  25.710  1.00  0.00    -0.015 C 
ATOM     27  C   UNL A   1      34.072  29.172  26.537  1.00  0.00     0.011 A 
ATOM     28  C   UNL A   1      35.472  30.266  28.158  1.00  0.00     0.002 A 
ATOM     29  C   UNL A   1      35.207  29.176  27.346  1.00  0.00     0.001 A 
ENDBRANCH  17  18
ENDBRANCH  15  16
ENDBRANCH   9  14
ENDBRANCH   5   8
ENDBRANCH   3   4
ENDBRANCH   2   3
ENDBRANCH   1   2
BRANCH   1  30
ATOM     30  C   UNL A   1      34.622  23.321  24.061  1.00  0.00     0.002 C 
BRANCH  30  31
ATOM     31  C   UNL A   1      36.147  23.393  24.088  1.00  0.00     0.021 C 
BRANCH  31  32
ATOM     32  C   UNL A   1      36.790  23.666  25.442  1.00  0.00     0.116 C 
BRANCH  32  33
ATOM     33  N   UNL A   1      37.739  22.647  25.855  1.00  0.00    -0.352 N 
ATOM     34  C   UNL A   1      38.945  22.783  26.511  1.00  0.00     0.251 C 
ATOM     35  H   UNL A   1      37.484  21.723  25.634  1.00  0.00     0.163 HD
ATOM     36  O   UNL A   1      39.650  21.802  26.699  1.00  0.00    -0.269 OA
BRANCH  34  37
ATOM     37  C   UNL A   1      39.403  24.125  26.950  1.00  0.00     0.039 A 
ATOM     38  C   UNL A   1      39.986  25.022  26.053  1.00  0.00     0.014 A 
ATOM     39  C   UNL A   1      39.263  24.479  28.295  1.00  0.00     0.014 A 
ATOM     40  C   UNL A   1      40.584  26.185  26.529  1.00  0.00     0.010 A 
ATOM     41  C   UNL A   1      39.788  25.692  28.757  1.00  0.00     0.010 A 
ATOM     42  C   UNL A   1      40.502  26.531  27.888  1.00  0.00    -0.014 A 
BRANCH  42  43
ATOM     43  C   UNL A   1      41.181  27.765  28.372  1.00  0.00     0.031 A 
ATOM     44  C   UNL A   1      42.662  27.961  28.169  1.00  0.00     0.074 A 
ATOM     45  C   UNL A   1      40.447  28.744  28.938  1.00  0.00     0.049 A 
ATOM     46  N   UNL A   1      43.406  28.992  28.480  1.00  0.00    -0.248 NA
ATOM     47  C   UNL A   1      43.407  26.858  27.539  1.00  0.00     0.031 C 
ATOM     48  C   UNL A   1      39.005  28.676  29.187  1.00  0.00     0.029 A 
ATOM     49  N   UNL A   1      40.799  29.994  29.377  1.00  0.00    -0.354 N 
ATOM     50  C   UNL A   1      44.702  28.662  28.096  1.00  0.00     0.074 A 
ATOM     51  C   UNL A   1      44.651  27.318  27.560  1.00  0.00     0.031 C 
ATOM     52  C   UNL A   1      38.587  29.852  29.677  1.00  0.00     0.029 A 
ATOM     53  C   UNL A   1      39.736  30.739  29.831  1.00  0.00     0.049 A 
ATOM     54  H   UNL A   1      41.726  30.327  29.368  1.00  0.00     0.167 HD
ATOM     55  C   UNL A   1      45.827  29.414  28.167  1.00  0.00     0.037 A 
ATOM     56  C   UNL A   1      39.686  31.992  30.323  1.00  0.00     0.037 A 
ATOM     57  C   UNL A   1      45.871  30.759  28.679  1.00  0.00     0.049 A 
ATOM     58  C   UNL A   1      40.953  32.793  30.424  1.00  0.00     0.074 A 
ATOM     59  C   UNL A   1      46.961  31.608  28.771  1.00  0.00     0.029 A 
ATOM     60  N   UNL A   1      44.780  31.454  29.181  1.00  0.00    -0.354 N 
ATOM     61  N   UNL A   1      42.165  32.464  30.046  1.00  0.00    -0.248 NA
ATOM     62  C   UNL A   1      40.851  34.128  31.028  1.00  0.00     0.031 C 
ATOM     63  C   UNL A   1      46.537  32.801  29.364  1.00  0.00     0.029 A 
ATOM     64  C   UNL A   1      45.176  32.713  29.601  1.00  0.00     0.049 A 
ATOM     65  H   UNL A   1      43.862  31.105  29.231  1.00  0.00     0.167 HD
ATOM     66  C   UNL A   1      42.968  33.555  30.357  1.00  0.00     0.074 A 
ATOM     67  C   UNL A   1      42.102  34.560  30.938  1.00  0.00     0.031 C 
ATOM     68  C   UNL A   1      44.303  33.705  30.178  1.00  0.00     0.037 A 
BRANCH  55  69
ATOM     69  C   UNL A   1      47.112  28.805  27.678  1.00  0.00     0.058 A 
ATOM     70  C   UNL A   1      48.010  28.180  28.557  1.00  0.00     0.135 A 
ATOM     71  C   UNL A   1      47.421  28.790  26.308  1.00  0.00     0.135 A 
ATOM     72  F   UNL A   1      47.771  28.177  29.879  1.00  0.00    -0.206 F 
ATOM     73  C   UNL A   1      49.177  27.577  28.098  1.00  0.00     0.059 A 
ATOM     74  C   UNL A   1      48.572  28.174  25.823  1.00  0.00     0.059 A 
ATOM     75  F   UNL A   1      46.596  29.373  25.424  1.00  0.00    -0.206 F 
ATOM     76  C   UNL A   1      49.449  27.578  26.728  1.00  0.00     0.060 A 
BRANCH  76  77
ATOM     77  S   UNL A   1      50.963  26.781  26.151  1.00  0.00     0.124 S 
ATOM     78  O   UNL A   1      51.922  27.877  26.243  1.00  0.00    -0.237 OA
ATOM     79  O   UNL A   1      51.136  25.705  27.121  1.00  0.00    -0.237 OA
ATOM     80  O   UNL A   1      50.628  26.353  24.797  1.00  0.00    -0.744 OA
ENDBRANCH  76  77
ENDBRANCH  55  69
BRANCH  56  81
ATOM     81  C   UNL A   1      38.380  32.565  30.742  1.00  0.00     0.058 A 
ATOM     82  C   UNL A   1      37.964  32.507  32.080  1.00  0.00     0.135 A 
ATOM     83  C   UNL A   1      37.546  33.221  29.824  1.00  0.00     0.135 A 
ATOM     84  F   UNL A   1      38.724  31.884  32.992  1.00  0.00    -0.206 F 
ATOM     85  C   UNL A   1      36.766  33.080  32.493  1.00  0.00     0.059 A 
ATOM     86  C   UNL A   1      36.355  33.823  30.218  1.00  0.00     0.059 A 
ATOM     87  F   UNL A   1      37.908  33.316  28.534  1.00  0.00    -0.206 F 
ATOM     88  C   UNL A   1      35.971  33.742  31.556  1.00  0.00     0.060 A 
BRANCH  88  89
ATOM     89  S   UNL A   1      34.454  34.544  32.119  1.00  0.00     0.124 S 
ATOM     90  O   UNL A   1      33.634  33.396  32.484  1.00  0.00    -0.237 OA
ATOM     91  O   UNL A   1      34.936  35.365  33.225  1.00  0.00    -0.237 OA
ATOM     92  O   UNL A   1      34.012  35.288  30.943  1.00  0.00    -0.744 OA
ENDBRANCH  88  89
ENDBRANCH  56  81
BRANCH  68  93
ATOM     93  C   UNL A   1      44.921  35.006  30.606  1.00  0.00     0.058 A 
ATOM     94  C   UNL A   1      44.959  36.114  29.746  1.00  0.00     0.135 A 
ATOM     95  C   UNL A   1      45.399  35.173  31.916  1.00  0.00     0.135 A 
ATOM     96  F   UNL A   1      44.523  36.002  28.481  1.00  0.00    -0.206 F 
ATOM     97  C   UNL A   1      45.451  37.343  30.168  1.00  0.00     0.059 A 
ATOM     98  C   UNL A   1      45.874  36.400  32.367  1.00  0.00     0.059 A 
ATOM     99  F   UNL A   1      45.378  34.144  32.779  1.00  0.00    -0.206 F 
ATOM    100  C   UNL A   1      45.899  37.479  31.485  1.00  0.00     0.060 A 
BRANCH 100 101
ATOM    101  S   UNL A   1      46.472  39.100  32.038  1.00  0.00     0.124 S 
ATOM    102  O   UNL A   1      47.375  38.738  33.125  1.00  0.00    -0.237 OA
ATOM    103  O   UNL A   1      47.108  39.632  30.836  1.00  0.00    -0.237 OA
ATOM    104  O   UNL A   1      45.242  39.776  32.441  1.00  0.00    -0.744 OA
ENDBRANCH 100 101
ENDBRANCH  68  93
ENDBRANCH  42  43
ENDBRANCH  34  37
ENDBRANCH  32  33
ENDBRANCH  31  32
ENDBRANCH  30  31
ENDBRANCH   1  30
TORSDOF 19
ENDMDL
MODEL 2
REMARK VINA RESULT:     -11.1      3.226     10.032
REMARK SMILES CN1C=C/C(=C\C=C/C=N\c2ccc(C(=O)NCCCCCCNC(=O)c3ccc(-c4c5nc(c(-c6c(F)cc(S(=O)(=O)[O-])cc6F)c6ccc([nH]6)c(-c6c(F)cc(S(=O)(=O)[O-])cc6F)c6nc(c(-c7c(F)cc(S(=O)(=O)[O-])cc7F)c7ccc4[nH]7)C=C6)C=C5)cc3)cc2)c2ccccc21
REMARK SMILES IDX 20 1 19 2 18 3 17 4 15 5 16 6 14 8 11 9 12 10 94 11 13 12
REMARK SMILES IDX 93 13 10 14 9 15 8 16 7 17 6 18 1 19 2 20 3 21 100 22 4 23
REMARK SMILES IDX 95 24 99 25 5 26 96 27 98 28 97 29 21 30 22 31 23 32 24 33
REMARK SMILES IDX 25 34 26 36 27 37 28 38 92 39 29 40 91 41 30 42 31 43 32 44
REMARK SMILES IDX 85 45 33 46 90 47 84 48 86 49 34 50 89 51 83 52 82 53 35 55
REMARK SMILES IDX 69 56 48 57 68 58 49 59 52 60 67 61 87 62 50 63 51 64 66 66
REMARK SMILES IDX 88 67 53 68 36 69 37 70 46 71 38 72 39 73 45 74 47 75 40 76
REMARK SMILES IDX 41 77 42 78 43 79 44 80 70 81 71 82 80 83 72 84 73 85 79 86
REMARK SMILES IDX 81 87 74 88 75 89 76 90 77 91 78 92 54 93 55 94 64 95 56 96
REMARK SMILES IDX 57 97 63 98 65 99 58 100 59 101 60 102 61 103 62 104
REMARK H PARENT 17 7 24 35 86 54 52 65
REMARK Flexibility Score: inf
ROOT
ATOM      1  C   UNL A   1      34.233  30.453  27.550  1.00  0.00     0.002 C 
ENDROOT
BRANCH   1   2
ATOM      2  C   UNL A   1      32.964  31.026  26.915  1.00  0.00     0.021 C 
BRANCH   2   3
ATOM      3  C   UNL A   1      32.018  30.039  26.237  1.00  0.00     0.116 C 
BRANCH   3   4
ATOM      4  N   UNL A   1      31.020  30.661  25.391  1.00  0.00    -0.352 N 
ATOM      5  C   UNL A   1      30.362  30.192  24.279  1.00  0.00     0.251 C 
ATOM      6  O   UNL A   1      29.558  30.939  23.722  1.00  0.00    -0.269 OA
ATOM      7  H   UNL A   1      30.771  31.575  25.657  1.00  0.00     0.163 HD
BRANCH   5   8
ATOM      8  C   UNL A   1      30.634  28.852  23.689  1.00  0.00     0.039 A 
ATOM      9  C   UNL A   1      31.387  26.303  22.738  1.00  0.00     0.063 A 
ATOM     10  C   UNL A   1      32.271  27.380  22.650  1.00  0.00     0.029 A 
ATOM     11  C   UNL A   1      30.083  26.547  23.172  1.00  0.00     0.029 A 
ATOM     12  C   UNL A   1      31.912  28.634  23.154  1.00  0.00     0.016 A 
ATOM     13  C   UNL A   1      29.697  27.819  23.613  1.00  0.00     0.016 A 
BRANCH   9  14
ATOM     14  N   UNL A   1      31.722  25.004  22.337  1.00  0.00    -0.257 NA
ATOM     15  C   UNL A   1      31.670  23.990  23.142  1.00  0.00     0.111 C 
BRANCH  15  16
ATOM     16  C   UNL A   1      31.292  23.925  24.583  1.00  0.00     0.020 C 
ATOM     17  C   UNL A   1      31.476  22.867  25.388  1.00  0.00     0.002 C 
BRANCH  17  18
ATOM     18  C   UNL A   1      31.938  21.545  25.008  1.00  0.00     0.009 C 
ATOM     19  C   UNL A   1      37.300  19.701  24.883  1.00  0.00     0.149 C 
ATOM     20  N   UNL A   1      35.914  20.164  24.871  1.00  0.00    -0.351 N 
ATOM     21  C   UNL A   1      35.594  21.497  25.052  1.00  0.00     0.086 C 
ATOM     22  C   UNL A   1      34.874  19.209  24.675  1.00  0.00     0.048 A 
ATOM     23  C   UNL A   1      34.352  21.996  25.082  1.00  0.00     0.026 C 
ATOM     24  C   UNL A   1      33.509  19.635  24.653  1.00  0.00     0.005 A 
ATOM     25  C   UNL A   1      35.147  17.837  24.497  1.00  0.00     0.027 A 
ATOM     26  C   UNL A   1      33.211  21.097  24.917  1.00  0.00    -0.015 C 
ATOM     27  C   UNL A   1      32.503  18.676  24.420  1.00  0.00     0.011 A 
ATOM     28  C   UNL A   1      34.127  16.906  24.288  1.00  0.00     0.002 A 
ATOM     29  C   UNL A   1      32.808  17.327  24.242  1.00  0.00     0.001 A 
ENDBRANCH  17  18
ENDBRANCH  15  16
ENDBRANCH   9  14
ENDBRANCH   5   8
ENDBRANCH   3   4
ENDBRANCH   2   3
ENDBRANCH   1   2
BRANCH   1  30
ATOM     30  C   UNL A   1      35.448  31.377  27.638  1.00  0.00     0.002 C 
BRANCH  30  31
ATOM     31  C   UNL A   1      35.338  32.570  28.586  1.00  0.00     0.021 C 
BRANCH  31  32
ATOM     32  C   UNL A   1      36.235  32.544  29.817  1.00  0.00     0.116 C 
BRANCH  32  33
ATOM     33  N   UNL A   1      35.961  31.438  30.717  1.00  0.00    -0.352 N 
ATOM     34  C   UNL A   1      36.724  30.324  30.999  1.00  0.00     0.251 C 
ATOM     35  H   UNL A   1      35.104  31.491  31.197  1.00  0.00     0.163 HD
ATOM     36  O   UNL A   1      36.280  29.450  31.730  1.00  0.00    -0.269 OA
BRANCH  34  37
ATOM     37  C   UNL A   1      38.064  30.167  30.381  1.00  0.00     0.039 A 
ATOM     38  C   UNL A   1      38.212  29.993  29.004  1.00  0.00     0.014 A 
ATOM     39  C   UNL A   1      39.193  30.176  31.206  1.00  0.00     0.014 A 
ATOM     40  C   UNL A   1      39.456  29.651  28.480  1.00  0.00     0.010 A 
ATOM     41  C   UNL A   1      40.457  29.918  30.663  1.00  0.00     0.010 A 
ATOM     42  C   UNL A   1      40.593  29.600  29.304  1.00  0.00    -0.014 A 
BRANCH  42  43
ATOM     43  C   UNL A   1      41.902  29.198  28.719  1.00  0.00     0.031 A 
ATOM     44  C   UNL A   1      43.053  30.170  28.660  1.00  0.00     0.074 A 
ATOM     45  C   UNL A   1      42.075  27.928  28.301  1.00  0.00     0.049 A 
ATOM     46  N   UNL A   1      44.275  29.974  28.232  1.00  0.00    -0.248 NA
ATOM     47  C   UNL A   1      42.802  31.539  29.139  1.00  0.00     0.031 C 
ATOM     48  C   UNL A   1      41.040  26.891  28.309  1.00  0.00     0.029 A 
ATOM     49  N   UNL A   1      43.185  27.283  27.818  1.00  0.00    -0.354 N 
ATOM     50  C   UNL A   1      44.933  31.191  28.378  1.00  0.00     0.074 A 
ATOM     51  C   UNL A   1      43.966  32.131  28.903  1.00  0.00     0.031 C 
ATOM     52  C   UNL A   1      41.577  25.729  27.911  1.00  0.00     0.029 A 
ATOM     53  C   UNL A   1      42.979  25.946  27.565  1.00  0.00     0.049 A 
ATOM     54  H   UNL A   1      44.047  27.733  27.666  1.00  0.00     0.167 HD
ATOM     55  C   UNL A   1      46.228  31.493  28.117  1.00  0.00     0.037 A 
ATOM     56  C   UNL A   1      43.818  25.000  27.102  1.00  0.00     0.037 A 
ATOM     57  C   UNL A   1      47.195  30.550  27.618  1.00  0.00     0.049 A 
ATOM     58  C   UNL A   1      45.239  25.368  26.786  1.00  0.00     0.074 A 
ATOM     59  C   UNL A   1      48.536  30.758  27.343  1.00  0.00     0.029 A 
ATOM     60  N   UNL A   1      46.929  29.220  27.322  1.00  0.00    -0.354 N 
ATOM     61  N   UNL A   1      45.843  26.521  26.941  1.00  0.00    -0.248 NA
ATOM     62  C   UNL A   1      46.092  24.312  26.222  1.00  0.00     0.031 C 
ATOM     63  C   UNL A   1      49.071  29.566  26.845  1.00  0.00     0.029 A 
ATOM     64  C   UNL A   1      48.075  28.603  26.851  1.00  0.00     0.049 A 
ATOM     65  H   UNL A   1      46.055  28.781  27.432  1.00  0.00     0.167 HD
ATOM     66  C   UNL A   1      47.148  26.329  26.504  1.00  0.00     0.074 A 
ATOM     67  C   UNL A   1      47.252  24.944  26.094  1.00  0.00     0.031 C 
ATOM     68  C   UNL A   1      48.165  27.222  26.446  1.00  0.00     0.037 A 
BRANCH  55  69
ATOM     69  C   UNL A   1      46.685  32.903  28.367  1.00  0.00     0.058 A 
ATOM     70  C   UNL A   1      46.603  33.890  27.371  1.00  0.00     0.135 A 
ATOM     71  C   UNL A   1      47.154  33.291  29.633  1.00  0.00     0.135 A 
ATOM     72  F   UNL A   1      46.176  33.571  26.138  1.00  0.00    -0.206 F 
ATOM     73  C   UNL A   1      46.985  35.205  27.616  1.00  0.00     0.059 A 
ATOM     74  C   UNL A   1      47.520  34.606  29.908  1.00  0.00     0.059 A 
ATOM     75  F   UNL A   1      47.252  32.387  30.622  1.00  0.00    -0.206 F 
ATOM     76  C   UNL A   1      47.441  35.554  28.889  1.00  0.00     0.060 A 
BRANCH  76  77
ATOM     77  S   UNL A   1      47.920  37.268  29.191  1.00  0.00     0.124 S 
ATOM     78  O   UNL A   1      46.636  37.953  29.079  1.00  0.00    -0.237 OA
ATOM     79  O   UNL A   1      48.486  37.201  30.534  1.00  0.00    -0.237 OA
ATOM     80  O   UNL A   1      48.875  37.549  28.124  1.00  0.00    -0.744 OA
ENDBRANCH  76  77
ENDBRANCH  55  69
BRANCH  56  81
ATOM     81  C   UNL A   1      43.328  23.607  26.924  1.00  0.00     0.058 A 
ATOM     82  C   UNL A   1      43.012  23.111  25.651  1.00  0.00     0.135 A 
ATOM     83  C   UNL A   1      43.210  22.734  28.016  1.00  0.00     0.135 A 
ATOM     84  F   UNL A   1      43.102  23.911  24.578  1.00  0.00    -0.206 F 
ATOM     85  C   UNL A   1      42.596  21.797  25.466  1.00  0.00     0.059 A 
ATOM     86  C   UNL A   1      42.821  21.408  27.853  1.00  0.00     0.059 A 
ATOM     87  F   UNL A   1      43.515  23.158  29.253  1.00  0.00    -0.206 F 
ATOM     88  C   UNL A   1      42.511  20.951  26.573  1.00  0.00     0.060 A 
BRANCH  88  89
ATOM     89  S   UNL A   1      42.040  19.227  26.311  1.00  0.00     0.124 S 
ATOM     90  O   UNL A   1      40.647  19.362  25.907  1.00  0.00    -0.237 OA
ATOM     91  O   UNL A   1      42.972  18.812  25.267  1.00  0.00    -0.237 OA
ATOM     92  O   UNL A   1      42.264  18.615  27.618  1.00  0.00    -0.744 OA
ENDBRANCH  88  89
ENDBRANCH  56  81
BRANCH  68  93
ATOM     93  C   UNL A   1      49.489  26.738  25.928  1.00  0.00     0.058 A 
ATOM     94  C   UNL A   1      49.897  26.996  24.610  1.00  0.00     0.135 A 
ATOM     95  C   UNL A   1      50.396  26.088  26.782  1.00  0.00     0.135 A 
ATOM     96  F   UNL A   1      49.063  27.605  23.752  1.00  0.00    -0.206 F 
ATOM     97  C   UNL A   1      51.158  26.626  24.156  1.00  0.00     0.059 A 
ATOM     98  C   UNL A   1      51.670  25.729  26.355  1.00  0.00     0.059 A 
ATOM     99  F   UNL A   1      50.055  25.824  28.054  1.00  0.00    -0.206 F 
ATOM    100  C   UNL A   1      52.041  25.999  25.039  1.00  0.00     0.060 A 
BRANCH 100 101
ATOM    101  S   UNL A   1      53.698  25.586  24.452  1.00  0.00     0.124 S 
ATOM    102  O   UNL A   1      53.599  25.918  23.035  1.00  0.00    -0.237 OA
ATOM    103  O   UNL A   1      54.542  26.467  25.253  1.00  0.00    -0.237 OA
ATOM    104  O   UNL A   1      53.821  24.163  24.756  1.00  0.00    -0.744 OA
ENDBRANCH 100 101
ENDBRANCH  68  93
ENDBRANCH  42  43
ENDBRANCH  34  37
ENDBRANCH  32  33
ENDBRANCH  31  32
ENDBRANCH  30  31
ENDBRANCH   1  30
TORSDOF 19
ENDMDL
MODEL 3
REMARK VINA RESULT:     -10.8      4.560     11.895
REMARK SMILES CN1C=C/C(=C\C=C/C=N\c2ccc(C(=O)NCCCCCCNC(=O)c3ccc(-c4c5nc(c(-c6c(F)cc(S(=O)(=O)[O-])cc6F)c6ccc([nH]6)c(-c6c(F)cc(S(=O)(=O)[O-])cc6F)c6nc(c(-c7c(F)cc(S(=O)(=O)[O-])cc7F)c7ccc4[nH]7)C=C6)C=C5)cc3)cc2)c2ccccc21
REMARK SMILES IDX 20 1 19 2 18 3 17 4 15 5 16 6 14 8 11 9 12 10 94 11 13 12
REMARK SMILES IDX 93 13 10 14 9 15 8 16 7 17 6 18 1 19 2 20 3 21 100 22 4 23
REMARK SMILES IDX 95 24 99 25 5 26 96 27 98 28 97 29 21 30 22 31 23 32 24 33
REMARK SMILES IDX 25 34 26 36 27 37 28 38 92 39 29 40 91 41 30 42 31 43 32 44
REMARK SMILES IDX 85 45 33 46 90 47 84 48 86 49 34 50 89 51 83 52 82 53 35 55
REMARK SMILES IDX 69 56 48 57 68 58 49 59 52 60 67 61 87 62 50 63 51 64 66 66
REMARK SMILES IDX 88 67 53 68 36 69 37 70 46 71 38 72 39 73 45 74 47 75 40 76
REMARK SMILES IDX 41 77 42 78 43 79 44 80 70 81 71 82 80 83 72 84 73 85 79 86
REMARK SMILES IDX 81 87 74 88 75 89 76 90 77 91 78 92 54 93 55 94 64 95 56 96
REMARK SMILES IDX 57 97 63 98 65 99 58 100 59 101 60 102 61 103 62 104
REMARK H PARENT 17 7 24 35 86 54 52 65
REMARK Flexibility Score: inf
ROOT
ATOM      1  C   UNL A   1      36.971  32.538  30.044  1.00  0.00     0.002 C 
ENDROOT
BRANCH   1   2
ATOM      2  C   UNL A   1      37.505  32.080  31.404  1.00  0.00     0.021 C 
BRANCH   2   3
ATOM      3  C   UNL A   1      36.530  31.350  32.323  1.00  0.00     0.116 C 
BRANCH   3   4
ATOM      4  N   UNL A   1      36.762  31.581  33.735  1.00  0.00    -0.352 N 
ATOM      5  C   UNL A   1      37.818  31.233  34.543  1.00  0.00     0.251 C 
ATOM      6  O   UNL A   1      37.762  31.539  35.734  1.00  0.00    -0.269 OA
ATOM      7  H   UNL A   1      36.040  32.069  34.192  1.00  0.00     0.163 HD
BRANCH   5   8
ATOM      8  C   UNL A   1      38.984  30.448  34.051  1.00  0.00     0.039 A 
ATOM      9  C   UNL A   1      41.273  28.932  33.396  1.00  0.00     0.063 A 
ATOM     10  C   UNL A   1      41.391  30.103  34.147  1.00  0.00     0.029 A 
ATOM     11  C   UNL A   1      40.025  28.609  32.861  1.00  0.00     0.029 A 
ATOM     12  C   UNL A   1      40.254  30.835  34.502  1.00  0.00     0.016 A 
ATOM     13  C   UNL A   1      38.893  29.379  33.157  1.00  0.00     0.016 A 
BRANCH   9  14
ATOM     14  N   UNL A   1      42.361  28.108  33.089  1.00  0.00    -0.257 NA
ATOM     15  C   UNL A   1      42.671  27.067  33.796  1.00  0.00     0.111 C 
BRANCH  15  16
ATOM     16  C   UNL A   1      42.032  26.516  35.024  1.00  0.00     0.020 C 
ATOM     17  C   UNL A   1      42.449  25.433  35.700  1.00  0.00     0.002 C 
BRANCH  17  18
ATOM     18  C   UNL A   1      43.498  24.508  35.314  1.00  0.00     0.009 C 
ATOM     19  C   UNL A   1      49.005  24.841  36.626  1.00  0.00     0.149 C 
ATOM     20  N   UNL A   1      47.598  24.754  36.243  1.00  0.00    -0.351 N 
ATOM     21  C   UNL A   1      46.715  25.789  36.488  1.00  0.00     0.086 C 
ATOM     22  C   UNL A   1      47.132  23.565  35.609  1.00  0.00     0.048 A 
ATOM     23  C   UNL A   1      45.409  25.776  36.195  1.00  0.00     0.026 C 
ATOM     24  C   UNL A   1      45.761  23.454  35.218  1.00  0.00     0.005 A 
ATOM     25  C   UNL A   1      47.990  22.476  35.347  1.00  0.00     0.027 A 
ATOM     26  C   UNL A   1      44.824  24.593  35.566  1.00  0.00    -0.015 C 
ATOM     27  C   UNL A   1      45.335  22.283  34.560  1.00  0.00     0.011 A 
ATOM     28  C   UNL A   1      47.535  21.320  34.710  1.00  0.00     0.002 A 
ATOM     29  C   UNL A   1      46.212  21.227  34.310  1.00  0.00     0.001 A 
ENDBRANCH  17  18
ENDBRANCH  15  16
ENDBRANCH   9  14
ENDBRANCH   5   8
ENDBRANCH   3   4
ENDBRANCH   2   3
ENDBRANCH   1   2
BRANCH   1  30
ATOM     30  C   UNL A   1      35.701  33.389  30.044  1.00  0.00     0.002 C 
BRANCH  30  31
ATOM     31  C   UNL A   1      34.438  32.741  29.479  1.00  0.00     0.021 C 
BRANCH  31  32
ATOM     32  C   UNL A   1      34.497  32.295  28.024  1.00  0.00     0.116 C 
BRANCH  32  33
ATOM     33  N   UNL A   1      33.962  30.964  27.798  1.00  0.00    -0.352 N 
ATOM     34  C   UNL A   1      34.604  29.743  27.816  1.00  0.00     0.251 C 
ATOM     35  H   UNL A   1      32.998  30.927  27.605  1.00  0.00     0.163 HD
ATOM     36  O   UNL A   1      33.992  28.728  27.515  1.00  0.00    -0.269 OA
BRANCH  34  37
ATOM     37  C   UNL A   1      36.046  29.669  28.158  1.00  0.00     0.039 A 
ATOM     38  C   UNL A   1      37.028  30.090  27.259  1.00  0.00     0.014 A 
ATOM     39  C   UNL A   1      36.419  29.147  29.400  1.00  0.00     0.014 A 
ATOM     40  C   UNL A   1      38.368  29.825  27.525  1.00  0.00     0.010 A 
ATOM     41  C   UNL A   1      37.773  28.962  29.703  1.00  0.00     0.010 A 
ATOM     42  C   UNL A   1      38.758  29.249  28.746  1.00  0.00    -0.014 A 
BRANCH  42  43
ATOM     43  C   UNL A   1      40.197  28.947  28.986  1.00  0.00     0.031 A 
ATOM     44  C   UNL A   1      41.084  29.933  29.702  1.00  0.00     0.074 A 
ATOM     45  C   UNL A   1      40.689  27.748  28.615  1.00  0.00     0.049 A 
ATOM     46  N   UNL A   1      42.344  29.813  30.040  1.00  0.00    -0.248 NA
ATOM     47  C   UNL A   1      40.485  31.221  30.087  1.00  0.00     0.031 C 
ATOM     48  C   UNL A   1      39.931  26.707  27.918  1.00  0.00     0.029 A 
ATOM     49  N   UNL A   1      41.928  27.189  28.797  1.00  0.00    -0.354 N 
ATOM     50  C   UNL A   1      42.690  31.007  30.664  1.00  0.00     0.074 A 
ATOM     51  C   UNL A   1      41.517  31.854  30.628  1.00  0.00     0.031 C 
ATOM     52  C   UNL A   1      40.700  25.616  27.785  1.00  0.00     0.029 A 
ATOM     53  C   UNL A   1      42.023  25.896  28.335  1.00  0.00     0.049 A 
ATOM     54  H   UNL A   1      42.679  27.666  29.218  1.00  0.00     0.167 HD
ATOM     55  C   UNL A   1      43.869  31.358  31.230  1.00  0.00     0.037 A 
ATOM     56  C   UNL A   1      43.056  25.032  28.345  1.00  0.00     0.037 A 
ATOM     57  C   UNL A   1      45.028  30.504  31.286  1.00  0.00     0.049 A 
ATOM     58  C   UNL A   1      44.364  25.459  28.947  1.00  0.00     0.074 A 
ATOM     59  C   UNL A   1      46.261  30.765  31.858  1.00  0.00     0.029 A 
ATOM     60  N   UNL A   1      45.097  29.224  30.755  1.00  0.00    -0.354 N 
ATOM     61  N   UNL A   1      44.667  26.588  29.541  1.00  0.00    -0.248 NA
ATOM     62  C   UNL A   1      45.476  24.500  28.873  1.00  0.00     0.031 C 
ATOM     63  C   UNL A   1      47.087  29.659  31.640  1.00  0.00     0.029 A 
ATOM     64  C   UNL A   1      46.357  28.691  30.970  1.00  0.00     0.049 A 
ATOM     65  H   UNL A   1      44.359  28.763  30.295  1.00  0.00     0.167 HD
ATOM     66  C   UNL A   1      45.999  26.473  29.919  1.00  0.00     0.074 A 
ATOM     67  C   UNL A   1      46.441  25.158  29.503  1.00  0.00     0.031 C 
ATOM     68  C   UNL A   1      46.784  27.379  30.551  1.00  0.00     0.037 A 
BRANCH  55  69
ATOM     69  C   UNL A   1      43.976  32.728  31.842  1.00  0.00     0.058 A 
ATOM     70  C   UNL A   1      44.059  33.883  31.049  1.00  0.00     0.135 A 
ATOM     71  C   UNL A   1      43.931  32.895  33.236  1.00  0.00     0.135 A 
ATOM     72  F   UNL A   1      44.120  33.781  29.711  1.00  0.00    -0.206 F 
ATOM     73  C   UNL A   1      44.113  35.153  31.615  1.00  0.00     0.059 A 
ATOM     74  C   UNL A   1      43.960  34.156  33.824  1.00  0.00     0.059 A 
ATOM     75  F   UNL A   1      43.850  31.823  34.042  1.00  0.00    -0.206 F 
ATOM     76  C   UNL A   1      44.061  35.279  33.004  1.00  0.00     0.060 A 
BRANCH  76  77
ATOM     77  S   UNL A   1      44.119  36.936  33.720  1.00  0.00     0.124 S 
ATOM     78  O   UNL A   1      44.784  37.687  32.660  1.00  0.00    -0.237 OA
ATOM     79  O   UNL A   1      42.705  37.239  33.918  1.00  0.00    -0.237 OA
ATOM     80  O   UNL A   1      44.896  36.754  34.941  1.00  0.00    -0.744 OA
ENDBRANCH  76  77
ENDBRANCH  55  69
BRANCH  56  81
ATOM     81  C   UNL A   1      42.881  23.671  27.775  1.00  0.00     0.058 A 
ATOM     82  C   UNL A   1      42.535  22.586  28.592  1.00  0.00     0.135 A 
ATOM     83  C   UNL A   1      43.011  23.439  26.396  1.00  0.00     0.135 A 
ATOM     84  F   UNL A   1      42.407  22.758  29.916  1.00  0.00    -0.206 F 
ATOM     85  C   UNL A   1      42.325  21.316  28.063  1.00  0.00     0.059 A 
ATOM     86  C   UNL A   1      42.781  22.184  25.841  1.00  0.00     0.059 A 
ATOM     87  F   UNL A   1      43.327  24.449  25.571  1.00  0.00    -0.206 F 
ATOM     88  C   UNL A   1      42.443  21.127  26.685  1.00  0.00     0.060 A 
BRANCH  88  89
ATOM     89  S   UNL A   1      42.095  19.492  26.003  1.00  0.00     0.124 S 
ATOM     90  O   UNL A   1      40.659  19.571  25.768  1.00  0.00    -0.237 OA
ATOM     91  O   UNL A   1      42.939  19.472  24.812  1.00  0.00    -0.237 OA
ATOM     92  O   UNL A   1      42.512  18.588  27.071  1.00  0.00    -0.744 OA
ENDBRANCH  88  89
ENDBRANCH  56  81
BRANCH  68  93
ATOM     93  C   UNL A   1      48.204  26.987  30.845  1.00  0.00     0.058 A 
ATOM     94  C   UNL A   1      49.255  27.361  29.995  1.00  0.00     0.135 A 
ATOM     95  C   UNL A   1      48.526  26.310  32.032  1.00  0.00     0.135 A 
ATOM     96  F   UNL A   1      48.998  28.001  28.843  1.00  0.00    -0.206 F 
ATOM     97  C   UNL A   1      50.579  27.074  30.310  1.00  0.00     0.059 A 
ATOM     98  C   UNL A   1      49.844  26.033  32.379  1.00  0.00     0.059 A 
ATOM     99  F   UNL A   1      47.555  25.937  32.883  1.00  0.00    -0.206 F 
ATOM    100  C   UNL A   1      50.864  26.417  31.510  1.00  0.00     0.060 A 
BRANCH 100 101
ATOM    101  S   UNL A   1      52.592  26.113  31.936  1.00  0.00     0.124 S 
ATOM    102  O   UNL A   1      52.904  27.281  32.752  1.00  0.00    -0.237 OA
ATOM    103  O   UNL A   1      52.518  24.841  32.649  1.00  0.00    -0.237 OA
ATOM    104  O   UNL A   1      53.258  26.058  30.637  1.00  0.00    -0.744 OA
ENDBRANCH 100 101
ENDBRANCH  68  93
ENDBRANCH  42  43
ENDBRANCH  34  37
ENDBRANCH  32  33
ENDBRANCH  31  32
ENDBRANCH  30  31
ENDBRANCH   1  30
TORSDOF 19
ENDMDL
