MODEL 1
REMARK VINA RESULT:      -9.5      0.000      0.000
REMARK SMILES C=CCN(CC(=O)NCCCCCCNC(=O)c1ccc(-c2c3nc(c(-c4c(F)cc(S(=O)(=O)[O-])cc4F)c4ccc([nH]4)c(-c4c(F)cc(S(=O)(=O)[O-])cc4F)c4nc(c(-c5c(F)cc(S(=O)(=O)[O-])cc5F)c5ccc2[nH]5)C=C4)C=C3)cc1)C(=O)NCC(C)C
REMARK SMILES IDX 11 1 10 2 9 3 8 4 6 5 7 6 5 8 4 9 3 10 2 11 1 12 84 13 85 14
REMARK SMILES IDX 86 15 87 17 88 18 89 19 90 20 12 21 13 22 14 23 15 24 16 25
REMARK SMILES IDX 17 27 18 28 19 29 83 30 20 31 82 32 21 33 22 34 23 35 76 36
REMARK SMILES IDX 24 37 81 38 75 39 77 40 25 41 80 42 74 43 73 44 26 46 60 47
REMARK SMILES IDX 39 48 59 49 40 50 43 51 58 52 78 53 41 54 42 55 57 57 79 58
REMARK SMILES IDX 44 59 27 60 28 61 37 62 29 63 30 64 36 65 38 66 31 67 32 68
REMARK SMILES IDX 33 69 34 70 35 71 61 72 62 73 71 74 63 75 64 76 70 77 72 78
REMARK SMILES IDX 65 79 66 80 67 81 68 82 69 83 45 84 46 85 55 86 47 87 48 88
REMARK SMILES IDX 54 89 56 90 49 91 50 92 51 93 52 94 53 95
REMARK H PARENT 8 7 86 16 15 26 77 45 43 56
REMARK Flexibility Score: inf
ROOT
ATOM      1  C   UNL A   1      37.404  23.429  25.345  1.00  0.00     0.002 C 
ENDROOT
BRANCH   1   2
ATOM      2  C   UNL A   1      37.315  21.972  24.874  1.00  0.00     0.021 C 
BRANCH   2   3
ATOM      3  C   UNL A   1      36.027  21.253  25.269  1.00  0.00     0.116 C 
BRANCH   3   4
ATOM      4  N   UNL A   1      35.423  21.781  26.470  1.00  0.00    -0.355 N 
ATOM      5  C   UNL A   1      34.178  22.305  26.646  1.00  0.00     0.239 C 
ATOM      6  O   UNL A   1      33.716  22.271  27.792  1.00  0.00    -0.273 OA
ATOM      7  H   UNL A   1      35.989  21.757  27.275  1.00  0.00     0.163 HD
BRANCH   5   8
ATOM      8  C   UNL A   1      33.299  22.768  25.470  1.00  0.00     0.221 C 
BRANCH   8   9
ATOM      9  N   UNL A   1      33.810  23.883  24.674  1.00  0.00    -0.312 N 
BRANCH   9  10
ATOM     10  C   UNL A   1      34.241  25.068  25.420  1.00  0.00     0.149 C 
BRANCH  10  11
ATOM     11  C   UNL A   1      33.074  25.915  25.829  1.00  0.00    -0.013 C 
ATOM     12  C   UNL A   1      33.213  27.075  26.488  1.00  0.00     0.006 C 
ENDBRANCH  10  11
ENDBRANCH   9  10
BRANCH   9  13
ATOM     13  C   UNL A   1      33.959  23.922  23.318  1.00  0.00     0.318 C 
ATOM     14  O   UNL A   1      34.950  23.436  22.761  1.00  0.00    -0.249 OA
ATOM     15  N   UNL A   1      33.079  24.476  22.470  1.00  0.00    -0.338 N 
ATOM     16  H   UNL A   1      33.388  24.363  21.542  1.00  0.00     0.165 HD
BRANCH  15  17
ATOM     17  C   UNL A   1      31.809  25.193  22.490  1.00  0.00     0.120 C 
BRANCH  17  18
ATOM     18  C   UNL A   1      31.969  26.629  21.958  1.00  0.00     0.002 C 
ATOM     19  C   UNL A   1      30.804  27.520  22.403  1.00  0.00     0.009 C 
ATOM     20  C   UNL A   1      33.282  27.250  22.441  1.00  0.00     0.009 C 
ENDBRANCH  17  18
ENDBRANCH  15  17
ENDBRANCH   9  13
ENDBRANCH   8   9
ENDBRANCH   5   8
ENDBRANCH   3   4
ENDBRANCH   2   3
ENDBRANCH   1   2
BRANCH   1  21
ATOM     21  C   UNL A   1      38.545  23.746  26.319  1.00  0.00     0.002 C 
BRANCH  21  22
ATOM     22  C   UNL A   1      39.596  22.646  26.488  1.00  0.00     0.021 C 
BRANCH  22  23
ATOM     23  C   UNL A   1      40.900  23.100  27.135  1.00  0.00     0.116 C 
BRANCH  23  24
ATOM     24  N   UNL A   1      41.808  23.706  26.173  1.00  0.00    -0.352 N 
ATOM     25  C   UNL A   1      42.166  25.025  26.026  1.00  0.00     0.251 C 
ATOM     26  H   UNL A   1      42.225  23.082  25.536  1.00  0.00     0.163 HD
ATOM     27  O   UNL A   1      42.796  25.386  25.036  1.00  0.00    -0.269 OA
BRANCH  25  28
ATOM     28  C   UNL A   1      41.768  26.011  27.054  1.00  0.00     0.039 A 
ATOM     29  C   UNL A   1      40.883  25.621  28.063  1.00  0.00     0.014 A 
ATOM     30  C   UNL A   1      42.287  27.308  27.034  1.00  0.00     0.014 A 
ATOM     31  C   UNL A   1      40.586  26.507  29.101  1.00  0.00     0.010 A 
ATOM     32  C   UNL A   1      42.043  28.166  28.103  1.00  0.00     0.010 A 
ATOM     33  C   UNL A   1      41.202  27.770  29.154  1.00  0.00    -0.014 A 
BRANCH  33  34
ATOM     34  C   UNL A   1      41.020  28.674  30.318  1.00  0.00     0.031 A 
ATOM     35  C   UNL A   1      41.871  28.513  31.546  1.00  0.00     0.074 A 
ATOM     36  C   UNL A   1      40.025  29.582  30.299  1.00  0.00     0.049 A 
ATOM     37  N   UNL A   1      41.799  29.147  32.689  1.00  0.00    -0.248 NA
ATOM     38  C   UNL A   1      42.924  27.489  31.490  1.00  0.00     0.031 C 
ATOM     39  C   UNL A   1      39.111  29.812  29.177  1.00  0.00     0.029 A 
ATOM     40  N   UNL A   1      39.605  30.473  31.255  1.00  0.00    -0.354 N 
ATOM     41  C   UNL A   1      42.787  28.589  33.493  1.00  0.00     0.074 A 
ATOM     42  C   UNL A   1      43.410  27.535  32.721  1.00  0.00     0.031 C 
ATOM     43  C   UNL A   1      38.260  30.800  29.499  1.00  0.00     0.029 A 
ATOM     44  C   UNL A   1      38.532  31.239  30.864  1.00  0.00     0.049 A 
ATOM     45  H   UNL A   1      40.033  30.558  32.138  1.00  0.00     0.167 HD
ATOM     46  C   UNL A   1      43.149  28.937  34.751  1.00  0.00     0.037 A 
ATOM     47  C   UNL A   1      37.839  32.181  31.531  1.00  0.00     0.037 A 
ATOM     48  C   UNL A   1      42.527  29.994  35.507  1.00  0.00     0.049 A 
ATOM     49  C   UNL A   1      38.227  32.516  32.944  1.00  0.00     0.074 A 
ATOM     50  C   UNL A   1      42.865  30.468  36.762  1.00  0.00     0.029 A 
ATOM     51  N   UNL A   1      41.428  30.729  35.086  1.00  0.00    -0.354 N 
ATOM     52  N   UNL A   1      39.208  32.029  33.666  1.00  0.00    -0.248 NA
ATOM     53  C   UNL A   1      37.410  33.522  33.637  1.00  0.00     0.031 C 
ATOM     54  C   UNL A   1      41.937  31.451  37.122  1.00  0.00     0.029 A 
ATOM     55  C   UNL A   1      41.051  31.626  36.072  1.00  0.00     0.049 A 
ATOM     56  H   UNL A   1      40.982  30.628  34.214  1.00  0.00     0.167 HD
ATOM     57  C   UNL A   1      39.142  32.686  34.890  1.00  0.00     0.074 A 
ATOM     58  C   UNL A   1      38.028  33.610  34.807  1.00  0.00     0.031 C 
ATOM     59  C   UNL A   1      39.935  32.539  35.979  1.00  0.00     0.037 A 
BRANCH  46  60
ATOM     60  C   UNL A   1      44.260  28.148  35.392  1.00  0.00     0.058 A 
ATOM     61  C   UNL A   1      44.003  27.009  36.174  1.00  0.00     0.135 A 
ATOM     62  C   UNL A   1      45.599  28.538  35.228  1.00  0.00     0.135 A 
ATOM     63  F   UNL A   1      42.741  26.595  36.374  1.00  0.00    -0.206 F 
ATOM     64  C   UNL A   1      45.028  26.318  36.813  1.00  0.00     0.059 A 
ATOM     65  C   UNL A   1      46.643  27.842  35.832  1.00  0.00     0.059 A 
ATOM     66  F   UNL A   1      45.904  29.614  34.487  1.00  0.00    -0.206 F 
ATOM     67  C   UNL A   1      46.345  26.749  36.643  1.00  0.00     0.060 A 
BRANCH  67  68
ATOM     68  S   UNL A   1      47.659  25.870  37.513  1.00  0.00     0.124 S 
ATOM     69  O   UNL A   1      48.712  25.849  36.503  1.00  0.00    -0.237 OA
ATOM     70  O   UNL A   1      47.904  26.732  38.666  1.00  0.00    -0.237 OA
ATOM     71  O   UNL A   1      47.057  24.575  37.820  1.00  0.00    -0.744 OA
ENDBRANCH  67  68
ENDBRANCH  46  60
BRANCH  47  72
ATOM     72  C   UNL A   1      36.725  32.896  30.852  1.00  0.00     0.058 A 
ATOM     73  C   UNL A   1      36.993  33.894  29.904  1.00  0.00     0.135 A 
ATOM     74  C   UNL A   1      35.382  32.573  31.100  1.00  0.00     0.135 A 
ATOM     75  F   UNL A   1      38.261  34.244  29.641  1.00  0.00    -0.206 F 
ATOM     76  C   UNL A   1      35.971  34.547  29.224  1.00  0.00     0.059 A 
ATOM     77  C   UNL A   1      34.343  33.195  30.416  1.00  0.00     0.059 A 
ATOM     78  F   UNL A   1      35.073  31.616  31.989  1.00  0.00    -0.206 F 
ATOM     79  C   UNL A   1      34.648  34.183  29.480  1.00  0.00     0.060 A 
BRANCH  79  80
ATOM     80  S   UNL A   1      33.335  34.984  28.534  1.00  0.00     0.124 S 
ATOM     81  O   UNL A   1      34.097  35.869  27.662  1.00  0.00    -0.237 OA
ATOM     82  O   UNL A   1      32.690  33.846  27.885  1.00  0.00    -0.237 OA
ATOM     83  O   UNL A   1      32.535  35.644  29.562  1.00  0.00    -0.744 OA
ENDBRANCH  79  80
ENDBRANCH  47  72
BRANCH  59  84
ATOM     84  C   UNL A   1      39.643  33.406  37.173  1.00  0.00     0.058 A 
ATOM     85  C   UNL A   1      38.690  33.036  38.134  1.00  0.00     0.135 A 
ATOM     86  C   UNL A   1      40.371  34.587  37.391  1.00  0.00     0.135 A 
ATOM     87  F   UNL A   1      37.957  31.924  37.968  1.00  0.00    -0.206 F 
ATOM     88  C   UNL A   1      38.462  33.813  39.267  1.00  0.00     0.059 A 
ATOM     89  C   UNL A   1      40.178  35.365  38.528  1.00  0.00     0.059 A 
ATOM     90  F   UNL A   1      41.299  34.983  36.505  1.00  0.00    -0.206 F 
ATOM     91  C   UNL A   1      39.216  34.972  39.459  1.00  0.00     0.060 A 
BRANCH  91  92
ATOM     92  S   UNL A   1      38.950  35.939  40.960  1.00  0.00     0.124 S 
ATOM     93  O   UNL A   1      37.906  35.167  41.626  1.00  0.00    -0.237 OA
ATOM     94  O   UNL A   1      40.265  35.903  41.592  1.00  0.00    -0.237 OA
ATOM     95  O   UNL A   1      38.539  37.246  40.455  1.00  0.00    -0.744 OA
ENDBRANCH  91  92
ENDBRANCH  59  84
ENDBRANCH  33  34
ENDBRANCH  25  28
ENDBRANCH  23  24
ENDBRANCH  22  23
ENDBRANCH  21  22
ENDBRANCH   1  21
TORSDOF 22
ENDMDL
MODEL 2
REMARK VINA RESULT:      -9.4      3.838     10.317
REMARK SMILES C=CCN(CC(=O)NCCCCCCNC(=O)c1ccc(-c2c3nc(c(-c4c(F)cc(S(=O)(=O)[O-])cc4F)c4ccc([nH]4)c(-c4c(F)cc(S(=O)(=O)[O-])cc4F)c4nc(c(-c5c(F)cc(S(=O)(=O)[O-])cc5F)c5ccc2[nH]5)C=C4)C=C3)cc1)C(=O)NCC(C)C
REMARK SMILES IDX 11 1 10 2 9 3 8 4 6 5 7 6 5 8 4 9 3 10 2 11 1 12 84 13 85 14
REMARK SMILES IDX 86 15 87 17 88 18 89 19 90 20 12 21 13 22 14 23 15 24 16 25
REMARK SMILES IDX 17 27 18 28 19 29 83 30 20 31 82 32 21 33 22 34 23 35 76 36
REMARK SMILES IDX 24 37 81 38 75 39 77 40 25 41 80 42 74 43 73 44 26 46 60 47
REMARK SMILES IDX 39 48 59 49 40 50 43 51 58 52 78 53 41 54 42 55 57 57 79 58
REMARK SMILES IDX 44 59 27 60 28 61 37 62 29 63 30 64 36 65 38 66 31 67 32 68
REMARK SMILES IDX 33 69 34 70 35 71 61 72 62 73 71 74 63 75 64 76 70 77 72 78
REMARK SMILES IDX 65 79 66 80 67 81 68 82 69 83 45 84 46 85 55 86 47 87 48 88
REMARK SMILES IDX 54 89 56 90 49 91 50 92 51 93 52 94 53 95
REMARK H PARENT 8 7 86 16 15 26 77 45 43 56
REMARK Flexibility Score: inf
ROOT
ATOM      1  C   UNL A   1      43.890  22.921  29.675  1.00  0.00     0.002 C 
ENDROOT
BRANCH   1   2
ATOM      2  C   UNL A   1      44.713  24.203  29.859  1.00  0.00     0.021 C 
BRANCH   2   3
ATOM      3  C   UNL A   1      44.882  25.039  28.593  1.00  0.00     0.116 C 
BRANCH   3   4
ATOM      4  N   UNL A   1      46.230  25.521  28.401  1.00  0.00    -0.355 N 
ATOM      5  C   UNL A   1      46.686  26.804  28.367  1.00  0.00     0.239 C 
ATOM      6  O   UNL A   1      47.878  26.978  28.643  1.00  0.00    -0.273 OA
ATOM      7  H   UNL A   1      46.915  24.825  28.278  1.00  0.00     0.163 HD
BRANCH   5   8
ATOM      8  C   UNL A   1      45.753  28.011  28.165  1.00  0.00     0.221 C 
BRANCH   8   9
ATOM      9  N   UNL A   1      45.012  28.059  26.906  1.00  0.00    -0.312 N 
BRANCH   9  10
ATOM     10  C   UNL A   1      43.599  28.434  27.000  1.00  0.00     0.149 C 
BRANCH  10  11
ATOM     11  C   UNL A   1      43.432  29.817  27.555  1.00  0.00    -0.013 C 
ATOM     12  C   UNL A   1      44.018  30.893  27.010  1.00  0.00     0.006 C 
ENDBRANCH  10  11
ENDBRANCH   9  10
BRANCH   9  13
ATOM     13  C   UNL A   1      45.504  27.824  25.655  1.00  0.00     0.318 C 
ATOM     14  O   UNL A   1      46.218  28.651  25.074  1.00  0.00    -0.249 OA
ATOM     15  N   UNL A   1      45.273  26.713  24.940  1.00  0.00    -0.338 N 
ATOM     16  H   UNL A   1      45.749  26.759  24.080  1.00  0.00     0.165 HD
BRANCH  15  17
ATOM     17  C   UNL A   1      44.539  25.456  25.036  1.00  0.00     0.120 C 
BRANCH  17  18
ATOM     18  C   UNL A   1      45.498  24.254  25.127  1.00  0.00     0.002 C 
ATOM     19  C   UNL A   1      45.033  23.103  24.228  1.00  0.00     0.009 C 
ATOM     20  C   UNL A   1      46.919  24.655  24.727  1.00  0.00     0.009 C 
ENDBRANCH  17  18
ENDBRANCH  15  17
ENDBRANCH   9  13
ENDBRANCH   8   9
ENDBRANCH   5   8
ENDBRANCH   3   4
ENDBRANCH   2   3
ENDBRANCH   1   2
BRANCH   1  21
ATOM     21  C   UNL A   1      42.487  23.110  29.087  1.00  0.00     0.002 C 
BRANCH  21  22
ATOM     22  C   UNL A   1      42.193  22.322  27.808  1.00  0.00     0.021 C 
BRANCH  22  23
ATOM     23  C   UNL A   1      41.974  23.177  26.564  1.00  0.00     0.116 C 
BRANCH  23  24
ATOM     24  N   UNL A   1      40.619  23.059  26.048  1.00  0.00    -0.352 N 
ATOM     25  C   UNL A   1      39.498  23.787  26.370  1.00  0.00     0.251 C 
ATOM     26  H   UNL A   1      40.485  22.356  25.372  1.00  0.00     0.163 HD
ATOM     27  O   UNL A   1      38.393  23.423  25.978  1.00  0.00    -0.269 OA
BRANCH  25  28
ATOM     28  C   UNL A   1      39.628  24.998  27.209  1.00  0.00     0.039 A 
ATOM     29  C   UNL A   1      39.062  25.002  28.487  1.00  0.00     0.014 A 
ATOM     30  C   UNL A   1      40.326  26.115  26.744  1.00  0.00     0.014 A 
ATOM     31  C   UNL A   1      39.272  26.095  29.331  1.00  0.00     0.010 A 
ATOM     32  C   UNL A   1      40.590  27.174  27.609  1.00  0.00     0.010 A 
ATOM     33  C   UNL A   1      40.077  27.169  28.915  1.00  0.00    -0.014 A 
BRANCH  33  34
ATOM     34  C   UNL A   1      40.438  28.273  29.840  1.00  0.00     0.031 A 
ATOM     35  C   UNL A   1      39.527  29.457  30.003  1.00  0.00     0.074 A 
ATOM     36  C   UNL A   1      41.632  28.247  30.464  1.00  0.00     0.049 A 
ATOM     37  N   UNL A   1      39.714  30.553  30.694  1.00  0.00    -0.248 NA
ATOM     38  C   UNL A   1      38.250  29.413  29.276  1.00  0.00     0.031 C 
ATOM     39  C   UNL A   1      42.617  27.168  30.361  1.00  0.00     0.029 A 
ATOM     40  N   UNL A   1      42.228  29.159  31.300  1.00  0.00    -0.354 N 
ATOM     41  C   UNL A   1      38.586  31.336  30.473  1.00  0.00     0.074 A 
ATOM     42  C   UNL A   1      37.745  30.607  29.547  1.00  0.00     0.031 C 
ATOM     43  C   UNL A   1      43.679  27.467  31.127  1.00  0.00     0.029 A 
ATOM     44  C   UNL A   1      43.475  28.778  31.735  1.00  0.00     0.049 A 
ATOM     45  H   UNL A   1      41.801  30.007  31.563  1.00  0.00     0.167 HD
ATOM     46  C   UNL A   1      38.276  32.542  31.006  1.00  0.00     0.037 A 
ATOM     47  C   UNL A   1      44.360  29.415  32.526  1.00  0.00     0.037 A 
ATOM     48  C   UNL A   1      39.117  33.255  31.933  1.00  0.00     0.049 A 
ATOM     49  C   UNL A   1      44.015  30.774  33.066  1.00  0.00     0.074 A 
ATOM     50  C   UNL A   1      38.863  34.450  32.583  1.00  0.00     0.029 A 
ATOM     51  N   UNL A   1      40.383  32.847  32.330  1.00  0.00    -0.354 N 
ATOM     52  N   UNL A   1      42.915  31.471  32.905  1.00  0.00    -0.248 NA
ATOM     53  C   UNL A   1      45.034  31.439  33.890  1.00  0.00     0.031 C 
ATOM     54  C   UNL A   1      39.997  34.792  33.328  1.00  0.00     0.029 A 
ATOM     55  C   UNL A   1      40.939  33.786  33.184  1.00  0.00     0.049 A 
ATOM     56  H   UNL A   1      40.822  32.013  32.047  1.00  0.00     0.167 HD
ATOM     57  C   UNL A   1      43.098  32.645  33.626  1.00  0.00     0.074 A 
ATOM     58  C   UNL A   1      44.414  32.562  34.230  1.00  0.00     0.031 C 
ATOM     59  C   UNL A   1      42.253  33.694  33.776  1.00  0.00     0.037 A 
BRANCH  46  60
ATOM     60  C   UNL A   1      36.977  33.172  30.579  1.00  0.00     0.058 A 
ATOM     61  C   UNL A   1      36.853  33.861  29.361  1.00  0.00     0.135 A 
ATOM     62  C   UNL A   1      35.840  33.091  31.401  1.00  0.00     0.135 A 
ATOM     63  F   UNL A   1      37.909  33.979  28.540  1.00  0.00    -0.206 F 
ATOM     64  C   UNL A   1      35.668  34.492  28.998  1.00  0.00     0.059 A 
ATOM     65  C   UNL A   1      34.635  33.687  31.042  1.00  0.00     0.059 A 
ATOM     66  F   UNL A   1      35.898  32.439  32.572  1.00  0.00    -0.206 F 
ATOM     67  C   UNL A   1      34.566  34.407  29.851  1.00  0.00     0.060 A 
BRANCH  67  68
ATOM     68  S   UNL A   1      33.048  35.267  29.388  1.00  0.00     0.124 S 
ATOM     69  O   UNL A   1      32.536  34.403  28.330  1.00  0.00    -0.237 OA
ATOM     70  O   UNL A   1      32.290  35.259  30.635  1.00  0.00    -0.237 OA
ATOM     71  O   UNL A   1      33.520  36.579  28.954  1.00  0.00    -0.744 OA
ENDBRANCH  67  68
ENDBRANCH  46  60
BRANCH  47  72
ATOM     72  C   UNL A   1      45.644  28.753  32.877  1.00  0.00     0.058 A 
ATOM     73  C   UNL A   1      45.751  27.979  34.043  1.00  0.00     0.135 A 
ATOM     74  C   UNL A   1      46.771  28.841  32.045  1.00  0.00     0.135 A 
ATOM     75  F   UNL A   1      44.703  27.873  34.874  1.00  0.00    -0.206 F 
ATOM     76  C   UNL A   1      46.927  27.315  34.371  1.00  0.00     0.059 A 
ATOM     77  C   UNL A   1      47.951  28.168  32.341  1.00  0.00     0.059 A 
ATOM     78  F   UNL A   1      46.716  29.559  30.912  1.00  0.00    -0.206 F 
ATOM     79  C   UNL A   1      48.020  27.408  33.508  1.00  0.00     0.060 A 
BRANCH  79  80
ATOM     80  S   UNL A   1      49.516  26.478  33.907  1.00  0.00     0.124 S 
ATOM     81  O   UNL A   1      49.105  25.759  35.108  1.00  0.00    -0.237 OA
ATOM     82  O   UNL A   1      49.700  25.667  32.708  1.00  0.00    -0.237 OA
ATOM     83  O   UNL A   1      50.517  27.522  34.107  1.00  0.00    -0.744 OA
ENDBRANCH  79  80
ENDBRANCH  47  72
BRANCH  59  84
ATOM     84  C   UNL A   1      42.710  34.837  34.641  1.00  0.00     0.058 A 
ATOM     85  C   UNL A   1      42.602  34.788  36.039  1.00  0.00     0.135 A 
ATOM     86  C   UNL A   1      43.322  35.963  34.068  1.00  0.00     0.135 A 
ATOM     87  F   UNL A   1      42.013  33.740  36.637  1.00  0.00    -0.206 F 
ATOM     88  C   UNL A   1      43.077  35.823  36.840  1.00  0.00     0.059 A 
ATOM     89  C   UNL A   1      43.828  36.996  34.850  1.00  0.00     0.059 A 
ATOM     90  F   UNL A   1      43.457  36.055  32.735  1.00  0.00    -0.206 F 
ATOM     91  C   UNL A   1      43.695  36.920  36.236  1.00  0.00     0.060 A 
BRANCH  91  92
ATOM     92  S   UNL A   1      44.357  38.228  37.291  1.00  0.00     0.124 S 
ATOM     93  O   UNL A   1      45.616  37.638  37.736  1.00  0.00    -0.237 OA
ATOM     94  O   UNL A   1      44.475  39.348  36.362  1.00  0.00    -0.237 OA
ATOM     95  O   UNL A   1      43.336  38.382  38.323  1.00  0.00    -0.744 OA
ENDBRANCH  91  92
ENDBRANCH  59  84
ENDBRANCH  33  34
ENDBRANCH  25  28
ENDBRANCH  23  24
ENDBRANCH  22  23
ENDBRANCH  21  22
ENDBRANCH   1  21
TORSDOF 22
ENDMDL
MODEL 3
REMARK VINA RESULT:      -9.3      3.007      8.927
REMARK SMILES C=CCN(CC(=O)NCCCCCCNC(=O)c1ccc(-c2c3nc(c(-c4c(F)cc(S(=O)(=O)[O-])cc4F)c4ccc([nH]4)c(-c4c(F)cc(S(=O)(=O)[O-])cc4F)c4nc(c(-c5c(F)cc(S(=O)(=O)[O-])cc5F)c5ccc2[nH]5)C=C4)C=C3)cc1)C(=O)NCC(C)C
REMARK SMILES IDX 11 1 10 2 9 3 8 4 6 5 7 6 5 8 4 9 3 10 2 11 1 12 84 13 85 14
REMARK SMILES IDX 86 15 87 17 88 18 89 19 90 20 12 21 13 22 14 23 15 24 16 25
REMARK SMILES IDX 17 27 18 28 19 29 83 30 20 31 82 32 21 33 22 34 23 35 76 36
REMARK SMILES IDX 24 37 81 38 75 39 77 40 25 41 80 42 74 43 73 44 26 46 60 47
REMARK SMILES IDX 39 48 59 49 40 50 43 51 58 52 78 53 41 54 42 55 57 57 79 58
REMARK SMILES IDX 44 59 27 60 28 61 37 62 29 63 30 64 36 65 38 66 31 67 32 68
REMARK SMILES IDX 33 69 34 70 35 71 61 72 62 73 71 74 63 75 64 76 70 77 72 78
REMARK SMILES IDX 65 79 66 80 67 81 68 82 69 83 45 84 46 85 55 86 47 87 48 88
REMARK SMILES IDX 54 89 56 90 49 91 50 92 51 93 52 94 53 95
REMARK H PARENT 8 7 86 16 15 26 77 45 43 56
REMARK Flexibility Score: inf
ROOT
ATOM      1  C   UNL A   1      35.365  31.354  28.345  1.00  0.00     0.002 C 
ENDROOT
BRANCH   1   2
ATOM      2  C   UNL A   1      34.141  30.827  27.585  1.00  0.00     0.021 C 
BRANCH   2   3
ATOM      3  C   UNL A   1      34.282  29.401  27.061  1.00  0.00     0.116 C 
BRANCH   3   4
ATOM      4  N   UNL A   1      34.153  29.304  25.625  1.00  0.00    -0.355 N 
ATOM      5  C   UNL A   1      33.085  28.897  24.884  1.00  0.00     0.239 C 
ATOM      6  O   UNL A   1      33.025  29.310  23.721  1.00  0.00    -0.273 OA
ATOM      7  H   UNL A   1      34.949  29.570  25.110  1.00  0.00     0.163 HD
BRANCH   5   8
ATOM      8  C   UNL A   1      31.912  28.104  25.486  1.00  0.00     0.221 C 
BRANCH   8   9
ATOM      9  N   UNL A   1      31.411  26.981  24.697  1.00  0.00    -0.312 N 
BRANCH   9  10
ATOM     10  C   UNL A   1      32.384  25.936  24.367  1.00  0.00     0.149 C 
BRANCH  10  11
ATOM     11  C   UNL A   1      32.210  25.447  22.960  1.00  0.00    -0.013 C 
ATOM     12  C   UNL A   1      32.640  26.136  21.893  1.00  0.00     0.006 C 
ENDBRANCH  10  11
ENDBRANCH   9  10
BRANCH   9  13
ATOM     13  C   UNL A   1      30.131  26.788  24.265  1.00  0.00     0.318 C 
ATOM     14  O   UNL A   1      29.439  25.852  24.685  1.00  0.00    -0.249 OA
ATOM     15  N   UNL A   1      29.504  27.561  23.365  1.00  0.00    -0.338 N 
ATOM     16  H   UNL A   1      28.583  27.242  23.229  1.00  0.00     0.165 HD
BRANCH  15  17
ATOM     17  C   UNL A   1      29.758  28.726  22.525  1.00  0.00     0.120 C 
BRANCH  17  18
ATOM     18  C   UNL A   1      28.560  29.694  22.536  1.00  0.00     0.002 C 
ATOM     19  C   UNL A   1      27.285  28.995  23.018  1.00  0.00     0.009 C 
ATOM     20  C   UNL A   1      28.837  30.900  23.437  1.00  0.00     0.009 C 
ENDBRANCH  17  18
ENDBRANCH  15  17
ENDBRANCH   9  13
ENDBRANCH   8   9
ENDBRANCH   5   8
ENDBRANCH   3   4
ENDBRANCH   2   3
ENDBRANCH   1   2
BRANCH   1  21
ATOM     21  C   UNL A   1      35.450  32.877  28.497  1.00  0.00     0.002 C 
BRANCH  21  22
ATOM     22  C   UNL A   1      34.140  33.639  28.280  1.00  0.00     0.021 C 
BRANCH  22  23
ATOM     23  C   UNL A   1      34.217  35.137  28.552  1.00  0.00     0.116 C 
BRANCH  23  24
ATOM     24  N   UNL A   1      33.191  35.581  29.483  1.00  0.00    -0.352 N 
ATOM     25  C   UNL A   1      33.065  35.322  30.827  1.00  0.00     0.251 C 
ATOM     26  H   UNL A   1      32.485  36.146  29.094  1.00  0.00     0.163 HD
ATOM     27  O   UNL A   1      32.029  35.617  31.417  1.00  0.00    -0.269 OA
BRANCH  25  28
ATOM     28  C   UNL A   1      34.173  34.666  31.553  1.00  0.00     0.039 A 
ATOM     29  C   UNL A   1      34.015  33.346  31.984  1.00  0.00     0.014 A 
ATOM     30  C   UNL A   1      35.372  35.345  31.787  1.00  0.00     0.014 A 
ATOM     31  C   UNL A   1      35.092  32.679  32.573  1.00  0.00     0.010 A 
ATOM     32  C   UNL A   1      36.463  34.659  32.312  1.00  0.00     0.010 A 
ATOM     33  C   UNL A   1      36.339  33.316  32.698  1.00  0.00    -0.014 A 
BRANCH  33  34
ATOM     34  C   UNL A   1      37.538  32.586  33.183  1.00  0.00     0.031 A 
ATOM     35  C   UNL A   1      38.182  32.963  34.488  1.00  0.00     0.074 A 
ATOM     36  C   UNL A   1      38.098  31.644  32.400  1.00  0.00     0.049 A 
ATOM     37  N   UNL A   1      39.280  32.502  35.029  1.00  0.00    -0.248 NA
ATOM     38  C   UNL A   1      37.515  34.011  35.274  1.00  0.00     0.031 C 
ATOM     39  C   UNL A   1      37.586  31.212  31.097  1.00  0.00     0.029 A 
ATOM     40  N   UNL A   1      39.229  30.886  32.577  1.00  0.00    -0.354 N 
ATOM     41  C   UNL A   1      39.445  33.213  36.212  1.00  0.00     0.074 A 
ATOM     42  C   UNL A   1      38.360  34.168  36.283  1.00  0.00     0.031 C 
ATOM     43  C   UNL A   1      38.382  30.247  30.609  1.00  0.00     0.029 A 
ATOM     44  C   UNL A   1      39.487  30.026  31.535  1.00  0.00     0.049 A 
ATOM     45  H   UNL A   1      39.802  30.951  33.376  1.00  0.00     0.167 HD
ATOM     46  C   UNL A   1      40.405  33.071  37.158  1.00  0.00     0.037 A 
ATOM     47  C   UNL A   1      40.504  29.164  31.342  1.00  0.00     0.037 A 
ATOM     48  C   UNL A   1      41.477  32.112  37.082  1.00  0.00     0.049 A 
ATOM     49  C   UNL A   1      41.584  29.058  32.382  1.00  0.00     0.074 A 
ATOM     50  C   UNL A   1      42.459  31.842  38.018  1.00  0.00     0.029 A 
ATOM     51  N   UNL A   1      41.717  31.276  36.000  1.00  0.00    -0.354 N 
ATOM     52  N   UNL A   1      41.689  29.687  33.528  1.00  0.00    -0.248 NA
ATOM     53  C   UNL A   1      42.689  28.131  32.100  1.00  0.00     0.031 C 
ATOM     54  C   UNL A   1      43.325  30.884  37.480  1.00  0.00     0.029 A 
ATOM     55  C   UNL A   1      42.855  30.519  36.229  1.00  0.00     0.049 A 
ATOM     56  H   UNL A   1      41.162  31.228  35.189  1.00  0.00     0.167 HD
ATOM     57  C   UNL A   1      42.858  29.216  34.116  1.00  0.00     0.074 A 
ATOM     58  C   UNL A   1      43.421  28.243  33.200  1.00  0.00     0.031 C 
ATOM     59  C   UNL A   1      43.410  29.556  35.306  1.00  0.00     0.037 A 
BRANCH  46  60
ATOM     60  C   UNL A   1      40.344  33.992  38.347  1.00  0.00     0.058 A 
ATOM     61  C   UNL A   1      39.499  33.736  39.441  1.00  0.00     0.135 A 
ATOM     62  C   UNL A   1      41.137  35.151  38.393  1.00  0.00     0.135 A 
ATOM     63  F   UNL A   1      38.712  32.649  39.447  1.00  0.00    -0.206 F 
ATOM     64  C   UNL A   1      39.402  34.622  40.509  1.00  0.00     0.059 A 
ATOM     65  C   UNL A   1      41.080  36.034  39.468  1.00  0.00     0.059 A 
ATOM     66  F   UNL A   1      41.968  35.443  37.380  1.00  0.00    -0.206 F 
ATOM     67  C   UNL A   1      40.191  35.774  40.509  1.00  0.00     0.060 A 
BRANCH  67  68
ATOM     68  S   UNL A   1      40.023  36.935  41.881  1.00  0.00     0.124 S 
ATOM     69  O   UNL A   1      39.281  36.134  42.849  1.00  0.00    -0.237 OA
ATOM     70  O   UNL A   1      41.413  37.217  42.225  1.00  0.00    -0.237 OA
ATOM     71  O   UNL A   1      39.287  38.050  41.293  1.00  0.00    -0.744 OA
ENDBRANCH  67  68
ENDBRANCH  46  60
BRANCH  47  72
ATOM     72  C   UNL A   1      40.525  28.310  30.125  1.00  0.00     0.058 A 
ATOM     73  C   UNL A   1      41.439  28.565  29.092  1.00  0.00     0.135 A 
ATOM     74  C   UNL A   1      39.670  27.205  29.985  1.00  0.00     0.135 A 
ATOM     75  F   UNL A   1      42.269  29.616  29.177  1.00  0.00    -0.206 F 
ATOM     76  C   UNL A   1      41.508  27.756  27.964  1.00  0.00     0.059 A 
ATOM     77  C   UNL A   1      39.736  26.368  28.876  1.00  0.00     0.059 A 
ATOM     78  F   UNL A   1      38.787  26.911  30.951  1.00  0.00    -0.206 F 
ATOM     79  C   UNL A   1      40.658  26.653  27.869  1.00  0.00     0.060 A 
BRANCH  79  80
ATOM     80  S   UNL A   1      40.812  25.567  26.435  1.00  0.00     0.124 S 
ATOM     81  O   UNL A   1      41.831  24.626  26.885  1.00  0.00    -0.237 OA
ATOM     82  O   UNL A   1      39.459  25.033  26.310  1.00  0.00    -0.237 OA
ATOM     83  O   UNL A   1      41.218  26.476  25.366  1.00  0.00    -0.744 OA
ENDBRANCH  79  80
ENDBRANCH  47  72
BRANCH  59  84
ATOM     84  C   UNL A   1      44.684  28.862  35.704  1.00  0.00     0.058 A 
ATOM     85  C   UNL A   1      44.670  27.644  36.400  1.00  0.00     0.135 A 
ATOM     86  C   UNL A   1      45.930  29.389  35.328  1.00  0.00     0.135 A 
ATOM     87  F   UNL A   1      43.507  27.103  36.795  1.00  0.00    -0.206 F 
ATOM     88  C   UNL A   1      45.850  26.976  36.718  1.00  0.00     0.059 A 
ATOM     89  C   UNL A   1      47.119  28.726  35.611  1.00  0.00     0.059 A 
ATOM     90  F   UNL A   1      45.998  30.549  34.654  1.00  0.00    -0.206 F 
ATOM     91  C   UNL A   1      47.069  27.522  36.313  1.00  0.00     0.060 A 
BRANCH  91  92
ATOM     92  S   UNL A   1      48.587  26.616  36.682  1.00  0.00     0.124 S 
ATOM     93  O   UNL A   1      48.677  25.713  35.538  1.00  0.00    -0.237 OA
ATOM     94  O   UNL A   1      49.583  27.682  36.728  1.00  0.00    -0.237 OA
ATOM     95  O   UNL A   1      48.299  25.979  37.964  1.00  0.00    -0.744 OA
ENDBRANCH  91  92
ENDBRANCH  59  84
ENDBRANCH  33  34
ENDBRANCH  25  28
ENDBRANCH  23  24
ENDBRANCH  22  23
ENDBRANCH  21  22
ENDBRANCH   1  21
TORSDOF 22
ENDMDL
