MODEL 1
REMARK VINA RESULT:     -11.8      0.000      0.000
REMARK SMILES O=C(NCCCCCCNC(=O)[C@@H]1CN(c2ncccn2)CCN1C(=O)C1CCOCC1)c1ccc(-c2c3nc(c(-c4c(F)cc(S(=O)(=O)[O-])cc4F)c4ccc([nH]4)c(-c4c(F)cc(S(=O)(=O)[O-])cc4F)c4nc(c(-c5c(F)cc(S(=O)(=O)[O-])cc5F)c5ccc2[nH]5)C=C4)C=C3)cc1
REMARK SMILES IDX 6 1 5 2 4 3 3 4 1 5 2 6 33 8 34 9 98 10 35 11 97 12 36 13
REMARK SMILES IDX 37 14 38 15 91 16 39 17 96 18 90 19 92 20 40 21 95 22 89 23
REMARK SMILES IDX 88 24 41 26 75 27 54 28 74 29 55 30 58 31 73 32 93 33 56 34
REMARK SMILES IDX 57 35 72 37 94 38 59 39 42 40 43 41 52 42 44 43 45 44 51 45
REMARK SMILES IDX 53 46 46 47 47 48 48 49 49 50 50 51 76 52 77 53 86 54 78 55
REMARK SMILES IDX 79 56 85 57 87 58 80 59 81 60 82 61 83 62 84 63 60 64 61 65
REMARK SMILES IDX 70 66 62 67 63 68 69 69 71 70 64 71 65 72 66 73 67 74 68 75
REMARK SMILES IDX 7 76 8 77 9 78 10 79 11 80 12 82 13 83 14 84 24 85 15 86
REMARK SMILES IDX 23 87 22 88 25 89 26 90 27 91 28 92 32 93 29 94 31 95 30 96
REMARK SMILES IDX 16 97 17 98 21 99 18 100 20 101 19 102
REMARK H PARENT 3 7 92 25 58 36 10 81
REMARK Flexibility Score: inf
ROOT
ATOM      1  C   UNL A   1      33.565  29.122  26.489  1.00  0.00     0.002 C 
ENDROOT
BRANCH   1   2
ATOM      2  C   UNL A   1      34.839  28.908  27.308  1.00  0.00     0.021 C 
BRANCH   2   3
ATOM      3  C   UNL A   1      35.537  30.198  27.717  1.00  0.00     0.116 C 
BRANCH   3   4
ATOM      4  N   UNL A   1      35.430  30.432  29.145  1.00  0.00    -0.352 N 
ATOM      5  O   UNL A   1      35.985  30.152  31.313  1.00  0.00    -0.269 OA
ATOM      6  C   UNL A   1      36.326  30.120  30.137  1.00  0.00     0.251 C 
ATOM      7  H   UNL A   1      34.601  30.875  29.443  1.00  0.00     0.163 HD
BRANCH   6   8
ATOM      8  C   UNL A   1      37.703  29.734  29.764  1.00  0.00     0.039 A 
ATOM      9  C   UNL A   1      38.560  29.172  30.717  1.00  0.00     0.014 A 
ATOM     10  C   UNL A   1      38.135  29.932  28.452  1.00  0.00     0.014 A 
ATOM     11  C   UNL A   1      39.886  28.921  30.388  1.00  0.00     0.010 A 
ATOM     12  C   UNL A   1      39.445  29.601  28.103  1.00  0.00     0.010 A 
ATOM     13  C   UNL A   1      40.337  29.113  29.074  1.00  0.00    -0.014 A 
BRANCH  13  14
ATOM     14  C   UNL A   1      41.723  28.737  28.706  1.00  0.00     0.031 A 
ATOM     15  C   UNL A   1      42.818  29.764  28.678  1.00  0.00     0.074 A 
ATOM     16  C   UNL A   1      41.978  27.456  28.374  1.00  0.00     0.049 A 
ATOM     17  N   UNL A   1      44.066  29.626  28.310  1.00  0.00    -0.248 NA
ATOM     18  C   UNL A   1      42.466  31.125  29.111  1.00  0.00     0.031 C 
ATOM     19  C   UNL A   1      40.987  26.376  28.365  1.00  0.00     0.029 A 
ATOM     20  N   UNL A   1      43.138  26.846  27.977  1.00  0.00    -0.354 N 
ATOM     21  C   UNL A   1      44.643  30.884  28.441  1.00  0.00     0.074 A 
ATOM     22  C   UNL A   1      43.601  31.777  28.903  1.00  0.00     0.031 C 
ATOM     23  C   UNL A   1      41.586  25.234  28.000  1.00  0.00     0.029 A 
ATOM     24  C   UNL A   1      42.981  25.513  27.683  1.00  0.00     0.049 A 
ATOM     25  H   UNL A   1      44.001  27.316  27.908  1.00  0.00     0.167 HD
ATOM     26  C   UNL A   1      45.925  31.253  28.202  1.00  0.00     0.037 A 
ATOM     27  C   UNL A   1      43.852  24.618  27.180  1.00  0.00     0.037 A 
ATOM     28  C   UNL A   1      46.949  30.348  27.743  1.00  0.00     0.049 A 
ATOM     29  C   UNL A   1      45.257  25.057  26.887  1.00  0.00     0.074 A 
ATOM     30  C   UNL A   1      48.284  30.614  27.495  1.00  0.00     0.029 A 
ATOM     31  N   UNL A   1      46.750  29.004  27.451  1.00  0.00    -0.354 N 
ATOM     32  N   UNL A   1      45.795  26.243  27.042  1.00  0.00    -0.248 NA
ATOM     33  C   UNL A   1      46.173  24.042  26.355  1.00  0.00     0.031 C 
ATOM     34  C   UNL A   1      48.880  29.445  27.007  1.00  0.00     0.029 A 
ATOM     35  C   UNL A   1      47.931  28.435  27.007  1.00  0.00     0.049 A 
ATOM     36  H   UNL A   1      45.894  28.528  27.548  1.00  0.00     0.167 HD
ATOM     37  C   UNL A   1      47.122  26.112  26.651  1.00  0.00     0.074 A 
ATOM     38  C   UNL A   1      47.304  24.729  26.258  1.00  0.00     0.031 C 
ATOM     39  C   UNL A   1      48.099  27.052  26.627  1.00  0.00     0.037 A 
BRANCH  26  40
ATOM     40  C   UNL A   1      46.282  32.703  28.399  1.00  0.00     0.058 A 
ATOM     41  C   UNL A   1      46.152  33.647  27.366  1.00  0.00     0.135 A 
ATOM     42  C   UNL A   1      46.748  33.159  29.642  1.00  0.00     0.135 A 
ATOM     43  F   UNL A   1      45.723  33.267  26.152  1.00  0.00    -0.206 F 
ATOM     44  C   UNL A   1      46.509  34.979  27.549  1.00  0.00     0.059 A 
ATOM     45  C   UNL A   1      47.084  34.493  29.857  1.00  0.00     0.059 A 
ATOM     46  F   UNL A   1      46.887  32.303  30.667  1.00  0.00    -0.206 F 
ATOM     47  C   UNL A   1      46.981  35.391  28.796  1.00  0.00     0.060 A 
BRANCH  47  48
ATOM     48  S   UNL A   1      47.471  37.116  29.005  1.00  0.00     0.124 S 
ATOM     49  O   UNL A   1      46.850  37.439  30.287  1.00  0.00    -0.237 OA
ATOM     50  O   UNL A   1      48.928  37.029  29.014  1.00  0.00    -0.237 OA
ATOM     51  O   UNL A   1      46.891  37.779  27.842  1.00  0.00    -0.744 OA
ENDBRANCH  47  48
ENDBRANCH  26  40
BRANCH  27  52
ATOM     52  C   UNL A   1      43.399  23.226  26.927  1.00  0.00     0.058 A 
ATOM     53  C   UNL A   1      43.228  22.749  25.620  1.00  0.00     0.135 A 
ATOM     54  C   UNL A   1      43.195  22.326  27.986  1.00  0.00     0.135 A 
ATOM     55  F   UNL A   1      43.409  23.571  24.576  1.00  0.00    -0.206 F 
ATOM     56  C   UNL A   1      42.870  21.428  25.370  1.00  0.00     0.059 A 
ATOM     57  C   UNL A   1      42.863  20.995  27.760  1.00  0.00     0.059 A 
ATOM     58  F   UNL A   1      43.366  22.730  29.254  1.00  0.00    -0.206 F 
ATOM     59  C   UNL A   1      42.699  20.556  26.448  1.00  0.00     0.060 A 
BRANCH  59  60
ATOM     60  S   UNL A   1      42.312  18.826  26.106  1.00  0.00     0.124 S 
ATOM     61  O   UNL A   1      43.277  18.510  25.060  1.00  0.00    -0.237 OA
ATOM     62  O   UNL A   1      42.549  18.199  27.404  1.00  0.00    -0.237 OA
ATOM     63  O   UNL A   1      40.915  18.870  25.687  1.00  0.00    -0.744 OA
ENDBRANCH  59  60
ENDBRANCH  27  52
BRANCH  39  64
ATOM     64  C   UNL A   1      49.473  26.609  26.206  1.00  0.00     0.058 A 
ATOM     65  C   UNL A   1      49.974  26.865  24.920  1.00  0.00     0.135 A 
ATOM     66  C   UNL A   1      50.322  25.976  27.128  1.00  0.00     0.135 A 
ATOM     67  F   UNL A   1      49.199  27.458  23.997  1.00  0.00    -0.206 F 
ATOM     68  C   UNL A   1      51.267  26.497  24.560  1.00  0.00     0.059 A 
ATOM     69  C   UNL A   1      51.627  25.624  26.798  1.00  0.00     0.059 A 
ATOM     70  F   UNL A   1      49.893  25.714  28.373  1.00  0.00    -0.206 F 
ATOM     71  C   UNL A   1      52.087  25.882  25.508  1.00  0.00     0.060 A 
BRANCH  71  72
ATOM     72  S   UNL A   1      53.779  25.459  25.045  1.00  0.00     0.124 S 
ATOM     73  O   UNL A   1      53.839  24.046  25.406  1.00  0.00    -0.237 OA
ATOM     74  O   UNL A   1      53.794  25.749  23.615  1.00  0.00    -0.237 OA
ATOM     75  O   UNL A   1      54.590  26.352  25.867  1.00  0.00    -0.744 OA
ENDBRANCH  71  72
ENDBRANCH  39  64
ENDBRANCH  13  14
ENDBRANCH   6   8
ENDBRANCH   3   4
ENDBRANCH   2   3
ENDBRANCH   1   2
BRANCH   1  76
ATOM     76  C   UNL A   1      32.258  28.987  27.277  1.00  0.00     0.002 C 
BRANCH  76  77
ATOM     77  C   UNL A   1      31.476  27.695  27.027  1.00  0.00     0.021 C 
BRANCH  77  78
ATOM     78  C   UNL A   1      32.306  26.591  26.387  1.00  0.00     0.116 C 
BRANCH  78  79
ATOM     79  N   UNL A   1      31.967  25.261  26.864  1.00  0.00    -0.354 N 
ATOM     80  C   UNL A   1      32.465  24.015  26.663  1.00  0.00     0.244 C 
ATOM     81  H   UNL A   1      31.194  25.265  27.475  1.00  0.00     0.163 HD
ATOM     82  O   UNL A   1      32.229  23.219  27.582  1.00  0.00    -0.273 OA
BRANCH  80  83
ATOM     83  C   UNL A   1      33.263  23.512  25.422  1.00  0.00     0.193 C 
ATOM     84  C   UNL A   1      34.747  23.806  25.712  1.00  0.00     0.155 C 
ATOM     85  N   UNL A   1      32.949  23.788  23.961  1.00  0.00    -0.327 N 
ATOM     86  N   UNL A   1      35.641  23.086  24.810  1.00  0.00    -0.336 N 
ATOM     87  C   UNL A   1      33.986  23.233  23.037  1.00  0.00     0.142 C 
ATOM     88  C   UNL A   1      35.459  23.473  23.421  1.00  0.00     0.141 C 
BRANCH  85  89
ATOM     89  C   UNL A   1      31.691  23.829  23.349  1.00  0.00     0.226 C 
ATOM     90  O   UNL A   1      31.106  22.776  23.049  1.00  0.00    -0.275 OA
BRANCH  89  91
ATOM     91  C   UNL A   1      30.989  25.116  22.927  1.00  0.00     0.083 C 
ATOM     92  C   UNL A   1      31.959  26.219  22.530  1.00  0.00     0.042 C 
ATOM     93  C   UNL A   1      29.836  25.487  23.853  1.00  0.00     0.042 C 
ATOM     94  C   UNL A   1      31.275  27.568  22.451  1.00  0.00     0.161 C 
ATOM     95  C   UNL A   1      29.458  26.964  23.819  1.00  0.00     0.161 C 
ATOM     96  O   UNL A   1      30.582  27.827  23.664  1.00  0.00    -0.381 OA
ENDBRANCH  89  91
ENDBRANCH  85  89
BRANCH  86  97
ATOM     97  C   UNL A   1      36.918  23.020  25.335  1.00  0.00     0.225 A 
ATOM     98  N   UNL A   1      37.410  24.049  26.041  1.00  0.00    -0.221 NA
ATOM     99  N   UNL A   1      37.561  21.846  25.196  1.00  0.00    -0.221 NA
ATOM    100  C   UNL A   1      38.596  23.853  26.656  1.00  0.00     0.117 A 
ATOM    101  C   UNL A   1      38.753  21.709  25.802  1.00  0.00     0.117 A 
ATOM    102  C   UNL A   1      39.320  22.690  26.570  1.00  0.00     0.040 A 
ENDBRANCH  86  97
ENDBRANCH  80  83
ENDBRANCH  78  79
ENDBRANCH  77  78
ENDBRANCH  76  77
ENDBRANCH   1  76
TORSDOF 19
ENDMDL
MODEL 2
REMARK VINA RESULT:     -11.7      1.828      8.856
REMARK SMILES O=C(NCCCCCCNC(=O)[C@@H]1CN(c2ncccn2)CCN1C(=O)C1CCOCC1)c1ccc(-c2c3nc(c(-c4c(F)cc(S(=O)(=O)[O-])cc4F)c4ccc([nH]4)c(-c4c(F)cc(S(=O)(=O)[O-])cc4F)c4nc(c(-c5c(F)cc(S(=O)(=O)[O-])cc5F)c5ccc2[nH]5)C=C4)C=C3)cc1
REMARK SMILES IDX 6 1 5 2 4 3 3 4 1 5 2 6 33 8 34 9 98 10 35 11 97 12 36 13
REMARK SMILES IDX 37 14 38 15 91 16 39 17 96 18 90 19 92 20 40 21 95 22 89 23
REMARK SMILES IDX 88 24 41 26 75 27 54 28 74 29 55 30 58 31 73 32 93 33 56 34
REMARK SMILES IDX 57 35 72 37 94 38 59 39 42 40 43 41 52 42 44 43 45 44 51 45
REMARK SMILES IDX 53 46 46 47 47 48 48 49 49 50 50 51 76 52 77 53 86 54 78 55
REMARK SMILES IDX 79 56 85 57 87 58 80 59 81 60 82 61 83 62 84 63 60 64 61 65
REMARK SMILES IDX 70 66 62 67 63 68 69 69 71 70 64 71 65 72 66 73 67 74 68 75
REMARK SMILES IDX 7 76 8 77 9 78 10 79 11 80 12 82 13 83 14 84 24 85 15 86
REMARK SMILES IDX 23 87 22 88 25 89 26 90 27 91 28 92 32 93 29 94 31 95 30 96
REMARK SMILES IDX 16 97 17 98 21 99 18 100 20 101 19 102
REMARK H PARENT 3 7 92 25 58 36 10 81
REMARK Flexibility Score: inf
ROOT
ATOM      1  C   UNL A   1      34.478  32.215  28.240  1.00  0.00     0.002 C 
ENDROOT
BRANCH   1   2
ATOM      2  C   UNL A   1      35.963  32.491  27.997  1.00  0.00     0.021 C 
BRANCH   2   3
ATOM      3  C   UNL A   1      36.772  32.692  29.270  1.00  0.00     0.116 C 
BRANCH   3   4
ATOM      4  N   UNL A   1      36.346  31.786  30.322  1.00  0.00    -0.352 N 
ATOM      5  O   UNL A   1      36.253  29.814  31.411  1.00  0.00    -0.269 OA
ATOM      6  C   UNL A   1      36.874  30.569  30.674  1.00  0.00     0.251 C 
ATOM      7  H   UNL A   1      35.573  32.085  30.854  1.00  0.00     0.163 HD
BRANCH   6   8
ATOM      8  C   UNL A   1      38.196  30.179  30.141  1.00  0.00     0.039 A 
ATOM      9  C   UNL A   1      39.292  30.049  31.001  1.00  0.00     0.014 A 
ATOM     10  C   UNL A   1      38.336  29.937  28.774  1.00  0.00     0.014 A 
ATOM     11  C   UNL A   1      40.553  29.797  30.477  1.00  0.00     0.010 A 
ATOM     12  C   UNL A   1      39.590  29.603  28.260  1.00  0.00     0.010 A 
ATOM     13  C   UNL A   1      40.712  29.551  29.104  1.00  0.00    -0.014 A 
BRANCH  13  14
ATOM     14  C   UNL A   1      42.042  29.173  28.571  1.00  0.00     0.031 A 
ATOM     15  C   UNL A   1      42.328  27.763  28.138  1.00  0.00     0.074 A 
ATOM     16  C   UNL A   1      43.002  30.116  28.501  1.00  0.00     0.049 A 
ATOM     17  N   UNL A   1      43.452  27.242  27.719  1.00  0.00    -0.248 NA
ATOM     18  C   UNL A   1      41.207  26.812  28.191  1.00  0.00     0.031 C 
ATOM     19  C   UNL A   1      42.835  31.517  28.897  1.00  0.00     0.029 A 
ATOM     20  N   UNL A   1      44.305  30.043  28.082  1.00  0.00    -0.354 N 
ATOM     21  C   UNL A   1      43.184  25.899  27.482  1.00  0.00     0.074 A 
ATOM     22  C   UNL A   1      41.795  25.681  27.826  1.00  0.00     0.031 C 
ATOM     23  C   UNL A   1      43.984  32.174  28.685  1.00  0.00     0.029 A 
ATOM     24  C   UNL A   1      44.986  31.230  28.205  1.00  0.00     0.049 A 
ATOM     25  H   UNL A   1      44.714  29.220  27.728  1.00  0.00     0.167 HD
ATOM     26  C   UNL A   1      44.023  24.942  27.016  1.00  0.00     0.037 A 
ATOM     27  C   UNL A   1      46.281  31.523  27.990  1.00  0.00     0.037 A 
ATOM     28  C   UNL A   1      45.404  25.179  26.678  1.00  0.00     0.049 A 
ATOM     29  C   UNL A   1      47.201  30.439  27.510  1.00  0.00     0.074 A 
ATOM     30  C   UNL A   1      46.332  24.285  26.174  1.00  0.00     0.029 A 
ATOM     31  N   UNL A   1      46.060  26.395  26.821  1.00  0.00    -0.354 N 
ATOM     32  N   UNL A   1      46.927  29.180  27.264  1.00  0.00    -0.248 NA
ATOM     33  C   UNL A   1      48.601  30.811  27.275  1.00  0.00     0.031 C 
ATOM     34  C   UNL A   1      47.561  24.946  26.059  1.00  0.00     0.029 A 
ATOM     35  C   UNL A   1      47.384  26.269  26.435  1.00  0.00     0.049 A 
ATOM     36  H   UNL A   1      45.643  27.224  27.148  1.00  0.00     0.167 HD
ATOM     37  C   UNL A   1      48.116  28.612  26.821  1.00  0.00     0.074 A 
ATOM     38  C   UNL A   1      49.108  29.669  26.826  1.00  0.00     0.031 C 
ATOM     39  C   UNL A   1      48.358  27.334  26.437  1.00  0.00     0.037 A 
BRANCH  26  40
ATOM     40  C   UNL A   1      43.478  23.544  26.879  1.00  0.00     0.058 A 
ATOM     41  C   UNL A   1      43.240  22.726  27.996  1.00  0.00     0.135 A 
ATOM     42  C   UNL A   1      43.177  23.019  25.612  1.00  0.00     0.135 A 
ATOM     43  F   UNL A   1      43.521  23.170  29.232  1.00  0.00    -0.206 F 
ATOM     44  C   UNL A   1      42.762  21.427  27.859  1.00  0.00     0.059 A 
ATOM     45  C   UNL A   1      42.670  21.732  25.452  1.00  0.00     0.059 A 
ATOM     46  F   UNL A   1      43.379  23.756  24.509  1.00  0.00    -0.206 F 
ATOM     47  C   UNL A   1      42.487  20.936  26.581  1.00  0.00     0.060 A 
BRANCH  47  48
ATOM     48  S   UNL A   1      41.899  19.236  26.419  1.00  0.00     0.124 S 
ATOM     49  O   UNL A   1      40.476  19.446  26.165  1.00  0.00    -0.237 OA
ATOM     50  O   UNL A   1      42.676  18.743  25.287  1.00  0.00    -0.237 OA
ATOM     51  O   UNL A   1      42.224  18.638  27.710  1.00  0.00    -0.744 OA
ENDBRANCH  47  48
ENDBRANCH  26  40
BRANCH  27  52
ATOM     52  C   UNL A   1      46.765  32.906  28.236  1.00  0.00     0.058 A 
ATOM     53  C   UNL A   1      46.711  33.880  27.229  1.00  0.00     0.135 A 
ATOM     54  C   UNL A   1      47.227  33.297  29.504  1.00  0.00     0.135 A 
ATOM     55  F   UNL A   1      46.279  33.553  26.002  1.00  0.00    -0.206 F 
ATOM     56  C   UNL A   1      47.098  35.194  27.469  1.00  0.00     0.059 A 
ATOM     57  C   UNL A   1      47.593  34.611  29.774  1.00  0.00     0.059 A 
ATOM     58  F   UNL A   1      47.278  32.406  30.505  1.00  0.00    -0.206 F 
ATOM     59  C   UNL A   1      47.529  35.552  28.748  1.00  0.00     0.060 A 
BRANCH  59  60
ATOM     60  S   UNL A   1      47.953  37.278  29.066  1.00  0.00     0.124 S 
ATOM     61  O   UNL A   1      48.503  37.687  27.779  1.00  0.00    -0.237 OA
ATOM     62  O   UNL A   1      46.657  37.850  29.419  1.00  0.00    -0.237 OA
ATOM     63  O   UNL A   1      48.910  37.192  30.164  1.00  0.00    -0.744 OA
ENDBRANCH  59  60
ENDBRANCH  27  52
BRANCH  39  64
ATOM     64  C   UNL A   1      49.741  27.012  25.944  1.00  0.00     0.058 A 
ATOM     65  C   UNL A   1      50.100  27.155  24.594  1.00  0.00     0.135 A 
ATOM     66  C   UNL A   1      50.738  26.615  26.850  1.00  0.00     0.135 A 
ATOM     67  F   UNL A   1      49.182  27.521  23.685  1.00  0.00    -0.206 F 
ATOM     68  C   UNL A   1      51.397  26.904  24.158  1.00  0.00     0.059 A 
ATOM     69  C   UNL A   1      52.048  26.385  26.441  1.00  0.00     0.059 A 
ATOM     70  F   UNL A   1      50.448  26.469  28.152  1.00  0.00    -0.206 F 
ATOM     71  C   UNL A   1      52.365  26.525  25.092  1.00  0.00     0.060 A 
BRANCH  71  72
ATOM     72  S   UNL A   1      54.057  26.255  24.523  1.00  0.00     0.124 S 
ATOM     73  O   UNL A   1      54.773  27.324  25.210  1.00  0.00    -0.237 OA
ATOM     74  O   UNL A   1      54.333  24.901  24.994  1.00  0.00    -0.237 OA
ATOM     75  O   UNL A   1      53.955  26.397  23.074  1.00  0.00    -0.744 OA
ENDBRANCH  71  72
ENDBRANCH  39  64
ENDBRANCH  13  14
ENDBRANCH   6   8
ENDBRANCH   3   4
ENDBRANCH   2   3
ENDBRANCH   1   2
BRANCH   1  76
ATOM     76  C   UNL A   1      33.941  30.938  27.586  1.00  0.00     0.002 C 
BRANCH  76  77
ATOM     77  C   UNL A   1      34.842  29.708  27.722  1.00  0.00     0.021 C 
BRANCH  77  78
ATOM     78  C   UNL A   1      34.370  28.509  26.910  1.00  0.00     0.116 C 
BRANCH  78  79
ATOM     79  N   UNL A   1      32.973  28.177  27.129  1.00  0.00    -0.354 N 
ATOM     80  C   UNL A   1      32.005  27.576  26.392  1.00  0.00     0.244 C 
ATOM     81  H   UNL A   1      32.654  28.452  28.019  1.00  0.00     0.163 HD
ATOM     82  O   UNL A   1      31.106  27.052  27.064  1.00  0.00    -0.273 OA
BRANCH  80  83
ATOM     83  C   UNL A   1      31.918  27.502  24.837  1.00  0.00     0.193 C 
ATOM     84  C   UNL A   1      30.722  28.382  24.427  1.00  0.00     0.155 C 
ATOM     85  N   UNL A   1      31.966  26.249  23.978  1.00  0.00    -0.327 N 
ATOM     86  N   UNL A   1      30.725  28.692  23.001  1.00  0.00    -0.336 N 
ATOM     87  C   UNL A   1      31.751  26.541  22.527  1.00  0.00     0.142 C 
ATOM     88  C   UNL A   1      30.600  27.503  22.174  1.00  0.00     0.141 C 
BRANCH  85  89
ATOM     89  C   UNL A   1      32.772  25.119  24.157  1.00  0.00     0.226 C 
ATOM     90  O   UNL A   1      33.834  25.001  23.523  1.00  0.00    -0.275 OA
BRANCH  89  91
ATOM     91  C   UNL A   1      32.397  23.934  25.041  1.00  0.00     0.083 C 
ATOM     92  C   UNL A   1      30.897  23.815  25.268  1.00  0.00     0.042 C 
ATOM     93  C   UNL A   1      33.310  23.792  26.253  1.00  0.00     0.042 C 
ATOM     94  C   UNL A   1      30.573  22.866  26.403  1.00  0.00     0.161 C 
ATOM     95  C   UNL A   1      32.697  23.009  27.409  1.00  0.00     0.161 C 
ATOM     96  O   UNL A   1      31.299  23.241  27.565  1.00  0.00    -0.381 OA
ENDBRANCH  89  91
ENDBRANCH  85  89
BRANCH  86  97
ATOM     97  C   UNL A   1      29.928  29.790  22.736  1.00  0.00     0.225 A 
ATOM     98  N   UNL A   1      29.432  29.979  21.504  1.00  0.00    -0.221 NA
ATOM     99  N   UNL A   1      29.600  30.558  23.790  1.00  0.00    -0.221 NA
ATOM    100  C   UNL A   1      28.537  30.979  21.357  1.00  0.00     0.117 A 
ATOM    101  C   UNL A   1      28.727  31.561  23.588  1.00  0.00     0.117 A 
ATOM    102  C   UNL A   1      28.143  31.812  22.375  1.00  0.00     0.040 A 
ENDBRANCH  86  97
ENDBRANCH  80  83
ENDBRANCH  78  79
ENDBRANCH  77  78
ENDBRANCH  76  77
ENDBRANCH   1  76
TORSDOF 19
ENDMDL
MODEL 3
REMARK VINA RESULT:     -11.6      1.708      2.918
REMARK SMILES O=C(NCCCCCCNC(=O)[C@@H]1CN(c2ncccn2)CCN1C(=O)C1CCOCC1)c1ccc(-c2c3nc(c(-c4c(F)cc(S(=O)(=O)[O-])cc4F)c4ccc([nH]4)c(-c4c(F)cc(S(=O)(=O)[O-])cc4F)c4nc(c(-c5c(F)cc(S(=O)(=O)[O-])cc5F)c5ccc2[nH]5)C=C4)C=C3)cc1
REMARK SMILES IDX 6 1 5 2 4 3 3 4 1 5 2 6 33 8 34 9 98 10 35 11 97 12 36 13
REMARK SMILES IDX 37 14 38 15 91 16 39 17 96 18 90 19 92 20 40 21 95 22 89 23
REMARK SMILES IDX 88 24 41 26 75 27 54 28 74 29 55 30 58 31 73 32 93 33 56 34
REMARK SMILES IDX 57 35 72 37 94 38 59 39 42 40 43 41 52 42 44 43 45 44 51 45
REMARK SMILES IDX 53 46 46 47 47 48 48 49 49 50 50 51 76 52 77 53 86 54 78 55
REMARK SMILES IDX 79 56 85 57 87 58 80 59 81 60 82 61 83 62 84 63 60 64 61 65
REMARK SMILES IDX 70 66 62 67 63 68 69 69 71 70 64 71 65 72 66 73 67 74 68 75
REMARK SMILES IDX 7 76 8 77 9 78 10 79 11 80 12 82 13 83 14 84 24 85 15 86
REMARK SMILES IDX 23 87 22 88 25 89 26 90 27 91 28 92 32 93 29 94 31 95 30 96
REMARK SMILES IDX 16 97 17 98 21 99 18 100 20 101 19 102
REMARK H PARENT 3 7 92 25 58 36 10 81
REMARK Flexibility Score: inf
ROOT
ATOM      1  C   UNL A   1      34.310  31.876  28.176  1.00  0.00     0.002 C 
ENDROOT
BRANCH   1   2
ATOM      2  C   UNL A   1      35.562  32.726  27.944  1.00  0.00     0.021 C 
BRANCH   2   3
ATOM      3  C   UNL A   1      36.550  32.702  29.101  1.00  0.00     0.116 C 
BRANCH   3   4
ATOM      4  N   UNL A   1      36.077  31.866  30.190  1.00  0.00    -0.352 N 
ATOM      5  O   UNL A   1      35.935  29.969  31.401  1.00  0.00    -0.269 OA
ATOM      6  C   UNL A   1      36.589  30.676  30.644  1.00  0.00     0.251 C 
ATOM      7  H   UNL A   1      35.281  32.197  30.666  1.00  0.00     0.163 HD
BRANCH   6   8
ATOM      8  C   UNL A   1      37.933  30.256  30.198  1.00  0.00     0.039 A 
ATOM      9  C   UNL A   1      38.957  30.064  31.131  1.00  0.00     0.014 A 
ATOM     10  C   UNL A   1      38.166  30.049  28.838  1.00  0.00     0.014 A 
ATOM     11  C   UNL A   1      40.246  29.784  30.693  1.00  0.00     0.010 A 
ATOM     12  C   UNL A   1      39.444  29.687  28.407  1.00  0.00     0.010 A 
ATOM     13  C   UNL A   1      40.498  29.572  29.330  1.00  0.00    -0.014 A 
BRANCH  13  14
ATOM     14  C   UNL A   1      41.851  29.163  28.883  1.00  0.00     0.031 A 
ATOM     15  C   UNL A   1      42.971  30.161  28.807  1.00  0.00     0.074 A 
ATOM     16  C   UNL A   1      42.053  27.880  28.525  1.00  0.00     0.049 A 
ATOM     17  N   UNL A   1      44.193  29.995  28.371  1.00  0.00    -0.248 NA
ATOM     18  C   UNL A   1      42.680  31.525  29.273  1.00  0.00     0.031 C 
ATOM     19  C   UNL A   1      41.034  26.827  28.558  1.00  0.00     0.029 A 
ATOM     20  N   UNL A   1      43.174  27.244  28.059  1.00  0.00    -0.354 N 
ATOM     21  C   UNL A   1      44.811  31.235  28.485  1.00  0.00     0.074 A 
ATOM     22  C   UNL A   1      43.819  32.150  29.011  1.00  0.00     0.031 C 
ATOM     23  C   UNL A   1      41.581  25.674  28.148  1.00  0.00     0.029 A 
ATOM     24  C   UNL A   1      42.965  25.919  27.759  1.00  0.00     0.049 A 
ATOM     25  H   UNL A   1      44.044  27.692  27.948  1.00  0.00     0.167 HD
ATOM     26  C   UNL A   1      46.087  31.572  28.180  1.00  0.00     0.037 A 
ATOM     27  C   UNL A   1      43.782  25.008  27.201  1.00  0.00     0.037 A 
ATOM     28  C   UNL A   1      47.060  30.646  27.657  1.00  0.00     0.049 A 
ATOM     29  C   UNL A   1      45.181  25.413  26.837  1.00  0.00     0.074 A 
ATOM     30  C   UNL A   1      48.387  30.879  27.340  1.00  0.00     0.029 A 
ATOM     31  N   UNL A   1      46.809  29.312  27.362  1.00  0.00    -0.354 N 
ATOM     32  N   UNL A   1      45.759  26.582  26.976  1.00  0.00    -0.248 NA
ATOM     33  C   UNL A   1      46.039  24.380  26.246  1.00  0.00     0.031 C 
ATOM     34  C   UNL A   1      48.924  29.701  26.808  1.00  0.00     0.029 A 
ATOM     35  C   UNL A   1      47.949  28.716  26.848  1.00  0.00     0.049 A 
ATOM     36  H   UNL A   1      45.947  28.857  27.499  1.00  0.00     0.167 HD
ATOM     37  C   UNL A   1      47.059  26.421  26.512  1.00  0.00     0.074 A 
ATOM     38  C   UNL A   1      47.182  25.038  26.095  1.00  0.00     0.031 C 
ATOM     39  C   UNL A   1      48.059  27.334  26.446  1.00  0.00     0.037 A 
BRANCH  26  40
ATOM     40  C   UNL A   1      46.493  33.010  28.373  1.00  0.00     0.058 A 
ATOM     41  C   UNL A   1      46.271  33.983  27.385  1.00  0.00     0.135 A 
ATOM     42  C   UNL A   1      47.103  33.423  29.569  1.00  0.00     0.135 A 
ATOM     43  F   UNL A   1      45.703  33.645  26.216  1.00  0.00    -0.206 F 
ATOM     44  C   UNL A   1      46.673  35.304  27.561  1.00  0.00     0.059 A 
ATOM     45  C   UNL A   1      47.488  34.745  29.778  1.00  0.00     0.059 A 
ATOM     46  F   UNL A   1      47.336  32.538  30.550  1.00  0.00    -0.206 F 
ATOM     47  C   UNL A   1      47.288  35.673  28.758  1.00  0.00     0.060 A 
BRANCH  47  48
ATOM     48  S   UNL A   1      47.833  37.383  28.956  1.00  0.00     0.124 S 
ATOM     49  O   UNL A   1      47.488  37.949  27.655  1.00  0.00    -0.237 OA
ATOM     50  O   UNL A   1      47.022  37.842  30.079  1.00  0.00    -0.237 OA
ATOM     51  O   UNL A   1      49.261  37.257  29.226  1.00  0.00    -0.744 OA
ENDBRANCH  47  48
ENDBRANCH  26  40
BRANCH  27  52
ATOM     52  C   UNL A   1      43.279  23.631  26.958  1.00  0.00     0.058 A 
ATOM     53  C   UNL A   1      42.914  23.213  25.671  1.00  0.00     0.135 A 
ATOM     54  C   UNL A   1      43.218  22.688  27.997  1.00  0.00     0.135 A 
ATOM     55  F   UNL A   1      42.953  24.079  24.647  1.00  0.00    -0.206 F 
ATOM     56  C   UNL A   1      42.506  21.907  25.420  1.00  0.00     0.059 A 
ATOM     57  C   UNL A   1      42.839  21.370  27.766  1.00  0.00     0.059 A 
ATOM     58  F   UNL A   1      43.576  23.035  29.242  1.00  0.00    -0.206 F 
ATOM     59  C   UNL A   1      42.481  20.990  26.473  1.00  0.00     0.060 A 
BRANCH  59  60
ATOM     60  S   UNL A   1      42.026  19.279  26.119  1.00  0.00     0.124 S 
ATOM     61  O   UNL A   1      40.590  19.399  25.892  1.00  0.00    -0.237 OA
ATOM     62  O   UNL A   1      42.837  18.986  24.941  1.00  0.00    -0.237 OA
ATOM     63  O   UNL A   1      42.418  18.569  27.332  1.00  0.00    -0.744 OA
ENDBRANCH  59  60
ENDBRANCH  27  52
BRANCH  39  64
ATOM     64  C   UNL A   1      49.395  26.861  25.947  1.00  0.00     0.058 A 
ATOM     65  C   UNL A   1      49.809  27.067  24.621  1.00  0.00     0.135 A 
ATOM     66  C   UNL A   1      50.299  26.247  26.829  1.00  0.00     0.135 A 
ATOM     67  F   UNL A   1      48.978  27.638  23.734  1.00  0.00    -0.206 F 
ATOM     68  C   UNL A   1      51.069  26.671  24.185  1.00  0.00     0.059 A 
ATOM     69  C   UNL A   1      51.574  25.869  26.422  1.00  0.00     0.059 A 
ATOM     70  F   UNL A   1      49.955  26.032  28.108  1.00  0.00    -0.206 F 
ATOM     71  C   UNL A   1      51.947  26.077  25.096  1.00  0.00     0.060 A 
BRANCH  71  72
ATOM     72  S   UNL A   1      53.599  25.617  24.531  1.00  0.00     0.124 S 
ATOM     73  O   UNL A   1      53.684  24.228  24.970  1.00  0.00    -0.237 OA
ATOM     74  O   UNL A   1      53.505  25.822  23.089  1.00  0.00    -0.237 OA
ATOM     75  O   UNL A   1      54.471  26.552  25.234  1.00  0.00    -0.744 OA
ENDBRANCH  71  72
ENDBRANCH  39  64
ENDBRANCH  13  14
ENDBRANCH   6   8
ENDBRANCH   3   4
ENDBRANCH   2   3
ENDBRANCH   1   2
BRANCH   1  76
ATOM     76  C   UNL A   1      34.183  30.648  27.269  1.00  0.00     0.002 C 
BRANCH  76  77
ATOM     77  C   UNL A   1      32.796  29.998  27.242  1.00  0.00     0.021 C 
BRANCH  77  78
ATOM     78  C   UNL A   1      31.971  30.367  26.018  1.00  0.00     0.116 C 
BRANCH  78  79
ATOM     79  N   UNL A   1      32.546  29.896  24.770  1.00  0.00    -0.354 N 
ATOM     80  C   UNL A   1      32.164  29.014  23.812  1.00  0.00     0.244 C 
ATOM     81  H   UNL A   1      33.416  30.314  24.573  1.00  0.00     0.163 HD
ATOM     82  O   UNL A   1      32.663  29.226  22.698  1.00  0.00    -0.273 OA
BRANCH  80  83
ATOM     83  C   UNL A   1      31.205  27.797  23.984  1.00  0.00     0.193 C 
ATOM     84  C   UNL A   1      32.059  26.536  23.756  1.00  0.00     0.155 C 
ATOM     85  N   UNL A   1      29.832  27.621  23.357  1.00  0.00    -0.327 N 
ATOM     86  N   UNL A   1      31.393  25.323  24.221  1.00  0.00    -0.336 N 
ATOM     87  C   UNL A   1      29.233  26.283  23.655  1.00  0.00     0.142 C 
ATOM     88  C   UNL A   1      30.157  25.059  23.503  1.00  0.00     0.141 C 
BRANCH  85  89
ATOM     89  C   UNL A   1      28.841  28.593  23.178  1.00  0.00     0.226 C 
ATOM     90  O   UNL A   1      27.646  28.311  23.358  1.00  0.00    -0.275 OA
BRANCH  89  91
ATOM     91  C   UNL A   1      29.115  30.009  22.679  1.00  0.00     0.083 C 
ATOM     92  C   UNL A   1      28.959  31.062  23.765  1.00  0.00     0.042 C 
ATOM     93  C   UNL A   1      28.474  30.289  21.325  1.00  0.00     0.042 C 
ATOM     94  C   UNL A   1      28.893  32.461  23.189  1.00  0.00     0.161 C 
ATOM     95  C   UNL A   1      28.253  31.769  21.032  1.00  0.00     0.161 C 
ATOM     96  O   UNL A   1      27.888  32.521  22.187  1.00  0.00    -0.381 OA
ENDBRANCH  89  91
ENDBRANCH  85  89
BRANCH  86  97
ATOM     97  C   UNL A   1      32.305  24.301  24.403  1.00  0.00     0.225 A 
ATOM     98  N   UNL A   1      31.959  23.206  25.096  1.00  0.00    -0.221 NA
ATOM     99  N   UNL A   1      33.478  24.424  23.755  1.00  0.00    -0.221 NA
ATOM    100  C   UNL A   1      32.841  22.183  25.097  1.00  0.00     0.117 A 
ATOM    101  C   UNL A   1      34.336  23.392  23.810  1.00  0.00     0.117 A 
ATOM    102  C   UNL A   1      34.059  22.222  24.465  1.00  0.00     0.040 A 
ENDBRANCH  86  97
ENDBRANCH  80  83
ENDBRANCH  78  79
ENDBRANCH  77  78
ENDBRANCH  76  77
ENDBRANCH   1  76
TORSDOF 19
ENDMDL
