MODEL 1
REMARK VINA RESULT:      -9.9      0.000      0.000
REMARK SMILES CC(C)N1C(=O)C[C@@H]([N@@H+]2CC[C@H](C(=O)NCCCCCCNC(=O)c3ccc(-c4c5nc(c(-c6c(F)cc(S(=O)(=O)[O-])cc6F)c6ccc([nH]6)c(-c6c(F)cc(S(=O)(=O)[O-])cc6F)c6nc(c(-c7c(F)cc(S(=O)(=O)[O-])cc7F)c7ccc4[nH]7)C=C6)C=C5)cc3)[C@@H]2C)C1=O
REMARK SMILES IDX 19 1 18 2 17 3 16 4 15 5 13 6 14 7 12 9 9 10 10 11 91 12
REMARK SMILES IDX 11 14 92 15 8 16 4 17 5 18 93 19 6 20 7 21 94 22 2 23 1 24
REMARK SMILES IDX 3 25 20 26 21 27 22 28 23 29 24 31 25 32 26 33 90 34 27 35
REMARK SMILES IDX 89 36 28 37 29 38 30 39 83 40 31 41 88 42 82 43 84 44 32 45
REMARK SMILES IDX 87 46 81 47 80 48 33 50 67 51 46 52 66 53 47 54 50 55 65 56
REMARK SMILES IDX 85 57 48 58 49 59 64 61 86 62 51 63 34 64 35 65 44 66 36 67
REMARK SMILES IDX 37 68 43 69 45 70 38 71 39 72 40 73 41 74 42 75 68 76 69 77
REMARK SMILES IDX 78 78 70 79 71 80 77 81 79 82 72 83 73 84 74 85 75 86 76 87
REMARK SMILES IDX 52 88 53 89 62 90 54 91 55 92 61 93 63 94 56 95 57 96 58 97
REMARK SMILES IDX 59 98 60 99
REMARK H PARENT 15 8 9 13 22 30 84 49 50 60
REMARK Flexibility Score: inf
ROOT
ATOM      1  C   UNL A   1      42.128  19.629  27.373  1.00  0.00     0.002 C 
ENDROOT
BRANCH   1   2
ATOM      2  C   UNL A   1      42.451  19.178  25.946  1.00  0.00     0.002 C 
BRANCH   2   3
ATOM      3  C   UNL A   1      43.842  18.565  25.752  1.00  0.00     0.021 C 
BRANCH   3   4
ATOM      4  C   UNL A   1      44.807  19.415  24.931  1.00  0.00     0.116 C 
BRANCH   4   5
ATOM      5  N   UNL A   1      44.154  20.591  24.385  1.00  0.00    -0.356 N 
ATOM      6  C   UNL A   1      44.546  21.893  24.381  1.00  0.00     0.229 C 
ATOM      7  O   UNL A   1      43.816  22.711  23.819  1.00  0.00    -0.275 OA
ATOM      8  H   UNL A   1      43.289  20.419  23.949  1.00  0.00     0.163 HD
BRANCH   6   9
ATOM      9  C   UNL A   1      45.838  22.298  25.077  1.00  0.00     0.142 C 
ATOM     10  N   UNL A   1      45.783  24.418  26.213  1.00  0.00    -0.321 N 
ATOM     11  C   UNL A   1      46.025  24.665  24.790  1.00  0.00     0.264 C 
ATOM     12  C   UNL A   1      45.617  22.974  26.442  1.00  0.00     0.194 C 
ATOM     13  H   UNL A   1      46.612  24.662  26.753  1.00  0.00     0.349 HD
ATOM     14  C   UNL A   1      46.565  23.356  24.256  1.00  0.00     0.081 C 
ATOM     15  C   UNL A   1      44.410  22.466  27.234  1.00  0.00     0.076 C 
BRANCH  10  16
ATOM     16  C   UNL A   1      44.883  25.368  26.875  1.00  0.00     0.284 C 
ATOM     17  N   UNL A   1      45.283  27.694  26.948  1.00  0.00    -0.275 N 
ATOM     18  C   UNL A   1      44.153  27.548  26.197  1.00  0.00     0.236 C 
ATOM     19  C   UNL A   1      45.677  26.508  27.510  1.00  0.00     0.288 C 
ATOM     20  O   UNL A   1      43.438  28.438  25.762  1.00  0.00    -0.274 OA
ATOM     21  C   UNL A   1      43.871  26.093  25.994  1.00  0.00     0.176 C 
ATOM     22  O   UNL A   1      46.521  26.380  28.388  1.00  0.00    -0.267 OA
BRANCH  17  23
ATOM     23  C   UNL A   1      45.897  28.966  27.323  1.00  0.00     0.087 C 
ATOM     24  C   UNL A   1      46.397  29.776  26.125  1.00  0.00     0.031 C 
ATOM     25  C   UNL A   1      44.949  29.793  28.189  1.00  0.00     0.031 C 
ENDBRANCH  17  23
ENDBRANCH  10  16
ENDBRANCH   6   9
ENDBRANCH   4   5
ENDBRANCH   3   4
ENDBRANCH   2   3
ENDBRANCH   1   2
BRANCH   1  26
ATOM     26  C   UNL A   1      41.017  20.674  27.491  1.00  0.00     0.021 C 
BRANCH  26  27
ATOM     27  C   UNL A   1      41.090  21.805  26.470  1.00  0.00     0.116 C 
BRANCH  27  28
ATOM     28  N   UNL A   1      39.843  21.971  25.744  1.00  0.00    -0.352 N 
ATOM     29  C   UNL A   1      38.917  22.983  25.826  1.00  0.00     0.251 C 
ATOM     30  H   UNL A   1      39.630  21.256  25.100  1.00  0.00     0.163 HD
ATOM     31  O   UNL A   1      37.828  22.862  25.274  1.00  0.00    -0.269 OA
BRANCH  29  32
ATOM     32  C   UNL A   1      39.230  24.203  26.600  1.00  0.00     0.039 A 
ATOM     33  C   UNL A   1      38.723  24.329  27.895  1.00  0.00     0.014 A 
ATOM     34  C   UNL A   1      40.020  25.219  26.054  1.00  0.00     0.014 A 
ATOM     35  C   UNL A   1      39.064  25.442  28.666  1.00  0.00     0.010 A 
ATOM     36  C   UNL A   1      40.419  26.291  26.850  1.00  0.00     0.010 A 
ATOM     37  C   UNL A   1      39.946  26.414  28.164  1.00  0.00    -0.014 A 
BRANCH  37  38
ATOM     38  C   UNL A   1      40.395  27.553  29.007  1.00  0.00     0.031 A 
ATOM     39  C   UNL A   1      41.707  27.485  29.742  1.00  0.00     0.074 A 
ATOM     40  C   UNL A   1      39.589  28.624  29.161  1.00  0.00     0.049 A 
ATOM     41  N   UNL A   1      42.232  28.349  30.573  1.00  0.00    -0.248 NA
ATOM     42  C   UNL A   1      42.526  26.279  29.537  1.00  0.00     0.031 C 
ATOM     43  C   UNL A   1      38.272  28.786  28.540  1.00  0.00     0.029 A 
ATOM     44  N   UNL A   1      39.750  29.774  29.893  1.00  0.00    -0.354 N 
ATOM     45  C   UNL A   1      43.433  27.788  30.997  1.00  0.00     0.074 A 
ATOM     46  C   UNL A   1      43.536  26.489  30.370  1.00  0.00     0.031 C 
ATOM     47  C   UNL A   1      37.756  29.971  28.902  1.00  0.00     0.029 A 
ATOM     48  C   UNL A   1      38.681  30.637  29.813  1.00  0.00     0.049 A 
ATOM     49  H   UNL A   1      40.557  29.964  30.425  1.00  0.00     0.167 HD
ATOM     50  C   UNL A   1      44.372  28.319  31.814  1.00  0.00     0.037 A 
ATOM     51  C   UNL A   1      38.463  31.822  30.416  1.00  0.00     0.037 A 
ATOM     52  C   UNL A   1      44.275  29.625  32.414  1.00  0.00     0.049 A 
ATOM     53  C   UNL A   1      39.521  32.384  31.328  1.00  0.00     0.074 A 
ATOM     54  C   UNL A   1      45.205  30.278  33.205  1.00  0.00     0.029 A 
ATOM     55  N   UNL A   1      43.186  30.476  32.294  1.00  0.00    -0.354 N 
ATOM     56  N   UNL A   1      40.683  31.871  31.657  1.00  0.00    -0.248 NA
ATOM     57  C   UNL A   1      39.243  33.688  31.947  1.00  0.00     0.031 C 
ATOM     58  C   UNL A   1      44.656  31.499  33.609  1.00  0.00     0.029 A 
ATOM     59  C   UNL A   1      43.409  31.635  33.020  1.00  0.00     0.049 A 
ATOM     60  H   UNL A   1      42.375  30.285  31.770  1.00  0.00     0.167 HD
ATOM     61  C   UNL A   1      41.285  32.803  32.496  1.00  0.00     0.074 A 
ATOM     62  C   UNL A   1      40.367  33.916  32.612  1.00  0.00     0.031 C 
ATOM     63  C   UNL A   1      42.490  32.741  33.117  1.00  0.00     0.037 A 
BRANCH  50  64
ATOM     64  C   UNL A   1      45.597  27.497  32.112  1.00  0.00     0.058 A 
ATOM     65  C   UNL A   1      46.830  27.757  31.491  1.00  0.00     0.135 A 
ATOM     66  C   UNL A   1      45.556  26.483  33.083  1.00  0.00     0.135 A 
ATOM     67  F   UNL A   1      46.923  28.703  30.544  1.00  0.00    -0.206 F 
ATOM     68  C   UNL A   1      47.973  27.032  31.811  1.00  0.00     0.059 A 
ATOM     69  C   UNL A   1      46.693  25.764  33.441  1.00  0.00     0.059 A 
ATOM     70  F   UNL A   1      44.403  26.190  33.707  1.00  0.00    -0.206 F 
ATOM     71  C   UNL A   1      47.895  26.041  32.792  1.00  0.00     0.060 A 
BRANCH  71  72
ATOM     72  S   UNL A   1      49.397  25.135  33.219  1.00  0.00     0.124 S 
ATOM     73  O   UNL A   1      48.875  24.118  34.127  1.00  0.00    -0.237 OA
ATOM     74  O   UNL A   1      49.849  24.651  31.918  1.00  0.00    -0.237 OA
ATOM     75  O   UNL A   1      50.245  26.149  33.837  1.00  0.00    -0.744 OA
ENDBRANCH  71  72
ENDBRANCH  50  64
BRANCH  51  76
ATOM     76  C   UNL A   1      37.192  32.560  30.181  1.00  0.00     0.058 A 
ATOM     77  C   UNL A   1      37.084  33.512  29.157  1.00  0.00     0.135 A 
ATOM     78  C   UNL A   1      36.063  32.340  30.986  1.00  0.00     0.135 A 
ATOM     79  F   UNL A   1      38.136  33.763  28.362  1.00  0.00    -0.206 F 
ATOM     80  C   UNL A   1      35.916  34.240  28.956  1.00  0.00     0.059 A 
ATOM     81  C   UNL A   1      34.873  33.033  30.786  1.00  0.00     0.059 A 
ATOM     82  F   UNL A   1      36.105  31.426  31.970  1.00  0.00    -0.206 F 
ATOM     83  C   UNL A   1      34.815  33.994  29.778  1.00  0.00     0.060 A 
BRANCH  83  84
ATOM     84  S   UNL A   1      33.296  34.928  29.496  1.00  0.00     0.124 S 
ATOM     85  O   UNL A   1      32.762  35.034  30.849  1.00  0.00    -0.237 OA
ATOM     86  O   UNL A   1      33.801  36.165  28.909  1.00  0.00    -0.237 OA
ATOM     87  O   UNL A   1      32.542  34.072  28.585  1.00  0.00    -0.744 OA
ENDBRANCH  83  84
ENDBRANCH  51  76
BRANCH  63  88
ATOM     88  C   UNL A   1      42.906  33.925  33.947  1.00  0.00     0.058 A 
ATOM     89  C   UNL A   1      43.584  35.019  33.388  1.00  0.00     0.135 A 
ATOM     90  C   UNL A   1      42.573  33.989  35.310  1.00  0.00     0.135 A 
ATOM     91  F   UNL A   1      43.932  35.009  32.091  1.00  0.00    -0.206 F 
ATOM     92  C   UNL A   1      43.940  36.123  34.157  1.00  0.00     0.059 A 
ATOM     93  C   UNL A   1      42.891  35.096  36.091  1.00  0.00     0.059 A 
ATOM     94  F   UNL A   1      41.915  32.973  35.894  1.00  0.00    -0.206 F 
ATOM     95  C   UNL A   1      43.586  36.154  35.507  1.00  0.00     0.060 A 
BRANCH  95  96
ATOM     96  S   UNL A   1      44.023  37.608  36.482  1.00  0.00     0.124 S 
ATOM     97  O   UNL A   1      45.389  37.292  36.884  1.00  0.00    -0.237 OA
ATOM     98  O   UNL A   1      43.881  38.689  35.512  1.00  0.00    -0.237 OA
ATOM     99  O   UNL A   1      43.036  37.605  37.559  1.00  0.00    -0.744 OA
ENDBRANCH  95  96
ENDBRANCH  63  88
ENDBRANCH  37  38
ENDBRANCH  29  32
ENDBRANCH  27  28
ENDBRANCH  26  27
ENDBRANCH   1  26
TORSDOF 18
ENDMDL
MODEL 2
REMARK VINA RESULT:      -9.8      3.382     11.027
REMARK SMILES CC(C)N1C(=O)C[C@@H]([N@@H+]2CC[C@H](C(=O)NCCCCCCNC(=O)c3ccc(-c4c5nc(c(-c6c(F)cc(S(=O)(=O)[O-])cc6F)c6ccc([nH]6)c(-c6c(F)cc(S(=O)(=O)[O-])cc6F)c6nc(c(-c7c(F)cc(S(=O)(=O)[O-])cc7F)c7ccc4[nH]7)C=C6)C=C5)cc3)[C@@H]2C)C1=O
REMARK SMILES IDX 19 1 18 2 17 3 16 4 15 5 13 6 14 7 12 9 9 10 10 11 91 12
REMARK SMILES IDX 11 14 92 15 8 16 4 17 5 18 93 19 6 20 7 21 94 22 2 23 1 24
REMARK SMILES IDX 3 25 20 26 21 27 22 28 23 29 24 31 25 32 26 33 90 34 27 35
REMARK SMILES IDX 89 36 28 37 29 38 30 39 83 40 31 41 88 42 82 43 84 44 32 45
REMARK SMILES IDX 87 46 81 47 80 48 33 50 67 51 46 52 66 53 47 54 50 55 65 56
REMARK SMILES IDX 85 57 48 58 49 59 64 61 86 62 51 63 34 64 35 65 44 66 36 67
REMARK SMILES IDX 37 68 43 69 45 70 38 71 39 72 40 73 41 74 42 75 68 76 69 77
REMARK SMILES IDX 78 78 70 79 71 80 77 81 79 82 72 83 73 84 74 85 75 86 76 87
REMARK SMILES IDX 52 88 53 89 62 90 54 91 55 92 61 93 63 94 56 95 57 96 58 97
REMARK SMILES IDX 59 98 60 99
REMARK H PARENT 15 8 9 13 22 30 84 49 50 60
REMARK Flexibility Score: inf
ROOT
ATOM      1  C   UNL A   1      35.400  32.933  31.461  1.00  0.00     0.002 C 
ENDROOT
BRANCH   1   2
ATOM      2  C   UNL A   1      34.802  32.966  32.870  1.00  0.00     0.002 C 
BRANCH   2   3
ATOM      3  C   UNL A   1      35.211  34.168  33.727  1.00  0.00     0.021 C 
BRANCH   3   4
ATOM      4  C   UNL A   1      36.333  33.892  34.723  1.00  0.00     0.116 C 
BRANCH   4   5
ATOM      5  N   UNL A   1      37.619  33.768  34.061  1.00  0.00    -0.356 N 
ATOM      6  C   UNL A   1      38.408  32.678  33.869  1.00  0.00     0.229 C 
ATOM      7  O   UNL A   1      39.458  32.832  33.241  1.00  0.00    -0.275 OA
ATOM      8  H   UNL A   1      37.976  34.607  33.693  1.00  0.00     0.163 HD
BRANCH   6   9
ATOM      9  C   UNL A   1      37.994  31.331  34.444  1.00  0.00     0.142 C 
ATOM     10  N   UNL A   1      39.728  29.666  34.538  1.00  0.00    -0.321 N 
ATOM     11  C   UNL A   1      39.181  29.684  33.181  1.00  0.00     0.264 C 
ATOM     12  C   UNL A   1      39.060  30.694  35.353  1.00  0.00     0.194 C 
ATOM     13  H   UNL A   1      39.486  28.789  34.998  1.00  0.00     0.349 HD
ATOM     14  C   UNL A   1      37.814  30.316  33.321  1.00  0.00     0.081 C 
ATOM     15  C   UNL A   1      39.900  31.682  36.164  1.00  0.00     0.076 C 
BRANCH  10  16
ATOM     16  C   UNL A   1      41.182  29.494  34.633  1.00  0.00     0.284 C 
ATOM     17  N   UNL A   1      42.242  27.386  34.569  1.00  0.00    -0.275 N 
ATOM     18  C   UNL A   1      42.653  28.028  33.438  1.00  0.00     0.236 C 
ATOM     19  C   UNL A   1      41.523  28.213  35.391  1.00  0.00     0.288 C 
ATOM     20  O   UNL A   1      43.486  27.640  32.633  1.00  0.00    -0.274 OA
ATOM     21  C   UNL A   1      41.948  29.342  33.322  1.00  0.00     0.176 C 
ATOM     22  O   UNL A   1      41.213  27.973  36.552  1.00  0.00    -0.267 OA
BRANCH  17  23
ATOM     23  C   UNL A   1      42.679  26.060  35.001  1.00  0.00     0.087 C 
ATOM     24  C   UNL A   1      43.917  26.091  35.899  1.00  0.00     0.031 C 
ATOM     25  C   UNL A   1      41.535  25.299  35.668  1.00  0.00     0.031 C 
ENDBRANCH  17  23
ENDBRANCH  10  16
ENDBRANCH   6   9
ENDBRANCH   4   5
ENDBRANCH   3   4
ENDBRANCH   2   3
ENDBRANCH   1   2
BRANCH   1  26
ATOM     26  C   UNL A   1      34.442  33.334  30.337  1.00  0.00     0.021 C 
BRANCH  26  27
ATOM     27  C   UNL A   1      34.846  32.846  28.949  1.00  0.00     0.116 C 
BRANCH  27  28
ATOM     28  N   UNL A   1      33.998  31.764  28.479  1.00  0.00    -0.352 N 
ATOM     29  C   UNL A   1      34.346  30.491  28.097  1.00  0.00     0.251 C 
ATOM     30  H   UNL A   1      33.037  31.972  28.427  1.00  0.00     0.163 HD
ATOM     31  O   UNL A   1      33.519  29.770  27.548  1.00  0.00    -0.269 OA
BRANCH  29  32
ATOM     32  C   UNL A   1      35.722  30.004  28.329  1.00  0.00     0.039 A 
ATOM     33  C   UNL A   1      36.645  30.063  27.282  1.00  0.00     0.014 A 
ATOM     34  C   UNL A   1      36.105  29.494  29.573  1.00  0.00     0.014 A 
ATOM     35  C   UNL A   1      37.967  29.672  27.502  1.00  0.00     0.010 A 
ATOM     36  C   UNL A   1      37.441  29.175  29.811  1.00  0.00     0.010 A 
ATOM     37  C   UNL A   1      38.386  29.261  28.779  1.00  0.00    -0.014 A 
BRANCH  37  38
ATOM     38  C   UNL A   1      39.811  28.936  29.052  1.00  0.00     0.031 A 
ATOM     39  C   UNL A   1      40.735  29.981  29.618  1.00  0.00     0.074 A 
ATOM     40  C   UNL A   1      40.286  27.715  28.731  1.00  0.00     0.049 A 
ATOM     41  N   UNL A   1      42.018  29.903  29.859  1.00  0.00    -0.248 NA
ATOM     42  C   UNL A   1      40.147  31.294  29.930  1.00  0.00     0.031 C 
ATOM     43  C   UNL A   1      39.501  26.633  28.132  1.00  0.00     0.029 A 
ATOM     44  N   UNL A   1      41.545  27.180  28.852  1.00  0.00    -0.354 N 
ATOM     45  C   UNL A   1      42.393  31.153  30.340  1.00  0.00     0.074 A 
ATOM     46  C   UNL A   1      41.211  31.987  30.309  1.00  0.00     0.031 C 
ATOM     47  C   UNL A   1      40.290  25.561  27.955  1.00  0.00     0.029 A 
ATOM     48  C   UNL A   1      41.644  25.888  28.387  1.00  0.00     0.049 A 
ATOM     49  H   UNL A   1      42.305  27.674  29.235  1.00  0.00     0.167 HD
ATOM     50  C   UNL A   1      43.604  31.560  30.786  1.00  0.00     0.037 A 
ATOM     51  C   UNL A   1      42.709  25.066  28.303  1.00  0.00     0.037 A 
ATOM     52  C   UNL A   1      44.769  30.715  30.838  1.00  0.00     0.049 A 
ATOM     53  C   UNL A   1      44.047  25.548  28.798  1.00  0.00     0.074 A 
ATOM     54  C   UNL A   1      46.026  31.017  31.335  1.00  0.00     0.029 A 
ATOM     55  N   UNL A   1      44.827  29.408  30.377  1.00  0.00    -0.354 N 
ATOM     56  N   UNL A   1      44.363  26.710  29.318  1.00  0.00    -0.248 NA
ATOM     57  C   UNL A   1      45.172  24.607  28.703  1.00  0.00     0.031 C 
ATOM     58  C   UNL A   1      46.857  29.913  31.123  1.00  0.00     0.029 A 
ATOM     59  C   UNL A   1      46.103  28.901  30.550  1.00  0.00     0.049 A 
ATOM     60  H   UNL A   1      44.071  28.915  29.984  1.00  0.00     0.167 HD
ATOM     61  C   UNL A   1      45.714  26.628  29.638  1.00  0.00     0.074 A 
ATOM     62  C   UNL A   1      46.151  25.298  29.267  1.00  0.00     0.031 C 
ATOM     63  C   UNL A   1      46.521  27.570  30.187  1.00  0.00     0.037 A 
BRANCH  50  64
ATOM     64  C   UNL A   1      43.741  32.981  31.263  1.00  0.00     0.058 A 
ATOM     65  C   UNL A   1      43.517  33.335  32.604  1.00  0.00     0.135 A 
ATOM     66  C   UNL A   1      44.174  33.988  30.386  1.00  0.00     0.135 A 
ATOM     67  F   UNL A   1      43.087  32.416  33.482  1.00  0.00    -0.206 F 
ATOM     68  C   UNL A   1      43.701  34.639  33.052  1.00  0.00     0.059 A 
ATOM     69  C   UNL A   1      44.393  35.293  30.818  1.00  0.00     0.059 A 
ATOM     70  F   UNL A   1      44.401  33.707  29.092  1.00  0.00    -0.206 F 
ATOM     71  C   UNL A   1      44.145  35.610  32.153  1.00  0.00     0.060 A 
BRANCH  71  72
ATOM     72  S   UNL A   1      44.412  37.288  32.762  1.00  0.00     0.124 S 
ATOM     73  O   UNL A   1      45.822  37.242  33.135  1.00  0.00    -0.237 OA
ATOM     74  O   UNL A   1      44.092  38.098  31.590  1.00  0.00    -0.237 OA
ATOM     75  O   UNL A   1      43.474  37.401  33.873  1.00  0.00    -0.744 OA
ENDBRANCH  71  72
ENDBRANCH  50  64
BRANCH  51  76
ATOM     76  C   UNL A   1      42.559  23.702  27.728  1.00  0.00     0.058 A 
ATOM     77  C   UNL A   1      42.345  22.586  28.550  1.00  0.00     0.135 A 
ATOM     78  C   UNL A   1      42.640  23.483  26.343  1.00  0.00     0.135 A 
ATOM     79  F   UNL A   1      42.264  22.741  29.881  1.00  0.00    -0.206 F 
ATOM     80  C   UNL A   1      42.248  21.301  28.028  1.00  0.00     0.059 A 
ATOM     81  C   UNL A   1      42.516  22.211  25.793  1.00  0.00     0.059 A 
ATOM     82  F   UNL A   1      42.825  24.517  25.507  1.00  0.00    -0.206 F 
ATOM     83  C   UNL A   1      42.336  21.123  26.646  1.00  0.00     0.060 A 
BRANCH  83  84
ATOM     84  S   UNL A   1      42.186  19.454  25.975  1.00  0.00     0.124 S 
ATOM     85  O   UNL A   1      42.667  18.646  27.089  1.00  0.00    -0.237 OA
ATOM     86  O   UNL A   1      40.758  19.364  25.690  1.00  0.00    -0.237 OA
ATOM     87  O   UNL A   1      43.052  19.487  24.799  1.00  0.00    -0.744 OA
ENDBRANCH  83  84
ENDBRANCH  51  76
BRANCH  63  88
ATOM     88  C   UNL A   1      47.951  27.187  30.459  1.00  0.00     0.058 A 
ATOM     89  C   UNL A   1      48.994  27.555  29.595  1.00  0.00     0.135 A 
ATOM     90  C   UNL A   1      48.288  26.486  31.629  1.00  0.00     0.135 A 
ATOM     91  F   UNL A   1      48.728  28.221  28.459  1.00  0.00    -0.206 F 
ATOM     92  C   UNL A   1      50.316  27.222  29.868  1.00  0.00     0.059 A 
ATOM     93  C   UNL A   1      49.607  26.170  31.938  1.00  0.00     0.059 A 
ATOM     94  F   UNL A   1      47.330  26.117  32.496  1.00  0.00    -0.206 F 
ATOM     95  C   UNL A   1      50.613  26.532  31.045  1.00  0.00     0.060 A 
BRANCH  95  96
ATOM     96  S   UNL A   1      52.338  26.137  31.404  1.00  0.00     0.124 S 
ATOM     97  O   UNL A   1      52.743  27.288  32.204  1.00  0.00    -0.237 OA
ATOM     98  O   UNL A   1      52.225  24.872  32.123  1.00  0.00    -0.237 OA
ATOM     99  O   UNL A   1      52.949  26.047  30.080  1.00  0.00    -0.744 OA
ENDBRANCH  95  96
ENDBRANCH  63  88
ENDBRANCH  37  38
ENDBRANCH  29  32
ENDBRANCH  27  28
ENDBRANCH  26  27
ENDBRANCH   1  26
TORSDOF 18
ENDMDL
MODEL 3
REMARK VINA RESULT:      -9.7      3.976      7.022
REMARK SMILES CC(C)N1C(=O)C[C@@H]([N@@H+]2CC[C@H](C(=O)NCCCCCCNC(=O)c3ccc(-c4c5nc(c(-c6c(F)cc(S(=O)(=O)[O-])cc6F)c6ccc([nH]6)c(-c6c(F)cc(S(=O)(=O)[O-])cc6F)c6nc(c(-c7c(F)cc(S(=O)(=O)[O-])cc7F)c7ccc4[nH]7)C=C6)C=C5)cc3)[C@@H]2C)C1=O
REMARK SMILES IDX 19 1 18 2 17 3 16 4 15 5 13 6 14 7 12 9 9 10 10 11 91 12
REMARK SMILES IDX 11 14 92 15 8 16 4 17 5 18 93 19 6 20 7 21 94 22 2 23 1 24
REMARK SMILES IDX 3 25 20 26 21 27 22 28 23 29 24 31 25 32 26 33 90 34 27 35
REMARK SMILES IDX 89 36 28 37 29 38 30 39 83 40 31 41 88 42 82 43 84 44 32 45
REMARK SMILES IDX 87 46 81 47 80 48 33 50 67 51 46 52 66 53 47 54 50 55 65 56
REMARK SMILES IDX 85 57 48 58 49 59 64 61 86 62 51 63 34 64 35 65 44 66 36 67
REMARK SMILES IDX 37 68 43 69 45 70 38 71 39 72 40 73 41 74 42 75 68 76 69 77
REMARK SMILES IDX 78 78 70 79 71 80 77 81 79 82 72 83 73 84 74 85 75 86 76 87
REMARK SMILES IDX 52 88 53 89 62 90 54 91 55 92 61 93 63 94 56 95 57 96 58 97
REMARK SMILES IDX 59 98 60 99
REMARK H PARENT 15 8 9 13 22 30 84 49 50 60
REMARK Flexibility Score: inf
ROOT
ATOM      1  C   UNL A   1      35.542  22.668  23.668  1.00  0.00     0.002 C 
ENDROOT
BRANCH   1   2
ATOM      2  C   UNL A   1      34.184  22.155  24.155  1.00  0.00     0.002 C 
BRANCH   2   3
ATOM      3  C   UNL A   1      33.020  22.359  23.181  1.00  0.00     0.021 C 
BRANCH   3   4
ATOM      4  C   UNL A   1      33.233  23.465  22.152  1.00  0.00     0.116 C 
BRANCH   4   5
ATOM      5  N   UNL A   1      32.171  24.453  22.197  1.00  0.00    -0.356 N 
ATOM      6  C   UNL A   1      32.220  25.787  22.452  1.00  0.00     0.229 C 
ATOM      7  O   UNL A   1      31.165  26.421  22.402  1.00  0.00    -0.275 OA
ATOM      8  H   UNL A   1      31.271  24.100  22.015  1.00  0.00     0.163 HD
BRANCH   6   9
ATOM      9  C   UNL A   1      33.547  26.443  22.807  1.00  0.00     0.142 C 
ATOM     10  N   UNL A   1      33.439  28.157  24.492  1.00  0.00    -0.321 N 
ATOM     11  C   UNL A   1      33.055  28.748  23.209  1.00  0.00     0.264 C 
ATOM     12  C   UNL A   1      33.714  26.722  24.312  1.00  0.00     0.194 C 
ATOM     13  H   UNL A   1      34.331  28.544  24.800  1.00  0.00     0.349 HD
ATOM     14  C   UNL A   1      33.638  27.822  22.165  1.00  0.00     0.081 C 
ATOM     15  C   UNL A   1      33.055  25.702  25.242  1.00  0.00     0.076 C 
BRANCH  10  16
ATOM     16  C   UNL A   1      32.666  28.609  25.654  1.00  0.00     0.284 C 
ATOM     17  N   UNL A   1      33.260  30.491  26.950  1.00  0.00    -0.275 N 
ATOM     18  C   UNL A   1      32.075  30.821  26.360  1.00  0.00     0.236 C 
ATOM     19  C   UNL A   1      33.591  29.181  26.726  1.00  0.00     0.288 C 
ATOM     20  O   UNL A   1      31.408  31.826  26.560  1.00  0.00    -0.274 OA
ATOM     21  C   UNL A   1      31.661  29.733  25.422  1.00  0.00     0.176 C 
ATOM     22  O   UNL A   1      34.479  28.560  27.299  1.00  0.00    -0.267 OA
BRANCH  17  23
ATOM     23  C   UNL A   1      34.000  31.322  27.897  1.00  0.00     0.087 C 
ATOM     24  C   UNL A   1      35.517  31.248  27.714  1.00  0.00     0.031 C 
ATOM     25  C   UNL A   1      33.510  32.768  27.851  1.00  0.00     0.031 C 
ENDBRANCH  17  23
ENDBRANCH  10  16
ENDBRANCH   6   9
ENDBRANCH   4   5
ENDBRANCH   3   4
ENDBRANCH   2   3
ENDBRANCH   1   2
BRANCH   1  26
ATOM     26  C   UNL A   1      36.174  23.762  24.532  1.00  0.00     0.021 C 
BRANCH  26  27
ATOM     27  C   UNL A   1      36.432  23.363  25.982  1.00  0.00     0.116 C 
BRANCH  27  28
ATOM     28  N   UNL A   1      37.486  22.369  26.097  1.00  0.00    -0.352 N 
ATOM     29  C   UNL A   1      38.823  22.547  26.359  1.00  0.00     0.251 C 
ATOM     30  H   UNL A   1      37.202  21.435  25.971  1.00  0.00     0.163 HD
ATOM     31  O   UNL A   1      39.601  21.607  26.233  1.00  0.00    -0.269 OA
BRANCH  29  32
ATOM     32  C   UNL A   1      39.321  23.877  26.769  1.00  0.00     0.039 A 
ATOM     33  C   UNL A   1      39.301  24.217  28.124  1.00  0.00     0.014 A 
ATOM     34  C   UNL A   1      39.809  24.786  25.825  1.00  0.00     0.014 A 
ATOM     35  C   UNL A   1      39.830  25.441  28.538  1.00  0.00     0.010 A 
ATOM     36  C   UNL A   1      40.403  25.973  26.248  1.00  0.00     0.010 A 
ATOM     37  C   UNL A   1      40.422  26.313  27.608  1.00  0.00    -0.014 A 
BRANCH  37  38
ATOM     38  C   UNL A   1      41.076  27.574  28.047  1.00  0.00     0.031 A 
ATOM     39  C   UNL A   1      42.570  27.728  27.951  1.00  0.00     0.074 A 
ATOM     40  C   UNL A   1      40.328  28.557  28.589  1.00  0.00     0.049 A 
ATOM     41  N   UNL A   1      43.323  28.724  28.343  1.00  0.00    -0.248 NA
ATOM     42  C   UNL A   1      43.321  26.608  27.361  1.00  0.00     0.031 C 
ATOM     43  C   UNL A   1      38.876  28.505  28.781  1.00  0.00     0.029 A 
ATOM     44  N   UNL A   1      40.682  29.785  29.090  1.00  0.00    -0.354 N 
ATOM     45  C   UNL A   1      44.631  28.348  28.058  1.00  0.00     0.074 A 
ATOM     46  C   UNL A   1      44.575  27.013  27.506  1.00  0.00     0.031 C 
ATOM     47  C   UNL A   1      38.464  29.655  29.339  1.00  0.00     0.029 A 
ATOM     48  C   UNL A   1      39.622  30.508  29.585  1.00  0.00     0.049 A 
ATOM     49  H   UNL A   1      41.609  30.116  29.094  1.00  0.00     0.167 HD
ATOM     50  C   UNL A   1      45.771  29.061  28.222  1.00  0.00     0.037 A 
ATOM     51  C   UNL A   1      39.587  31.715  30.184  1.00  0.00     0.037 A 
ATOM     52  C   UNL A   1      45.816  30.401  28.749  1.00  0.00     0.049 A 
ATOM     53  C   UNL A   1      40.871  32.481  30.361  1.00  0.00     0.074 A 
ATOM     54  C   UNL A   1      46.915  31.230  28.892  1.00  0.00     0.029 A 
ATOM     55  N   UNL A   1      44.719  31.107  29.222  1.00  0.00    -0.354 N 
ATOM     56  N   UNL A   1      42.089  32.139  30.017  1.00  0.00    -0.248 NA
ATOM     57  C   UNL A   1      40.776  33.801  31.002  1.00  0.00     0.031 C 
ATOM     58  C   UNL A   1      46.493  32.415  29.502  1.00  0.00     0.029 A 
ATOM     59  C   UNL A   1      45.120  32.349  29.683  1.00  0.00     0.049 A 
ATOM     60  H   UNL A   1      43.793  30.774  29.227  1.00  0.00     0.167 HD
ATOM     61  C   UNL A   1      42.900  33.212  30.373  1.00  0.00     0.074 A 
ATOM     62  C   UNL A   1      42.032  34.220  30.944  1.00  0.00     0.031 C 
ATOM     63  C   UNL A   1      44.243  33.349  30.240  1.00  0.00     0.037 A 
BRANCH  50  64
ATOM     64  C   UNL A   1      47.071  28.416  27.824  1.00  0.00     0.058 A 
ATOM     65  C   UNL A   1      47.858  27.708  28.747  1.00  0.00     0.135 A 
ATOM     66  C   UNL A   1      47.499  28.442  26.487  1.00  0.00     0.135 A 
ATOM     67  F   UNL A   1      47.505  27.663  30.041  1.00  0.00    -0.206 F 
ATOM     68  C   UNL A   1      49.030  27.065  28.363  1.00  0.00     0.059 A 
ATOM     69  C   UNL A   1      48.652  27.782  26.073  1.00  0.00     0.059 A 
ATOM     70  F   UNL A   1      46.787  29.106  25.562  1.00  0.00    -0.206 F 
ATOM     71  C   UNL A   1      49.415  27.103  27.021  1.00  0.00     0.060 A 
BRANCH  71  72
ATOM     72  S   UNL A   1      50.921  26.232  26.535  1.00  0.00     0.124 S 
ATOM     73  O   UNL A   1      51.944  27.018  27.218  1.00  0.00    -0.237 OA
ATOM     74  O   UNL A   1      50.690  24.892  27.066  1.00  0.00    -0.237 OA
ATOM     75  O   UNL A   1      50.920  26.336  25.080  1.00  0.00    -0.744 OA
ENDBRANCH  71  72
ENDBRANCH  50  64
BRANCH  51  76
ATOM     76  C   UNL A   1      38.294  32.278  30.661  1.00  0.00     0.058 A 
ATOM     77  C   UNL A   1      37.526  33.124  29.848  1.00  0.00     0.135 A 
ATOM     78  C   UNL A   1      37.806  31.992  31.947  1.00  0.00     0.135 A 
ATOM     79  F   UNL A   1      37.950  33.433  28.613  1.00  0.00    -0.206 F 
ATOM     80  C   UNL A   1      36.339  33.692  30.299  1.00  0.00     0.059 A 
ATOM     81  C   UNL A   1      36.606  32.523  32.410  1.00  0.00     0.059 A 
ATOM     82  F   UNL A   1      38.491  31.172  32.760  1.00  0.00    -0.206 F 
ATOM     83  C   UNL A   1      35.888  33.385  31.585  1.00  0.00     0.060 A 
BRANCH  83  84
ATOM     84  S   UNL A   1      34.335  34.109  32.154  1.00  0.00     0.124 S 
ATOM     85  O   UNL A   1      34.809  35.141  33.068  1.00  0.00    -0.237 OA
ATOM     86  O   UNL A   1      33.742  34.582  30.907  1.00  0.00    -0.237 OA
ATOM     87  O   UNL A   1      33.649  32.980  32.777  1.00  0.00    -0.744 OA
ENDBRANCH  83  84
ENDBRANCH  51  76
BRANCH  63  88
ATOM     88  C   UNL A   1      44.856  34.650  30.683  1.00  0.00     0.058 A 
ATOM     89  C   UNL A   1      45.349  34.831  31.984  1.00  0.00     0.135 A 
ATOM     90  C   UNL A   1      44.999  35.712  29.776  1.00  0.00     0.135 A 
ATOM     91  F   UNL A   1      45.232  33.850  32.894  1.00  0.00    -0.206 F 
ATOM     92  C   UNL A   1      45.940  36.027  32.378  1.00  0.00     0.059 A 
ATOM     93  C   UNL A   1      45.615  36.906  30.137  1.00  0.00     0.059 A 
ATOM     94  F   UNL A   1      44.554  35.590  28.514  1.00  0.00    -0.206 F 
ATOM     95  C   UNL A   1      46.072  37.058  31.445  1.00  0.00     0.060 A 
BRANCH  95  96
ATOM     96  S   UNL A   1      46.873  38.591  31.961  1.00  0.00     0.124 S 
ATOM     97  O   UNL A   1      48.246  38.148  32.177  1.00  0.00    -0.237 OA
ATOM     98  O   UNL A   1      46.661  39.457  30.805  1.00  0.00    -0.237 OA
ATOM     99  O   UNL A   1      46.139  38.971  33.165  1.00  0.00    -0.744 OA
ENDBRANCH  95  96
ENDBRANCH  63  88
ENDBRANCH  37  38
ENDBRANCH  29  32
ENDBRANCH  27  28
ENDBRANCH  26  27
ENDBRANCH   1  26
TORSDOF 18
ENDMDL
