MODEL 1
REMARK VINA RESULT:      -9.6      0.000      0.000
REMARK SMILES O=C1[NH+]=C(S)N(c2cccc(Br)c2)C(=O)/C1=C/c1ccc(-c2ccc(C(=O)NCCCCCCNC(=O)c3ccc(-c4c5nc(c(-c6c(F)cc(S(=O)(=O)[O-])cc6F)c6ccc([nH]6)c(-c6c(F)cc(S(=O)(=O)[O-])cc6F)c6nc(c(-c7c(F)cc(S(=O)(=O)[O-])cc7F)c7ccc4[nH]7)C=C6)C=C5)cc3)cc2)o1
REMARK SMILES IDX 31 1 30 2 29 3 28 4 26 5 27 6 25 8 22 9 23 10 105 11 24 12
REMARK SMILES IDX 104 13 21 14 18 15 19 16 106 17 20 18 17 19 1 20 2 21 3 22
REMARK SMILES IDX 16 23 4 24 14 26 6 27 15 28 5 29 7 31 8 32 13 33 9 34 11 35
REMARK SMILES IDX 10 36 12 37 32 38 33 39 34 40 35 41 36 42 37 44 38 45 39 46
REMARK SMILES IDX 103 47 40 48 102 49 41 50 42 51 43 52 96 53 44 54 101 55
REMARK SMILES IDX 95 56 97 57 45 58 100 59 94 60 93 61 46 63 80 64 59 65 79 66
REMARK SMILES IDX 60 67 63 68 78 69 98 70 61 71 62 72 77 74 99 75 64 76 47 77
REMARK SMILES IDX 48 78 57 79 49 80 50 81 56 82 58 83 51 84 52 85 53 86 54 87
REMARK SMILES IDX 55 88 81 89 82 90 91 91 83 92 84 93 90 94 92 95 85 96 86 97
REMARK SMILES IDX 87 98 88 99 89 100 65 101 66 102 75 103 67 104 68 105 74 106
REMARK SMILES IDX 76 107 69 108 70 109 71 110 72 111 73 112
REMARK H PARENT 28 7 3 25 5 30 35 43 97 62 63 73
REMARK Flexibility Score: inf
ROOT
ATOM      1  C   UNL A   1      37.174  32.757  31.121  1.00  0.00     0.002 C 
ENDROOT
BRANCH   1   2
ATOM      2  C   UNL A   1      37.794  34.010  31.751  1.00  0.00     0.021 C 
BRANCH   2   3
ATOM      3  C   UNL A   1      38.783  33.679  32.872  1.00  0.00     0.116 C 
BRANCH   3   4
ATOM      4  N   UNL A   1      38.055  33.301  34.069  1.00  0.00    -0.352 N 
ATOM      5  C   UNL A   1      38.054  32.160  34.829  1.00  0.00     0.251 C 
ATOM      6  O   UNL A   1      37.296  32.114  35.799  1.00  0.00    -0.269 OA
ATOM      7  H   UNL A   1      37.444  33.999  34.400  1.00  0.00     0.163 HD
BRANCH   5   8
ATOM      8  C   UNL A   1      38.979  31.020  34.574  1.00  0.00     0.039 A 
ATOM      9  C   UNL A   1      40.958  29.083  34.104  1.00  0.00     0.017 A 
ATOM     10  C   UNL A   1      40.987  29.836  35.280  1.00  0.00     0.013 A 
ATOM     11  C   UNL A   1      39.893  29.240  33.213  1.00  0.00     0.013 A 
ATOM     12  C   UNL A   1      40.007  30.809  35.506  1.00  0.00     0.014 A 
ATOM     13  C   UNL A   1      38.888  30.170  33.471  1.00  0.00     0.014 A 
BRANCH   9  14
ATOM     14  C   UNL A   1      42.020  28.167  33.759  1.00  0.00     0.134 A 
ATOM     15  C   UNL A   1      43.177  26.310  34.044  1.00  0.00     0.128 A 
ATOM     16  C   UNL A   1      43.609  26.900  32.861  1.00  0.00     0.051 A 
ATOM     17  O   UNL A   1      42.189  27.099  34.579  1.00  0.00    -0.457 OA
ATOM     18  C   UNL A   1      42.880  28.095  32.689  1.00  0.00     0.051 A 
BRANCH  15  19
ATOM     19  C   UNL A   1      43.589  25.092  34.633  1.00  0.00     0.071 C 
ATOM     20  O   UNL A   1      45.255  27.257  35.662  1.00  0.00    -0.241 OA
ATOM     21  C   UNL A   1      45.550  26.087  35.833  1.00  0.00     0.347 C 
ATOM     22  N   UNL A   1      46.710  25.751  36.461  1.00  0.00    -0.200 N 
ATOM     23  C   UNL A   1      44.691  24.959  35.398  1.00  0.00     0.158 C 
ATOM     24  C   UNL A   1      46.977  24.546  36.807  1.00  0.00     0.323 C 
ATOM     25  H   UNL A   1      47.367  26.458  36.657  1.00  0.00     0.316 HD
ATOM     26  C   UNL A   1      45.008  23.580  35.839  1.00  0.00     0.354 C 
ATOM     27  N   UNL A   1      46.176  23.443  36.576  1.00  0.00    -0.151 N 
ATOM     28  O   UNL A   1      44.253  22.647  35.562  1.00  0.00    -0.240 OA
BRANCH  24  29
ATOM     29  S   UNL A   1      48.554  24.361  37.553  1.00  0.00    -0.055 SA
ATOM     30  H   UNL A   1      49.435  23.874  36.638  1.00  0.00     0.116 HD
ENDBRANCH  24  29
BRANCH  27  31
ATOM     31  C   UNL A   1      46.506  22.136  37.051  1.00  0.00     0.138 A 
ATOM     32  C   UNL A   1      47.111  21.205  36.193  1.00  0.00     0.052 A 
ATOM     33  C   UNL A   1      46.206  21.759  38.367  1.00  0.00     0.068 A 
ATOM     34  C   UNL A   1      47.451  19.932  36.655  1.00  0.00     0.006 A 
ATOM     35  C   UNL A   1      46.540  20.482  38.817  1.00  0.00     0.022 A 
ATOM     36  C   UNL A   1      47.169  19.571  37.971  1.00  0.00     0.016 A 
ATOM     37  Br  UNL A   1      46.129  19.983  40.594  1.00  0.00    -0.051 Br
ENDBRANCH  27  31
ENDBRANCH  15  19
ENDBRANCH   9  14
ENDBRANCH   5   8
ENDBRANCH   3   4
ENDBRANCH   2   3
ENDBRANCH   1   2
BRANCH   1  38
ATOM     38  C   UNL A   1      35.795  32.386  31.679  1.00  0.00     0.002 C 
BRANCH  38  39
ATOM     39  C   UNL A   1      34.614  32.852  30.823  1.00  0.00     0.021 C 
BRANCH  39  40
ATOM     40  C   UNL A   1      34.864  32.746  29.324  1.00  0.00     0.116 C 
BRANCH  40  41
ATOM     41  N   UNL A   1      34.065  31.686  28.727  1.00  0.00    -0.352 N 
ATOM     42  C   UNL A   1      34.480  30.507  28.161  1.00  0.00     0.251 C 
ATOM     43  H   UNL A   1      33.092  31.836  28.730  1.00  0.00     0.163 HD
ATOM     44  O   UNL A   1      33.709  29.851  27.467  1.00  0.00    -0.269 OA
BRANCH  42  45
ATOM     45  C   UNL A   1      35.864  30.045  28.385  1.00  0.00     0.039 A 
ATOM     46  C   UNL A   1      36.808  30.196  27.370  1.00  0.00     0.014 A 
ATOM     47  C   UNL A   1      36.224  29.469  29.608  1.00  0.00     0.014 A 
ATOM     48  C   UNL A   1      38.134  29.825  27.603  1.00  0.00     0.010 A 
ATOM     49  C   UNL A   1      37.559  29.176  29.865  1.00  0.00     0.010 A 
ATOM     50  C   UNL A   1      38.527  29.347  28.864  1.00  0.00    -0.014 A 
BRANCH  50  51
ATOM     51  C   UNL A   1      39.946  29.025  29.161  1.00  0.00     0.031 A 
ATOM     52  C   UNL A   1      40.838  30.059  29.792  1.00  0.00     0.074 A 
ATOM     53  C   UNL A   1      40.445  27.825  28.802  1.00  0.00     0.049 A 
ATOM     54  N   UNL A   1      42.116  29.991  30.063  1.00  0.00    -0.248 NA
ATOM     55  C   UNL A   1      40.218  31.347  30.140  1.00  0.00     0.031 C 
ATOM     56  C   UNL A   1      39.687  26.756  28.146  1.00  0.00     0.029 A 
ATOM     57  N   UNL A   1      41.707  27.304  28.928  1.00  0.00    -0.354 N 
ATOM     58  C   UNL A   1      42.454  31.226  30.605  1.00  0.00     0.074 A 
ATOM     59  C   UNL A   1      41.261  32.044  30.566  1.00  0.00     0.031 C 
ATOM     60  C   UNL A   1      40.491  25.700  27.953  1.00  0.00     0.029 A 
ATOM     61  C   UNL A   1      41.833  26.030  28.426  1.00  0.00     0.049 A 
ATOM     62  H   UNL A   1      42.454  27.797  29.338  1.00  0.00     0.167 HD
ATOM     63  C   UNL A   1      43.642  31.631  31.112  1.00  0.00     0.037 A 
ATOM     64  C   UNL A   1      42.908  25.222  28.346  1.00  0.00     0.037 A 
ATOM     65  C   UNL A   1      44.820  30.805  31.155  1.00  0.00     0.049 A 
ATOM     66  C   UNL A   1      44.228  25.708  28.884  1.00  0.00     0.074 A 
ATOM     67  C   UNL A   1      46.062  31.103  31.689  1.00  0.00     0.029 A 
ATOM     68  N   UNL A   1      44.908  29.520  30.637  1.00  0.00    -0.354 N 
ATOM     69  N   UNL A   1      44.514  26.856  29.452  1.00  0.00    -0.248 NA
ATOM     70  C   UNL A   1      45.369  24.790  28.774  1.00  0.00     0.031 C 
ATOM     71  C   UNL A   1      46.915  30.023  31.442  1.00  0.00     0.029 A 
ATOM     72  C   UNL A   1      46.190  29.024  30.812  1.00  0.00     0.049 A 
ATOM     73  H   UNL A   1      44.168  29.032  30.208  1.00  0.00     0.167 HD
ATOM     74  C   UNL A   1      45.859  26.784  29.796  1.00  0.00     0.074 A 
ATOM     75  C   UNL A   1      46.326  25.477  29.383  1.00  0.00     0.031 C 
ATOM     76  C   UNL A   1      46.638  27.716  30.402  1.00  0.00     0.037 A 
BRANCH  63  77
ATOM     77  C   UNL A   1      43.728  33.033  31.657  1.00  0.00     0.058 A 
ATOM     78  C   UNL A   1      43.355  33.338  32.977  1.00  0.00     0.135 A 
ATOM     79  C   UNL A   1      44.216  34.081  30.860  1.00  0.00     0.135 A 
ATOM     80  F   UNL A   1      42.867  32.380  33.781  1.00  0.00    -0.206 F 
ATOM     81  C   UNL A   1      43.427  34.635  33.473  1.00  0.00     0.059 A 
ATOM     82  C   UNL A   1      44.331  35.380  31.347  1.00  0.00     0.059 A 
ATOM     83  F   UNL A   1      44.589  33.850  29.591  1.00  0.00    -0.206 F 
ATOM     84  C   UNL A   1      43.917  35.651  32.650  1.00  0.00     0.060 A 
BRANCH  84  85
ATOM     85  S   UNL A   1      44.001  37.327  33.311  1.00  0.00     0.124 S 
ATOM     86  O   UNL A   1      43.814  38.126  32.104  1.00  0.00    -0.237 OA
ATOM     87  O   UNL A   1      42.893  37.344  34.260  1.00  0.00    -0.237 OA
ATOM     88  O   UNL A   1      45.333  37.393  33.905  1.00  0.00    -0.744 OA
ENDBRANCH  84  85
ENDBRANCH  63  77
BRANCH  64  89
ATOM     89  C   UNL A   1      42.777  23.864  27.752  1.00  0.00     0.058 A 
ATOM     90  C   UNL A   1      42.606  22.734  28.565  1.00  0.00     0.135 A 
ATOM     91  C   UNL A   1      42.814  23.667  26.362  1.00  0.00     0.135 A 
ATOM     92  F   UNL A   1      42.571  22.867  29.899  1.00  0.00    -0.206 F 
ATOM     93  C   UNL A   1      42.494  21.456  28.025  1.00  0.00     0.059 A 
ATOM     94  C   UNL A   1      42.675  22.403  25.797  1.00  0.00     0.059 A 
ATOM     95  F   UNL A   1      42.961  24.717  25.537  1.00  0.00    -0.206 F 
ATOM     96  C   UNL A   1      42.526  21.302  26.639  1.00  0.00     0.060 A 
BRANCH  96  97
ATOM     97  S   UNL A   1      42.337  19.645  25.949  1.00  0.00     0.124 S 
ATOM     98  O   UNL A   1      42.556  18.810  27.125  1.00  0.00    -0.237 OA
ATOM     99  O   UNL A   1      40.972  19.683  25.436  1.00  0.00    -0.237 OA
ATOM    100  O   UNL A   1      43.381  19.585  24.929  1.00  0.00    -0.744 OA
ENDBRANCH  96  97
ENDBRANCH  64  89
BRANCH  76 101
ATOM    101  C   UNL A   1      48.067  27.345  30.693  1.00  0.00     0.058 A 
ATOM    102  C   UNL A   1      48.421  26.580  31.815  1.00  0.00     0.135 A 
ATOM    103  C   UNL A   1      49.089  27.708  29.801  1.00  0.00     0.135 A 
ATOM    104  F   UNL A   1      47.485  26.212  32.706  1.00  0.00    -0.206 F 
ATOM    105  C   UNL A   1      49.740  26.207  32.054  1.00  0.00     0.059 A 
ATOM    106  C   UNL A   1      50.409  27.318  30.001  1.00  0.00     0.059 A 
ATOM    107  F   UNL A   1      48.806  28.432  28.706  1.00  0.00    -0.206 F 
ATOM    108  C   UNL A   1      50.727  26.576  31.137  1.00  0.00     0.060 A 
BRANCH 108 109
ATOM    109  S   UNL A   1      52.426  26.047  31.438  1.00  0.00     0.124 S 
ATOM    110  O   UNL A   1      52.224  24.725  32.025  1.00  0.00    -0.237 OA
ATOM    111  O   UNL A   1      52.997  26.062  30.094  1.00  0.00    -0.237 OA
ATOM    112  O   UNL A   1      52.946  27.064  32.346  1.00  0.00    -0.744 OA
ENDBRANCH 108 109
ENDBRANCH  76 101
ENDBRANCH  50  51
ENDBRANCH  42  45
ENDBRANCH  40  41
ENDBRANCH  39  40
ENDBRANCH  38  39
ENDBRANCH   1  38
TORSDOF 20
ENDMDL
MODEL 2
REMARK VINA RESULT:      -9.2      5.286      9.138
REMARK SMILES O=C1[NH+]=C(S)N(c2cccc(Br)c2)C(=O)/C1=C/c1ccc(-c2ccc(C(=O)NCCCCCCNC(=O)c3ccc(-c4c5nc(c(-c6c(F)cc(S(=O)(=O)[O-])cc6F)c6ccc([nH]6)c(-c6c(F)cc(S(=O)(=O)[O-])cc6F)c6nc(c(-c7c(F)cc(S(=O)(=O)[O-])cc7F)c7ccc4[nH]7)C=C6)C=C5)cc3)cc2)o1
REMARK SMILES IDX 31 1 30 2 29 3 28 4 26 5 27 6 25 8 22 9 23 10 105 11 24 12
REMARK SMILES IDX 104 13 21 14 18 15 19 16 106 17 20 18 17 19 1 20 2 21 3 22
REMARK SMILES IDX 16 23 4 24 14 26 6 27 15 28 5 29 7 31 8 32 13 33 9 34 11 35
REMARK SMILES IDX 10 36 12 37 32 38 33 39 34 40 35 41 36 42 37 44 38 45 39 46
REMARK SMILES IDX 103 47 40 48 102 49 41 50 42 51 43 52 96 53 44 54 101 55
REMARK SMILES IDX 95 56 97 57 45 58 100 59 94 60 93 61 46 63 80 64 59 65 79 66
REMARK SMILES IDX 60 67 63 68 78 69 98 70 61 71 62 72 77 74 99 75 64 76 47 77
REMARK SMILES IDX 48 78 57 79 49 80 50 81 56 82 58 83 51 84 52 85 53 86 54 87
REMARK SMILES IDX 55 88 81 89 82 90 91 91 83 92 84 93 90 94 92 95 85 96 86 97
REMARK SMILES IDX 87 98 88 99 89 100 65 101 66 102 75 103 67 104 68 105 74 106
REMARK SMILES IDX 76 107 69 108 70 109 71 110 72 111 73 112
REMARK H PARENT 28 7 3 25 5 30 35 43 97 62 63 73
REMARK Flexibility Score: inf
ROOT
ATOM      1  C   UNL A   1      36.846  33.916  31.410  1.00  0.00     0.002 C 
ENDROOT
BRANCH   1   2
ATOM      2  C   UNL A   1      36.454  33.136  30.148  1.00  0.00     0.021 C 
BRANCH   2   3
ATOM      3  C   UNL A   1      34.999  32.662  30.177  1.00  0.00     0.116 C 
BRANCH   3   4
ATOM      4  N   UNL A   1      34.119  33.763  29.832  1.00  0.00    -0.352 N 
ATOM      5  C   UNL A   1      33.219  33.944  28.814  1.00  0.00     0.251 C 
ATOM      6  O   UNL A   1      32.618  35.017  28.759  1.00  0.00    -0.269 OA
ATOM      7  H   UNL A   1      34.181  34.529  30.448  1.00  0.00     0.163 HD
BRANCH   5   8
ATOM      8  C   UNL A   1      32.888  32.874  27.831  1.00  0.00     0.039 A 
ATOM      9  C   UNL A   1      31.978  30.846  26.113  1.00  0.00     0.017 A 
ATOM     10  C   UNL A   1      31.320  32.077  26.145  1.00  0.00     0.013 A 
ATOM     11  C   UNL A   1      33.136  30.665  26.873  1.00  0.00     0.013 A 
ATOM     12  C   UNL A   1      31.768  33.082  27.010  1.00  0.00     0.014 A 
ATOM     13  C   UNL A   1      33.612  31.690  27.690  1.00  0.00     0.014 A 
BRANCH   9  14
ATOM     14  C   UNL A   1      31.473  29.733  25.344  1.00  0.00     0.134 A 
ATOM     15  C   UNL A   1      31.149  27.578  24.994  1.00  0.00     0.128 A 
ATOM     16  C   UNL A   1      30.421  28.277  24.037  1.00  0.00     0.051 A 
ATOM     17  O   UNL A   1      31.783  28.493  25.799  1.00  0.00    -0.457 OA
ATOM     18  C   UNL A   1      30.642  29.653  24.252  1.00  0.00     0.051 A 
BRANCH  15  19
ATOM     19  C   UNL A   1      31.232  26.182  25.205  1.00  0.00     0.071 C 
ATOM     20  O   UNL A   1      33.856  27.182  24.404  1.00  0.00    -0.241 OA
ATOM     21  C   UNL A   1      33.604  25.989  24.423  1.00  0.00     0.347 C 
ATOM     22  N   UNL A   1      34.529  25.081  24.006  1.00  0.00    -0.200 N 
ATOM     23  C   UNL A   1      32.313  25.437  24.900  1.00  0.00     0.158 C 
ATOM     24  C   UNL A   1      34.368  23.819  24.164  1.00  0.00     0.323 C 
ATOM     25  H   UNL A   1      35.350  25.405  23.568  1.00  0.00     0.316 HD
ATOM     26  C   UNL A   1      32.168  23.975  25.102  1.00  0.00     0.354 C 
ATOM     27  N   UNL A   1      33.264  23.210  24.729  1.00  0.00    -0.151 N 
ATOM     28  O   UNL A   1      31.133  23.512  25.584  1.00  0.00    -0.240 OA
BRANCH  24  29
ATOM     29  S   UNL A   1      35.673  22.855  23.498  1.00  0.00    -0.055 SA
ATOM     30  H   UNL A   1      36.218  22.087  24.480  1.00  0.00     0.116 HD
ENDBRANCH  24  29
BRANCH  27  31
ATOM     31  C   UNL A   1      33.182  21.798  24.937  1.00  0.00     0.138 A 
ATOM     32  C   UNL A   1      33.474  21.251  26.196  1.00  0.00     0.052 A 
ATOM     33  C   UNL A   1      32.837  20.942  23.883  1.00  0.00     0.068 A 
ATOM     34  C   UNL A   1      33.380  19.875  26.409  1.00  0.00     0.006 A 
ATOM     35  C   UNL A   1      32.754  19.567  24.103  1.00  0.00     0.022 A 
ATOM     36  C   UNL A   1      33.015  19.031  25.362  1.00  0.00     0.016 A 
ATOM     37  Br  UNL A   1      32.290  18.420  22.673  1.00  0.00    -0.051 Br
ENDBRANCH  27  31
ENDBRANCH  15  19
ENDBRANCH   9  14
ENDBRANCH   5   8
ENDBRANCH   3   4
ENDBRANCH   2   3
ENDBRANCH   1   2
BRANCH   1  38
ATOM     38  C   UNL A   1      36.111  33.471  32.681  1.00  0.00     0.002 C 
BRANCH  38  39
ATOM     39  C   UNL A   1      37.025  32.966  33.801  1.00  0.00     0.021 C 
BRANCH  39  40
ATOM     40  C   UNL A   1      37.665  31.615  33.508  1.00  0.00     0.116 C 
BRANCH  40  41
ATOM     41  N   UNL A   1      36.720  30.707  32.874  1.00  0.00    -0.352 N 
ATOM     42  C   UNL A   1      36.878  29.950  31.740  1.00  0.00     0.251 C 
ATOM     43  H   UNL A   1      35.846  30.626  33.319  1.00  0.00     0.163 HD
ATOM     44  O   UNL A   1      35.902  29.448  31.192  1.00  0.00    -0.269 OA
BRANCH  42  45
ATOM     45  C   UNL A   1      38.232  29.755  31.184  1.00  0.00     0.039 A 
ATOM     46  C   UNL A   1      39.216  29.161  31.974  1.00  0.00     0.014 A 
ATOM     47  C   UNL A   1      38.519  30.155  29.875  1.00  0.00     0.014 A 
ATOM     48  C   UNL A   1      40.477  28.911  31.428  1.00  0.00     0.010 A 
ATOM     49  C   UNL A   1      39.748  29.832  29.310  1.00  0.00     0.010 A 
ATOM     50  C   UNL A   1      40.741  29.211  30.081  1.00  0.00    -0.014 A 
BRANCH  50  51
ATOM     51  C   UNL A   1      42.046  28.878  29.457  1.00  0.00     0.031 A 
ATOM     52  C   UNL A   1      43.113  29.930  29.330  1.00  0.00     0.074 A 
ATOM     53  C   UNL A   1      42.243  27.645  28.947  1.00  0.00     0.049 A 
ATOM     54  N   UNL A   1      44.286  29.852  28.756  1.00  0.00    -0.248 NA
ATOM     55  C   UNL A   1      42.812  31.253  29.900  1.00  0.00     0.031 C 
ATOM     56  C   UNL A   1      41.267  26.553  28.974  1.00  0.00     0.029 A 
ATOM     57  N   UNL A   1      43.325  27.105  28.299  1.00  0.00    -0.354 N 
ATOM     58  C   UNL A   1      44.858  31.112  28.889  1.00  0.00     0.074 A 
ATOM     59  C   UNL A   1      43.878  31.953  29.541  1.00  0.00     0.031 C 
ATOM     60  C   UNL A   1      41.805  25.467  28.396  1.00  0.00     0.029 A 
ATOM     61  C   UNL A   1      43.143  25.797  27.914  1.00  0.00     0.049 A 
ATOM     62  H   UNL A   1      44.154  27.607  28.125  1.00  0.00     0.167 HD
ATOM     63  C   UNL A   1      46.095  31.522  28.523  1.00  0.00     0.037 A 
ATOM     64  C   UNL A   1      43.956  24.962  27.240  1.00  0.00     0.037 A 
ATOM     65  C   UNL A   1      47.067  30.674  27.883  1.00  0.00     0.049 A 
ATOM     66  C   UNL A   1      45.314  25.452  26.812  1.00  0.00     0.074 A 
ATOM     67  C   UNL A   1      48.364  30.978  27.513  1.00  0.00     0.029 A 
ATOM     68  N   UNL A   1      46.844  29.356  27.509  1.00  0.00    -0.354 N 
ATOM     69  N   UNL A   1      45.864  26.629  27.002  1.00  0.00    -0.248 NA
ATOM     70  C   UNL A   1      46.164  24.503  26.081  1.00  0.00     0.031 C 
ATOM     71  C   UNL A   1      48.907  29.865  26.863  1.00  0.00     0.029 A 
ATOM     72  C   UNL A   1      47.971  28.843  26.886  1.00  0.00     0.049 A 
ATOM     73  H   UNL A   1      46.009  28.857  27.664  1.00  0.00     0.167 HD
ATOM     74  C   UNL A   1      47.135  26.548  26.444  1.00  0.00     0.074 A 
ATOM     75  C   UNL A   1      47.276  25.206  25.919  1.00  0.00     0.031 C 
ATOM     76  C   UNL A   1      48.099  27.501  26.375  1.00  0.00     0.037 A 
BRANCH  63  77
ATOM     77  C   UNL A   1      46.467  32.955  28.803  1.00  0.00     0.058 A 
ATOM     78  C   UNL A   1      46.234  33.976  27.865  1.00  0.00     0.135 A 
ATOM     79  C   UNL A   1      47.035  33.319  30.034  1.00  0.00     0.135 A 
ATOM     80  F   UNL A   1      45.707  33.686  26.665  1.00  0.00    -0.206 F 
ATOM     81  C   UNL A   1      46.586  35.296  28.124  1.00  0.00     0.059 A 
ATOM     82  C   UNL A   1      47.363  34.640  30.328  1.00  0.00     0.059 A 
ATOM     83  F   UNL A   1      47.279  32.387  30.969  1.00  0.00    -0.206 F 
ATOM     84  C   UNL A   1      47.151  35.619  29.360  1.00  0.00     0.060 A 
BRANCH  84  85
ATOM     85  S   UNL A   1      47.602  37.337  29.676  1.00  0.00     0.124 S 
ATOM     86  O   UNL A   1      47.641  37.882  28.322  1.00  0.00    -0.237 OA
ATOM     87  O   UNL A   1      46.501  37.800  30.513  1.00  0.00    -0.237 OA
ATOM     88  O   UNL A   1      48.895  37.232  30.346  1.00  0.00    -0.744 OA
ENDBRANCH  84  85
ENDBRANCH  63  77
BRANCH  64  89
ATOM     89  C   UNL A   1      43.518  23.570  26.946  1.00  0.00     0.058 A 
ATOM     90  C   UNL A   1      43.129  23.195  25.651  1.00  0.00     0.135 A 
ATOM     91  C   UNL A   1      43.485  22.586  27.947  1.00  0.00     0.135 A 
ATOM     92  F   UNL A   1      43.136  24.100  24.661  1.00  0.00    -0.206 F 
ATOM     93  C   UNL A   1      42.705  21.902  25.362  1.00  0.00     0.059 A 
ATOM     94  C   UNL A   1      43.094  21.279  27.676  1.00  0.00     0.059 A 
ATOM     95  F   UNL A   1      43.862  22.888  29.200  1.00  0.00    -0.206 F 
ATOM     96  C   UNL A   1      42.695  20.949  26.382  1.00  0.00     0.060 A 
BRANCH  96  97
ATOM     97  S   UNL A   1      42.184  19.264  25.985  1.00  0.00     0.124 S 
ATOM     98  O   UNL A   1      42.554  18.550  27.202  1.00  0.00    -0.237 OA
ATOM     99  O   UNL A   1      40.753  19.427  25.750  1.00  0.00    -0.237 OA
ATOM    100  O   UNL A   1      42.975  18.943  24.800  1.00  0.00    -0.744 OA
ENDBRANCH  96  97
ENDBRANCH  64  89
BRANCH  76 101
ATOM    101  C   UNL A   1      49.410  27.117  25.743  1.00  0.00     0.058 A 
ATOM    102  C   UNL A   1      49.657  27.301  24.374  1.00  0.00     0.135 A 
ATOM    103  C   UNL A   1      50.457  26.614  26.534  1.00  0.00     0.135 A 
ATOM    104  F   UNL A   1      48.689  27.770  23.570  1.00  0.00    -0.206 F 
ATOM    105  C   UNL A   1      50.887  26.980  23.808  1.00  0.00     0.059 A 
ATOM    106  C   UNL A   1      51.705  26.319  25.996  1.00  0.00     0.059 A 
ATOM    107  F   UNL A   1      50.279  26.427  27.852  1.00  0.00    -0.206 F 
ATOM    108  C   UNL A   1      51.907  26.496  24.629  1.00  0.00     0.060 A 
BRANCH 108 109
ATOM    109  S   UNL A   1      53.511  26.128  23.886  1.00  0.00     0.124 S 
ATOM    110  O   UNL A   1      54.253  27.354  24.164  1.00  0.00    -0.237 OA
ATOM    111  O   UNL A   1      53.935  24.948  24.634  1.00  0.00    -0.237 OA
ATOM    112  O   UNL A   1      53.192  25.892  22.482  1.00  0.00    -0.744 OA
ENDBRANCH 108 109
ENDBRANCH  76 101
ENDBRANCH  50  51
ENDBRANCH  42  45
ENDBRANCH  40  41
ENDBRANCH  39  40
ENDBRANCH  38  39
ENDBRANCH   1  38
TORSDOF 20
ENDMDL
MODEL 3
REMARK VINA RESULT:      -9.0      5.318     11.782
REMARK SMILES O=C1[NH+]=C(S)N(c2cccc(Br)c2)C(=O)/C1=C/c1ccc(-c2ccc(C(=O)NCCCCCCNC(=O)c3ccc(-c4c5nc(c(-c6c(F)cc(S(=O)(=O)[O-])cc6F)c6ccc([nH]6)c(-c6c(F)cc(S(=O)(=O)[O-])cc6F)c6nc(c(-c7c(F)cc(S(=O)(=O)[O-])cc7F)c7ccc4[nH]7)C=C6)C=C5)cc3)cc2)o1
REMARK SMILES IDX 31 1 30 2 29 3 28 4 26 5 27 6 25 8 22 9 23 10 105 11 24 12
REMARK SMILES IDX 104 13 21 14 18 15 19 16 106 17 20 18 17 19 1 20 2 21 3 22
REMARK SMILES IDX 16 23 4 24 14 26 6 27 15 28 5 29 7 31 8 32 13 33 9 34 11 35
REMARK SMILES IDX 10 36 12 37 32 38 33 39 34 40 35 41 36 42 37 44 38 45 39 46
REMARK SMILES IDX 103 47 40 48 102 49 41 50 42 51 43 52 96 53 44 54 101 55
REMARK SMILES IDX 95 56 97 57 45 58 100 59 94 60 93 61 46 63 80 64 59 65 79 66
REMARK SMILES IDX 60 67 63 68 78 69 98 70 61 71 62 72 77 74 99 75 64 76 47 77
REMARK SMILES IDX 48 78 57 79 49 80 50 81 56 82 58 83 51 84 52 85 53 86 54 87
REMARK SMILES IDX 55 88 81 89 82 90 91 91 83 92 84 93 90 94 92 95 85 96 86 97
REMARK SMILES IDX 87 98 88 99 89 100 65 101 66 102 75 103 67 104 68 105 74 106
REMARK SMILES IDX 76 107 69 108 70 109 71 110 72 111 73 112
REMARK H PARENT 28 7 3 25 5 30 35 43 97 62 63 73
REMARK Flexibility Score: inf
ROOT
ATOM      1  C   UNL A   1      37.229  22.420  24.797  1.00  0.00     0.002 C 
ENDROOT
BRANCH   1   2
ATOM      2  C   UNL A   1      36.131  21.355  24.681  1.00  0.00     0.021 C 
BRANCH   2   3
ATOM      3  C   UNL A   1      35.245  21.284  25.927  1.00  0.00     0.116 C 
BRANCH   3   4
ATOM      4  N   UNL A   1      34.126  20.393  25.680  1.00  0.00    -0.352 N 
ATOM      5  C   UNL A   1      32.805  20.625  25.397  1.00  0.00     0.251 C 
ATOM      6  O   UNL A   1      32.066  19.650  25.257  1.00  0.00    -0.269 OA
ATOM      7  H   UNL A   1      34.362  19.438  25.723  1.00  0.00     0.163 HD
BRANCH   5   8
ATOM      8  C   UNL A   1      32.255  21.993  25.180  1.00  0.00     0.039 A 
ATOM      9  C   UNL A   1      31.477  24.629  24.600  1.00  0.00     0.017 A 
ATOM     10  C   UNL A   1      31.690  23.722  23.559  1.00  0.00     0.013 A 
ATOM     11  C   UNL A   1      31.567  24.191  25.923  1.00  0.00     0.013 A 
ATOM     12  C   UNL A   1      32.089  22.413  23.850  1.00  0.00     0.014 A 
ATOM     13  C   UNL A   1      31.909  22.870  26.208  1.00  0.00     0.014 A 
BRANCH   9  14
ATOM     14  C   UNL A   1      31.201  26.024  24.349  1.00  0.00     0.134 A 
ATOM     15  C   UNL A   1      31.277  28.164  24.882  1.00  0.00     0.128 A 
ATOM     16  C   UNL A   1      30.798  28.069  23.581  1.00  0.00     0.051 A 
ATOM     17  O   UNL A   1      31.532  26.893  25.337  1.00  0.00    -0.457 OA
ATOM     18  C   UNL A   1      30.734  26.700  23.247  1.00  0.00     0.051 A 
BRANCH  15  19
ATOM     19  C   UNL A   1      31.538  29.322  25.652  1.00  0.00     0.071 C 
ATOM     20  O   UNL A   1      34.074  28.078  24.912  1.00  0.00    -0.241 OA
ATOM     21  C   UNL A   1      34.014  28.952  25.760  1.00  0.00     0.347 C 
ATOM     22  N   UNL A   1      35.129  29.334  26.440  1.00  0.00    -0.200 N 
ATOM     23  C   UNL A   1      32.759  29.665  26.107  1.00  0.00     0.158 C 
ATOM     24  C   UNL A   1      35.142  30.355  27.215  1.00  0.00     0.323 C 
ATOM     25  H   UNL A   1      35.955  28.808  26.333  1.00  0.00     0.316 HD
ATOM     26  C   UNL A   1      32.811  30.861  26.981  1.00  0.00     0.354 C 
ATOM     27  N   UNL A   1      34.062  31.172  27.493  1.00  0.00    -0.151 N 
ATOM     28  O   UNL A   1      31.791  31.516  27.203  1.00  0.00    -0.240 OA
BRANCH  24  29
ATOM     29  S   UNL A   1      36.682  30.610  28.017  1.00  0.00    -0.055 SA
ATOM     30  H   UNL A   1      36.921  29.585  28.879  1.00  0.00     0.116 HD
ENDBRANCH  24  29
BRANCH  27  31
ATOM     31  C   UNL A   1      34.166  32.336  28.316  1.00  0.00     0.138 A 
ATOM     32  C   UNL A   1      34.078  33.615  27.744  1.00  0.00     0.052 A 
ATOM     33  C   UNL A   1      34.385  32.217  29.695  1.00  0.00     0.068 A 
ATOM     34  C   UNL A   1      34.162  34.756  28.544  1.00  0.00     0.006 A 
ATOM     35  C   UNL A   1      34.477  33.363  30.485  1.00  0.00     0.022 A 
ATOM     36  C   UNL A   1      34.358  34.630  29.918  1.00  0.00     0.016 A 
ATOM     37  Br  UNL A   1      34.773  33.192  32.345  1.00  0.00    -0.051 Br
ENDBRANCH  27  31
ENDBRANCH  15  19
ENDBRANCH   9  14
ENDBRANCH   5   8
ENDBRANCH   3   4
ENDBRANCH   2   3
ENDBRANCH   1   2
BRANCH   1  38
ATOM     38  C   UNL A   1      38.369  22.051  25.753  1.00  0.00     0.002 C 
BRANCH  38  39
ATOM     39  C   UNL A   1      39.028  20.699  25.467  1.00  0.00     0.021 C 
BRANCH  39  40
ATOM     40  C   UNL A   1      39.980  20.235  26.562  1.00  0.00     0.116 C 
BRANCH  40  41
ATOM     41  N   UNL A   1      41.109  19.502  26.008  1.00  0.00    -0.352 N 
ATOM     42  C   UNL A   1      42.351  19.967  25.657  1.00  0.00     0.251 C 
ATOM     43  H   UNL A   1      40.961  18.539  25.867  1.00  0.00     0.163 HD
ATOM     44  O   UNL A   1      43.092  19.281  24.960  1.00  0.00    -0.269 OA
BRANCH  42  45
ATOM     45  C   UNL A   1      42.779  21.304  26.115  1.00  0.00     0.039 A 
ATOM     46  C   UNL A   1      43.214  21.468  27.431  1.00  0.00     0.014 A 
ATOM     47  C   UNL A   1      42.757  22.390  25.235  1.00  0.00     0.014 A 
ATOM     48  C   UNL A   1      43.687  22.714  27.848  1.00  0.00     0.010 A 
ATOM     49  C   UNL A   1      43.303  23.607  25.629  1.00  0.00     0.010 A 
ATOM     50  C   UNL A   1      43.769  23.783  26.940  1.00  0.00    -0.014 A 
BRANCH  50  51
ATOM     51  C   UNL A   1      44.345  25.092  27.339  1.00  0.00     0.031 A 
ATOM     52  C   UNL A   1      43.532  26.056  28.159  1.00  0.00     0.074 A 
ATOM     53  C   UNL A   1      45.575  25.436  26.907  1.00  0.00     0.049 A 
ATOM     54  N   UNL A   1      43.834  27.269  28.545  1.00  0.00    -0.248 NA
ATOM     55  C   UNL A   1      42.195  25.609  28.578  1.00  0.00     0.031 C 
ATOM     56  C   UNL A   1      46.442  24.601  26.072  1.00  0.00     0.029 A 
ATOM     57  N   UNL A   1      46.307  26.580  27.101  1.00  0.00    -0.354 N 
ATOM     58  C   UNL A   1      42.724  27.731  29.244  1.00  0.00     0.074 A 
ATOM     59  C   UNL A   1      41.720  26.692  29.174  1.00  0.00     0.031 C 
ATOM     60  C   UNL A   1      47.596  25.249  25.849  1.00  0.00     0.029 A 
ATOM     61  C   UNL A   1      47.535  26.562  26.483  1.00  0.00     0.049 A 
ATOM     62  H   UNL A   1      45.982  27.343  27.631  1.00  0.00     0.167 HD
ATOM     63  C   UNL A   1      42.567  28.903  29.905  1.00  0.00     0.037 A 
ATOM     64  C   UNL A   1      48.499  27.501  26.425  1.00  0.00     0.037 A 
ATOM     65  C   UNL A   1      43.578  29.926  29.976  1.00  0.00     0.049 A 
ATOM     66  C   UNL A   1      48.288  28.811  27.137  1.00  0.00     0.074 A 
ATOM     67  C   UNL A   1      43.537  31.129  30.657  1.00  0.00     0.029 A 
ATOM     68  N   UNL A   1      44.809  29.871  29.337  1.00  0.00    -0.354 N 
ATOM     69  N   UNL A   1      47.257  29.206  27.847  1.00  0.00    -0.248 NA
ATOM     70  C   UNL A   1      49.368  29.801  27.043  1.00  0.00     0.031 C 
ATOM     71  C   UNL A   1      44.717  31.828  30.383  1.00  0.00     0.029 A 
ATOM     72  C   UNL A   1      45.523  31.032  29.584  1.00  0.00     0.049 A 
ATOM     73  H   UNL A   1      45.128  29.117  28.789  1.00  0.00     0.167 HD
ATOM     74  C   UNL A   1      47.580  30.476  28.311  1.00  0.00     0.074 A 
ATOM     75  C   UNL A   1      48.906  30.777  27.811  1.00  0.00     0.031 C 
ATOM     76  C   UNL A   1      46.847  31.316  29.085  1.00  0.00     0.037 A 
BRANCH  63  77
ATOM     77  C   UNL A   1      41.252  29.142  30.599  1.00  0.00     0.058 A 
ATOM     78  C   UNL A   1      40.183  29.788  29.954  1.00  0.00     0.135 A 
ATOM     79  C   UNL A   1      41.046  28.696  31.914  1.00  0.00     0.135 A 
ATOM     80  F   UNL A   1      40.326  30.250  28.702  1.00  0.00    -0.206 F 
ATOM     81  C   UNL A   1      38.973  30.015  30.602  1.00  0.00     0.059 A 
ATOM     82  C   UNL A   1      39.831  28.881  32.568  1.00  0.00     0.059 A 
ATOM     83  F   UNL A   1      42.030  28.071  32.579  1.00  0.00    -0.206 F 
ATOM     84  C   UNL A   1      38.806  29.557  31.910  1.00  0.00     0.060 A 
BRANCH  84  85
ATOM     85  S   UNL A   1      37.230  29.863  32.733  1.00  0.00     0.124 S 
ATOM     86  O   UNL A   1      37.512  31.102  33.451  1.00  0.00    -0.237 OA
ATOM     87  O   UNL A   1      36.308  29.979  31.608  1.00  0.00    -0.237 OA
ATOM     88  O   UNL A   1      37.047  28.681  33.570  1.00  0.00    -0.744 OA
ENDBRANCH  84  85
ENDBRANCH  63  77
BRANCH  64  89
ATOM     89  C   UNL A   1      49.760  27.230  25.681  1.00  0.00     0.058 A 
ATOM     90  C   UNL A   1      49.827  27.398  24.290  1.00  0.00     0.135 A 
ATOM     91  C   UNL A   1      50.923  26.805  26.343  1.00  0.00     0.135 A 
ATOM     92  F   UNL A   1      48.742  27.795  23.610  1.00  0.00    -0.206 F 
ATOM     93  C   UNL A   1      50.994  27.138  23.579  1.00  0.00     0.059 A 
ATOM     94  C   UNL A   1      52.110  26.568  25.658  1.00  0.00     0.059 A 
ATOM     95  F   UNL A   1      50.918  26.644  27.677  1.00  0.00    -0.206 F 
ATOM     96  C   UNL A   1      52.132  26.726  24.274  1.00  0.00     0.060 A 
BRANCH  96  97
ATOM     97  S   UNL A   1      53.653  26.433  23.345  1.00  0.00     0.124 S 
ATOM     98  O   UNL A   1      54.302  25.412  24.160  1.00  0.00    -0.237 OA
ATOM     99  O   UNL A   1      53.139  25.989  22.054  1.00  0.00    -0.237 OA
ATOM    100  O   UNL A   1      54.300  27.742  23.338  1.00  0.00    -0.744 OA
ENDBRANCH  96  97
ENDBRANCH  64  89
BRANCH  76 101
ATOM    101  C   UNL A   1      47.473  32.627  29.474  1.00  0.00     0.058 A 
ATOM    102  C   UNL A   1      47.302  33.789  28.706  1.00  0.00     0.135 A 
ATOM    103  C   UNL A   1      48.205  32.736  30.669  1.00  0.00     0.135 A 
ATOM    104  F   UNL A   1      46.619  33.741  27.551  1.00  0.00    -0.206 F 
ATOM    105  C   UNL A   1      47.852  35.006  29.096  1.00  0.00     0.059 A 
ATOM    106  C   UNL A   1      48.735  33.949  31.095  1.00  0.00     0.059 A 
ATOM    107  F   UNL A   1      48.392  31.658  31.447  1.00  0.00    -0.206 F 
ATOM    108  C   UNL A   1      48.562  35.077  30.296  1.00  0.00     0.060 A 
BRANCH 108 109
ATOM    109  S   UNL A   1      49.230  36.673  30.811  1.00  0.00     0.124 S 
ATOM    110  O   UNL A   1      50.111  36.999  29.694  1.00  0.00    -0.237 OA
ATOM    111  O   UNL A   1      48.026  37.490  30.928  1.00  0.00    -0.237 OA
ATOM    112  O   UNL A   1      49.901  36.372  32.072  1.00  0.00    -0.744 OA
ENDBRANCH 108 109
ENDBRANCH  76 101
ENDBRANCH  50  51
ENDBRANCH  42  45
ENDBRANCH  40  41
ENDBRANCH  39  40
ENDBRANCH  38  39
ENDBRANCH   1  38
TORSDOF 20
ENDMDL
