MODEL 1
REMARK VINA RESULT:     -12.9      0.000      0.000
REMARK SMILES O=C(NCCCCCCNC(=O)[C@H]1CCCCN1c1cc(-c2ccccc2)nc(-c2cccc(Cl)c2)n1)c1ccc(-c2c3nc(c(-c4c(F)cc(S(=O)(=O)[O-])cc4F)c4ccc([nH]4)c(-c4c(F)cc(S(=O)(=O)[O-])cc4F)c4nc(c(-c5c(F)cc(S(=O)(=O)[O-])cc5F)c5ccc2[nH]5)C=C4)C=C3)cc1
REMARK SMILES IDX 6 1 5 2 4 3 3 4 1 5 2 6 38 8 39 9 103 10 40 11 102 12 41 13
REMARK SMILES IDX 42 14 43 15 96 16 44 17 101 18 95 19 97 20 45 21 100 22
REMARK SMILES IDX 94 23 93 24 46 26 80 27 59 28 79 29 60 30 63 31 78 32 98 33
REMARK SMILES IDX 61 34 62 35 77 37 99 38 64 39 47 40 48 41 57 42 49 43 50 44
REMARK SMILES IDX 56 45 58 46 51 47 52 48 53 49 54 50 55 51 81 52 82 53 91 54
REMARK SMILES IDX 83 55 84 56 90 57 92 58 85 59 86 60 87 61 88 62 89 63 65 64
REMARK SMILES IDX 66 65 75 66 67 67 68 68 74 69 76 70 69 71 70 72 71 73 72 74
REMARK SMILES IDX 73 75 7 76 8 77 9 78 10 79 11 80 12 82 13 83 14 84 18 85
REMARK SMILES IDX 15 86 17 87 16 88 19 89 20 90 37 91 21 92 29 93 28 94 22 95
REMARK SMILES IDX 23 96 27 97 24 98 26 99 25 100 30 101 31 102 36 103 32 104
REMARK SMILES IDX 34 105 33 106 35 107
REMARK H PARENT 3 7 97 25 63 36 10 81
REMARK Flexibility Score: inf
ROOT
ATOM      1  C   UNL A   1      40.001  22.385  26.531  1.00  0.00     0.002 C 
ENDROOT
BRANCH   1   2
ATOM      2  C   UNL A   1      40.875  22.638  27.760  1.00  0.00     0.021 C 
BRANCH   2   3
ATOM      3  C   UNL A   1      42.152  23.416  27.472  1.00  0.00     0.116 C 
BRANCH   3   4
ATOM      4  N   UNL A   1      42.041  24.218  26.264  1.00  0.00    -0.352 N 
ATOM      5  O   UNL A   1      41.334  25.946  25.001  1.00  0.00    -0.269 OA
ATOM      6  C   UNL A   1      41.564  25.500  26.115  1.00  0.00     0.251 C 
ATOM      7  H   UNL A   1      42.347  23.781  25.437  1.00  0.00     0.163 HD
BRANCH   6   8
ATOM      8  C   UNL A   1      41.329  26.326  27.320  1.00  0.00     0.039 A 
ATOM      9  C   UNL A   1      42.252  27.308  27.682  1.00  0.00     0.014 A 
ATOM     10  C   UNL A   1      40.180  26.122  28.087  1.00  0.00     0.014 A 
ATOM     11  C   UNL A   1      42.102  27.980  28.886  1.00  0.00     0.010 A 
ATOM     12  C   UNL A   1      39.977  26.877  29.248  1.00  0.00     0.010 A 
ATOM     13  C   UNL A   1      40.948  27.799  29.666  1.00  0.00    -0.014 A 
BRANCH  13  14
ATOM     14  C   UNL A   1      40.759  28.671  30.853  1.00  0.00     0.031 A 
ATOM     15  C   UNL A   1      41.637  28.558  32.067  1.00  0.00     0.074 A 
ATOM     16  C   UNL A   1      39.808  29.625  30.785  1.00  0.00     0.049 A 
ATOM     17  N   UNL A   1      41.639  29.299  33.146  1.00  0.00    -0.248 NA
ATOM     18  C   UNL A   1      42.635  27.477  32.081  1.00  0.00     0.031 C 
ATOM     19  C   UNL A   1      38.876  29.801  29.663  1.00  0.00     0.029 A 
ATOM     20  N   UNL A   1      39.484  30.642  31.642  1.00  0.00    -0.354 N 
ATOM     21  C   UNL A   1      42.629  28.775  33.970  1.00  0.00     0.074 A 
ATOM     22  C   UNL A   1      43.186  27.632  33.279  1.00  0.00     0.031 C 
ATOM     23  C   UNL A   1      38.135  30.896  29.873  1.00  0.00     0.029 A 
ATOM     24  C   UNL A   1      38.484  31.460  31.170  1.00  0.00     0.049 A 
ATOM     25  H   UNL A   1      39.924  30.775  32.513  1.00  0.00     0.167 HD
ATOM     26  C   UNL A   1      43.038  29.218  35.185  1.00  0.00     0.037 A 
ATOM     27  C   UNL A   1      37.899  32.537  31.724  1.00  0.00     0.037 A 
ATOM     28  C   UNL A   1      42.473  30.361  35.859  1.00  0.00     0.049 A 
ATOM     29  C   UNL A   1      38.376  33.003  33.068  1.00  0.00     0.074 A 
ATOM     30  C   UNL A   1      42.819  30.893  37.090  1.00  0.00     0.029 A 
ATOM     31  N   UNL A   1      41.447  31.153  35.361  1.00  0.00    -0.354 N 
ATOM     32  N   UNL A   1      39.324  32.502  33.823  1.00  0.00    -0.248 NA
ATOM     33  C   UNL A   1      37.705  34.178  33.637  1.00  0.00     0.031 C 
ATOM     34  C   UNL A   1      41.980  31.982  37.351  1.00  0.00     0.029 A 
ATOM     35  C   UNL A   1      41.142  32.161  36.263  1.00  0.00     0.049 A 
ATOM     36  H   UNL A   1      41.002  31.019  34.493  1.00  0.00     0.167 HD
ATOM     37  C   UNL A   1      39.363  33.300  34.959  1.00  0.00     0.074 A 
ATOM     38  C   UNL A   1      38.370  34.340  34.771  1.00  0.00     0.031 C 
ATOM     39  C   UNL A   1      40.141  33.178  36.063  1.00  0.00     0.037 A 
BRANCH  26  40
ATOM     40  C   UNL A   1      44.148  28.469  35.870  1.00  0.00     0.058 A 
ATOM     41  C   UNL A   1      45.495  28.817  35.681  1.00  0.00     0.135 A 
ATOM     42  C   UNL A   1      43.862  27.435  36.777  1.00  0.00     0.135 A 
ATOM     43  F   UNL A   1      45.828  29.787  34.814  1.00  0.00    -0.206 F 
ATOM     44  C   UNL A   1      46.519  28.161  36.358  1.00  0.00     0.059 A 
ATOM     45  C   UNL A   1      44.869  26.779  37.481  1.00  0.00     0.059 A 
ATOM     46  F   UNL A   1      42.593  27.059  36.994  1.00  0.00    -0.206 F 
ATOM     47  C   UNL A   1      46.196  27.145  37.258  1.00  0.00     0.060 A 
BRANCH  47  48
ATOM     48  S   UNL A   1      47.537  26.320  38.142  1.00  0.00     0.124 S 
ATOM     49  O   UNL A   1      47.567  27.073  39.392  1.00  0.00    -0.237 OA
ATOM     50  O   UNL A   1      47.047  24.948  38.241  1.00  0.00    -0.237 OA
ATOM     51  O   UNL A   1      48.690  26.510  37.268  1.00  0.00    -0.744 OA
ENDBRANCH  47  48
ENDBRANCH  26  40
BRANCH  27  52
ATOM     52  C   UNL A   1      36.787  33.221  31.015  1.00  0.00     0.058 A 
ATOM     53  C   UNL A   1      37.022  34.038  29.900  1.00  0.00     0.135 A 
ATOM     54  C   UNL A   1      35.457  33.053  31.433  1.00  0.00     0.135 A 
ATOM     55  F   UNL A   1      38.276  34.230  29.461  1.00  0.00    -0.206 F 
ATOM     56  C   UNL A   1      35.983  34.683  29.239  1.00  0.00     0.059 A 
ATOM     57  C   UNL A   1      34.399  33.660  30.769  1.00  0.00     0.059 A 
ATOM     58  F   UNL A   1      35.177  32.262  32.481  1.00  0.00    -0.206 F 
ATOM     59  C   UNL A   1      34.673  34.487  29.683  1.00  0.00     0.060 A 
BRANCH  59  60
ATOM     60  S   UNL A   1      33.322  35.298  28.801  1.00  0.00     0.124 S 
ATOM     61  O   UNL A   1      32.529  35.824  29.904  1.00  0.00    -0.237 OA
ATOM     62  O   UNL A   1      34.031  36.287  27.993  1.00  0.00    -0.237 OA
ATOM     63  O   UNL A   1      32.713  34.206  28.047  1.00  0.00    -0.744 OA
ENDBRANCH  59  60
ENDBRANCH  27  52
BRANCH  39  64
ATOM     64  C   UNL A   1      39.943  34.204  37.142  1.00  0.00     0.058 A 
ATOM     65  C   UNL A   1      39.098  33.965  38.237  1.00  0.00     0.135 A 
ATOM     66  C   UNL A   1      40.603  35.443  37.078  1.00  0.00     0.135 A 
ATOM     67  F   UNL A   1      38.439  32.800  38.339  1.00  0.00    -0.206 F 
ATOM     68  C   UNL A   1      38.880  34.934  39.209  1.00  0.00     0.059 A 
ATOM     69  C   UNL A   1      40.421  36.415  38.055  1.00  0.00     0.059 A 
ATOM     70  F   UNL A   1      41.429  35.717  36.056  1.00  0.00    -0.206 F 
ATOM     71  C   UNL A   1      39.541  36.158  39.107  1.00  0.00     0.060 A 
BRANCH  71  72
ATOM     72  S   UNL A   1      39.245  37.412  40.371  1.00  0.00     0.124 S 
ATOM     73  O   UNL A   1      38.539  36.640  41.388  1.00  0.00    -0.237 OA
ATOM     74  O   UNL A   1      40.599  37.831  40.720  1.00  0.00    -0.237 OA
ATOM     75  O   UNL A   1      38.446  38.415  39.674  1.00  0.00    -0.744 OA
ENDBRANCH  71  72
ENDBRANCH  39  64
ENDBRANCH  13  14
ENDBRANCH   6   8
ENDBRANCH   3   4
ENDBRANCH   2   3
ENDBRANCH   1   2
BRANCH   1  76
ATOM     76  C   UNL A   1      38.690  23.182  26.485  1.00  0.00     0.002 C 
BRANCH  76  77
ATOM     77  C   UNL A   1      37.691  22.727  25.418  1.00  0.00     0.021 C 
BRANCH  77  78
ATOM     78  C   UNL A   1      36.531  23.697  25.206  1.00  0.00     0.116 C 
BRANCH  78  79
ATOM     79  N   UNL A   1      35.338  23.253  25.882  1.00  0.00    -0.354 N 
ATOM     80  C   UNL A   1      34.034  23.609  25.777  1.00  0.00     0.242 C 
ATOM     81  H   UNL A   1      35.504  22.552  26.553  1.00  0.00     0.163 HD
ATOM     82  O   UNL A   1      33.285  23.022  26.576  1.00  0.00    -0.273 OA
BRANCH  80  83
ATOM     83  C   UNL A   1      33.421  24.597  24.740  1.00  0.00     0.173 C 
ATOM     84  C   UNL A   1      33.566  23.996  23.332  1.00  0.00     0.035 C 
ATOM     85  N   UNL A   1      32.040  25.062  24.971  1.00  0.00    -0.344 N 
ATOM     86  C   UNL A   1      32.475  22.967  23.060  1.00  0.00     0.004 C 
ATOM     87  C   UNL A   1      30.888  24.301  24.494  1.00  0.00     0.119 C 
ATOM     88  C   UNL A   1      31.120  23.653  23.133  1.00  0.00     0.022 C 
BRANCH  85  89
ATOM     89  C   UNL A   1      31.869  26.439  25.094  1.00  0.00     0.133 A 
ATOM     90  C   UNL A   1      32.729  27.161  25.900  1.00  0.00     0.076 A 
ATOM     91  N   UNL A   1      30.911  27.048  24.385  1.00  0.00    -0.211 NA
ATOM     92  C   UNL A   1      32.627  28.537  25.887  1.00  0.00     0.076 A 
ATOM     93  C   UNL A   1      30.843  28.393  24.479  1.00  0.00     0.162 A 
ATOM     94  N   UNL A   1      31.680  29.174  25.181  1.00  0.00    -0.228 NA
BRANCH  92  95
ATOM     95  C   UNL A   1      33.585  29.376  26.618  1.00  0.00     0.000 A 
ATOM     96  C   UNL A   1      34.854  28.891  26.968  1.00  0.00     0.010 A 
ATOM     97  C   UNL A   1      33.262  30.701  26.966  1.00  0.00     0.010 A 
ATOM     98  C   UNL A   1      35.777  29.709  27.625  1.00  0.00     0.001 A 
ATOM     99  C   UNL A   1      34.181  31.517  27.632  1.00  0.00     0.001 A 
ATOM    100  C   UNL A   1      35.441  31.020  27.956  1.00  0.00     0.000 A 
ENDBRANCH  92  95
BRANCH  93 101
ATOM    101  C   UNL A   1      29.761  29.058  23.751  1.00  0.00     0.021 A 
ATOM    102  C   UNL A   1      28.748  28.309  23.127  1.00  0.00     0.012 A 
ATOM    103  C   UNL A   1      29.704  30.459  23.664  1.00  0.00     0.032 A 
ATOM    104  C   UNL A   1      27.707  28.936  22.439  1.00  0.00     0.002 A 
ATOM    105  C   UNL A   1      28.676  31.082  22.957  1.00  0.00     0.041 A 
ATOM    106  C   UNL A   1      27.676  30.327  22.347  1.00  0.00     0.020 A 
ATOM    107  Cl  UNL A   1      28.647  32.798  22.823  1.00  0.00    -0.084 Cl
ENDBRANCH  93 101
ENDBRANCH  85  89
ENDBRANCH  80  83
ENDBRANCH  78  79
ENDBRANCH  77  78
ENDBRANCH  76  77
ENDBRANCH   1  76
TORSDOF 19
ENDMDL
MODEL 2
REMARK VINA RESULT:     -12.2      1.153      3.233
REMARK SMILES O=C(NCCCCCCNC(=O)[C@H]1CCCCN1c1cc(-c2ccccc2)nc(-c2cccc(Cl)c2)n1)c1ccc(-c2c3nc(c(-c4c(F)cc(S(=O)(=O)[O-])cc4F)c4ccc([nH]4)c(-c4c(F)cc(S(=O)(=O)[O-])cc4F)c4nc(c(-c5c(F)cc(S(=O)(=O)[O-])cc5F)c5ccc2[nH]5)C=C4)C=C3)cc1
REMARK SMILES IDX 6 1 5 2 4 3 3 4 1 5 2 6 38 8 39 9 103 10 40 11 102 12 41 13
REMARK SMILES IDX 42 14 43 15 96 16 44 17 101 18 95 19 97 20 45 21 100 22
REMARK SMILES IDX 94 23 93 24 46 26 80 27 59 28 79 29 60 30 63 31 78 32 98 33
REMARK SMILES IDX 61 34 62 35 77 37 99 38 64 39 47 40 48 41 57 42 49 43 50 44
REMARK SMILES IDX 56 45 58 46 51 47 52 48 53 49 54 50 55 51 81 52 82 53 91 54
REMARK SMILES IDX 83 55 84 56 90 57 92 58 85 59 86 60 87 61 88 62 89 63 65 64
REMARK SMILES IDX 66 65 75 66 67 67 68 68 74 69 76 70 69 71 70 72 71 73 72 74
REMARK SMILES IDX 73 75 7 76 8 77 9 78 10 79 11 80 12 82 13 83 14 84 18 85
REMARK SMILES IDX 15 86 17 87 16 88 19 89 20 90 37 91 21 92 29 93 28 94 22 95
REMARK SMILES IDX 23 96 27 97 24 98 26 99 25 100 30 101 31 102 36 103 32 104
REMARK SMILES IDX 34 105 33 106 35 107
REMARK H PARENT 3 7 97 25 63 36 10 81
REMARK Flexibility Score: inf
ROOT
ATOM      1  C   UNL A   1      39.542  22.525  26.407  1.00  0.00     0.002 C 
ENDROOT
BRANCH   1   2
ATOM      2  C   UNL A   1      40.250  22.932  27.700  1.00  0.00     0.021 C 
BRANCH   2   3
ATOM      3  C   UNL A   1      41.671  23.441  27.503  1.00  0.00     0.116 C 
BRANCH   3   4
ATOM      4  N   UNL A   1      41.786  24.298  26.333  1.00  0.00    -0.352 N 
ATOM      5  O   UNL A   1      41.450  26.161  25.109  1.00  0.00    -0.269 OA
ATOM      6  C   UNL A   1      41.513  25.641  26.213  1.00  0.00     0.251 C 
ATOM      7  H   UNL A   1      42.100  23.855  25.513  1.00  0.00     0.163 HD
BRANCH   6   8
ATOM      8  C   UNL A   1      41.291  26.444  27.436  1.00  0.00     0.039 A 
ATOM      9  C   UNL A   1      42.220  27.416  27.809  1.00  0.00     0.014 A 
ATOM     10  C   UNL A   1      40.148  26.227  28.210  1.00  0.00     0.014 A 
ATOM     11  C   UNL A   1      42.083  28.065  29.028  1.00  0.00     0.010 A 
ATOM     12  C   UNL A   1      39.958  26.960  29.387  1.00  0.00     0.010 A 
ATOM     13  C   UNL A   1      40.935  27.871  29.814  1.00  0.00    -0.014 A 
BRANCH  13  14
ATOM     14  C   UNL A   1      40.758  28.720  31.021  1.00  0.00     0.031 A 
ATOM     15  C   UNL A   1      41.674  28.611  32.206  1.00  0.00     0.074 A 
ATOM     16  C   UNL A   1      39.782  29.650  30.994  1.00  0.00     0.049 A 
ATOM     17  N   UNL A   1      41.690  29.335  33.297  1.00  0.00    -0.248 NA
ATOM     18  C   UNL A   1      42.699  27.556  32.175  1.00  0.00     0.031 C 
ATOM     19  C   UNL A   1      38.814  29.820  29.903  1.00  0.00     0.029 A 
ATOM     20  N   UNL A   1      39.458  30.646  31.877  1.00  0.00    -0.354 N 
ATOM     21  C   UNL A   1      42.716  28.824  34.083  1.00  0.00     0.074 A 
ATOM     22  C   UNL A   1      43.281  27.706  33.358  1.00  0.00     0.031 C 
ATOM     23  C   UNL A   1      38.052  30.892  30.152  1.00  0.00     0.029 A 
ATOM     24  C   UNL A   1      38.425  31.444  31.447  1.00  0.00     0.049 A 
ATOM     25  H   UNL A   1      39.920  30.776  32.737  1.00  0.00     0.167 HD
ATOM     26  C   UNL A   1      43.149  29.260  35.292  1.00  0.00     0.037 A 
ATOM     27  C   UNL A   1      37.830  32.498  32.035  1.00  0.00     0.037 A 
ATOM     28  C   UNL A   1      42.576  30.378  36.001  1.00  0.00     0.049 A 
ATOM     29  C   UNL A   1      38.333  32.956  33.371  1.00  0.00     0.074 A 
ATOM     30  C   UNL A   1      42.945  30.899  37.230  1.00  0.00     0.029 A 
ATOM     31  N   UNL A   1      41.516  31.150  35.545  1.00  0.00    -0.354 N 
ATOM     32  N   UNL A   1      39.316  32.468  34.090  1.00  0.00    -0.248 NA
ATOM     33  C   UNL A   1      37.650  34.104  33.978  1.00  0.00     0.031 C 
ATOM     34  C   UNL A   1      42.086  31.962  37.532  1.00  0.00     0.029 A 
ATOM     35  C   UNL A   1      41.213  32.136  36.471  1.00  0.00     0.049 A 
ATOM     36  H   UNL A   1      41.049  31.018  34.688  1.00  0.00     0.167 HD
ATOM     37  C   UNL A   1      39.368  33.249  35.237  1.00  0.00     0.074 A 
ATOM     38  C   UNL A   1      38.344  34.266  35.095  1.00  0.00     0.031 C 
ATOM     39  C   UNL A   1      40.180  33.130  36.316  1.00  0.00     0.037 A 
BRANCH  26  40
ATOM     40  C   UNL A   1      44.298  28.529  35.933  1.00  0.00     0.058 A 
ATOM     41  C   UNL A   1      44.088  27.433  36.785  1.00  0.00     0.135 A 
ATOM     42  C   UNL A   1      45.625  28.883  35.640  1.00  0.00     0.135 A 
ATOM     43  F   UNL A   1      42.841  27.060  37.113  1.00  0.00    -0.206 F 
ATOM     44  C   UNL A   1      45.152  26.722  37.333  1.00  0.00     0.059 A 
ATOM     45  C   UNL A   1      46.705  28.173  36.159  1.00  0.00     0.059 A 
ATOM     46  F   UNL A   1      45.885  29.924  34.833  1.00  0.00    -0.206 F 
ATOM     47  C   UNL A   1      46.457  27.098  37.012  1.00  0.00     0.060 A 
BRANCH  47  48
ATOM     48  S   UNL A   1      47.823  26.150  37.716  1.00  0.00     0.124 S 
ATOM     49  O   UNL A   1      48.908  27.124  37.666  1.00  0.00    -0.237 OA
ATOM     50  O   UNL A   1      47.323  25.826  39.049  1.00  0.00    -0.237 OA
ATOM     51  O   UNL A   1      47.956  25.016  36.807  1.00  0.00    -0.744 OA
ENDBRANCH  47  48
ENDBRANCH  26  40
BRANCH  27  52
ATOM     52  C   UNL A   1      36.680  33.163  31.369  1.00  0.00     0.058 A 
ATOM     53  C   UNL A   1      35.364  32.961  31.805  1.00  0.00     0.135 A 
ATOM     54  C   UNL A   1      36.884  34.034  30.286  1.00  0.00     0.135 A 
ATOM     55  F   UNL A   1      35.117  32.138  32.837  1.00  0.00    -0.206 F 
ATOM     56  C   UNL A   1      34.286  33.579  31.179  1.00  0.00     0.059 A 
ATOM     57  C   UNL A   1      35.827  34.689  29.665  1.00  0.00     0.059 A 
ATOM     58  F   UNL A   1      38.128  34.280  29.845  1.00  0.00    -0.206 F 
ATOM     59  C   UNL A   1      34.530  34.441  30.107  1.00  0.00     0.060 A 
BRANCH  59  60
ATOM     60  S   UNL A   1      33.133  35.270  29.319  1.00  0.00     0.124 S 
ATOM     61  O   UNL A   1      33.787  36.417  28.701  1.00  0.00    -0.237 OA
ATOM     62  O   UNL A   1      32.643  34.243  28.403  1.00  0.00    -0.237 OA
ATOM     63  O   UNL A   1      32.248  35.571  30.439  1.00  0.00    -0.744 OA
ENDBRANCH  59  60
ENDBRANCH  27  52
BRANCH  39  64
ATOM     64  C   UNL A   1      39.989  34.135  37.417  1.00  0.00     0.058 A 
ATOM     65  C   UNL A   1      40.709  35.340  37.444  1.00  0.00     0.135 A 
ATOM     66  C   UNL A   1      39.079  33.888  38.458  1.00  0.00     0.135 A 
ATOM     67  F   UNL A   1      41.597  35.618  36.476  1.00  0.00    -0.206 F 
ATOM     68  C   UNL A   1      40.565  36.247  38.487  1.00  0.00     0.059 A 
ATOM     69  C   UNL A   1      38.899  34.795  39.497  1.00  0.00     0.059 A 
ATOM     70  F   UNL A   1      38.360  32.755  38.474  1.00  0.00    -0.206 F 
ATOM     71  C   UNL A   1      39.662  35.963  39.513  1.00  0.00     0.060 A 
BRANCH  71  72
ATOM     72  S   UNL A   1      39.489  37.143  40.867  1.00  0.00     0.124 S 
ATOM     73  O   UNL A   1      40.881  37.490  41.132  1.00  0.00    -0.237 OA
ATOM     74  O   UNL A   1      38.677  38.196  40.263  1.00  0.00    -0.237 OA
ATOM     75  O   UNL A   1      38.825  36.368  41.910  1.00  0.00    -0.744 OA
ENDBRANCH  71  72
ENDBRANCH  39  64
ENDBRANCH  13  14
ENDBRANCH   6   8
ENDBRANCH   3   4
ENDBRANCH   2   3
ENDBRANCH   1   2
BRANCH   1  76
ATOM     76  C   UNL A   1      38.219  23.252  26.130  1.00  0.00     0.002 C 
BRANCH  76  77
ATOM     77  C   UNL A   1      37.357  22.634  25.026  1.00  0.00     0.021 C 
BRANCH  77  78
ATOM     78  C   UNL A   1      36.167  23.499  24.616  1.00  0.00     0.116 C 
BRANCH  78  79
ATOM     79  N   UNL A   1      35.064  23.351  25.531  1.00  0.00    -0.354 N 
ATOM     80  C   UNL A   1      33.832  23.915  25.587  1.00  0.00     0.242 C 
ATOM     81  H   UNL A   1      35.240  22.714  26.260  1.00  0.00     0.163 HD
ATOM     82  O   UNL A   1      33.161  23.565  26.572  1.00  0.00    -0.273 OA
BRANCH  80  83
ATOM     83  C   UNL A   1      33.199  24.869  24.531  1.00  0.00     0.173 C 
ATOM     84  C   UNL A   1      33.133  24.142  23.177  1.00  0.00     0.035 C 
ATOM     85  N   UNL A   1      31.899  25.486  24.858  1.00  0.00    -0.344 N 
ATOM     86  C   UNL A   1      31.931  23.207  23.116  1.00  0.00     0.004 C 
ATOM     87  C   UNL A   1      30.638  24.806  24.574  1.00  0.00     0.119 C 
ATOM     88  C   UNL A   1      30.658  24.027  23.263  1.00  0.00     0.022 C 
BRANCH  85  89
ATOM     89  C   UNL A   1      31.866  26.879  24.868  1.00  0.00     0.133 A 
ATOM     90  C   UNL A   1      30.903  27.541  24.129  1.00  0.00     0.076 A 
ATOM     91  N   UNL A   1      32.730  27.552  25.637  1.00  0.00    -0.211 NA
ATOM     92  C   UNL A   1      30.802  28.909  24.274  1.00  0.00     0.076 A 
ATOM     93  C   UNL A   1      32.599  28.895  25.672  1.00  0.00     0.162 A 
ATOM     94  N   UNL A   1      31.651  29.608  25.043  1.00  0.00    -0.228 NA
BRANCH  92  95
ATOM     95  C   UNL A   1      29.726  29.664  23.621  1.00  0.00     0.000 A 
ATOM     96  C   UNL A   1      28.912  29.069  22.645  1.00  0.00     0.010 A 
ATOM     97  C   UNL A   1      29.467  31.001  23.975  1.00  0.00     0.010 A 
ATOM     98  C   UNL A   1      27.861  29.780  22.058  1.00  0.00     0.001 A 
ATOM     99  C   UNL A   1      28.422  31.716  23.381  1.00  0.00     0.001 A 
ATOM    100  C   UNL A   1      27.617  31.102  22.427  1.00  0.00     0.000 A 
ENDBRANCH  92  95
BRANCH  93 101
ATOM    101  C   UNL A   1      33.577  29.640  26.467  1.00  0.00     0.021 A 
ATOM    102  C   UNL A   1      33.194  30.784  27.190  1.00  0.00     0.012 A 
ATOM    103  C   UNL A   1      34.919  29.228  26.533  1.00  0.00     0.032 A 
ATOM    104  C   UNL A   1      34.119  31.495  27.958  1.00  0.00     0.002 A 
ATOM    105  C   UNL A   1      35.844  29.954  27.282  1.00  0.00     0.041 A 
ATOM    106  C   UNL A   1      35.449  31.083  27.997  1.00  0.00     0.020 A 
ATOM    107  Cl  UNL A   1      37.494  29.460  27.315  1.00  0.00    -0.084 Cl
ENDBRANCH  93 101
ENDBRANCH  85  89
ENDBRANCH  80  83
ENDBRANCH  78  79
ENDBRANCH  77  78
ENDBRANCH  76  77
ENDBRANCH   1  76
TORSDOF 19
ENDMDL
MODEL 3
REMARK VINA RESULT:     -12.2      3.122      9.299
REMARK SMILES O=C(NCCCCCCNC(=O)[C@H]1CCCCN1c1cc(-c2ccccc2)nc(-c2cccc(Cl)c2)n1)c1ccc(-c2c3nc(c(-c4c(F)cc(S(=O)(=O)[O-])cc4F)c4ccc([nH]4)c(-c4c(F)cc(S(=O)(=O)[O-])cc4F)c4nc(c(-c5c(F)cc(S(=O)(=O)[O-])cc5F)c5ccc2[nH]5)C=C4)C=C3)cc1
REMARK SMILES IDX 6 1 5 2 4 3 3 4 1 5 2 6 38 8 39 9 103 10 40 11 102 12 41 13
REMARK SMILES IDX 42 14 43 15 96 16 44 17 101 18 95 19 97 20 45 21 100 22
REMARK SMILES IDX 94 23 93 24 46 26 80 27 59 28 79 29 60 30 63 31 78 32 98 33
REMARK SMILES IDX 61 34 62 35 77 37 99 38 64 39 47 40 48 41 57 42 49 43 50 44
REMARK SMILES IDX 56 45 58 46 51 47 52 48 53 49 54 50 55 51 81 52 82 53 91 54
REMARK SMILES IDX 83 55 84 56 90 57 92 58 85 59 86 60 87 61 88 62 89 63 65 64
REMARK SMILES IDX 66 65 75 66 67 67 68 68 74 69 76 70 69 71 70 72 71 73 72 74
REMARK SMILES IDX 73 75 7 76 8 77 9 78 10 79 11 80 12 82 13 83 14 84 18 85
REMARK SMILES IDX 15 86 17 87 16 88 19 89 20 90 37 91 21 92 29 93 28 94 22 95
REMARK SMILES IDX 23 96 27 97 24 98 26 99 25 100 30 101 31 102 36 103 32 104
REMARK SMILES IDX 34 105 33 106 35 107
REMARK H PARENT 3 7 97 25 63 36 10 81
REMARK Flexibility Score: inf
ROOT
ATOM      1  C   UNL A   1      31.796  30.624  26.360  1.00  0.00     0.002 C 
ENDROOT
BRANCH   1   2
ATOM      2  C   UNL A   1      32.701  31.016  27.529  1.00  0.00     0.021 C 
BRANCH   2   3
ATOM      3  C   UNL A   1      33.596  32.216  27.254  1.00  0.00     0.116 C 
BRANCH   3   4
ATOM      4  N   UNL A   1      33.079  33.432  27.861  1.00  0.00    -0.352 N 
ATOM      5  O   UNL A   1      32.774  34.938  29.511  1.00  0.00    -0.269 OA
ATOM      6  C   UNL A   1      33.459  34.046  29.033  1.00  0.00     0.251 C 
ATOM      7  H   UNL A   1      32.354  33.877  27.366  1.00  0.00     0.163 HD
BRANCH   6   8
ATOM      8  C   UNL A   1      34.702  33.607  29.706  1.00  0.00     0.039 A 
ATOM      9  C   UNL A   1      34.654  32.598  30.667  1.00  0.00     0.014 A 
ATOM     10  C   UNL A   1      35.920  34.203  29.370  1.00  0.00     0.014 A 
ATOM     11  C   UNL A   1      35.792  32.289  31.397  1.00  0.00     0.010 A 
ATOM     12  C   UNL A   1      37.089  33.814  30.034  1.00  0.00     0.010 A 
ATOM     13  C   UNL A   1      37.030  32.867  31.066  1.00  0.00    -0.014 A 
BRANCH  13  14
ATOM     14  C   UNL A   1      38.244  32.371  31.763  1.00  0.00     0.031 A 
ATOM     15  C   UNL A   1      38.582  32.795  33.164  1.00  0.00     0.074 A 
ATOM     16  C   UNL A   1      39.010  31.466  31.120  1.00  0.00     0.049 A 
ATOM     17  N   UNL A   1      39.566  32.390  33.926  1.00  0.00    -0.248 NA
ATOM     18  C   UNL A   1      37.717  33.805  33.792  1.00  0.00     0.031 C 
ATOM     19  C   UNL A   1      38.789  31.009  29.742  1.00  0.00     0.029 A 
ATOM     20  N   UNL A   1      40.096  30.743  31.535  1.00  0.00    -0.354 N 
ATOM     21  C   UNL A   1      39.444  33.094  35.118  1.00  0.00     0.074 A 
ATOM     22  C   UNL A   1      38.309  33.978  34.968  1.00  0.00     0.031 C 
ATOM     23  C   UNL A   1      39.667  30.041  29.452  1.00  0.00     0.029 A 
ATOM     24  C   UNL A   1      40.557  29.856  30.591  1.00  0.00     0.049 A 
ATOM     25  H   UNL A   1      40.507  30.848  32.423  1.00  0.00     0.167 HD
ATOM     26  C   UNL A   1      40.207  32.999  36.236  1.00  0.00     0.037 A 
ATOM     27  C   UNL A   1      41.591  28.997  30.627  1.00  0.00     0.037 A 
ATOM     28  C   UNL A   1      41.335  32.110  36.371  1.00  0.00     0.049 A 
ATOM     29  C   UNL A   1      42.414  28.914  31.878  1.00  0.00     0.074 A 
ATOM     30  C   UNL A   1      42.170  31.937  37.463  1.00  0.00     0.029 A 
ATOM     31  N   UNL A   1      41.787  31.242  35.386  1.00  0.00    -0.354 N 
ATOM     32  N   UNL A   1      42.272  29.579  33.001  1.00  0.00    -0.248 NA
ATOM     33  C   UNL A   1      43.536  27.969  31.871  1.00  0.00     0.031 C 
ATOM     34  C   UNL A   1      43.146  30.992  37.125  1.00  0.00     0.029 A 
ATOM     35  C   UNL A   1      42.892  30.540  35.841  1.00  0.00     0.049 A 
ATOM     36  H   UNL A   1      41.380  31.139  34.495  1.00  0.00     0.167 HD
ATOM     37  C   UNL A   1      43.290  29.133  33.834  1.00  0.00     0.074 A 
ATOM     38  C   UNL A   1      44.012  28.114  33.099  1.00  0.00     0.031 C 
ATOM     39  C   UNL A   1      43.605  29.538  35.089  1.00  0.00     0.037 A 
BRANCH  26  40
ATOM     40  C   UNL A   1      39.853  33.877  37.406  1.00  0.00     0.058 A 
ATOM     41  C   UNL A   1      39.006  33.428  38.431  1.00  0.00     0.135 A 
ATOM     42  C   UNL A   1      40.419  35.156  37.539  1.00  0.00     0.135 A 
ATOM     43  F   UNL A   1      38.424  32.221  38.349  1.00  0.00    -0.206 F 
ATOM     44  C   UNL A   1      38.724  34.219  39.541  1.00  0.00     0.059 A 
ATOM     45  C   UNL A   1      40.168  35.956  38.651  1.00  0.00     0.059 A 
ATOM     46  F   UNL A   1      41.234  35.637  36.588  1.00  0.00    -0.206 F 
ATOM     47  C   UNL A   1      39.311  35.481  39.644  1.00  0.00     0.060 A 
BRANCH  47  48
ATOM     48  S   UNL A   1      38.949  36.483  41.101  1.00  0.00     0.124 S 
ATOM     49  O   UNL A   1      37.859  35.727  41.709  1.00  0.00    -0.237 OA
ATOM     50  O   UNL A   1      40.218  36.455  41.822  1.00  0.00    -0.237 OA
ATOM     51  O   UNL A   1      38.577  37.779  40.541  1.00  0.00    -0.744 OA
ENDBRANCH  47  48
ENDBRANCH  26  40
BRANCH  27  52
ATOM     52  C   UNL A   1      41.912  28.175  29.432  1.00  0.00     0.058 A 
ATOM     53  C   UNL A   1      41.136  27.063  29.078  1.00  0.00     0.135 A 
ATOM     54  C   UNL A   1      43.001  28.502  28.606  1.00  0.00     0.135 A 
ATOM     55  F   UNL A   1      40.085  26.710  29.835  1.00  0.00    -0.206 F 
ATOM     56  C   UNL A   1      41.438  26.289  27.962  1.00  0.00     0.059 A 
ATOM     57  C   UNL A   1      43.304  27.765  27.469  1.00  0.00     0.059 A 
ATOM     58  F   UNL A   1      43.761  29.572  28.888  1.00  0.00    -0.206 F 
ATOM     59  C   UNL A   1      42.527  26.650  27.164  1.00  0.00     0.060 A 
BRANCH  59  60
ATOM     60  S   UNL A   1      42.896  25.665  25.696  1.00  0.00     0.124 S 
ATOM     61  O   UNL A   1      43.115  24.347  26.279  1.00  0.00    -0.237 OA
ATOM     62  O   UNL A   1      41.678  25.821  24.906  1.00  0.00    -0.237 OA
ATOM     63  O   UNL A   1      44.078  26.318  25.144  1.00  0.00    -0.744 OA
ENDBRANCH  59  60
ENDBRANCH  27  52
BRANCH  39  64
ATOM     64  C   UNL A   1      44.781  28.864  35.737  1.00  0.00     0.058 A 
ATOM     65  C   UNL A   1      46.086  29.359  35.587  1.00  0.00     0.135 A 
ATOM     66  C   UNL A   1      44.601  27.708  36.514  1.00  0.00     0.135 A 
ATOM     67  F   UNL A   1      46.310  30.457  34.847  1.00  0.00    -0.206 F 
ATOM     68  C   UNL A   1      47.178  28.708  36.149  1.00  0.00     0.059 A 
ATOM     69  C   UNL A   1      45.677  27.057  37.109  1.00  0.00     0.059 A 
ATOM     70  F   UNL A   1      43.373  27.200  36.697  1.00  0.00    -0.206 F 
ATOM     71  C   UNL A   1      46.964  27.554  36.903  1.00  0.00     0.060 A 
BRANCH  71  72
ATOM     72  S   UNL A   1      48.389  26.711  37.621  1.00  0.00     0.124 S 
ATOM     73  O   UNL A   1      47.944  26.505  38.995  1.00  0.00    -0.237 OA
ATOM     74  O   UNL A   1      48.490  25.509  36.800  1.00  0.00    -0.237 OA
ATOM     75  O   UNL A   1      49.474  27.673  37.449  1.00  0.00    -0.744 OA
ENDBRANCH  71  72
ENDBRANCH  39  64
ENDBRANCH  13  14
ENDBRANCH   6   8
ENDBRANCH   3   4
ENDBRANCH   2   3
ENDBRANCH   1   2
BRANCH   1  76
ATOM     76  C   UNL A   1      32.060  29.235  25.765  1.00  0.00     0.002 C 
BRANCH  76  77
ATOM     77  C   UNL A   1      32.684  29.234  24.367  1.00  0.00     0.021 C 
BRANCH  77  78
ATOM     78  C   UNL A   1      33.885  28.303  24.228  1.00  0.00     0.116 C 
BRANCH  78  79
ATOM     79  N   UNL A   1      33.831  27.549  23.001  1.00  0.00    -0.354 N 
ATOM     80  C   UNL A   1      33.636  26.233  22.737  1.00  0.00     0.242 C 
ATOM     81  H   UNL A   1      33.961  28.098  22.195  1.00  0.00     0.163 HD
ATOM     82  O   UNL A   1      33.703  25.945  21.530  1.00  0.00    -0.273 OA
BRANCH  80  83
ATOM     83  C   UNL A   1      33.288  25.120  23.770  1.00  0.00     0.173 C 
ATOM     84  C   UNL A   1      32.052  25.556  24.575  1.00  0.00     0.035 C 
ATOM     85  N   UNL A   1      33.125  23.743  23.264  1.00  0.00    -0.344 N 
ATOM     86  C   UNL A   1      30.770  25.293  23.795  1.00  0.00     0.004 C 
ATOM     87  C   UNL A   1      31.843  23.265  22.752  1.00  0.00     0.119 C 
ATOM     88  C   UNL A   1      30.647  23.800  23.532  1.00  0.00     0.022 C 
BRANCH  85  89
ATOM     89  C   UNL A   1      33.973  22.783  23.813  1.00  0.00     0.133 A 
ATOM     90  C   UNL A   1      35.216  23.165  24.282  1.00  0.00     0.076 A 
ATOM     91  N   UNL A   1      33.548  21.520  23.928  1.00  0.00    -0.211 NA
ATOM     92  C   UNL A   1      35.973  22.224  24.950  1.00  0.00     0.076 A 
ATOM     93  C   UNL A   1      34.378  20.650  24.541  1.00  0.00     0.162 A 
ATOM     94  N   UNL A   1      35.568  20.952  25.086  1.00  0.00    -0.228 NA
BRANCH  92  95
ATOM     95  C   UNL A   1      37.245  22.586  25.586  1.00  0.00     0.000 A 
ATOM     96  C   UNL A   1      38.289  21.656  25.699  1.00  0.00     0.010 A 
ATOM     97  C   UNL A   1      37.460  23.887  26.078  1.00  0.00     0.010 A 
ATOM     98  C   UNL A   1      39.514  22.019  26.266  1.00  0.00     0.001 A 
ATOM     99  C   UNL A   1      38.681  24.248  26.655  1.00  0.00     0.001 A 
ATOM    100  C   UNL A   1      39.709  23.314  26.743  1.00  0.00     0.000 A 
ENDBRANCH  92  95
BRANCH  93 101
ATOM    101  C   UNL A   1      33.943  19.255  24.619  1.00  0.00     0.021 A 
ATOM    102  C   UNL A   1      32.584  18.917  24.484  1.00  0.00     0.012 A 
ATOM    103  C   UNL A   1      34.870  18.218  24.822  1.00  0.00     0.032 A 
ATOM    104  C   UNL A   1      32.162  17.587  24.547  1.00  0.00     0.002 A 
ATOM    105  C   UNL A   1      34.442  16.894  24.907  1.00  0.00     0.041 A 
ATOM    106  C   UNL A   1      33.093  16.574  24.768  1.00  0.00     0.020 A 
ATOM    107  Cl  UNL A   1      35.587  15.642  25.202  1.00  0.00    -0.084 Cl
ENDBRANCH  93 101
ENDBRANCH  85  89
ENDBRANCH  80  83
ENDBRANCH  78  79
ENDBRANCH  77  78
ENDBRANCH  76  77
ENDBRANCH   1  76
TORSDOF 19
ENDMDL
