MODEL 1
REMARK VINA RESULT:     -13.2      0.000      0.000
REMARK SMILES Cc1cccc(-n2c(C)cc(/C=N\c3ccc(O)c(C(=O)NCCCCCCNC(=O)c4ccc(-c5c6nc(c(-c7c(F)cc(S(=O)(=O)[O-])cc7F)c7ccc([nH]7)c(-c7c(F)cc(S(=O)(=O)[O-])cc7F)c7nc(c(-c8c(F)cc(S(=O)(=O)[O-])cc8F)c8ccc5[nH]8)C=C7)C=C6)cc4)c3)c2C)c1
REMARK SMILES IDX 25 1 24 2 23 3 22 4 20 5 21 6 19 8 14 9 15 10 98 11 16 12
REMARK SMILES IDX 17 13 13 14 12 15 11 16 7 17 8 18 99 19 9 20 10 21 100 22
REMARK SMILES IDX 6 23 1 24 2 25 3 26 101 27 4 28 5 29 18 30 26 32 27 33 28 34
REMARK SMILES IDX 29 35 30 36 31 38 32 39 33 40 97 41 34 42 96 43 35 44 36 45
REMARK SMILES IDX 37 46 90 47 38 48 95 49 89 50 91 51 39 52 94 53 88 54 87 55
REMARK SMILES IDX 40 57 74 58 53 59 73 60 54 61 57 62 72 63 92 64 55 65 56 66
REMARK SMILES IDX 71 68 93 69 58 70 41 71 42 72 51 73 43 74 44 75 50 76 52 77
REMARK SMILES IDX 45 78 46 79 47 80 48 81 49 82 75 83 76 84 85 85 77 86 78 87
REMARK SMILES IDX 84 88 86 89 79 90 80 91 81 92 82 93 83 94 59 95 60 96 69 97
REMARK SMILES IDX 61 98 62 99 68 100 70 101 63 102 64 103 65 104 66 105 67 106
REMARK H PARENT 22 7 18 31 29 37 91 56 57 67
REMARK Flexibility Score: inf
ROOT
ATOM      1  C   UNL A   1      33.961  24.510  26.401  1.00  0.00     0.002 C 
ENDROOT
BRANCH   1   2
ATOM      2  C   UNL A   1      33.359  23.340  27.187  1.00  0.00     0.021 C 
BRANCH   2   3
ATOM      3  C   UNL A   1      31.913  22.924  26.936  1.00  0.00     0.116 C 
BRANCH   3   4
ATOM      4  N   UNL A   1      31.710  21.646  26.290  1.00  0.00    -0.352 N 
ATOM      5  C   UNL A   1      32.370  21.031  25.249  1.00  0.00     0.255 C 
ATOM      6  O   UNL A   1      32.009  19.884  24.971  1.00  0.00    -0.269 OA
ATOM      7  H   UNL A   1      30.964  21.121  26.660  1.00  0.00     0.163 HD
BRANCH   5   8
ATOM      8  C   UNL A   1      33.471  21.645  24.432  1.00  0.00     0.083 A 
ATOM      9  C   UNL A   1      33.963  23.136  22.537  1.00  0.00     0.064 A 
ATOM     10  C   UNL A   1      35.326  22.928  22.714  1.00  0.00     0.032 A 
ATOM     11  C   UNL A   1      33.064  22.596  23.472  1.00  0.00     0.046 A 
ATOM     12  C   UNL A   1      35.759  21.997  23.651  1.00  0.00     0.049 A 
ATOM     13  C   UNL A   1      34.824  21.289  24.414  1.00  0.00     0.128 A 
BRANCH   9  14
ATOM     14  N   UNL A   1      33.458  23.841  21.441  1.00  0.00    -0.256 NA
ATOM     15  C   UNL A   1      32.820  24.971  21.556  1.00  0.00     0.121 C 
BRANCH  15  16
ATOM     16  C   UNL A   1      32.472  25.766  22.737  1.00  0.00     0.014 A 
ATOM     17  N   UNL A   1      32.354  27.279  24.416  1.00  0.00    -0.318 N 
ATOM     18  C   UNL A   1      31.411  26.299  24.687  1.00  0.00     0.021 A 
ATOM     19  C   UNL A   1      32.851  27.053  23.127  1.00  0.00     0.029 A 
ATOM     20  C   UNL A   1      30.453  26.368  25.827  1.00  0.00     0.065 C 
ATOM     21  C   UNL A   1      31.503  25.346  23.695  1.00  0.00     0.033 A 
ATOM     22  C   UNL A   1      33.698  28.052  22.421  1.00  0.00     0.065 C 
BRANCH  17  23
ATOM     23  C   UNL A   1      32.784  28.285  25.333  1.00  0.00     0.046 A 
ATOM     24  C   UNL A   1      31.541  31.671  26.584  1.00  0.00     0.044 C 
ATOM     25  C   UNL A   1      32.364  30.428  26.410  1.00  0.00    -0.049 A 
ATOM     26  C   UNL A   1      33.442  30.187  27.273  1.00  0.00     0.003 A 
ATOM     27  C   UNL A   1      32.041  29.472  25.436  1.00  0.00     0.030 A 
ATOM     28  C   UNL A   1      34.201  29.025  27.146  1.00  0.00     0.002 A 
ATOM     29  C   UNL A   1      33.880  28.079  26.173  1.00  0.00     0.026 A 
ENDBRANCH  17  23
ENDBRANCH  15  16
ENDBRANCH   9  14
BRANCH  13  30
ATOM     30  O   UNL A   1      35.321  20.137  24.951  1.00  0.00    -0.507 OA
ATOM     31  H   UNL A   1      36.086  20.164  25.493  1.00  0.00     0.293 HD
ENDBRANCH  13  30
ENDBRANCH   5   8
ENDBRANCH   3   4
ENDBRANCH   2   3
ENDBRANCH   1   2
BRANCH   1  32
ATOM     32  C   UNL A   1      35.425  24.481  25.941  1.00  0.00     0.002 C 
BRANCH  32  33
ATOM     33  C   UNL A   1      36.424  23.596  26.683  1.00  0.00     0.021 C 
BRANCH  33  34
ATOM     34  C   UNL A   1      37.831  23.525  26.107  1.00  0.00     0.116 C 
BRANCH  34  35
ATOM     35  N   UNL A   1      38.853  23.121  27.055  1.00  0.00    -0.352 N 
ATOM     36  C   UNL A   1      39.856  23.943  27.543  1.00  0.00     0.251 C 
ATOM     37  H   UNL A   1      38.832  22.191  27.376  1.00  0.00     0.163 HD
ATOM     38  O   UNL A   1      40.955  23.523  27.892  1.00  0.00    -0.269 OA
BRANCH  36  39
ATOM     39  C   UNL A   1      39.478  25.351  27.788  1.00  0.00     0.039 A 
ATOM     40  C   UNL A   1      39.956  26.310  26.888  1.00  0.00     0.014 A 
ATOM     41  C   UNL A   1      38.904  25.728  29.000  1.00  0.00     0.014 A 
ATOM     42  C   UNL A   1      40.011  27.648  27.274  1.00  0.00     0.010 A 
ATOM     43  C   UNL A   1      39.026  27.043  29.408  1.00  0.00     0.010 A 
ATOM     44  C   UNL A   1      39.623  27.996  28.566  1.00  0.00    -0.014 A 
BRANCH  44  45
ATOM     45  C   UNL A   1      39.886  29.298  29.172  1.00  0.00     0.031 A 
ATOM     46  C   UNL A   1      38.914  30.408  29.037  1.00  0.00     0.074 A 
ATOM     47  C   UNL A   1      40.961  29.456  29.977  1.00  0.00     0.049 A 
ATOM     48  N   UNL A   1      39.156  31.630  29.383  1.00  0.00    -0.248 NA
ATOM     49  C   UNL A   1      37.597  30.246  28.418  1.00  0.00     0.031 C 
ATOM     50  C   UNL A   1      41.150  30.479  31.003  1.00  0.00     0.029 A 
ATOM     51  N   UNL A   1      42.212  28.847  29.867  1.00  0.00    -0.354 N 
ATOM     52  C   UNL A   1      37.961  32.306  29.362  1.00  0.00     0.074 A 
ATOM     53  C   UNL A   1      37.069  31.461  28.612  1.00  0.00     0.031 C 
ATOM     54  C   UNL A   1      42.456  30.596  31.273  1.00  0.00     0.029 A 
ATOM     55  C   UNL A   1      43.171  29.779  30.310  1.00  0.00     0.049 A 
ATOM     56  H   UNL A   1      42.390  27.936  29.539  1.00  0.00     0.167 HD
ATOM     57  C   UNL A   1      37.819  33.421  30.130  1.00  0.00     0.037 A 
ATOM     58  C   UNL A   1      44.147  30.249  29.476  1.00  0.00     0.037 A 
ATOM     59  C   UNL A   1      39.117  33.946  30.556  1.00  0.00     0.049 A 
ATOM     60  C   UNL A   1      44.118  31.744  29.246  1.00  0.00     0.074 A 
ATOM     61  C   UNL A   1      39.773  34.024  31.770  1.00  0.00     0.029 A 
ATOM     62  N   UNL A   1      40.046  34.314  29.583  1.00  0.00    -0.354 N 
ATOM     63  N   UNL A   1      43.134  32.522  29.605  1.00  0.00    -0.248 NA
ATOM     64  C   UNL A   1      45.180  32.478  28.560  1.00  0.00     0.031 C 
ATOM     65  C   UNL A   1      41.139  34.323  31.506  1.00  0.00     0.029 A 
ATOM     66  C   UNL A   1      41.297  34.482  30.139  1.00  0.00     0.049 A 
ATOM     67  H   UNL A   1      39.837  34.436  28.629  1.00  0.00     0.167 HD
ATOM     68  C   UNL A   1      43.366  33.795  29.156  1.00  0.00     0.074 A 
ATOM     69  C   UNL A   1      44.684  33.727  28.552  1.00  0.00     0.031 C 
ATOM     70  C   UNL A   1      42.443  34.793  29.291  1.00  0.00     0.037 A 
BRANCH  57  71
ATOM     71  C   UNL A   1      36.491  33.926  30.669  1.00  0.00     0.058 A 
ATOM     72  C   UNL A   1      35.535  34.499  29.800  1.00  0.00     0.135 A 
ATOM     73  C   UNL A   1      36.163  34.020  32.042  1.00  0.00     0.135 A 
ATOM     74  F   UNL A   1      35.728  34.507  28.473  1.00  0.00    -0.206 F 
ATOM     75  C   UNL A   1      34.362  35.118  30.257  1.00  0.00     0.059 A 
ATOM     76  C   UNL A   1      34.976  34.579  32.515  1.00  0.00     0.059 A 
ATOM     77  F   UNL A   1      37.008  33.644  33.008  1.00  0.00    -0.206 F 
ATOM     78  C   UNL A   1      34.091  35.155  31.619  1.00  0.00     0.060 A 
BRANCH  78  79
ATOM     79  S   UNL A   1      32.608  35.978  32.228  1.00  0.00     0.124 S 
ATOM     80  O   UNL A   1      32.127  36.654  31.028  1.00  0.00    -0.237 OA
ATOM     81  O   UNL A   1      31.794  34.863  32.702  1.00  0.00    -0.237 OA
ATOM     82  O   UNL A   1      33.118  36.859  33.277  1.00  0.00    -0.744 OA
ENDBRANCH  78  79
ENDBRANCH  57  71
BRANCH  58  83
ATOM     83  C   UNL A   1      44.612  29.229  28.497  1.00  0.00     0.058 A 
ATOM     84  C   UNL A   1      45.588  28.315  28.939  1.00  0.00     0.135 A 
ATOM     85  C   UNL A   1      43.811  28.853  27.411  1.00  0.00     0.135 A 
ATOM     86  F   UNL A   1      46.401  28.641  29.958  1.00  0.00    -0.206 F 
ATOM     87  C   UNL A   1      45.631  27.010  28.461  1.00  0.00     0.059 A 
ATOM     88  C   UNL A   1      43.847  27.552  26.907  1.00  0.00     0.059 A 
ATOM     89  F   UNL A   1      42.875  29.690  26.939  1.00  0.00    -0.206 F 
ATOM     90  C   UNL A   1      44.700  26.619  27.503  1.00  0.00     0.060 A 
BRANCH  90  91
ATOM     91  S   UNL A   1      44.498  24.848  27.196  1.00  0.00     0.124 S 
ATOM     92  O   UNL A   1      43.983  24.370  28.475  1.00  0.00    -0.237 OA
ATOM     93  O   UNL A   1      43.541  24.845  26.091  1.00  0.00    -0.237 OA
ATOM     94  O   UNL A   1      45.847  24.410  26.858  1.00  0.00    -0.744 OA
ENDBRANCH  90  91
ENDBRANCH  58  83
BRANCH  70  95
ATOM     95  C   UNL A   1      42.554  36.168  28.675  1.00  0.00     0.058 A 
ATOM     96  C   UNL A   1      41.949  36.539  27.461  1.00  0.00     0.135 A 
ATOM     97  C   UNL A   1      43.193  37.213  29.383  1.00  0.00     0.135 A 
ATOM     98  F   UNL A   1      41.218  35.664  26.754  1.00  0.00    -0.206 F 
ATOM     99  C   UNL A   1      42.034  37.834  26.945  1.00  0.00     0.059 A 
ATOM    100  C   UNL A   1      43.246  38.524  28.911  1.00  0.00     0.059 A 
ATOM    101  F   UNL A   1      43.787  36.990  30.565  1.00  0.00    -0.206 F 
ATOM    102  C   UNL A   1      42.689  38.821  27.675  1.00  0.00     0.060 A 
BRANCH 102 103
ATOM    103  S   UNL A   1      42.770  40.511  27.049  1.00  0.00     0.124 S 
ATOM    104  O   UNL A   1      41.355  40.838  26.905  1.00  0.00    -0.237 OA
ATOM    105  O   UNL A   1      43.474  41.224  28.111  1.00  0.00    -0.237 OA
ATOM    106  O   UNL A   1      43.517  40.364  25.804  1.00  0.00    -0.744 OA
ENDBRANCH 102 103
ENDBRANCH  70  95
ENDBRANCH  44  45
ENDBRANCH  36  39
ENDBRANCH  34  35
ENDBRANCH  33  34
ENDBRANCH  32  33
ENDBRANCH   1  32
TORSDOF 20
ENDMDL
MODEL 2
REMARK VINA RESULT:     -12.6      3.865     10.133
REMARK SMILES Cc1cccc(-n2c(C)cc(/C=N\c3ccc(O)c(C(=O)NCCCCCCNC(=O)c4ccc(-c5c6nc(c(-c7c(F)cc(S(=O)(=O)[O-])cc7F)c7ccc([nH]7)c(-c7c(F)cc(S(=O)(=O)[O-])cc7F)c7nc(c(-c8c(F)cc(S(=O)(=O)[O-])cc8F)c8ccc5[nH]8)C=C7)C=C6)cc4)c3)c2C)c1
REMARK SMILES IDX 25 1 24 2 23 3 22 4 20 5 21 6 19 8 14 9 15 10 98 11 16 12
REMARK SMILES IDX 17 13 13 14 12 15 11 16 7 17 8 18 99 19 9 20 10 21 100 22
REMARK SMILES IDX 6 23 1 24 2 25 3 26 101 27 4 28 5 29 18 30 26 32 27 33 28 34
REMARK SMILES IDX 29 35 30 36 31 38 32 39 33 40 97 41 34 42 96 43 35 44 36 45
REMARK SMILES IDX 37 46 90 47 38 48 95 49 89 50 91 51 39 52 94 53 88 54 87 55
REMARK SMILES IDX 40 57 74 58 53 59 73 60 54 61 57 62 72 63 92 64 55 65 56 66
REMARK SMILES IDX 71 68 93 69 58 70 41 71 42 72 51 73 43 74 44 75 50 76 52 77
REMARK SMILES IDX 45 78 46 79 47 80 48 81 49 82 75 83 76 84 85 85 77 86 78 87
REMARK SMILES IDX 84 88 86 89 79 90 80 91 81 92 82 93 83 94 59 95 60 96 69 97
REMARK SMILES IDX 61 98 62 99 68 100 70 101 63 102 64 103 65 104 66 105 67 106
REMARK H PARENT 22 7 18 31 29 37 91 56 57 67
REMARK Flexibility Score: inf
ROOT
ATOM      1  C   UNL A   1      33.777  25.790  23.674  1.00  0.00     0.002 C 
ENDROOT
BRANCH   1   2
ATOM      2  C   UNL A   1      33.363  26.496  22.378  1.00  0.00     0.021 C 
BRANCH   2   3
ATOM      3  C   UNL A   1      32.096  26.061  21.650  1.00  0.00     0.116 C 
BRANCH   3   4
ATOM      4  N   UNL A   1      31.008  27.014  21.617  1.00  0.00    -0.352 N 
ATOM      5  C   UNL A   1      30.383  27.724  22.619  1.00  0.00     0.255 C 
ATOM      6  O   UNL A   1      29.525  28.537  22.262  1.00  0.00    -0.269 OA
ATOM      7  H   UNL A   1      30.650  27.187  20.717  1.00  0.00     0.163 HD
BRANCH   5   8
ATOM      8  C   UNL A   1      30.652  27.577  24.089  1.00  0.00     0.083 A 
ATOM      9  C   UNL A   1      30.333  26.120  26.046  1.00  0.00     0.064 A 
ATOM     10  C   UNL A   1      30.995  27.039  26.851  1.00  0.00     0.032 A 
ATOM     11  C   UNL A   1      30.282  26.341  24.659  1.00  0.00     0.046 A 
ATOM     12  C   UNL A   1      31.372  28.267  26.319  1.00  0.00     0.049 A 
ATOM     13  C   UNL A   1      31.093  28.561  24.980  1.00  0.00     0.128 A 
BRANCH   9  14
ATOM     14  N   UNL A   1      29.691  24.998  26.577  1.00  0.00    -0.256 NA
ATOM     15  C   UNL A   1      30.160  23.789  26.456  1.00  0.00     0.121 C 
BRANCH  15  16
ATOM     16  C   UNL A   1      31.369  23.283  25.800  1.00  0.00     0.014 A 
ATOM     17  N   UNL A   1      33.451  22.579  25.262  1.00  0.00    -0.318 N 
ATOM     18  C   UNL A   1      32.721  22.622  24.084  1.00  0.00     0.021 A 
ATOM     19  C   UNL A   1      32.564  22.786  26.325  1.00  0.00     0.029 A 
ATOM     20  C   UNL A   1      33.247  22.158  22.769  1.00  0.00     0.065 C 
ATOM     21  C   UNL A   1      31.462  23.094  24.390  1.00  0.00     0.033 A 
ATOM     22  C   UNL A   1      32.962  22.561  27.741  1.00  0.00     0.065 C 
BRANCH  17  23
ATOM     23  C   UNL A   1      34.867  22.425  25.349  1.00  0.00     0.046 A 
ATOM     24  C   UNL A   1      37.434  19.642  24.858  1.00  0.00     0.044 C 
ATOM     25  C   UNL A   1      36.817  20.984  25.124  1.00  0.00    -0.049 A 
ATOM     26  C   UNL A   1      37.643  22.106  25.277  1.00  0.00     0.003 A 
ATOM     27  C   UNL A   1      35.425  21.150  25.165  1.00  0.00     0.030 A 
ATOM     28  C   UNL A   1      37.090  23.366  25.497  1.00  0.00     0.002 A 
ATOM     29  C   UNL A   1      35.705  23.525  25.542  1.00  0.00     0.026 A 
ENDBRANCH  17  23
ENDBRANCH  15  16
ENDBRANCH   9  14
BRANCH  13  30
ATOM     30  O   UNL A   1      31.103  29.898  24.705  1.00  0.00    -0.507 OA
ATOM     31  H   UNL A   1      30.383  30.437  24.970  1.00  0.00     0.293 HD
ENDBRANCH  13  30
ENDBRANCH   5   8
ENDBRANCH   3   4
ENDBRANCH   2   3
ENDBRANCH   1   2
BRANCH   1  32
ATOM     32  C   UNL A   1      34.163  26.595  24.923  1.00  0.00     0.002 C 
BRANCH  32  33
ATOM     33  C   UNL A   1      34.577  28.057  24.770  1.00  0.00     0.021 C 
BRANCH  33  34
ATOM     34  C   UNL A   1      34.769  28.848  26.057  1.00  0.00     0.116 C 
BRANCH  34  35
ATOM     35  N   UNL A   1      34.021  30.091  26.119  1.00  0.00    -0.352 N 
ATOM     36  C   UNL A   1      33.834  30.851  27.262  1.00  0.00     0.251 C 
ATOM     37  H   UNL A   1      33.616  30.419  25.285  1.00  0.00     0.163 HD
ATOM     38  O   UNL A   1      32.844  31.553  27.445  1.00  0.00    -0.269 OA
BRANCH  36  39
ATOM     39  C   UNL A   1      34.979  30.912  28.195  1.00  0.00     0.039 A 
ATOM     40  C   UNL A   1      35.923  31.924  27.990  1.00  0.00     0.014 A 
ATOM     41  C   UNL A   1      35.241  29.853  29.061  1.00  0.00     0.014 A 
ATOM     42  C   UNL A   1      37.202  31.792  28.527  1.00  0.00     0.010 A 
ATOM     43  C   UNL A   1      36.530  29.688  29.532  1.00  0.00     0.010 A 
ATOM     44  C   UNL A   1      37.525  30.631  29.226  1.00  0.00    -0.014 A 
BRANCH  44  45
ATOM     45  C   UNL A   1      38.887  30.257  29.597  1.00  0.00     0.031 A 
ATOM     46  C   UNL A   1      39.408  28.902  29.301  1.00  0.00     0.074 A 
ATOM     47  C   UNL A   1      39.727  31.193  30.093  1.00  0.00     0.049 A 
ATOM     48  N   UNL A   1      40.526  28.440  29.756  1.00  0.00    -0.248 NA
ATOM     49  C   UNL A   1      38.664  27.912  28.519  1.00  0.00     0.031 C 
ATOM     50  C   UNL A   1      41.187  31.155  30.093  1.00  0.00     0.029 A 
ATOM     51  N   UNL A   1      39.413  32.279  30.912  1.00  0.00    -0.354 N 
ATOM     52  C   UNL A   1      40.800  27.282  29.072  1.00  0.00     0.074 A 
ATOM     53  C   UNL A   1      39.556  26.917  28.445  1.00  0.00     0.031 C 
ATOM     54  C   UNL A   1      41.649  31.998  31.026  1.00  0.00     0.029 A 
ATOM     55  C   UNL A   1      40.505  32.479  31.777  1.00  0.00     0.049 A 
ATOM     56  H   UNL A   1      38.581  32.806  30.889  1.00  0.00     0.167 HD
ATOM     57  C   UNL A   1      42.091  26.860  28.975  1.00  0.00     0.037 A 
ATOM     58  C   UNL A   1      40.372  32.364  33.134  1.00  0.00     0.037 A 
ATOM     59  C   UNL A   1      42.943  27.514  29.969  1.00  0.00     0.049 A 
ATOM     60  C   UNL A   1      41.226  31.286  33.764  1.00  0.00     0.074 A 
ATOM     61  C   UNL A   1      43.960  28.448  29.901  1.00  0.00     0.029 A 
ATOM     62  N   UNL A   1      42.633  27.368  31.320  1.00  0.00    -0.354 N 
ATOM     63  N   UNL A   1      41.871  30.374  33.091  1.00  0.00    -0.248 NA
ATOM     64  C   UNL A   1      41.391  31.127  35.208  1.00  0.00     0.031 C 
ATOM     65  C   UNL A   1      44.174  28.952  31.215  1.00  0.00     0.029 A 
ATOM     66  C   UNL A   1      43.328  28.284  32.084  1.00  0.00     0.049 A 
ATOM     67  H   UNL A   1      42.004  26.702  31.681  1.00  0.00     0.167 HD
ATOM     68  C   UNL A   1      42.455  29.488  33.957  1.00  0.00     0.074 A 
ATOM     69  C   UNL A   1      42.168  30.031  35.272  1.00  0.00     0.031 C 
ATOM     70  C   UNL A   1      43.100  28.364  33.523  1.00  0.00     0.037 A 
BRANCH  57  71
ATOM     71  C   UNL A   1      42.629  26.002  27.842  1.00  0.00     0.058 A 
ATOM     72  C   UNL A   1      42.434  24.603  27.847  1.00  0.00     0.135 A 
ATOM     73  C   UNL A   1      43.475  26.470  26.810  1.00  0.00     0.135 A 
ATOM     74  F   UNL A   1      41.676  24.016  28.786  1.00  0.00    -0.206 F 
ATOM     75  C   UNL A   1      43.034  23.745  26.914  1.00  0.00     0.059 A 
ATOM     76  C   UNL A   1      44.037  25.642  25.837  1.00  0.00     0.059 A 
ATOM     77  F   UNL A   1      43.870  27.746  26.730  1.00  0.00    -0.206 F 
ATOM     78  C   UNL A   1      43.838  24.274  25.912  1.00  0.00     0.060 A 
BRANCH  78  79
ATOM     79  S   UNL A   1      44.647  23.185  24.725  1.00  0.00     0.124 S 
ATOM     80  O   UNL A   1      43.530  22.789  23.874  1.00  0.00    -0.237 OA
ATOM     81  O   UNL A   1      45.639  24.061  24.111  1.00  0.00    -0.237 OA
ATOM     82  O   UNL A   1      45.198  22.122  25.565  1.00  0.00    -0.744 OA
ENDBRANCH  78  79
ENDBRANCH  57  71
BRANCH  58  83
ATOM     83  C   UNL A   1      39.043  32.817  33.624  1.00  0.00     0.058 A 
ATOM     84  C   UNL A   1      38.741  34.186  33.487  1.00  0.00     0.135 A 
ATOM     85  C   UNL A   1      37.971  31.920  33.736  1.00  0.00     0.135 A 
ATOM     86  F   UNL A   1      39.734  35.087  33.407  1.00  0.00    -0.206 F 
ATOM     87  C   UNL A   1      37.441  34.624  33.265  1.00  0.00     0.059 A 
ATOM     88  C   UNL A   1      36.657  32.343  33.529  1.00  0.00     0.059 A 
ATOM     89  F   UNL A   1      38.200  30.608  33.882  1.00  0.00    -0.206 F 
ATOM     90  C   UNL A   1      36.419  33.681  33.206  1.00  0.00     0.060 A 
BRANCH  90  91
ATOM     91  S   UNL A   1      34.828  34.201  32.519  1.00  0.00     0.124 S 
ATOM     92  O   UNL A   1      33.903  33.253  33.131  1.00  0.00    -0.237 OA
ATOM     93  O   UNL A   1      34.731  35.578  33.002  1.00  0.00    -0.237 OA
ATOM     94  O   UNL A   1      35.020  34.054  31.081  1.00  0.00    -0.744 OA
ENDBRANCH  90  91
ENDBRANCH  58  83
BRANCH  70  95
ATOM     95  C   UNL A   1      43.615  27.260  34.416  1.00  0.00     0.058 A 
ATOM     96  C   UNL A   1      42.806  26.251  34.967  1.00  0.00     0.135 A 
ATOM     97  C   UNL A   1      45.005  27.120  34.640  1.00  0.00     0.135 A 
ATOM     98  F   UNL A   1      41.487  26.210  34.729  1.00  0.00    -0.206 F 
ATOM     99  C   UNL A   1      43.326  25.217  35.751  1.00  0.00     0.059 A 
ATOM    100  C   UNL A   1      45.550  26.068  35.376  1.00  0.00     0.059 A 
ATOM    101  F   UNL A   1      45.882  28.006  34.145  1.00  0.00    -0.206 F 
ATOM    102  C   UNL A   1      44.699  25.135  35.953  1.00  0.00     0.060 A 
BRANCH 102 103
ATOM    103  S   UNL A   1      45.395  23.782  36.923  1.00  0.00     0.124 S 
ATOM    104  O   UNL A   1      46.827  24.028  36.783  1.00  0.00    -0.237 OA
ATOM    105  O   UNL A   1      44.846  24.013  38.256  1.00  0.00    -0.237 OA
ATOM    106  O   UNL A   1      44.886  22.595  36.243  1.00  0.00    -0.744 OA
ENDBRANCH 102 103
ENDBRANCH  70  95
ENDBRANCH  44  45
ENDBRANCH  36  39
ENDBRANCH  34  35
ENDBRANCH  33  34
ENDBRANCH  32  33
ENDBRANCH   1  32
TORSDOF 20
ENDMDL
MODEL 3
REMARK VINA RESULT:     -11.7      4.421     10.991
REMARK SMILES Cc1cccc(-n2c(C)cc(/C=N\c3ccc(O)c(C(=O)NCCCCCCNC(=O)c4ccc(-c5c6nc(c(-c7c(F)cc(S(=O)(=O)[O-])cc7F)c7ccc([nH]7)c(-c7c(F)cc(S(=O)(=O)[O-])cc7F)c7nc(c(-c8c(F)cc(S(=O)(=O)[O-])cc8F)c8ccc5[nH]8)C=C7)C=C6)cc4)c3)c2C)c1
REMARK SMILES IDX 25 1 24 2 23 3 22 4 20 5 21 6 19 8 14 9 15 10 98 11 16 12
REMARK SMILES IDX 17 13 13 14 12 15 11 16 7 17 8 18 99 19 9 20 10 21 100 22
REMARK SMILES IDX 6 23 1 24 2 25 3 26 101 27 4 28 5 29 18 30 26 32 27 33 28 34
REMARK SMILES IDX 29 35 30 36 31 38 32 39 33 40 97 41 34 42 96 43 35 44 36 45
REMARK SMILES IDX 37 46 90 47 38 48 95 49 89 50 91 51 39 52 94 53 88 54 87 55
REMARK SMILES IDX 40 57 74 58 53 59 73 60 54 61 57 62 72 63 92 64 55 65 56 66
REMARK SMILES IDX 71 68 93 69 58 70 41 71 42 72 51 73 43 74 44 75 50 76 52 77
REMARK SMILES IDX 45 78 46 79 47 80 48 81 49 82 75 83 76 84 85 85 77 86 78 87
REMARK SMILES IDX 84 88 86 89 79 90 80 91 81 92 82 93 83 94 59 95 60 96 69 97
REMARK SMILES IDX 61 98 62 99 68 100 70 101 63 102 64 103 65 104 66 105 67 106
REMARK H PARENT 22 7 18 31 29 37 91 56 57 67
REMARK Flexibility Score: inf
ROOT
ATOM      1  C   UNL A   1      33.206  32.662  27.325  1.00  0.00     0.002 C 
ENDROOT
BRANCH   1   2
ATOM      2  C   UNL A   1      31.861  32.068  26.893  1.00  0.00     0.021 C 
BRANCH   2   3
ATOM      3  C   UNL A   1      31.726  30.562  26.695  1.00  0.00     0.116 C 
BRANCH   3   4
ATOM      4  N   UNL A   1      32.853  29.885  26.089  1.00  0.00    -0.352 N 
ATOM      5  C   UNL A   1      32.923  28.800  25.244  1.00  0.00     0.255 C 
ATOM      6  O   UNL A   1      34.044  28.502  24.825  1.00  0.00    -0.269 OA
ATOM      7  H   UNL A   1      33.728  30.270  26.324  1.00  0.00     0.163 HD
BRANCH   5   8
ATOM      8  C   UNL A   1      31.757  27.957  24.811  1.00  0.00     0.083 A 
ATOM      9  C   UNL A   1      30.227  26.156  25.495  1.00  0.00     0.064 A 
ATOM     10  C   UNL A   1      29.587  26.218  24.262  1.00  0.00     0.032 A 
ATOM     11  C   UNL A   1      31.215  27.107  25.798  1.00  0.00     0.046 A 
ATOM     12  C   UNL A   1      30.096  27.046  23.269  1.00  0.00     0.049 A 
ATOM     13  C   UNL A   1      31.238  27.814  23.520  1.00  0.00     0.128 A 
BRANCH   9  14
ATOM     14  N   UNL A   1      29.938  25.157  26.429  1.00  0.00    -0.256 NA
ATOM     15  C   UNL A   1      30.629  24.057  26.528  1.00  0.00     0.121 C 
BRANCH  15  16
ATOM     16  C   UNL A   1      31.793  23.577  25.778  1.00  0.00     0.014 A 
ATOM     17  N   UNL A   1      33.799  22.777  25.100  1.00  0.00    -0.318 N 
ATOM     18  C   UNL A   1      33.114  23.171  23.961  1.00  0.00     0.021 A 
ATOM     19  C   UNL A   1      32.909  22.838  26.179  1.00  0.00     0.029 A 
ATOM     20  C   UNL A   1      33.624  22.960  22.576  1.00  0.00     0.065 C 
ATOM     21  C   UNL A   1      31.907  23.704  24.363  1.00  0.00     0.033 A 
ATOM     22  C   UNL A   1      33.237  22.254  27.508  1.00  0.00     0.065 C 
BRANCH  17  23
ATOM     23  C   UNL A   1      35.186  22.445  25.155  1.00  0.00     0.046 A 
ATOM     24  C   UNL A   1      38.439  24.111  26.255  1.00  0.00     0.044 C 
ATOM     25  C   UNL A   1      37.455  23.098  25.747  1.00  0.00    -0.049 A 
ATOM     26  C   UNL A   1      37.880  21.785  25.502  1.00  0.00     0.003 A 
ATOM     27  C   UNL A   1      36.103  23.424  25.567  1.00  0.00     0.030 A 
ATOM     28  C   UNL A   1      36.976  20.822  25.057  1.00  0.00     0.002 A 
ATOM     29  C   UNL A   1      35.633  21.152  24.875  1.00  0.00     0.026 A 
ENDBRANCH  17  23
ENDBRANCH  15  16
ENDBRANCH   9  14
BRANCH  13  30
ATOM     30  O   UNL A   1      31.878  28.223  22.385  1.00  0.00    -0.507 OA
ATOM     31  H   UNL A   1      32.812  28.305  22.378  1.00  0.00     0.293 HD
ENDBRANCH  13  30
ENDBRANCH   5   8
ENDBRANCH   3   4
ENDBRANCH   2   3
ENDBRANCH   1   2
BRANCH   1  32
ATOM     32  C   UNL A   1      33.270  33.824  28.327  1.00  0.00     0.002 C 
BRANCH  32  33
ATOM     33  C   UNL A   1      34.127  33.681  29.583  1.00  0.00     0.021 C 
BRANCH  33  34
ATOM     34  C   UNL A   1      35.246  32.649  29.530  1.00  0.00     0.116 C 
BRANCH  34  35
ATOM     35  N   UNL A   1      34.811  31.302  29.209  1.00  0.00    -0.352 N 
ATOM     36  C   UNL A   1      35.642  30.276  28.792  1.00  0.00     0.251 C 
ATOM     37  H   UNL A   1      33.851  31.103  29.293  1.00  0.00     0.163 HD
ATOM     38  O   UNL A   1      35.267  29.367  28.057  1.00  0.00    -0.269 OA
BRANCH  36  39
ATOM     39  C   UNL A   1      36.981  30.231  29.418  1.00  0.00     0.039 A 
ATOM     40  C   UNL A   1      38.033  30.844  28.729  1.00  0.00     0.014 A 
ATOM     41  C   UNL A   1      37.227  29.389  30.500  1.00  0.00     0.014 A 
ATOM     42  C   UNL A   1      39.348  30.485  29.019  1.00  0.00     0.010 A 
ATOM     43  C   UNL A   1      38.525  28.980  30.737  1.00  0.00     0.010 A 
ATOM     44  C   UNL A   1      39.583  29.490  29.967  1.00  0.00    -0.014 A 
BRANCH  44  45
ATOM     45  C   UNL A   1      40.877  28.841  30.161  1.00  0.00     0.031 A 
ATOM     46  C   UNL A   1      41.126  27.476  29.641  1.00  0.00     0.074 A 
ATOM     47  C   UNL A   1      41.901  29.540  30.701  1.00  0.00     0.049 A 
ATOM     48  N   UNL A   1      42.171  26.770  29.929  1.00  0.00    -0.248 NA
ATOM     49  C   UNL A   1      40.169  26.752  28.804  1.00  0.00     0.031 C 
ATOM     50  C   UNL A   1      43.328  29.256  30.565  1.00  0.00     0.029 A 
ATOM     51  N   UNL A   1      41.840  30.530  31.682  1.00  0.00    -0.354 N 
ATOM     52  C   UNL A   1      42.188  25.697  29.075  1.00  0.00     0.074 A 
ATOM     53  C   UNL A   1      40.861  25.643  28.518  1.00  0.00     0.031 C 
ATOM     54  C   UNL A   1      43.993  29.862  31.558  1.00  0.00     0.029 A 
ATOM     55  C   UNL A   1      43.004  30.414  32.466  1.00  0.00     0.049 A 
ATOM     56  H   UNL A   1      41.117  31.187  31.804  1.00  0.00     0.167 HD
ATOM     57  C   UNL A   1      43.373  25.083  28.807  1.00  0.00     0.037 A 
ATOM     58  C   UNL A   1      42.940  30.124  33.801  1.00  0.00     0.037 A 
ATOM     59  C   UNL A   1      44.391  25.430  29.800  1.00  0.00     0.049 A 
ATOM     60  C   UNL A   1      43.625  28.837  34.203  1.00  0.00     0.074 A 
ATOM     61  C   UNL A   1      45.553  26.180  29.768  1.00  0.00     0.029 A 
ATOM     62  N   UNL A   1      44.148  25.141  31.142  1.00  0.00    -0.354 N 
ATOM     63  N   UNL A   1      44.053  27.938  33.359  1.00  0.00    -0.248 NA
ATOM     64  C   UNL A   1      43.852  28.441  35.592  1.00  0.00     0.031 C 
ATOM     65  C   UNL A   1      45.937  26.441  31.112  1.00  0.00     0.029 A 
ATOM     66  C   UNL A   1      45.043  25.804  31.957  1.00  0.00     0.049 A 
ATOM     67  H   UNL A   1      43.434  24.545  31.465  1.00  0.00     0.167 HD
ATOM     68  C   UNL A   1      44.522  26.849  34.044  1.00  0.00     0.074 A 
ATOM     69  C   UNL A   1      44.422  27.233  35.440  1.00  0.00     0.031 C 
ATOM     70  C   UNL A   1      44.926  25.709  33.408  1.00  0.00     0.037 A 
BRANCH  57  71
ATOM     71  C   UNL A   1      43.675  24.322  27.527  1.00  0.00     0.058 A 
ATOM     72  C   UNL A   1      43.227  22.993  27.359  1.00  0.00     0.135 A 
ATOM     73  C   UNL A   1      44.528  24.786  26.498  1.00  0.00     0.135 A 
ATOM     74  F   UNL A   1      42.434  22.413  28.272  1.00  0.00    -0.206 F 
ATOM     75  C   UNL A   1      43.602  22.193  26.271  1.00  0.00     0.059 A 
ATOM     76  C   UNL A   1      44.868  24.027  25.378  1.00  0.00     0.059 A 
ATOM     77  F   UNL A   1      45.144  25.971  26.557  1.00  0.00    -0.206 F 
ATOM     78  C   UNL A   1      44.427  22.718  25.283  1.00  0.00     0.060 A 
BRANCH  78  79
ATOM     79  S   UNL A   1      44.949  21.694  23.895  1.00  0.00     0.124 S 
ATOM     80  O   UNL A   1      44.212  22.295  22.787  1.00  0.00    -0.237 OA
ATOM     81  O   UNL A   1      46.395  21.888  23.879  1.00  0.00    -0.237 OA
ATOM     82  O   UNL A   1      44.510  20.354  24.280  1.00  0.00    -0.744 OA
ENDBRANCH  78  79
ENDBRANCH  57  71
BRANCH  58  83
ATOM     83  C   UNL A   1      41.748  30.717  34.464  1.00  0.00     0.058 A 
ATOM     84  C   UNL A   1      41.740  32.114  34.641  1.00  0.00     0.135 A 
ATOM     85  C   UNL A   1      40.512  30.055  34.455  1.00  0.00     0.135 A 
ATOM     86  F   UNL A   1      42.901  32.791  34.687  1.00  0.00    -0.206 F 
ATOM     87  C   UNL A   1      40.559  32.846  34.604  1.00  0.00     0.059 A 
ATOM     88  C   UNL A   1      39.314  30.770  34.430  1.00  0.00     0.059 A 
ATOM     89  F   UNL A   1      40.461  28.724  34.304  1.00  0.00    -0.206 F 
ATOM     90  C   UNL A   1      39.359  32.166  34.415  1.00  0.00     0.060 A 
BRANCH  90  91
ATOM     91  S   UNL A   1      37.901  33.137  33.962  1.00  0.00     0.124 S 
ATOM     92  O   UNL A   1      38.397  34.505  34.068  1.00  0.00    -0.237 OA
ATOM     93  O   UNL A   1      37.640  32.665  32.603  1.00  0.00    -0.237 OA
ATOM     94  O   UNL A   1      36.914  32.746  34.961  1.00  0.00    -0.744 OA
ENDBRANCH  90  91
ENDBRANCH  58  83
BRANCH  70  95
ATOM     95  C   UNL A   1      45.291  24.415  34.095  1.00  0.00     0.058 A 
ATOM     96  C   UNL A   1      46.572  24.126  34.600  1.00  0.00     0.135 A 
ATOM     97  C   UNL A   1      44.291  23.455  34.382  1.00  0.00     0.135 A 
ATOM     98  F   UNL A   1      47.576  25.009  34.492  1.00  0.00    -0.206 F 
ATOM     99  C   UNL A   1      46.863  22.937  35.273  1.00  0.00     0.059 A 
ATOM    100  C   UNL A   1      44.548  22.286  35.096  1.00  0.00     0.059 A 
ATOM    101  F   UNL A   1      43.026  23.629  33.975  1.00  0.00    -0.206 F 
ATOM    102  C   UNL A   1      45.845  22.020  35.514  1.00  0.00     0.060 A 
BRANCH 102 103
ATOM    103  S   UNL A   1      46.189  20.499  36.422  1.00  0.00     0.124 S 
ATOM    104  O   UNL A   1      47.632  20.373  36.245  1.00  0.00    -0.237 OA
ATOM    105  O   UNL A   1      45.748  20.817  37.778  1.00  0.00    -0.237 OA
ATOM    106  O   UNL A   1      45.375  19.509  35.725  1.00  0.00    -0.744 OA
ENDBRANCH 102 103
ENDBRANCH  70  95
ENDBRANCH  44  45
ENDBRANCH  36  39
ENDBRANCH  34  35
ENDBRANCH  33  34
ENDBRANCH  32  33
ENDBRANCH   1  32
TORSDOF 20
ENDMDL
