MODEL 1
REMARK VINA RESULT:     -10.6      0.000      0.000
REMARK SMILES Cc1nc([C@@H]2C[N@@H+]3CCC[C@@H]3CO2)sc1CC(=O)NCCCCCCNC(=O)c1ccc(-c2c3nc(c(-c4c(F)cc(S(=O)(=O)[O-])cc4F)c4ccc([nH]4)c(-c4c(F)cc(S(=O)(=O)[O-])cc4F)c4nc(c(-c5c(F)cc(S(=O)(=O)[O-])cc5F)c5ccc2[nH]5)C=C4)C=C3)cc1
REMARK SMILES IDX 23 1 22 2 21 3 20 4 19 5 17 6 18 7 16 9 15 10 1 11 2 12 3 13
REMARK SMILES IDX 4 14 14 15 5 16 6 17 13 18 7 19 12 20 8 21 11 22 9 24 10 25
REMARK SMILES IDX 24 26 25 27 26 28 27 29 28 31 29 32 30 33 94 34 31 35 93 36
REMARK SMILES IDX 32 37 33 38 34 39 87 40 35 41 92 42 86 43 88 44 36 45 91 46
REMARK SMILES IDX 85 47 84 48 37 50 71 51 50 52 70 53 51 54 54 55 69 56 89 57
REMARK SMILES IDX 52 58 53 59 68 61 90 62 55 63 38 64 39 65 48 66 40 67 41 68
REMARK SMILES IDX 47 69 49 70 42 71 43 72 44 73 45 74 46 75 72 76 73 77 82 78
REMARK SMILES IDX 74 79 75 80 81 81 83 82 76 83 77 84 78 85 79 86 80 87 56 88
REMARK SMILES IDX 57 89 66 90 58 91 59 92 65 93 67 94 60 95 61 96 62 97 63 98
REMARK SMILES IDX 64 99
REMARK H PARENT 19 8 7 23 26 30 88 49 54 60
REMARK Flexibility Score: inf
ROOT
ATOM      1  C   UNL A   1      31.651  27.346  26.370  1.00  0.00     0.002 C 
ENDROOT
BRANCH   1   2
ATOM      2  C   UNL A   1      30.589  27.314  25.265  1.00  0.00     0.002 C 
BRANCH   2   3
ATOM      3  C   UNL A   1      30.731  28.413  24.204  1.00  0.00     0.021 C 
BRANCH   3   4
ATOM      4  C   UNL A   1      30.923  27.871  22.786  1.00  0.00     0.116 C 
BRANCH   4   5
ATOM      5  N   UNL A   1      32.308  27.983  22.372  1.00  0.00    -0.356 N 
ATOM      6  C   UNL A   1      33.171  27.015  21.947  1.00  0.00     0.225 C 
ATOM      7  O   UNL A   1      34.345  27.334  21.748  1.00  0.00    -0.275 OA
ATOM      8  H   UNL A   1      32.682  28.894  22.400  1.00  0.00     0.163 HD
BRANCH   6   9
ATOM      9  C   UNL A   1      32.674  25.616  21.625  1.00  0.00     0.148 C 
BRANCH   9  10
ATOM     10  C   UNL A   1      32.662  24.696  22.805  1.00  0.00     0.037 A 
ATOM     11  C   UNL A   1      30.125  24.310  23.198  1.00  0.00     0.068 C 
ATOM     12  C   UNL A   1      31.580  24.122  23.456  1.00  0.00     0.052 A 
ATOM     13  N   UNL A   1      31.913  23.344  24.540  1.00  0.00    -0.243 NA
ATOM     14  C   UNL A   1      33.204  23.409  24.789  1.00  0.00     0.128 A 
ATOM     15  S   UNL A   1      34.122  24.204  23.575  1.00  0.00    -0.120 S 
BRANCH  14  16
ATOM     16  C   UNL A   1      33.846  22.876  26.053  1.00  0.00     0.232 C 
ATOM     17  C   UNL A   1      35.254  23.498  26.274  1.00  0.00     0.302 C 
ATOM     18  O   UNL A   1      33.833  21.435  25.967  1.00  0.00    -0.359 OA
ATOM     19  N   UNL A   1      36.405  22.596  26.409  1.00  0.00    -0.328 N 
ATOM     20  C   UNL A   1      34.901  20.938  25.154  1.00  0.00     0.226 C 
ATOM     21  C   UNL A   1      37.667  23.200  25.962  1.00  0.00     0.262 C 
ATOM     22  C   UNL A   1      36.260  21.279  25.764  1.00  0.00     0.210 C 
ATOM     23  H   UNL A   1      36.433  22.440  27.416  1.00  0.00     0.348 HD
ATOM     24  C   UNL A   1      38.473  22.047  25.387  1.00  0.00     0.068 C 
ATOM     25  C   UNL A   1      37.400  21.181  24.757  1.00  0.00     0.073 C 
ENDBRANCH  14  16
ENDBRANCH   9  10
ENDBRANCH   6   9
ENDBRANCH   4   5
ENDBRANCH   3   4
ENDBRANCH   2   3
ENDBRANCH   1   2
BRANCH   1  26
ATOM     26  C   UNL A   1      33.039  26.866  25.939  1.00  0.00     0.021 C 
BRANCH  26  27
ATOM     27  C   UNL A   1      34.190  27.727  26.449  1.00  0.00     0.116 C 
BRANCH  27  28
ATOM     28  N   UNL A   1      33.738  29.053  26.844  1.00  0.00    -0.352 N 
ATOM     29  C   UNL A   1      34.364  29.984  27.633  1.00  0.00     0.251 C 
ATOM     30  H   UNL A   1      32.856  29.319  26.496  1.00  0.00     0.163 HD
ATOM     31  O   UNL A   1      33.739  30.962  28.041  1.00  0.00    -0.269 OA
BRANCH  29  32
ATOM     32  C   UNL A   1      35.782  29.801  28.004  1.00  0.00     0.039 A 
ATOM     33  C   UNL A   1      36.096  29.370  29.295  1.00  0.00     0.014 A 
ATOM     34  C   UNL A   1      36.801  30.060  27.082  1.00  0.00     0.014 A 
ATOM     35  C   UNL A   1      37.429  29.139  29.641  1.00  0.00     0.010 A 
ATOM     36  C   UNL A   1      38.121  29.756  27.405  1.00  0.00     0.010 A 
ATOM     37  C   UNL A   1      38.449  29.296  28.689  1.00  0.00    -0.014 A 
BRANCH  37  38
ATOM     38  C   UNL A   1      39.864  28.975  29.017  1.00  0.00     0.031 A 
ATOM     39  C   UNL A   1      40.754  30.018  29.637  1.00  0.00     0.074 A 
ATOM     40  C   UNL A   1      40.361  27.764  28.697  1.00  0.00     0.049 A 
ATOM     41  N   UNL A   1      42.024  29.945  29.937  1.00  0.00    -0.248 NA
ATOM     42  C   UNL A   1      40.142  31.324  29.936  1.00  0.00     0.031 C 
ATOM     43  C   UNL A   1      39.611  26.686  28.047  1.00  0.00     0.029 A 
ATOM     44  N   UNL A   1      41.617  27.236  28.864  1.00  0.00    -0.354 N 
ATOM     45  C   UNL A   1      42.368  31.193  30.445  1.00  0.00     0.074 A 
ATOM     46  C   UNL A   1      41.184  32.021  30.365  1.00  0.00     0.031 C 
ATOM     47  C   UNL A   1      40.415  25.623  27.889  1.00  0.00     0.029 A 
ATOM     48  C   UNL A   1      41.746  25.952  28.387  1.00  0.00     0.049 A 
ATOM     49  H   UNL A   1      42.357  27.730  29.286  1.00  0.00     0.167 HD
ATOM     50  C   UNL A   1      43.555  31.604  30.952  1.00  0.00     0.037 A 
ATOM     51  C   UNL A   1      42.818  25.137  28.341  1.00  0.00     0.037 A 
ATOM     52  C   UNL A   1      44.722  30.764  31.049  1.00  0.00     0.049 A 
ATOM     53  C   UNL A   1      44.128  25.618  28.907  1.00  0.00     0.074 A 
ATOM     54  C   UNL A   1      45.952  31.066  31.607  1.00  0.00     0.029 A 
ATOM     55  N   UNL A   1      44.808  29.464  30.573  1.00  0.00    -0.354 N 
ATOM     56  N   UNL A   1      44.414  26.777  29.451  1.00  0.00    -0.248 NA
ATOM     57  C   UNL A   1      45.257  24.680  28.862  1.00  0.00     0.031 C 
ATOM     58  C   UNL A   1      46.798  29.969  31.416  1.00  0.00     0.029 A 
ATOM     59  C   UNL A   1      46.078  28.960  30.798  1.00  0.00     0.049 A 
ATOM     60  H   UNL A   1      44.073  28.972  30.139  1.00  0.00     0.167 HD
ATOM     61  C   UNL A   1      45.747  26.697  29.839  1.00  0.00     0.074 A 
ATOM     62  C   UNL A   1      46.206  25.370  29.479  1.00  0.00     0.031 C 
ATOM     63  C   UNL A   1      46.521  27.635  30.439  1.00  0.00     0.037 A 
BRANCH  50  64
ATOM     64  C   UNL A   1      43.657  33.024  31.441  1.00  0.00     0.058 A 
ATOM     65  C   UNL A   1      43.301  33.383  32.752  1.00  0.00     0.135 A 
ATOM     66  C   UNL A   1      44.165  34.031  30.604  1.00  0.00     0.135 A 
ATOM     67  F   UNL A   1      42.797  32.466  33.593  1.00  0.00    -0.206 F 
ATOM     68  C   UNL A   1      43.419  34.693  33.205  1.00  0.00     0.059 A 
ATOM     69  C   UNL A   1      44.321  35.341  31.047  1.00  0.00     0.059 A 
ATOM     70  F   UNL A   1      44.520  33.745  29.342  1.00  0.00    -0.206 F 
ATOM     71  C   UNL A   1      43.932  35.665  32.346  1.00  0.00     0.060 A 
BRANCH  71  72
ATOM     72  S   UNL A   1      44.094  37.356  32.956  1.00  0.00     0.124 S 
ATOM     73  O   UNL A   1      43.873  38.127  31.736  1.00  0.00    -0.237 OA
ATOM     74  O   UNL A   1      43.031  37.430  33.954  1.00  0.00    -0.237 OA
ATOM     75  O   UNL A   1      45.453  37.399  33.486  1.00  0.00    -0.744 OA
ENDBRANCH  71  72
ENDBRANCH  50  64
BRANCH  51  76
ATOM     76  C   UNL A   1      42.695  23.779  27.746  1.00  0.00     0.058 A 
ATOM     77  C   UNL A   1      42.783  23.583  26.360  1.00  0.00     0.135 A 
ATOM     78  C   UNL A   1      42.494  22.646  28.552  1.00  0.00     0.135 A 
ATOM     79  F   UNL A   1      42.968  24.634  25.545  1.00  0.00    -0.206 F 
ATOM     80  C   UNL A   1      42.659  22.319  25.791  1.00  0.00     0.059 A 
ATOM     81  C   UNL A   1      42.396  21.369  28.010  1.00  0.00     0.059 A 
ATOM     82  F   UNL A   1      42.419  22.775  29.886  1.00  0.00    -0.206 F 
ATOM     83  C   UNL A   1      42.469  21.217  26.626  1.00  0.00     0.060 A 
BRANCH  83  84
ATOM     84  S   UNL A   1      42.352  19.576  25.882  1.00  0.00     0.124 S 
ATOM     85  O   UNL A   1      42.732  18.719  26.999  1.00  0.00    -0.237 OA
ATOM     86  O   UNL A   1      40.949  19.521  25.483  1.00  0.00    -0.237 OA
ATOM     87  O   UNL A   1      43.307  19.639  24.780  1.00  0.00    -0.744 OA
ENDBRANCH  83  84
ENDBRANCH  51  76
BRANCH  63  88
ATOM     88  C   UNL A   1      47.935  27.253  30.784  1.00  0.00     0.058 A 
ATOM     89  C   UNL A   1      48.246  26.539  31.952  1.00  0.00     0.135 A 
ATOM     90  C   UNL A   1      48.987  27.560  29.905  1.00  0.00     0.135 A 
ATOM     91  F   UNL A   1      47.280  26.225  32.831  1.00  0.00    -0.206 F 
ATOM     92  C   UNL A   1      49.553  26.163  32.247  1.00  0.00     0.059 A 
ATOM     93  C   UNL A   1      50.295  27.167  30.165  1.00  0.00     0.059 A 
ATOM     94  F   UNL A   1      48.744  28.233  28.769  1.00  0.00    -0.206 F 
ATOM     95  C   UNL A   1      50.570  26.480  31.345  1.00  0.00     0.060 A 
BRANCH  95  96
ATOM     96  S   UNL A   1      52.255  25.955  31.725  1.00  0.00     0.124 S 
ATOM     97  O   UNL A   1      52.899  26.067  30.421  1.00  0.00    -0.237 OA
ATOM     98  O   UNL A   1      52.670  26.934  32.724  1.00  0.00    -0.237 OA
ATOM     99  O   UNL A   1      52.083  24.593  32.225  1.00  0.00    -0.744 OA
ENDBRANCH  95  96
ENDBRANCH  63  88
ENDBRANCH  37  38
ENDBRANCH  29  32
ENDBRANCH  27  28
ENDBRANCH  26  27
ENDBRANCH   1  26
TORSDOF 18
ENDMDL
MODEL 2
REMARK VINA RESULT:     -10.5      2.484      3.100
REMARK SMILES Cc1nc([C@@H]2C[N@@H+]3CCC[C@@H]3CO2)sc1CC(=O)NCCCCCCNC(=O)c1ccc(-c2c3nc(c(-c4c(F)cc(S(=O)(=O)[O-])cc4F)c4ccc([nH]4)c(-c4c(F)cc(S(=O)(=O)[O-])cc4F)c4nc(c(-c5c(F)cc(S(=O)(=O)[O-])cc5F)c5ccc2[nH]5)C=C4)C=C3)cc1
REMARK SMILES IDX 23 1 22 2 21 3 20 4 19 5 17 6 18 7 16 9 15 10 1 11 2 12 3 13
REMARK SMILES IDX 4 14 14 15 5 16 6 17 13 18 7 19 12 20 8 21 11 22 9 24 10 25
REMARK SMILES IDX 24 26 25 27 26 28 27 29 28 31 29 32 30 33 94 34 31 35 93 36
REMARK SMILES IDX 32 37 33 38 34 39 87 40 35 41 92 42 86 43 88 44 36 45 91 46
REMARK SMILES IDX 85 47 84 48 37 50 71 51 50 52 70 53 51 54 54 55 69 56 89 57
REMARK SMILES IDX 52 58 53 59 68 61 90 62 55 63 38 64 39 65 48 66 40 67 41 68
REMARK SMILES IDX 47 69 49 70 42 71 43 72 44 73 45 74 46 75 72 76 73 77 82 78
REMARK SMILES IDX 74 79 75 80 81 81 83 82 76 83 77 84 78 85 79 86 80 87 56 88
REMARK SMILES IDX 57 89 66 90 58 91 59 92 65 93 67 94 60 95 61 96 62 97 63 98
REMARK SMILES IDX 64 99
REMARK H PARENT 19 8 7 23 26 30 88 49 54 60
REMARK Flexibility Score: inf
ROOT
ATOM      1  C   UNL A   1      31.585  28.230  25.912  1.00  0.00     0.002 C 
ENDROOT
BRANCH   1   2
ATOM      2  C   UNL A   1      30.920  27.299  24.892  1.00  0.00     0.002 C 
BRANCH   2   3
ATOM      3  C   UNL A   1      30.119  28.013  23.795  1.00  0.00     0.021 C 
BRANCH   3   4
ATOM      4  C   UNL A   1      30.629  27.726  22.382  1.00  0.00     0.116 C 
BRANCH   4   5
ATOM      5  N   UNL A   1      32.053  27.989  22.282  1.00  0.00    -0.356 N 
ATOM      6  C   UNL A   1      33.084  27.124  22.064  1.00  0.00     0.225 C 
ATOM      7  O   UNL A   1      34.234  27.567  22.126  1.00  0.00    -0.275 OA
ATOM      8  H   UNL A   1      32.312  28.933  22.385  1.00  0.00     0.163 HD
BRANCH   6   9
ATOM      9  C   UNL A   1      32.822  25.687  21.649  1.00  0.00     0.148 C 
BRANCH   9  10
ATOM     10  C   UNL A   1      32.802  24.724  22.795  1.00  0.00     0.037 A 
ATOM     11  C   UNL A   1      30.270  24.219  23.069  1.00  0.00     0.068 C 
ATOM     12  C   UNL A   1      31.720  24.083  23.380  1.00  0.00     0.052 A 
ATOM     13  N   UNL A   1      32.043  23.280  24.450  1.00  0.00    -0.243 NA
ATOM     14  C   UNL A   1      33.319  23.391  24.755  1.00  0.00     0.128 A 
ATOM     15  S   UNL A   1      34.250  24.266  23.608  1.00  0.00    -0.120 S 
BRANCH  14  16
ATOM     16  C   UNL A   1      33.932  22.839  26.025  1.00  0.00     0.232 C 
ATOM     17  C   UNL A   1      35.358  23.414  26.257  1.00  0.00     0.302 C 
ATOM     18  O   UNL A   1      33.872  21.399  25.942  1.00  0.00    -0.359 OA
ATOM     19  N   UNL A   1      36.477  22.475  26.403  1.00  0.00    -0.328 N 
ATOM     20  C   UNL A   1      34.929  20.864  25.139  1.00  0.00     0.226 C 
ATOM     21  C   UNL A   1      37.763  23.034  25.965  1.00  0.00     0.262 C 
ATOM     22  C   UNL A   1      36.293  21.161  25.760  1.00  0.00     0.210 C 
ATOM     23  H   UNL A   1      36.492  22.319  27.410  1.00  0.00     0.348 HD
ATOM     24  C   UNL A   1      38.534  21.855  25.399  1.00  0.00     0.068 C 
ATOM     25  C   UNL A   1      37.438  21.023  24.763  1.00  0.00     0.073 C 
ENDBRANCH  14  16
ENDBRANCH   9  10
ENDBRANCH   6   9
ENDBRANCH   4   5
ENDBRANCH   3   4
ENDBRANCH   2   3
ENDBRANCH   1   2
BRANCH   1  26
ATOM     26  C   UNL A   1      32.966  27.775  26.391  1.00  0.00     0.021 C 
BRANCH  26  27
ATOM     27  C   UNL A   1      34.111  28.694  25.979  1.00  0.00     0.116 C 
BRANCH  27  28
ATOM     28  N   UNL A   1      33.871  30.072  26.386  1.00  0.00    -0.352 N 
ATOM     29  C   UNL A   1      34.488  30.807  27.365  1.00  0.00     0.251 C 
ATOM     30  H   UNL A   1      33.165  30.542  25.887  1.00  0.00     0.163 HD
ATOM     31  O   UNL A   1      34.008  31.883  27.719  1.00  0.00    -0.269 OA
BRANCH  29  32
ATOM     32  C   UNL A   1      35.718  30.296  28.005  1.00  0.00     0.039 A 
ATOM     33  C   UNL A   1      36.941  30.456  27.350  1.00  0.00     0.014 A 
ATOM     34  C   UNL A   1      35.664  29.658  29.248  1.00  0.00     0.014 A 
ATOM     35  C   UNL A   1      38.117  30.029  27.969  1.00  0.00     0.010 A 
ATOM     36  C   UNL A   1      36.845  29.302  29.896  1.00  0.00     0.010 A 
ATOM     37  C   UNL A   1      38.083  29.481  29.262  1.00  0.00    -0.014 A 
BRANCH  37  38
ATOM     38  C   UNL A   1      39.334  29.098  29.969  1.00  0.00     0.031 A 
ATOM     39  C   UNL A   1      39.770  29.847  31.199  1.00  0.00     0.074 A 
ATOM     40  C   UNL A   1      40.107  28.117  29.463  1.00  0.00     0.049 A 
ATOM     41  N   UNL A   1      40.857  29.700  31.912  1.00  0.00    -0.248 NA
ATOM     42  C   UNL A   1      38.882  30.921  31.676  1.00  0.00     0.031 C 
ATOM     43  C   UNL A   1      39.817  27.351  28.248  1.00  0.00     0.029 A 
ATOM     44  N   UNL A   1      41.302  27.600  29.899  1.00  0.00    -0.354 N 
ATOM     45  C   UNL A   1      40.791  30.665  32.910  1.00  0.00     0.074 A 
ATOM     46  C   UNL A   1      39.583  31.428  32.679  1.00  0.00     0.031 C 
ATOM     47  C   UNL A   1      40.794  26.452  28.049  1.00  0.00     0.029 A 
ATOM     48  C   UNL A   1      41.801  26.602  29.094  1.00  0.00     0.049 A 
ATOM     49  H   UNL A   1      41.760  27.914  30.713  1.00  0.00     0.167 HD
ATOM     50  C   UNL A   1      41.648  30.883  33.936  1.00  0.00     0.037 A 
ATOM     51  C   UNL A   1      42.946  25.897  29.179  1.00  0.00     0.037 A 
ATOM     52  C   UNL A   1      42.836  30.103  34.171  1.00  0.00     0.049 A 
ATOM     53  C   UNL A   1      43.884  26.159  30.327  1.00  0.00     0.074 A 
ATOM     54  C   UNL A   1      43.734  30.201  35.220  1.00  0.00     0.029 A 
ATOM     55  N   UNL A   1      43.297  29.088  33.344  1.00  0.00    -0.354 N 
ATOM     56  N   UNL A   1      43.768  27.028  31.303  1.00  0.00    -0.248 NA
ATOM     57  C   UNL A   1      45.103  25.342  30.391  1.00  0.00     0.031 C 
ATOM     58  C   UNL A   1      44.767  29.285  34.997  1.00  0.00     0.029 A 
ATOM     59  C   UNL A   1      44.481  28.571  33.844  1.00  0.00     0.049 A 
ATOM     60  H   UNL A   1      42.848  28.780  32.524  1.00  0.00     0.167 HD
ATOM     61  C   UNL A   1      44.884  26.842  32.113  1.00  0.00     0.074 A 
ATOM     62  C   UNL A   1      45.654  25.769  31.518  1.00  0.00     0.031 C 
ATOM     63  C   UNL A   1      45.236  27.499  33.246  1.00  0.00     0.037 A 
BRANCH  50  64
ATOM     64  C   UNL A   1      41.336  32.008  34.886  1.00  0.00     0.058 A 
ATOM     65  C   UNL A   1      41.835  33.306  34.687  1.00  0.00     0.135 A 
ATOM     66  C   UNL A   1      40.485  31.799  35.983  1.00  0.00     0.135 A 
ATOM     67  F   UNL A   1      42.664  33.563  33.662  1.00  0.00    -0.206 F 
ATOM     68  C   UNL A   1      41.525  34.347  35.555  1.00  0.00     0.059 A 
ATOM     69  C   UNL A   1      40.136  32.833  36.847  1.00  0.00     0.059 A 
ATOM     70  F   UNL A   1      39.979  30.579  36.224  1.00  0.00    -0.206 F 
ATOM     71  C   UNL A   1      40.672  34.101  36.632  1.00  0.00     0.060 A 
BRANCH  71  72
ATOM     72  S   UNL A   1      40.267  35.468  37.739  1.00  0.00     0.124 S 
ATOM     73  O   UNL A   1      39.026  34.993  38.344  1.00  0.00    -0.237 OA
ATOM     74  O   UNL A   1      41.428  35.508  38.623  1.00  0.00    -0.237 OA
ATOM     75  O   UNL A   1      40.128  36.607  36.839  1.00  0.00    -0.744 OA
ENDBRANCH  71  72
ENDBRANCH  50  64
BRANCH  51  76
ATOM     76  C   UNL A   1      43.263  24.868  28.151  1.00  0.00     0.058 A 
ATOM     77  C   UNL A   1      43.965  25.202  26.984  1.00  0.00     0.135 A 
ATOM     78  C   UNL A   1      42.879  23.528  28.321  1.00  0.00     0.135 A 
ATOM     79  F   UNL A   1      44.349  26.471  26.772  1.00  0.00    -0.206 F 
ATOM     80  C   UNL A   1      44.258  24.251  26.011  1.00  0.00     0.059 A 
ATOM     81  C   UNL A   1      43.187  22.553  27.376  1.00  0.00     0.059 A 
ATOM     82  F   UNL A   1      42.221  23.151  29.428  1.00  0.00    -0.206 F 
ATOM     83  C   UNL A   1      43.867  22.927  26.219  1.00  0.00     0.060 A 
BRANCH  83  84
ATOM     84  S   UNL A   1      44.291  21.692  24.972  1.00  0.00     0.124 S 
ATOM     85  O   UNL A   1      43.340  20.629  25.275  1.00  0.00    -0.237 OA
ATOM     86  O   UNL A   1      44.058  22.421  23.729  1.00  0.00    -0.237 OA
ATOM     87  O   UNL A   1      45.690  21.391  25.260  1.00  0.00    -0.744 OA
ENDBRANCH  83  84
ENDBRANCH  51  76
BRANCH  63  88
ATOM     88  C   UNL A   1      46.492  27.053  33.945  1.00  0.00     0.058 A 
ATOM     89  C   UNL A   1      46.485  26.018  34.893  1.00  0.00     0.135 A 
ATOM     90  C   UNL A   1      47.729  27.633  33.620  1.00  0.00     0.135 A 
ATOM     91  F   UNL A   1      45.329  25.432  35.247  1.00  0.00    -0.206 F 
ATOM     92  C   UNL A   1      47.656  25.591  35.512  1.00  0.00     0.059 A 
ATOM     93  C   UNL A   1      48.916  27.201  34.203  1.00  0.00     0.059 A 
ATOM     94  F   UNL A   1      47.795  28.620  32.711  1.00  0.00    -0.206 F 
ATOM     95  C   UNL A   1      48.867  26.188  35.158  1.00  0.00     0.060 A 
BRANCH  95  96
ATOM     96  S   UNL A   1      50.382  25.600  35.944  1.00  0.00     0.124 S 
ATOM     97  O   UNL A   1      50.748  24.484  35.078  1.00  0.00    -0.237 OA
ATOM     98  O   UNL A   1      51.248  26.772  35.869  1.00  0.00    -0.237 OA
ATOM     99  O   UNL A   1      49.948  25.233  37.289  1.00  0.00    -0.744 OA
ENDBRANCH  95  96
ENDBRANCH  63  88
ENDBRANCH  37  38
ENDBRANCH  29  32
ENDBRANCH  27  28
ENDBRANCH  26  27
ENDBRANCH   1  26
TORSDOF 18
ENDMDL
MODEL 3
REMARK VINA RESULT:     -10.4      3.274      4.944
REMARK SMILES Cc1nc([C@@H]2C[N@@H+]3CCC[C@@H]3CO2)sc1CC(=O)NCCCCCCNC(=O)c1ccc(-c2c3nc(c(-c4c(F)cc(S(=O)(=O)[O-])cc4F)c4ccc([nH]4)c(-c4c(F)cc(S(=O)(=O)[O-])cc4F)c4nc(c(-c5c(F)cc(S(=O)(=O)[O-])cc5F)c5ccc2[nH]5)C=C4)C=C3)cc1
REMARK SMILES IDX 23 1 22 2 21 3 20 4 19 5 17 6 18 7 16 9 15 10 1 11 2 12 3 13
REMARK SMILES IDX 4 14 14 15 5 16 6 17 13 18 7 19 12 20 8 21 11 22 9 24 10 25
REMARK SMILES IDX 24 26 25 27 26 28 27 29 28 31 29 32 30 33 94 34 31 35 93 36
REMARK SMILES IDX 32 37 33 38 34 39 87 40 35 41 92 42 86 43 88 44 36 45 91 46
REMARK SMILES IDX 85 47 84 48 37 50 71 51 50 52 70 53 51 54 54 55 69 56 89 57
REMARK SMILES IDX 52 58 53 59 68 61 90 62 55 63 38 64 39 65 48 66 40 67 41 68
REMARK SMILES IDX 47 69 49 70 42 71 43 72 44 73 45 74 46 75 72 76 73 77 82 78
REMARK SMILES IDX 74 79 75 80 81 81 83 82 76 83 77 84 78 85 79 86 80 87 56 88
REMARK SMILES IDX 57 89 66 90 58 91 59 92 65 93 67 94 60 95 61 96 62 97 63 98
REMARK SMILES IDX 64 99
REMARK H PARENT 19 8 7 23 26 30 88 49 54 60
REMARK Flexibility Score: inf
ROOT
ATOM      1  C   UNL A   1      37.090  33.545  29.064  1.00  0.00     0.002 C 
ENDROOT
BRANCH   1   2
ATOM      2  C   UNL A   1      36.001  32.972  28.151  1.00  0.00     0.002 C 
BRANCH   2   3
ATOM      3  C   UNL A   1      34.586  32.999  28.742  1.00  0.00     0.021 C 
BRANCH   3   4
ATOM      4  C   UNL A   1      33.590  32.120  27.982  1.00  0.00     0.116 C 
BRANCH   4   5
ATOM      5  N   UNL A   1      34.246  30.946  27.437  1.00  0.00    -0.356 N 
ATOM      6  C   UNL A   1      33.782  30.028  26.541  1.00  0.00     0.225 C 
ATOM      7  O   UNL A   1      34.487  29.044  26.305  1.00  0.00    -0.275 OA
ATOM      8  H   UNL A   1      35.162  30.790  27.762  1.00  0.00     0.163 HD
BRANCH   6   9
ATOM      9  C   UNL A   1      32.492  30.267  25.777  1.00  0.00     0.148 C 
BRANCH   9  10
ATOM     10  C   UNL A   1      31.897  29.022  25.198  1.00  0.00     0.037 A 
ATOM     11  C   UNL A   1      31.382  27.602  27.309  1.00  0.00     0.068 C 
ATOM     12  C   UNL A   1      31.403  27.902  25.850  1.00  0.00     0.052 A 
ATOM     13  N   UNL A   1      30.954  26.905  25.015  1.00  0.00    -0.243 NA
ATOM     14  C   UNL A   1      31.202  27.199  23.756  1.00  0.00     0.128 A 
ATOM     15  S   UNL A   1      31.753  28.804  23.495  1.00  0.00    -0.120 S 
BRANCH  14  16
ATOM     16  C   UNL A   1      31.063  26.208  22.618  1.00  0.00     0.232 C 
ATOM     17  C   UNL A   1      30.858  24.762  23.154  1.00  0.00     0.302 C 
ATOM     18  O   UNL A   1      32.213  26.373  21.761  1.00  0.00    -0.359 OA
ATOM     19  N   UNL A   1      31.797  23.718  22.726  1.00  0.00    -0.328 N 
ATOM     20  C   UNL A   1      33.365  25.699  22.275  1.00  0.00     0.226 C 
ATOM     21  C   UNL A   1      31.951  22.640  23.714  1.00  0.00     0.262 C 
ATOM     22  C   UNL A   1      33.137  24.189  22.333  1.00  0.00     0.210 C 
ATOM     23  H   UNL A   1      31.344  23.357  21.888  1.00  0.00     0.348 HD
ATOM     24  C   UNL A   1      33.393  22.185  23.578  1.00  0.00     0.068 C 
ATOM     25  C   UNL A   1      34.116  23.479  23.261  1.00  0.00     0.073 C 
ENDBRANCH  14  16
ENDBRANCH   9  10
ENDBRANCH   6   9
ENDBRANCH   4   5
ENDBRANCH   3   4
ENDBRANCH   2   3
ENDBRANCH   1   2
BRANCH   1  26
ATOM     26  C   UNL A   1      36.618  33.912  30.473  1.00  0.00     0.021 C 
BRANCH  26  27
ATOM     27  C   UNL A   1      37.191  33.032  31.579  1.00  0.00     0.116 C 
BRANCH  27  28
ATOM     28  N   UNL A   1      36.452  31.784  31.713  1.00  0.00    -0.352 N 
ATOM     29  C   UNL A   1      36.765  30.536  31.239  1.00  0.00     0.251 C 
ATOM     30  H   UNL A   1      35.608  31.846  32.215  1.00  0.00     0.163 HD
ATOM     31  O   UNL A   1      35.918  29.644  31.257  1.00  0.00    -0.269 OA
BRANCH  29  32
ATOM     32  C   UNL A   1      38.111  30.271  30.691  1.00  0.00     0.039 A 
ATOM     33  C   UNL A   1      39.160  29.994  31.572  1.00  0.00     0.014 A 
ATOM     34  C   UNL A   1      38.341  30.301  29.313  1.00  0.00     0.014 A 
ATOM     35  C   UNL A   1      40.424  29.687  31.065  1.00  0.00     0.010 A 
ATOM     36  C   UNL A   1      39.581  29.920  28.808  1.00  0.00     0.010 A 
ATOM     37  C   UNL A   1      40.637  29.612  29.679  1.00  0.00    -0.014 A 
BRANCH  37  38
ATOM     38  C   UNL A   1      41.955  29.205  29.124  1.00  0.00     0.031 A 
ATOM     39  C   UNL A   1      43.056  30.219  28.963  1.00  0.00     0.074 A 
ATOM     40  C   UNL A   1      42.137  27.937  28.706  1.00  0.00     0.049 A 
ATOM     41  N   UNL A   1      44.246  30.068  28.445  1.00  0.00    -0.248 NA
ATOM     42  C   UNL A   1      42.772  31.590  29.423  1.00  0.00     0.031 C 
ATOM     43  C   UNL A   1      41.128  26.875  28.762  1.00  0.00     0.029 A 
ATOM     44  N   UNL A   1      43.228  27.325  28.141  1.00  0.00    -0.354 N 
ATOM     45  C   UNL A   1      44.848  31.320  28.501  1.00  0.00     0.074 A 
ATOM     46  C   UNL A   1      43.872  32.232  29.058  1.00  0.00     0.031 C 
ATOM     47  C   UNL A   1      41.654  25.742  28.272  1.00  0.00     0.029 A 
ATOM     48  C   UNL A   1      43.020  26.002  27.828  1.00  0.00     0.049 A 
ATOM     49  H   UNL A   1      44.080  27.790  27.975  1.00  0.00     0.167 HD
ATOM     50  C   UNL A   1      46.106  31.673  28.143  1.00  0.00     0.037 A 
ATOM     51  C   UNL A   1      43.831  25.102  27.238  1.00  0.00     0.037 A 
ATOM     52  C   UNL A   1      47.078  30.753  27.612  1.00  0.00     0.049 A 
ATOM     53  C   UNL A   1      45.223  25.519  26.845  1.00  0.00     0.074 A 
ATOM     54  C   UNL A   1      48.400  30.998  27.280  1.00  0.00     0.029 A 
ATOM     55  N   UNL A   1      46.837  29.417  27.327  1.00  0.00    -0.354 N 
ATOM     56  N   UNL A   1      45.799  26.690  26.975  1.00  0.00    -0.248 NA
ATOM     57  C   UNL A   1      46.079  24.492  26.235  1.00  0.00     0.031 C 
ATOM     58  C   UNL A   1      48.939  29.825  26.741  1.00  0.00     0.029 A 
ATOM     59  C   UNL A   1      47.975  28.832  26.798  1.00  0.00     0.049 A 
ATOM     60  H   UNL A   1      45.982  28.952  27.480  1.00  0.00     0.167 HD
ATOM     61  C   UNL A   1      47.094  26.534  26.489  1.00  0.00     0.074 A 
ATOM     62  C   UNL A   1      47.218  25.151  26.075  1.00  0.00     0.031 C 
ATOM     63  C   UNL A   1      48.088  27.452  26.395  1.00  0.00     0.037 A 
BRANCH  50  64
ATOM     64  C   UNL A   1      46.507  33.114  28.311  1.00  0.00     0.058 A 
ATOM     65  C   UNL A   1      46.325  34.058  27.287  1.00  0.00     0.135 A 
ATOM     66  C   UNL A   1      47.034  33.570  29.531  1.00  0.00     0.135 A 
ATOM     67  F   UNL A   1      45.837  33.679  26.095  1.00  0.00    -0.206 F 
ATOM     68  C   UNL A   1      46.676  35.393  27.457  1.00  0.00     0.059 A 
ATOM     69  C   UNL A   1      47.363  34.907  29.733  1.00  0.00     0.059 A 
ATOM     70  F   UNL A   1      47.230  32.712  30.545  1.00  0.00    -0.206 F 
ATOM     71  C   UNL A   1      47.193  35.809  28.685  1.00  0.00     0.060 A 
BRANCH  71  72
ATOM     72  S   UNL A   1      47.627  37.549  28.892  1.00  0.00     0.124 S 
ATOM     73  O   UNL A   1      48.373  37.513  30.147  1.00  0.00    -0.237 OA
ATOM     74  O   UNL A   1      48.416  37.818  27.694  1.00  0.00    -0.237 OA
ATOM     75  O   UNL A   1      46.333  38.219  28.952  1.00  0.00    -0.744 OA
ENDBRANCH  71  72
ENDBRANCH  50  64
BRANCH  51  76
ATOM     76  C   UNL A   1      43.350  23.715  26.993  1.00  0.00     0.058 A 
ATOM     77  C   UNL A   1      42.993  23.289  25.705  1.00  0.00     0.135 A 
ATOM     78  C   UNL A   1      43.246  22.785  28.040  1.00  0.00     0.135 A 
ATOM     79  F   UNL A   1      43.068  24.142  24.671  1.00  0.00    -0.206 F 
ATOM     80  C   UNL A   1      42.531  21.998  25.464  1.00  0.00     0.059 A 
ATOM     81  C   UNL A   1      42.816  21.480  27.819  1.00  0.00     0.059 A 
ATOM     82  F   UNL A   1      43.592  23.135  29.288  1.00  0.00    -0.206 F 
ATOM     83  C   UNL A   1      42.451  21.099  26.530  1.00  0.00     0.060 A 
BRANCH  83  84
ATOM     84  S   UNL A   1      41.893  19.414  26.201  1.00  0.00     0.124 S 
ATOM     85  O   UNL A   1      40.460  19.609  26.014  1.00  0.00    -0.237 OA
ATOM     86  O   UNL A   1      42.653  19.069  25.003  1.00  0.00    -0.237 OA
ATOM     87  O   UNL A   1      42.281  18.691  27.408  1.00  0.00    -0.744 OA
ENDBRANCH  83  84
ENDBRANCH  51  76
BRANCH  63  88
ATOM     88  C   UNL A   1      49.415  26.986  25.860  1.00  0.00     0.058 A 
ATOM     89  C   UNL A   1      49.771  27.153  24.512  1.00  0.00     0.135 A 
ATOM     90  C   UNL A   1      50.366  26.414  26.721  1.00  0.00     0.135 A 
ATOM     91  F   UNL A   1      48.898  27.688  23.643  1.00  0.00    -0.206 F 
ATOM     92  C   UNL A   1      51.013  26.748  24.033  1.00  0.00     0.059 A 
ATOM     93  C   UNL A   1      51.625  26.031  26.270  1.00  0.00     0.059 A 
ATOM     94  F   UNL A   1      50.082  26.241  28.022  1.00  0.00    -0.206 F 
ATOM     95  C   UNL A   1      51.934  26.190  24.921  1.00  0.00     0.060 A 
BRANCH  95  96
ATOM     96  S   UNL A   1      53.554  25.701  24.292  1.00  0.00     0.124 S 
ATOM     97  O   UNL A   1      54.436  26.608  25.018  1.00  0.00    -0.237 OA
ATOM     98  O   UNL A   1      53.628  24.296  24.679  1.00  0.00    -0.237 OA
ATOM     99  O   UNL A   1      53.448  25.945  22.856  1.00  0.00    -0.744 OA
ENDBRANCH  95  96
ENDBRANCH  63  88
ENDBRANCH  37  38
ENDBRANCH  29  32
ENDBRANCH  27  28
ENDBRANCH  26  27
ENDBRANCH   1  26
TORSDOF 18
ENDMDL
