MODEL 1
REMARK VINA RESULT:     -11.3      0.000      0.000
REMARK SMILES Cc1nc2n(n1)[C@@H](c1ccc([N+](=O)[O-])o1)CC(C(=O)NCCCCCCNC(=O)c1ccc(-c3c4nc(c(-c5c(F)cc(S(=O)(=O)[O-])cc5F)c5ccc([nH]5)c(-c5c(F)cc(S(=O)(=O)[O-])cc5F)c5nc(c(-c6c(F)cc(S(=O)(=O)[O-])cc6F)c6ccc3[nH]6)C=C5)C=C4)cc1)=N2
REMARK SMILES IDX 24 1 23 2 22 3 21 4 20 5 18 6 19 7 17 9 1 10 2 11 3 12 6 13
REMARK SMILES IDX 4 14 5 15 96 16 7 17 16 18 8 19 9 20 15 21 10 22 11 23 12 24
REMARK SMILES IDX 13 25 14 26 25 27 26 28 27 29 28 30 29 32 30 33 31 34 95 35
REMARK SMILES IDX 32 36 94 37 33 38 34 39 35 40 88 41 36 42 93 43 87 44 89 45
REMARK SMILES IDX 37 46 92 47 86 48 85 49 38 51 72 52 51 53 71 54 52 55 55 56
REMARK SMILES IDX 70 57 90 58 53 59 54 60 69 62 91 63 56 64 39 65 40 66 49 67
REMARK SMILES IDX 41 68 42 69 48 70 50 71 43 72 44 73 45 74 46 75 47 76 73 77
REMARK SMILES IDX 74 78 83 79 75 80 76 81 82 82 84 83 77 84 78 85 79 86 80 87
REMARK SMILES IDX 81 88 57 89 58 90 67 91 59 92 60 93 66 94 68 95 61 96 62 97
REMARK SMILES IDX 63 98 64 99 65 100
REMARK H PARENT 20 8 27 31 89 50 55 61
REMARK Flexibility Score: inf
ROOT
ATOM      1  C   UNL A   1      43.944  28.219  35.987  1.00  0.00     0.002 C 
ENDROOT
BRANCH   1   2
ATOM      2  C   UNL A   1      42.800  27.951  34.999  1.00  0.00     0.002 C 
BRANCH   2   3
ATOM      3  C   UNL A   1      42.339  29.171  34.192  1.00  0.00     0.021 C 
BRANCH   3   4
ATOM      4  C   UNL A   1      40.914  29.046  33.646  1.00  0.00     0.116 C 
BRANCH   4   5
ATOM      5  N   UNL A   1      39.918  29.349  34.663  1.00  0.00    -0.351 N 
ATOM      6  C   UNL A   1      39.052  30.382  34.919  1.00  0.00     0.265 C 
ATOM      7  O   UNL A   1      38.340  30.273  35.916  1.00  0.00    -0.268 OA
ATOM      8  H   UNL A   1      39.849  28.634  35.336  1.00  0.00     0.163 HD
BRANCH   6   9
ATOM      9  C   UNL A   1      38.898  31.647  34.050  1.00  0.00     0.112 C 
ATOM     10  C   UNL A   1      39.799  34.764  29.230  1.00  0.00     0.092 C 
ATOM     11  C   UNL A   1      39.446  34.140  30.520  1.00  0.00     0.149 A 
ATOM     12  N   UNL A   1      39.818  32.862  30.848  1.00  0.00    -0.195 NA
ATOM     13  N   UNL A   1      38.732  34.775  31.457  1.00  0.00    -0.154 NA
ATOM     14  C   UNL A   1      39.301  32.669  32.043  1.00  0.00     0.249 A 
ATOM     15  N   UNL A   1      38.624  33.807  32.387  1.00  0.00    -0.219 N 
ATOM     16  N   UNL A   1      39.374  31.582  32.841  1.00  0.00    -0.211 NA
ATOM     17  C   UNL A   1      37.945  33.997  33.644  1.00  0.00     0.184 C 
ATOM     18  C   UNL A   1      38.281  32.885  34.640  1.00  0.00     0.098 C 
BRANCH  17  19
ATOM     19  C   UNL A   1      36.459  34.136  33.478  1.00  0.00     0.136 A 
ATOM     20  C   UNL A   1      35.371  33.280  33.479  1.00  0.00     0.056 A 
ATOM     21  O   UNL A   1      36.026  35.418  33.254  1.00  0.00    -0.404 OA
ATOM     22  C   UNL A   1      34.213  34.079  33.276  1.00  0.00     0.134 A 
ATOM     23  C   UNL A   1      34.673  35.367  33.162  1.00  0.00     0.433 A 
BRANCH  23  24
ATOM     24  N   UNL A   1      34.010  36.623  33.006  1.00  0.00     0.102 N 
ATOM     25  O   UNL A   1      33.618  36.898  31.867  1.00  0.00    -0.256 OA
ATOM     26  O   UNL A   1      33.851  37.311  34.024  1.00  0.00    -0.256 OA
ENDBRANCH  23  24
ENDBRANCH  17  19
ENDBRANCH   6   9
ENDBRANCH   4   5
ENDBRANCH   3   4
ENDBRANCH   2   3
ENDBRANCH   1   2
BRANCH   1  27
ATOM     27  C   UNL A   1      44.107  27.186  37.118  1.00  0.00     0.021 C 
BRANCH  27  28
ATOM     28  C   UNL A   1      43.274  25.903  36.950  1.00  0.00     0.116 C 
BRANCH  28  29
ATOM     29  N   UNL A   1      44.162  24.772  36.742  1.00  0.00    -0.352 N 
ATOM     30  C   UNL A   1      44.716  24.240  35.614  1.00  0.00     0.251 C 
ATOM     31  H   UNL A   1      44.411  24.302  37.570  1.00  0.00     0.163 HD
ATOM     32  O   UNL A   1      45.046  23.053  35.659  1.00  0.00    -0.269 OA
BRANCH  30  33
ATOM     33  C   UNL A   1      44.973  25.017  34.379  1.00  0.00     0.039 A 
ATOM     34  C   UNL A   1      44.130  24.764  33.286  1.00  0.00     0.014 A 
ATOM     35  C   UNL A   1      46.095  25.831  34.204  1.00  0.00     0.014 A 
ATOM     36  C   UNL A   1      44.399  25.319  32.035  1.00  0.00     0.010 A 
ATOM     37  C   UNL A   1      46.361  26.393  32.946  1.00  0.00     0.010 A 
ATOM     38  C   UNL A   1      45.514  26.145  31.854  1.00  0.00    -0.014 A 
BRANCH  38  39
ATOM     39  C   UNL A   1      45.656  26.820  30.543  1.00  0.00     0.031 A 
ATOM     40  C   UNL A   1      45.497  25.922  29.355  1.00  0.00     0.074 A 
ATOM     41  C   UNL A   1      45.422  28.141  30.381  1.00  0.00     0.049 A 
ATOM     42  N   UNL A   1      44.335  25.569  28.888  1.00  0.00    -0.248 NA
ATOM     43  C   UNL A   1      46.612  25.157  28.799  1.00  0.00     0.031 C 
ATOM     44  C   UNL A   1      44.345  28.858  31.078  1.00  0.00     0.029 A 
ATOM     45  N   UNL A   1      45.863  29.037  29.429  1.00  0.00    -0.354 N 
ATOM     46  C   UNL A   1      44.543  24.520  28.008  1.00  0.00     0.074 A 
ATOM     47  C   UNL A   1      45.972  24.299  27.986  1.00  0.00     0.031 C 
ATOM     48  C   UNL A   1      44.098  30.009  30.420  1.00  0.00     0.029 A 
ATOM     49  C   UNL A   1      45.083  30.193  29.353  1.00  0.00     0.049 A 
ATOM     50  H   UNL A   1      46.650  28.877  28.860  1.00  0.00     0.167 HD
ATOM     51  C   UNL A   1      43.529  23.900  27.348  1.00  0.00     0.037 A 
ATOM     52  C   UNL A   1      44.848  30.904  28.212  1.00  0.00     0.037 A 
ATOM     53  C   UNL A   1      42.227  24.458  27.567  1.00  0.00     0.049 A 
ATOM     54  C   UNL A   1      43.934  29.963  27.468  1.00  0.00     0.074 A 
ATOM     55  C   UNL A   1      41.113  24.199  28.334  1.00  0.00     0.029 A 
ATOM     56  N   UNL A   1      41.902  25.591  26.859  1.00  0.00    -0.354 N 
ATOM     57  N   UNL A   1      42.652  29.812  27.675  1.00  0.00    -0.248 NA
ATOM     58  C   UNL A   1      44.564  28.879  26.714  1.00  0.00     0.031 C 
ATOM     59  C   UNL A   1      40.395  25.436  28.391  1.00  0.00     0.029 A 
ATOM     60  C   UNL A   1      41.139  26.378  27.682  1.00  0.00     0.049 A 
ATOM     61  H   UNL A   1      42.167  25.798  25.934  1.00  0.00     0.167 HD
ATOM     62  C   UNL A   1      42.377  28.488  27.324  1.00  0.00     0.074 A 
ATOM     63  C   UNL A   1      43.593  27.978  26.726  1.00  0.00     0.031 C 
ATOM     64  C   UNL A   1      41.246  27.819  27.696  1.00  0.00     0.037 A 
BRANCH  51  65
ATOM     65  C   UNL A   1      43.682  22.856  26.311  1.00  0.00     0.058 A 
ATOM     66  C   UNL A   1      43.252  21.557  26.625  1.00  0.00     0.135 A 
ATOM     67  C   UNL A   1      44.454  23.035  25.158  1.00  0.00     0.135 A 
ATOM     68  F   UNL A   1      42.501  21.346  27.721  1.00  0.00    -0.206 F 
ATOM     69  C   UNL A   1      43.632  20.459  25.869  1.00  0.00     0.059 A 
ATOM     70  C   UNL A   1      44.837  21.948  24.372  1.00  0.00     0.059 A 
ATOM     71  F   UNL A   1      44.891  24.259  24.817  1.00  0.00    -0.206 F 
ATOM     72  C   UNL A   1      44.447  20.661  24.757  1.00  0.00     0.060 A 
BRANCH  72  73
ATOM     73  S   UNL A   1      45.017  19.202  23.858  1.00  0.00     0.124 S 
ATOM     74  O   UNL A   1      44.422  18.119  24.633  1.00  0.00    -0.237 OA
ATOM     75  O   UNL A   1      44.448  19.424  22.532  1.00  0.00    -0.237 OA
ATOM     76  O   UNL A   1      46.471  19.303  23.935  1.00  0.00    -0.744 OA
ENDBRANCH  72  73
ENDBRANCH  51  65
BRANCH  52  77
ATOM     77  C   UNL A   1      46.033  31.582  27.592  1.00  0.00     0.058 A 
ATOM     78  C   UNL A   1      45.887  32.926  27.182  1.00  0.00     0.135 A 
ATOM     79  C   UNL A   1      47.297  31.012  27.367  1.00  0.00     0.135 A 
ATOM     80  F   UNL A   1      44.681  33.517  27.226  1.00  0.00    -0.206 F 
ATOM     81  C   UNL A   1      46.958  33.696  26.732  1.00  0.00     0.059 A 
ATOM     82  C   UNL A   1      48.394  31.769  26.945  1.00  0.00     0.059 A 
ATOM     83  F   UNL A   1      47.515  29.706  27.568  1.00  0.00    -0.206 F 
ATOM     84  C   UNL A   1      48.221  33.121  26.665  1.00  0.00     0.060 A 
BRANCH  84  85
ATOM     85  S   UNL A   1      49.635  34.177  26.286  1.00  0.00     0.124 S 
ATOM     86  O   UNL A   1      49.619  35.117  27.404  1.00  0.00    -0.237 OA
ATOM     87  O   UNL A   1      50.734  33.212  26.286  1.00  0.00    -0.237 OA
ATOM     88  O   UNL A   1      49.304  34.737  24.985  1.00  0.00    -0.744 OA
ENDBRANCH  84  85
ENDBRANCH  52  77
BRANCH  64  89
ATOM     89  C   UNL A   1      40.168  28.629  28.331  1.00  0.00     0.058 A 
ATOM     90  C   UNL A   1      39.278  29.357  27.529  1.00  0.00     0.135 A 
ATOM     91  C   UNL A   1      39.936  28.602  29.715  1.00  0.00     0.135 A 
ATOM     92  F   UNL A   1      39.449  29.406  26.199  1.00  0.00    -0.206 F 
ATOM     93  C   UNL A   1      38.169  29.994  28.074  1.00  0.00     0.059 A 
ATOM     94  C   UNL A   1      38.819  29.213  30.279  1.00  0.00     0.059 A 
ATOM     95  F   UNL A   1      40.765  27.938  30.537  1.00  0.00    -0.206 F 
ATOM     96  C   UNL A   1      37.933  29.896  29.447  1.00  0.00     0.060 A 
BRANCH  96  97
ATOM     97  S   UNL A   1      36.403  30.587  30.107  1.00  0.00     0.124 S 
ATOM     98  O   UNL A   1      36.634  32.022  29.978  1.00  0.00    -0.237 OA
ATOM     99  O   UNL A   1      35.396  30.025  29.211  1.00  0.00    -0.237 OA
ATOM    100  O   UNL A   1      36.360  30.081  31.477  1.00  0.00    -0.744 OA
ENDBRANCH  96  97
ENDBRANCH  64  89
ENDBRANCH  38  39
ENDBRANCH  30  33
ENDBRANCH  28  29
ENDBRANCH  27  28
ENDBRANCH   1  27
TORSDOF 18
ENDMDL
MODEL 2
REMARK VINA RESULT:     -10.9      1.578      2.647
REMARK SMILES Cc1nc2n(n1)[C@@H](c1ccc([N+](=O)[O-])o1)CC(C(=O)NCCCCCCNC(=O)c1ccc(-c3c4nc(c(-c5c(F)cc(S(=O)(=O)[O-])cc5F)c5ccc([nH]5)c(-c5c(F)cc(S(=O)(=O)[O-])cc5F)c5nc(c(-c6c(F)cc(S(=O)(=O)[O-])cc6F)c6ccc3[nH]6)C=C5)C=C4)cc1)=N2
REMARK SMILES IDX 24 1 23 2 22 3 21 4 20 5 18 6 19 7 17 9 1 10 2 11 3 12 6 13
REMARK SMILES IDX 4 14 5 15 96 16 7 17 16 18 8 19 9 20 15 21 10 22 11 23 12 24
REMARK SMILES IDX 13 25 14 26 25 27 26 28 27 29 28 30 29 32 30 33 31 34 95 35
REMARK SMILES IDX 32 36 94 37 33 38 34 39 35 40 88 41 36 42 93 43 87 44 89 45
REMARK SMILES IDX 37 46 92 47 86 48 85 49 38 51 72 52 51 53 71 54 52 55 55 56
REMARK SMILES IDX 70 57 90 58 53 59 54 60 69 62 91 63 56 64 39 65 40 66 49 67
REMARK SMILES IDX 41 68 42 69 48 70 50 71 43 72 44 73 45 74 46 75 47 76 73 77
REMARK SMILES IDX 74 78 83 79 75 80 76 81 82 82 84 83 77 84 78 85 79 86 80 87
REMARK SMILES IDX 81 88 57 89 58 90 67 91 59 92 60 93 66 94 68 95 61 96 62 97
REMARK SMILES IDX 63 98 64 99 65 100
REMARK H PARENT 20 8 27 31 89 50 55 61
REMARK Flexibility Score: inf
ROOT
ATOM      1  C   UNL A   1      41.790  27.262  35.466  1.00  0.00     0.002 C 
ENDROOT
BRANCH   1   2
ATOM      2  C   UNL A   1      42.689  28.500  35.589  1.00  0.00     0.002 C 
BRANCH   2   3
ATOM      3  C   UNL A   1      41.942  29.829  35.769  1.00  0.00     0.021 C 
BRANCH   3   4
ATOM      4  C   UNL A   1      40.562  29.855  35.106  1.00  0.00     0.116 C 
BRANCH   4   5
ATOM      5  N   UNL A   1      39.498  30.026  36.083  1.00  0.00    -0.351 N 
ATOM      6  C   UNL A   1      38.335  30.751  36.158  1.00  0.00     0.265 C 
ATOM      7  O   UNL A   1      37.673  30.630  37.188  1.00  0.00    -0.268 OA
ATOM      8  H   UNL A   1      39.649  29.486  36.891  1.00  0.00     0.163 HD
BRANCH   6   9
ATOM      9  C   UNL A   1      37.799  31.686  35.054  1.00  0.00     0.112 C 
ATOM     10  C   UNL A   1      34.470  36.033  33.112  1.00  0.00     0.092 C 
ATOM     11  C   UNL A   1      35.395  34.921  33.402  1.00  0.00     0.149 A 
ATOM     12  N   UNL A   1      35.566  34.413  34.663  1.00  0.00    -0.195 NA
ATOM     13  N   UNL A   1      36.137  34.335  32.455  1.00  0.00    -0.154 NA
ATOM     14  C   UNL A   1      36.474  33.471  34.514  1.00  0.00     0.249 A 
ATOM     15  N   UNL A   1      36.835  33.453  33.195  1.00  0.00    -0.219 N 
ATOM     16  N   UNL A   1      37.004  32.641  35.438  1.00  0.00    -0.211 NA
ATOM     17  C   UNL A   1      37.788  32.531  32.629  1.00  0.00     0.184 C 
ATOM     18  C   UNL A   1      38.154  31.422  33.618  1.00  0.00     0.098 C 
BRANCH  17  19
ATOM     19  C   UNL A   1      39.019  33.221  32.118  1.00  0.00     0.136 A 
ATOM     20  C   UNL A   1      39.595  33.445  30.878  1.00  0.00     0.056 A 
ATOM     21  O   UNL A   1      39.811  33.774  33.091  1.00  0.00    -0.404 OA
ATOM     22  C   UNL A   1      40.781  34.197  31.101  1.00  0.00     0.134 A 
ATOM     23  C   UNL A   1      40.849  34.379  32.460  1.00  0.00     0.433 A 
BRANCH  23  24
ATOM     24  N   UNL A   1      41.760  35.092  33.298  1.00  0.00     0.102 N 
ATOM     25  O   UNL A   1      42.905  35.245  32.857  1.00  0.00    -0.256 OA
ATOM     26  O   UNL A   1      41.321  35.528  34.372  1.00  0.00    -0.256 OA
ENDBRANCH  23  24
ENDBRANCH  17  19
ENDBRANCH   6   9
ENDBRANCH   4   5
ENDBRANCH   3   4
ENDBRANCH   2   3
ENDBRANCH   1   2
BRANCH   1  27
ATOM     27  C   UNL A   1      41.705  26.370  36.719  1.00  0.00     0.021 C 
BRANCH  27  28
ATOM     28  C   UNL A   1      41.804  24.859  36.448  1.00  0.00     0.116 C 
BRANCH  28  29
ATOM     29  N   UNL A   1      43.128  24.385  36.812  1.00  0.00    -0.352 N 
ATOM     30  C   UNL A   1      44.221  24.057  36.062  1.00  0.00     0.251 C 
ATOM     31  H   UNL A   1      43.263  24.281  37.782  1.00  0.00     0.163 HD
ATOM     32  O   UNL A   1      45.031  23.277  36.565  1.00  0.00    -0.269 OA
BRANCH  30  33
ATOM     33  C   UNL A   1      44.494  24.619  34.718  1.00  0.00     0.039 A 
ATOM     34  C   UNL A   1      45.085  25.891  34.673  1.00  0.00     0.014 A 
ATOM     35  C   UNL A   1      44.037  24.034  33.534  1.00  0.00     0.014 A 
ATOM     36  C   UNL A   1      45.224  26.570  33.463  1.00  0.00     0.010 A 
ATOM     37  C   UNL A   1      44.182  24.716  32.317  1.00  0.00     0.010 A 
ATOM     38  C   UNL A   1      44.779  25.986  32.270  1.00  0.00    -0.014 A 
BRANCH  38  39
ATOM     39  C   UNL A   1      45.092  26.694  31.008  1.00  0.00     0.031 A 
ATOM     40  C   UNL A   1      45.045  25.840  29.780  1.00  0.00     0.074 A 
ATOM     41  C   UNL A   1      44.916  28.027  30.865  1.00  0.00     0.049 A 
ATOM     42  N   UNL A   1      43.936  25.539  29.170  1.00  0.00    -0.248 NA
ATOM     43  C   UNL A   1      46.195  25.055  29.330  1.00  0.00     0.031 C 
ATOM     44  C   UNL A   1      43.787  28.757  31.458  1.00  0.00     0.029 A 
ATOM     45  N   UNL A   1      45.491  28.936  30.001  1.00  0.00    -0.354 N 
ATOM     46  C   UNL A   1      44.214  24.511  28.285  1.00  0.00     0.074 A 
ATOM     47  C   UNL A   1      45.629  24.244  28.420  1.00  0.00     0.031 C 
ATOM     48  C   UNL A   1      43.652  29.936  30.815  1.00  0.00     0.029 A 
ATOM     49  C   UNL A   1      44.759  30.119  29.876  1.00  0.00     0.049 A 
ATOM     50  H   UNL A   1      46.333  28.768  29.522  1.00  0.00     0.167 HD
ATOM     51  C   UNL A   1      43.266  23.945  27.492  1.00  0.00     0.037 A 
ATOM     52  C   UNL A   1      44.678  30.872  28.740  1.00  0.00     0.037 A 
ATOM     53  C   UNL A   1      41.963  24.539  27.578  1.00  0.00     0.049 A 
ATOM     54  C   UNL A   1      43.830  29.985  27.864  1.00  0.00     0.074 A 
ATOM     55  C   UNL A   1      40.760  24.293  28.203  1.00  0.00     0.029 A 
ATOM     56  N   UNL A   1      41.756  25.703  26.877  1.00  0.00    -0.354 N 
ATOM     57  N   UNL A   1      42.528  29.870  27.917  1.00  0.00    -0.248 NA
ATOM     58  C   UNL A   1      44.511  28.904  27.151  1.00  0.00     0.031 C 
ATOM     59  C   UNL A   1      40.077  25.551  28.219  1.00  0.00     0.029 A 
ATOM     60  C   UNL A   1      40.926  26.489  27.633  1.00  0.00     0.049 A 
ATOM     61  H   UNL A   1      42.132  25.929  25.996  1.00  0.00     0.167 HD
ATOM     62  C   UNL A   1      42.258  28.567  27.492  1.00  0.00     0.074 A 
ATOM     63  C   UNL A   1      43.520  28.036  27.020  1.00  0.00     0.031 C 
ATOM     64  C   UNL A   1      41.072  27.925  27.709  1.00  0.00     0.037 A 
BRANCH  51  65
ATOM     65  C   UNL A   1      43.507  22.929  26.444  1.00  0.00     0.058 A 
ATOM     66  C   UNL A   1      43.055  21.622  26.687  1.00  0.00     0.135 A 
ATOM     67  C   UNL A   1      44.373  23.138  25.366  1.00  0.00     0.135 A 
ATOM     68  F   UNL A   1      42.215  21.382  27.710  1.00  0.00    -0.206 F 
ATOM     69  C   UNL A   1      43.499  20.544  25.937  1.00  0.00     0.059 A 
ATOM     70  C   UNL A   1      44.823  22.071  24.587  1.00  0.00     0.059 A 
ATOM     71  F   UNL A   1      44.834  24.370  25.095  1.00  0.00    -0.206 F 
ATOM     72  C   UNL A   1      44.405  20.775  24.903  1.00  0.00     0.060 A 
BRANCH  72  73
ATOM     73  S   UNL A   1      45.051  19.341  24.017  1.00  0.00     0.124 S 
ATOM     74  O   UNL A   1      44.495  19.535  22.683  1.00  0.00    -0.237 OA
ATOM     75  O   UNL A   1      46.492  19.534  24.141  1.00  0.00    -0.237 OA
ATOM     76  O   UNL A   1      44.509  18.209  24.764  1.00  0.00    -0.744 OA
ENDBRANCH  72  73
ENDBRANCH  51  65
BRANCH  52  77
ATOM     77  C   UNL A   1      45.947  31.530  28.284  1.00  0.00     0.058 A 
ATOM     78  C   UNL A   1      46.931  31.813  29.256  1.00  0.00     0.135 A 
ATOM     79  C   UNL A   1      46.264  31.907  26.969  1.00  0.00     0.135 A 
ATOM     80  F   UNL A   1      46.668  31.619  30.559  1.00  0.00    -0.206 F 
ATOM     81  C   UNL A   1      48.201  32.285  28.926  1.00  0.00     0.059 A 
ATOM     82  C   UNL A   1      47.538  32.354  26.607  1.00  0.00     0.059 A 
ATOM     83  F   UNL A   1      45.356  31.834  25.987  1.00  0.00    -0.206 F 
ATOM     84  C   UNL A   1      48.512  32.505  27.589  1.00  0.00     0.060 A 
BRANCH  84  85
ATOM     85  S   UNL A   1      50.215  32.911  27.152  1.00  0.00     0.124 S 
ATOM     86  O   UNL A   1      50.889  32.824  28.445  1.00  0.00    -0.237 OA
ATOM     87  O   UNL A   1      50.537  31.850  26.198  1.00  0.00    -0.237 OA
ATOM     88  O   UNL A   1      50.113  34.245  26.581  1.00  0.00    -0.744 OA
ENDBRANCH  84  85
ENDBRANCH  52  77
BRANCH  64  89
ATOM     89  C   UNL A   1      39.952  28.750  28.243  1.00  0.00     0.058 A 
ATOM     90  C   UNL A   1      39.119  29.449  27.359  1.00  0.00     0.135 A 
ATOM     91  C   UNL A   1      39.626  28.765  29.608  1.00  0.00     0.135 A 
ATOM     92  F   UNL A   1      39.380  29.457  26.043  1.00  0.00    -0.206 F 
ATOM     93  C   UNL A   1      37.974  30.099  27.807  1.00  0.00     0.059 A 
ATOM     94  C   UNL A   1      38.471  29.389  30.074  1.00  0.00     0.059 A 
ATOM     95  F   UNL A   1      40.398  28.129  30.505  1.00  0.00    -0.206 F 
ATOM     96  C   UNL A   1      37.643  30.042  29.162  1.00  0.00     0.060 A 
BRANCH  96  97
ATOM     97  S   UNL A   1      36.071  30.748  29.695  1.00  0.00     0.124 S 
ATOM     98  O   UNL A   1      35.152  30.254  28.675  1.00  0.00    -0.237 OA
ATOM     99  O   UNL A   1      35.908  30.171  31.027  1.00  0.00    -0.237 OA
ATOM    100  O   UNL A   1      36.315  32.187  29.674  1.00  0.00    -0.744 OA
ENDBRANCH  96  97
ENDBRANCH  64  89
ENDBRANCH  38  39
ENDBRANCH  30  33
ENDBRANCH  28  29
ENDBRANCH  27  28
ENDBRANCH   1  27
TORSDOF 18
ENDMDL
MODEL 3
REMARK VINA RESULT:     -10.8      5.493     10.593
REMARK SMILES Cc1nc2n(n1)[C@@H](c1ccc([N+](=O)[O-])o1)CC(C(=O)NCCCCCCNC(=O)c1ccc(-c3c4nc(c(-c5c(F)cc(S(=O)(=O)[O-])cc5F)c5ccc([nH]5)c(-c5c(F)cc(S(=O)(=O)[O-])cc5F)c5nc(c(-c6c(F)cc(S(=O)(=O)[O-])cc6F)c6ccc3[nH]6)C=C5)C=C4)cc1)=N2
REMARK SMILES IDX 24 1 23 2 22 3 21 4 20 5 18 6 19 7 17 9 1 10 2 11 3 12 6 13
REMARK SMILES IDX 4 14 5 15 96 16 7 17 16 18 8 19 9 20 15 21 10 22 11 23 12 24
REMARK SMILES IDX 13 25 14 26 25 27 26 28 27 29 28 30 29 32 30 33 31 34 95 35
REMARK SMILES IDX 32 36 94 37 33 38 34 39 35 40 88 41 36 42 93 43 87 44 89 45
REMARK SMILES IDX 37 46 92 47 86 48 85 49 38 51 72 52 51 53 71 54 52 55 55 56
REMARK SMILES IDX 70 57 90 58 53 59 54 60 69 62 91 63 56 64 39 65 40 66 49 67
REMARK SMILES IDX 41 68 42 69 48 70 50 71 43 72 44 73 45 74 46 75 47 76 73 77
REMARK SMILES IDX 74 78 83 79 75 80 76 81 82 82 84 83 77 84 78 85 79 86 80 87
REMARK SMILES IDX 81 88 57 89 58 90 67 91 59 92 60 93 66 94 68 95 61 96 62 97
REMARK SMILES IDX 63 98 64 99 65 100
REMARK H PARENT 20 8 27 31 89 50 55 61
REMARK Flexibility Score: inf
ROOT
ATOM      1  C   UNL A   1      31.749  29.882  25.222  1.00  0.00     0.002 C 
ENDROOT
BRANCH   1   2
ATOM      2  C   UNL A   1      31.217  28.562  24.645  1.00  0.00     0.002 C 
BRANCH   2   3
ATOM      3  C   UNL A   1      31.518  28.336  23.158  1.00  0.00     0.021 C 
BRANCH   3   4
ATOM      4  C   UNL A   1      31.034  26.982  22.631  1.00  0.00     0.116 C 
BRANCH   4   5
ATOM      5  N   UNL A   1      31.762  26.576  21.438  1.00  0.00    -0.351 N 
ATOM      6  C   UNL A   1      32.599  25.544  21.097  1.00  0.00     0.265 C 
ATOM      7  O   UNL A   1      33.036  25.542  19.947  1.00  0.00    -0.268 OA
ATOM      8  H   UNL A   1      31.618  27.197  20.689  1.00  0.00     0.163 HD
BRANCH   6   9
ATOM      9  C   UNL A   1      33.016  24.392  22.035  1.00  0.00     0.112 C 
ATOM     10  C   UNL A   1      36.925  21.287  25.007  1.00  0.00     0.092 C 
ATOM     11  C   UNL A   1      35.783  21.945  24.345  1.00  0.00     0.149 A 
ATOM     12  N   UNL A   1      35.926  23.065  23.567  1.00  0.00    -0.195 NA
ATOM     13  N   UNL A   1      34.526  21.500  24.462  1.00  0.00    -0.154 NA
ATOM     14  C   UNL A   1      34.699  23.356  23.187  1.00  0.00     0.249 A 
ATOM     15  N   UNL A   1      33.863  22.434  23.755  1.00  0.00    -0.219 N 
ATOM     16  N   UNL A   1      34.265  24.360  22.395  1.00  0.00    -0.211 NA
ATOM     17  C   UNL A   1      32.437  22.399  23.548  1.00  0.00     0.184 C 
ATOM     18  C   UNL A   1      32.006  23.350  22.429  1.00  0.00     0.098 C 
BRANCH  17  19
ATOM     19  C   UNL A   1      31.668  22.671  24.808  1.00  0.00     0.136 A 
ATOM     20  C   UNL A   1      31.206  21.920  25.877  1.00  0.00     0.056 A 
ATOM     21  O   UNL A   1      31.297  23.979  24.981  1.00  0.00    -0.404 OA
ATOM     22  C   UNL A   1      30.546  22.817  26.761  1.00  0.00     0.134 A 
ATOM     23  C   UNL A   1      30.648  24.053  26.171  1.00  0.00     0.433 A 
BRANCH  23  24
ATOM     24  N   UNL A   1      30.244  25.359  26.583  1.00  0.00     0.102 N 
ATOM     25  O   UNL A   1      31.148  26.136  26.908  1.00  0.00    -0.256 OA
ATOM     26  O   UNL A   1      29.032  25.617  26.544  1.00  0.00    -0.256 OA
ENDBRANCH  23  24
ENDBRANCH  17  19
ENDBRANCH   6   9
ENDBRANCH   4   5
ENDBRANCH   3   4
ENDBRANCH   2   3
ENDBRANCH   1   2
BRANCH   1  27
ATOM     27  C   UNL A   1      33.114  29.799  25.930  1.00  0.00     0.021 C 
BRANCH  27  28
ATOM     28  C   UNL A   1      33.147  30.392  27.349  1.00  0.00     0.116 C 
BRANCH  28  29
ATOM     29  N   UNL A   1      33.674  31.745  27.298  1.00  0.00    -0.352 N 
ATOM     30  C   UNL A   1      34.660  32.370  28.005  1.00  0.00     0.251 C 
ATOM     31  H   UNL A   1      33.238  32.319  26.628  1.00  0.00     0.163 HD
ATOM     32  O   UNL A   1      34.600  33.598  28.086  1.00  0.00    -0.269 OA
BRANCH  30  33
ATOM     33  C   UNL A   1      35.800  31.658  28.631  1.00  0.00     0.039 A 
ATOM     34  C   UNL A   1      36.109  32.001  29.955  1.00  0.00     0.014 A 
ATOM     35  C   UNL A   1      36.665  30.820  27.921  1.00  0.00     0.014 A 
ATOM     36  C   UNL A   1      37.263  31.511  30.568  1.00  0.00     0.010 A 
ATOM     37  C   UNL A   1      37.822  30.325  28.540  1.00  0.00     0.010 A 
ATOM     38  C   UNL A   1      38.128  30.662  29.868  1.00  0.00    -0.014 A 
BRANCH  38  39
ATOM     39  C   UNL A   1      39.252  30.062  30.624  1.00  0.00     0.031 A 
ATOM     40  C   UNL A   1      39.532  28.628  30.299  1.00  0.00     0.074 A 
ATOM     41  C   UNL A   1      40.254  30.807  31.141  1.00  0.00     0.049 A 
ATOM     42  N   UNL A   1      40.222  28.261  29.260  1.00  0.00    -0.248 NA
ATOM     43  C   UNL A   1      38.830  27.526  30.958  1.00  0.00     0.031 C 
ATOM     44  C   UNL A   1      40.820  31.978  30.457  1.00  0.00     0.029 A 
ATOM     45  N   UNL A   1      41.131  30.564  32.178  1.00  0.00    -0.354 N 
ATOM     46  C   UNL A   1      40.030  26.899  29.093  1.00  0.00     0.074 A 
ATOM     47  C   UNL A   1      39.158  26.487  30.171  1.00  0.00     0.031 C 
ATOM     48  C   UNL A   1      42.032  32.242  30.988  1.00  0.00     0.029 A 
ATOM     49  C   UNL A   1      42.271  31.369  32.138  1.00  0.00     0.049 A 
ATOM     50  H   UNL A   1      40.968  29.891  32.877  1.00  0.00     0.167 HD
ATOM     51  C   UNL A   1      40.603  26.192  28.083  1.00  0.00     0.037 A 
ATOM     52  C   UNL A   1      43.512  30.990  32.562  1.00  0.00     0.037 A 
ATOM     53  C   UNL A   1      41.486  26.941  27.238  1.00  0.00     0.049 A 
ATOM     54  C   UNL A   1      43.894  30.001  31.490  1.00  0.00     0.074 A 
ATOM     55  C   UNL A   1      41.454  27.563  26.009  1.00  0.00     0.029 A 
ATOM     56  N   UNL A   1      42.759  27.170  27.706  1.00  0.00    -0.354 N 
ATOM     57  N   UNL A   1      44.355  30.294  30.302  1.00  0.00    -0.248 NA
ATOM     58  C   UNL A   1      43.382  28.637  31.628  1.00  0.00     0.031 C 
ATOM     59  C   UNL A   1      42.528  28.508  26.033  1.00  0.00     0.029 A 
ATOM     60  C   UNL A   1      43.124  28.424  27.291  1.00  0.00     0.049 A 
ATOM     61  H   UNL A   1      43.306  26.550  28.239  1.00  0.00     0.167 HD
ATOM     62  C   UNL A   1      43.934  29.249  29.476  1.00  0.00     0.074 A 
ATOM     63  C   UNL A   1      43.355  28.257  30.359  1.00  0.00     0.031 C 
ATOM     64  C   UNL A   1      43.909  29.317  28.113  1.00  0.00     0.037 A 
BRANCH  51  65
ATOM     65  C   UNL A   1      40.539  24.725  27.909  1.00  0.00     0.058 A 
ATOM     66  C   UNL A   1      41.629  23.966  28.367  1.00  0.00     0.135 A 
ATOM     67  C   UNL A   1      39.591  24.094  27.096  1.00  0.00     0.135 A 
ATOM     68  F   UNL A   1      42.557  24.534  29.157  1.00  0.00    -0.206 F 
ATOM     69  C   UNL A   1      41.818  22.650  27.976  1.00  0.00     0.059 A 
ATOM     70  C   UNL A   1      39.751  22.766  26.701  1.00  0.00     0.059 A 
ATOM     71  F   UNL A   1      38.533  24.779  26.632  1.00  0.00    -0.206 F 
ATOM     72  C   UNL A   1      40.886  22.064  27.121  1.00  0.00     0.060 A 
BRANCH  72  73
ATOM     73  S   UNL A   1      41.217  20.387  26.540  1.00  0.00     0.124 S 
ATOM     74  O   UNL A   1      39.964  20.045  25.876  1.00  0.00    -0.237 OA
ATOM     75  O   UNL A   1      42.367  20.592  25.665  1.00  0.00    -0.237 OA
ATOM     76  O   UNL A   1      41.496  19.651  27.771  1.00  0.00    -0.744 OA
ENDBRANCH  72  73
ENDBRANCH  51  65
BRANCH  52  77
ATOM     77  C   UNL A   1      43.664  30.730  34.032  1.00  0.00     0.058 A 
ATOM     78  C   UNL A   1      44.870  30.146  34.478  1.00  0.00     0.135 A 
ATOM     79  C   UNL A   1      42.716  31.006  35.030  1.00  0.00     0.135 A 
ATOM     80  F   UNL A   1      45.782  29.718  33.589  1.00  0.00    -0.206 F 
ATOM     81  C   UNL A   1      45.179  29.997  35.829  1.00  0.00     0.059 A 
ATOM     82  C   UNL A   1      43.010  30.893  36.392  1.00  0.00     0.059 A 
ATOM     83  F   UNL A   1      41.478  31.414  34.719  1.00  0.00    -0.206 F 
ATOM     84  C   UNL A   1      44.260  30.421  36.782  1.00  0.00     0.060 A 
BRANCH  84  85
ATOM     85  S   UNL A   1      44.750  30.421  38.519  1.00  0.00     0.124 S 
ATOM     86  O   UNL A   1      43.622  31.101  39.151  1.00  0.00    -0.237 OA
ATOM     87  O   UNL A   1      44.861  28.989  38.796  1.00  0.00    -0.237 OA
ATOM     88  O   UNL A   1      46.008  31.150  38.519  1.00  0.00    -0.744 OA
ENDBRANCH  84  85
ENDBRANCH  52  77
BRANCH  64  89
ATOM     89  C   UNL A   1      44.569  30.499  27.490  1.00  0.00     0.058 A 
ATOM     90  C   UNL A   1      43.938  31.750  27.528  1.00  0.00     0.135 A 
ATOM     91  C   UNL A   1      45.866  30.431  26.957  1.00  0.00     0.135 A 
ATOM     92  F   UNL A   1      42.702  31.872  28.037  1.00  0.00    -0.206 F 
ATOM     93  C   UNL A   1      44.589  32.902  27.100  1.00  0.00     0.059 A 
ATOM     94  C   UNL A   1      46.545  31.575  26.545  1.00  0.00     0.059 A 
ATOM     95  F   UNL A   1      46.514  29.257  26.876  1.00  0.00    -0.206 F 
ATOM     96  C   UNL A   1      45.902  32.809  26.634  1.00  0.00     0.060 A 
BRANCH  96  97
ATOM     97  S   UNL A   1      46.785  34.332  26.240  1.00  0.00     0.124 S 
ATOM     98  O   UNL A   1      48.152  34.003  26.628  1.00  0.00    -0.237 OA
ATOM     99  O   UNL A   1      46.548  34.465  24.805  1.00  0.00    -0.237 OA
ATOM    100  O   UNL A   1      46.124  35.337  27.069  1.00  0.00    -0.744 OA
ENDBRANCH  96  97
ENDBRANCH  64  89
ENDBRANCH  38  39
ENDBRANCH  30  33
ENDBRANCH  28  29
ENDBRANCH  27  28
ENDBRANCH   1  27
TORSDOF 18
ENDMDL
