MODEL 1
REMARK VINA RESULT:     -12.0      0.000      0.000
REMARK SMILES CCOc1cc(F)ccc1NC(=O)CC1(C(=O)NCCCCCCNC(=O)c2ccc(-c3c4nc(c(-c5c(F)cc(S(=O)(=O)[O-])cc5F)c5ccc([nH]5)c(-c5c(F)cc(S(=O)(=O)[O-])cc5F)c5nc(c(-c6c(F)cc(S(=O)(=O)[O-])cc6F)c6ccc3[nH]6)C=C5)C=C4)cc2)CCCCC1
REMARK SMILES IDX 20 1 19 2 18 3 16 4 17 5 15 7 94 8 98 9 95 10 97 11 96 12
REMARK SMILES IDX 14 13 12 14 11 15 13 17 10 18 4 19 5 20 6 21 9 22 7 23 8 24
REMARK SMILES IDX 3 25 2 26 1 27 21 28 22 29 23 30 24 31 25 32 26 33 27 35
REMARK SMILES IDX 28 36 29 37 93 38 30 39 92 40 31 41 32 42 33 43 86 44 34 45
REMARK SMILES IDX 91 46 85 47 87 48 35 49 90 50 84 51 83 52 36 54 70 55 49 56
REMARK SMILES IDX 69 57 50 58 53 59 68 60 88 61 51 62 52 63 67 65 89 66 54 67
REMARK SMILES IDX 37 68 38 69 47 70 39 71 40 72 46 73 48 74 41 75 42 76 43 77
REMARK SMILES IDX 44 78 45 79 71 80 72 81 81 82 73 83 74 84 80 85 82 86 75 87
REMARK SMILES IDX 76 88 77 89 78 90 79 91 55 92 56 93 65 94 57 95 58 96 64 97
REMARK SMILES IDX 66 98 59 99 60 100 61 101 62 102 63 103
REMARK H PARENT 18 6 11 16 25 34 87 53 53 64
REMARK Flexibility Score: inf
ROOT
ATOM      1  C   UNL A   1      36.608  22.601  23.615  1.00  0.00     0.021 C 
ENDROOT
BRANCH   1   2
ATOM      2  C   UNL A   1      35.613  23.667  24.048  1.00  0.00     0.116 C 
BRANCH   2   3
ATOM      3  N   UNL A   1      34.407  23.681  23.268  1.00  0.00    -0.356 N 
ATOM      4  C   UNL A   1      33.120  23.417  23.608  1.00  0.00     0.226 C 
ATOM      5  O   UNL A   1      32.328  23.466  22.662  1.00  0.00    -0.274 OA
ATOM      6  H   UNL A   1      34.538  23.924  22.324  1.00  0.00     0.163 HD
BRANCH   4   7
ATOM      7  C   UNL A   1      32.655  22.997  25.040  1.00  0.00     0.058 C 
ATOM      8  C   UNL A   1      33.369  23.756  26.182  1.00  0.00     0.017 C 
ATOM      9  C   UNL A   1      32.756  21.446  25.189  1.00  0.00     0.017 C 
ATOM     10  C   UNL A   1      34.497  23.113  26.989  1.00  0.00     0.001 C 
ATOM     11  C   UNL A   1      33.987  20.869  25.879  1.00  0.00     0.001 C 
ATOM     12  C   UNL A   1      34.366  21.607  27.153  1.00  0.00     0.000 C 
BRANCH   7  13
ATOM     13  C   UNL A   1      31.088  23.308  25.092  1.00  0.00     0.117 C 
BRANCH  13  14
ATOM     14  C   UNL A   1      30.510  24.095  26.276  1.00  0.00     0.225 C 
ATOM     15  N   UNL A   1      30.234  25.434  26.235  1.00  0.00    -0.323 N 
ATOM     16  H   UNL A   1      29.845  25.782  27.069  1.00  0.00     0.170 HD
ATOM     17  O   UNL A   1      30.244  23.517  27.337  1.00  0.00    -0.275 OA
BRANCH  15  18
ATOM     18  C   UNL A   1      30.393  26.413  25.237  1.00  0.00     0.084 A 
ATOM     19  C   UNL A   1      31.242  27.499  25.545  1.00  0.00     0.145 A 
ATOM     20  C   UNL A   1      31.190  28.650  24.763  1.00  0.00     0.087 A 
ATOM     21  C   UNL A   1      30.350  28.690  23.655  1.00  0.00     0.127 A 
ATOM     22  C   UNL A   1      29.658  26.423  24.047  1.00  0.00     0.033 A 
ATOM     23  F   UNL A   1      30.266  29.816  22.935  1.00  0.00    -0.207 F 
ATOM     24  C   UNL A   1      29.618  27.577  23.266  1.00  0.00     0.041 A 
BRANCH  19  25
ATOM     25  O   UNL A   1      32.109  27.324  26.592  1.00  0.00    -0.492 OA
BRANCH  25  26
ATOM     26  C   UNL A   1      33.510  27.439  26.329  1.00  0.00     0.226 C 
ATOM     27  C   UNL A   1      34.147  28.662  26.974  1.00  0.00     0.049 C 
ENDBRANCH  25  26
ENDBRANCH  19  25
ENDBRANCH  15  18
ENDBRANCH  13  14
ENDBRANCH   7  13
ENDBRANCH   4   7
ENDBRANCH   2   3
ENDBRANCH   1   2
BRANCH   1  28
ATOM     28  C   UNL A   1      37.348  21.933  24.769  1.00  0.00     0.002 C 
BRANCH  28  29
ATOM     29  C   UNL A   1      38.009  22.891  25.768  1.00  0.00     0.002 C 
BRANCH  29  30
ATOM     30  C   UNL A   1      39.246  22.357  26.497  1.00  0.00     0.021 C 
BRANCH  30  31
ATOM     31  C   UNL A   1      40.157  23.420  27.104  1.00  0.00     0.116 C 
BRANCH  31  32
ATOM     32  N   UNL A   1      40.972  24.081  26.098  1.00  0.00    -0.352 N 
ATOM     33  C   UNL A   1      41.369  25.386  26.015  1.00  0.00     0.251 C 
ATOM     34  H   UNL A   1      41.283  23.501  25.367  1.00  0.00     0.163 HD
ATOM     35  O   UNL A   1      41.885  25.800  24.975  1.00  0.00    -0.269 OA
BRANCH  33  36
ATOM     36  C   UNL A   1      41.176  26.299  27.159  1.00  0.00     0.039 A 
ATOM     37  C   UNL A   1      40.136  26.045  28.056  1.00  0.00     0.014 A 
ATOM     38  C   UNL A   1      41.992  27.422  27.325  1.00  0.00     0.014 A 
ATOM     39  C   UNL A   1      39.936  26.898  29.142  1.00  0.00     0.010 A 
ATOM     40  C   UNL A   1      41.834  28.234  28.444  1.00  0.00     0.010 A 
ATOM     41  C   UNL A   1      40.796  27.988  29.355  1.00  0.00    -0.014 A 
BRANCH  41  42
ATOM     42  C   UNL A   1      40.605  28.900  30.509  1.00  0.00     0.031 A 
ATOM     43  C   UNL A   1      41.483  28.766  31.723  1.00  0.00     0.074 A 
ATOM     44  C   UNL A   1      39.622  29.821  30.477  1.00  0.00     0.049 A 
ATOM     45  N   UNL A   1      41.430  29.418  32.856  1.00  0.00    -0.248 NA
ATOM     46  C   UNL A   1      42.548  27.751  31.665  1.00  0.00     0.031 C 
ATOM     47  C   UNL A   1      38.694  30.026  29.362  1.00  0.00     0.029 A 
ATOM     48  N   UNL A   1      39.237  30.755  31.404  1.00  0.00    -0.354 N 
ATOM     49  C   UNL A   1      42.445  28.889  33.644  1.00  0.00     0.074 A 
ATOM     50  C   UNL A   1      43.062  27.825  32.883  1.00  0.00     0.031 C 
ATOM     51  C   UNL A   1      37.870  31.044  29.659  1.00  0.00     0.029 A 
ATOM     52  C   UNL A   1      38.183  31.537  30.997  1.00  0.00     0.049 A 
ATOM     53  H   UNL A   1      39.675  30.854  32.281  1.00  0.00     0.167 HD
ATOM     54  C   UNL A   1      42.845  29.276  34.878  1.00  0.00     0.037 A 
ATOM     55  C   UNL A   1      37.543  32.539  31.631  1.00  0.00     0.037 A 
ATOM     56  C   UNL A   1      42.243  30.356  35.615  1.00  0.00     0.049 A 
ATOM     57  C   UNL A   1      37.993  32.938  33.009  1.00  0.00     0.074 A 
ATOM     58  C   UNL A   1      42.589  30.841  36.864  1.00  0.00     0.029 A 
ATOM     59  N   UNL A   1      41.177  31.123  35.169  1.00  0.00    -0.354 N 
ATOM     60  N   UNL A   1      38.966  32.439  33.732  1.00  0.00    -0.248 NA
ATOM     61  C   UNL A   1      37.262  34.036  33.657  1.00  0.00     0.031 C 
ATOM     62  C   UNL A   1      41.713  31.882  37.185  1.00  0.00     0.029 A 
ATOM     63  C   UNL A   1      40.848  32.073  36.119  1.00  0.00     0.049 A 
ATOM     64  H   UNL A   1      40.722  31.008  34.303  1.00  0.00     0.167 HD
ATOM     65  C   UNL A   1      38.983  33.180  34.909  1.00  0.00     0.074 A 
ATOM     66  C   UNL A   1      37.927  34.164  34.797  1.00  0.00     0.031 C 
ATOM     67  C   UNL A   1      39.801  33.055  35.984  1.00  0.00     0.037 A 
BRANCH  54  68
ATOM     68  C   UNL A   1      44.001  28.545  35.502  1.00  0.00     0.058 A 
ATOM     69  C   UNL A   1      43.785  27.449  36.352  1.00  0.00     0.135 A 
ATOM     70  C   UNL A   1      45.326  28.968  35.302  1.00  0.00     0.135 A 
ATOM     71  F   UNL A   1      42.540  26.999  36.572  1.00  0.00    -0.206 F 
ATOM     72  C   UNL A   1      44.840  26.807  36.992  1.00  0.00     0.059 A 
ATOM     73  C   UNL A   1      46.398  28.323  35.912  1.00  0.00     0.059 A 
ATOM     74  F   UNL A   1      45.590  29.996  34.480  1.00  0.00    -0.206 F 
ATOM     75  C   UNL A   1      46.143  27.252  36.768  1.00  0.00     0.060 A 
BRANCH  75  76
ATOM     76  S   UNL A   1      47.504  26.389  37.582  1.00  0.00     0.124 S 
ATOM     77  O   UNL A   1      47.436  26.929  38.934  1.00  0.00    -0.237 OA
ATOM     78  O   UNL A   1      47.110  24.990  37.434  1.00  0.00    -0.237 OA
ATOM     79  O   UNL A   1      48.672  26.786  36.801  1.00  0.00    -0.744 OA
ENDBRANCH  75  76
ENDBRANCH  54  68
BRANCH  55  80
ATOM     80  C   UNL A   1      36.434  33.257  30.947  1.00  0.00     0.058 A 
ATOM     81  C   UNL A   1      36.674  34.119  29.867  1.00  0.00     0.135 A 
ATOM     82  C   UNL A   1      35.109  33.116  31.388  1.00  0.00     0.135 A 
ATOM     83  F   UNL A   1      37.925  34.298  29.413  1.00  0.00    -0.206 F 
ATOM     84  C   UNL A   1      35.646  34.834  29.264  1.00  0.00     0.059 A 
ATOM     85  C   UNL A   1      34.059  33.801  30.786  1.00  0.00     0.059 A 
ATOM     86  F   UNL A   1      34.830  32.293  32.411  1.00  0.00    -0.206 F 
ATOM     87  C   UNL A   1      34.341  34.672  29.733  1.00  0.00     0.060 A 
BRANCH  87  88
ATOM     88  S   UNL A   1      33.021  35.617  28.943  1.00  0.00     0.124 S 
ATOM     89  O   UNL A   1      32.414  34.606  28.085  1.00  0.00    -0.237 OA
ATOM     90  O   UNL A   1      32.222  36.042  30.087  1.00  0.00    -0.237 OA
ATOM     91  O   UNL A   1      33.737  36.682  28.250  1.00  0.00    -0.744 OA
ENDBRANCH  87  88
ENDBRANCH  55  80
BRANCH  67  92
ATOM     92  C   UNL A   1      39.614  34.022  37.118  1.00  0.00     0.058 A 
ATOM     93  C   UNL A   1      40.231  35.284  37.083  1.00  0.00     0.135 A 
ATOM     94  C   UNL A   1      38.904  33.669  38.276  1.00  0.00     0.135 A 
ATOM     95  F   UNL A   1      40.926  35.667  36.000  1.00  0.00    -0.206 F 
ATOM     96  C   UNL A   1      40.167  36.153  38.164  1.00  0.00     0.059 A 
ATOM     97  C   UNL A   1      38.807  34.535  39.362  1.00  0.00     0.059 A 
ATOM     98  F   UNL A   1      38.289  32.478  38.353  1.00  0.00    -0.206 F 
ATOM     99  C   UNL A   1      39.458  35.767  39.303  1.00  0.00     0.060 A 
BRANCH  99 100
ATOM    100  S   UNL A   1      39.386  36.907  40.700  1.00  0.00     0.124 S 
ATOM    101  O   UNL A   1      38.449  36.230  41.590  1.00  0.00    -0.237 OA
ATOM    102  O   UNL A   1      40.776  36.939  41.145  1.00  0.00    -0.237 OA
ATOM    103  O   UNL A   1      38.900  38.146  40.101  1.00  0.00    -0.744 OA
ENDBRANCH  99 100
ENDBRANCH  67  92
ENDBRANCH  41  42
ENDBRANCH  33  36
ENDBRANCH  31  32
ENDBRANCH  30  31
ENDBRANCH  29  30
ENDBRANCH  28  29
ENDBRANCH   1  28
TORSDOF 21
ENDMDL
MODEL 2
REMARK VINA RESULT:     -11.3      0.924      8.142
REMARK SMILES CCOc1cc(F)ccc1NC(=O)CC1(C(=O)NCCCCCCNC(=O)c2ccc(-c3c4nc(c(-c5c(F)cc(S(=O)(=O)[O-])cc5F)c5ccc([nH]5)c(-c5c(F)cc(S(=O)(=O)[O-])cc5F)c5nc(c(-c6c(F)cc(S(=O)(=O)[O-])cc6F)c6ccc3[nH]6)C=C5)C=C4)cc2)CCCCC1
REMARK SMILES IDX 20 1 19 2 18 3 16 4 17 5 15 7 94 8 98 9 95 10 97 11 96 12
REMARK SMILES IDX 14 13 12 14 11 15 13 17 10 18 4 19 5 20 6 21 9 22 7 23 8 24
REMARK SMILES IDX 3 25 2 26 1 27 21 28 22 29 23 30 24 31 25 32 26 33 27 35
REMARK SMILES IDX 28 36 29 37 93 38 30 39 92 40 31 41 32 42 33 43 86 44 34 45
REMARK SMILES IDX 91 46 85 47 87 48 35 49 90 50 84 51 83 52 36 54 70 55 49 56
REMARK SMILES IDX 69 57 50 58 53 59 68 60 88 61 51 62 52 63 67 65 89 66 54 67
REMARK SMILES IDX 37 68 38 69 47 70 39 71 40 72 46 73 48 74 41 75 42 76 43 77
REMARK SMILES IDX 44 78 45 79 71 80 72 81 81 82 73 83 74 84 80 85 82 86 75 87
REMARK SMILES IDX 76 88 77 89 78 90 79 91 55 92 56 93 65 94 57 95 58 96 64 97
REMARK SMILES IDX 66 98 59 99 60 100 61 101 62 102 63 103
REMARK H PARENT 18 6 11 16 25 34 87 53 53 64
REMARK Flexibility Score: inf
ROOT
ATOM      1  C   UNL A   1      36.687  22.550  24.084  1.00  0.00     0.021 C 
ENDROOT
BRANCH   1   2
ATOM      2  C   UNL A   1      35.898  23.740  24.609  1.00  0.00     0.116 C 
BRANCH   2   3
ATOM      3  N   UNL A   1      34.861  24.181  23.719  1.00  0.00    -0.356 N 
ATOM      4  C   UNL A   1      33.509  24.115  23.818  1.00  0.00     0.226 C 
ATOM      5  O   UNL A   1      32.908  24.543  22.829  1.00  0.00    -0.274 OA
ATOM      6  H   UNL A   1      35.188  24.605  22.893  1.00  0.00     0.163 HD
BRANCH   4   7
ATOM      7  C   UNL A   1      32.745  23.477  25.025  1.00  0.00     0.058 C 
ATOM      8  C   UNL A   1      33.324  23.855  26.407  1.00  0.00     0.017 C 
ATOM      9  C   UNL A   1      32.634  21.935  24.816  1.00  0.00     0.017 C 
ATOM     10  C   UNL A   1      34.202  22.887  27.200  1.00  0.00     0.001 C 
ATOM     11  C   UNL A   1      33.641  21.038  25.528  1.00  0.00     0.001 C 
ATOM     12  C   UNL A   1      33.866  21.420  26.983  1.00  0.00     0.000 C 
BRANCH   7  13
ATOM     13  C   UNL A   1      31.243  24.012  24.912  1.00  0.00     0.117 C 
BRANCH  13  14
ATOM     14  C   UNL A   1      30.726  25.039  25.928  1.00  0.00     0.225 C 
ATOM     15  N   UNL A   1      31.021  26.374  25.874  1.00  0.00    -0.323 N 
ATOM     16  H   UNL A   1      30.592  26.902  26.585  1.00  0.00     0.170 HD
ATOM     17  O   UNL A   1      29.979  24.685  26.847  1.00  0.00    -0.275 OA
BRANCH  15  18
ATOM     18  C   UNL A   1      31.815  27.144  25.004  1.00  0.00     0.084 A 
ATOM     19  C   UNL A   1      31.209  27.565  23.799  1.00  0.00     0.145 A 
ATOM     20  C   UNL A   1      32.008  28.031  22.758  1.00  0.00     0.087 A 
ATOM     21  C   UNL A   1      33.383  28.135  22.942  1.00  0.00     0.127 A 
ATOM     22  C   UNL A   1      33.178  27.380  25.214  1.00  0.00     0.033 A 
ATOM     23  F   UNL A   1      34.153  28.536  21.923  1.00  0.00    -0.207 F 
ATOM     24  C   UNL A   1      33.969  27.854  24.169  1.00  0.00     0.041 A 
BRANCH  19  25
ATOM     25  O   UNL A   1      29.839  27.524  23.753  1.00  0.00    -0.492 OA
BRANCH  25  26
ATOM     26  C   UNL A   1      29.173  28.408  22.847  1.00  0.00     0.226 C 
ATOM     27  C   UNL A   1      27.684  28.553  23.133  1.00  0.00     0.049 C 
ENDBRANCH  25  26
ENDBRANCH  19  25
ENDBRANCH  15  18
ENDBRANCH  13  14
ENDBRANCH   7  13
ENDBRANCH   4   7
ENDBRANCH   2   3
ENDBRANCH   1   2
BRANCH   1  28
ATOM     28  C   UNL A   1      37.334  21.701  25.174  1.00  0.00     0.002 C 
BRANCH  28  29
ATOM     29  C   UNL A   1      38.746  22.130  25.591  1.00  0.00     0.002 C 
BRANCH  29  30
ATOM     30  C   UNL A   1      38.844  22.980  26.862  1.00  0.00     0.021 C 
BRANCH  30  31
ATOM     31  C   UNL A   1      40.255  23.409  27.254  1.00  0.00     0.116 C 
BRANCH  31  32
ATOM     32  N   UNL A   1      40.909  24.165  26.200  1.00  0.00    -0.352 N 
ATOM     33  C   UNL A   1      41.187  25.502  26.128  1.00  0.00     0.251 C 
ATOM     34  H   UNL A   1      41.195  23.636  25.422  1.00  0.00     0.163 HD
ATOM     35  O   UNL A   1      41.562  25.989  25.059  1.00  0.00    -0.269 OA
BRANCH  33  36
ATOM     36  C   UNL A   1      41.032  26.362  27.317  1.00  0.00     0.039 A 
ATOM     37  C   UNL A   1      42.008  27.326  27.583  1.00  0.00     0.014 A 
ATOM     38  C   UNL A   1      39.952  26.193  28.188  1.00  0.00     0.014 A 
ATOM     39  C   UNL A   1      41.881  28.147  28.705  1.00  0.00     0.010 A 
ATOM     40  C   UNL A   1      39.791  27.055  29.269  1.00  0.00     0.010 A 
ATOM     41  C   UNL A   1      40.761  28.031  29.545  1.00  0.00    -0.014 A 
BRANCH  41  42
ATOM     42  C   UNL A   1      40.604  28.900  30.737  1.00  0.00     0.031 A 
ATOM     43  C   UNL A   1      39.562  29.984  30.740  1.00  0.00     0.074 A 
ATOM     44  C   UNL A   1      41.421  28.735  31.796  1.00  0.00     0.049 A 
ATOM     45  N   UNL A   1      39.316  30.889  31.652  1.00  0.00    -0.248 NA
ATOM     46  C   UNL A   1      38.696  30.079  29.552  1.00  0.00     0.031 C 
ATOM     47  C   UNL A   1      42.483  27.732  31.895  1.00  0.00     0.029 A 
ATOM     48  N   UNL A   1      41.487  29.407  32.990  1.00  0.00    -0.354 N 
ATOM     49  C   UNL A   1      38.276  31.661  31.147  1.00  0.00     0.074 A 
ATOM     50  C   UNL A   1      37.974  31.156  29.826  1.00  0.00     0.031 C 
ATOM     51  C   UNL A   1      43.073  27.833  33.097  1.00  0.00     0.029 A 
ATOM     52  C   UNL A   1      42.460  28.932  33.837  1.00  0.00     0.049 A 
ATOM     53  H   UNL A   1      40.895  30.160  33.217  1.00  0.00     0.167 HD
ATOM     54  C   UNL A   1      37.613  32.679  31.744  1.00  0.00     0.037 A 
ATOM     55  C   UNL A   1      42.815  29.338  35.072  1.00  0.00     0.037 A 
ATOM     56  C   UNL A   1      37.901  33.157  33.071  1.00  0.00     0.049 A 
ATOM     57  C   UNL A   1      42.076  30.483  35.707  1.00  0.00     0.074 A 
ATOM     58  C   UNL A   1      37.273  34.168  33.776  1.00  0.00     0.029 A 
ATOM     59  N   UNL A   1      38.894  32.650  33.897  1.00  0.00    -0.354 N 
ATOM     60  N   UNL A   1      41.084  31.191  35.222  1.00  0.00    -0.248 NA
ATOM     61  C   UNL A   1      42.502  30.887  37.054  1.00  0.00     0.031 C 
ATOM     62  C   UNL A   1      37.905  34.293  35.016  1.00  0.00     0.029 A 
ATOM     63  C   UNL A   1      38.900  33.332  35.101  1.00  0.00     0.049 A 
ATOM     64  H   UNL A   1      39.504  31.914  33.661  1.00  0.00     0.167 HD
ATOM     65  C   UNL A   1      40.747  32.104  36.216  1.00  0.00     0.074 A 
ATOM     66  C   UNL A   1      41.639  31.855  37.330  1.00  0.00     0.031 C 
ATOM     67  C   UNL A   1      39.786  33.060  36.205  1.00  0.00     0.037 A 
BRANCH  54  68
ATOM     68  C   UNL A   1      36.496  33.334  30.979  1.00  0.00     0.058 A 
ATOM     69  C   UNL A   1      36.768  34.274  29.973  1.00  0.00     0.135 A 
ATOM     70  C   UNL A   1      35.151  33.069  31.282  1.00  0.00     0.135 A 
ATOM     71  F   UNL A   1      38.035  34.559  29.638  1.00  0.00    -0.206 F 
ATOM     72  C   UNL A   1      35.745  34.940  29.305  1.00  0.00     0.059 A 
ATOM     73  C   UNL A   1      34.111  33.704  30.608  1.00  0.00     0.059 A 
ATOM     74  F   UNL A   1      34.835  32.160  32.219  1.00  0.00    -0.206 F 
ATOM     75  C   UNL A   1      34.420  34.649  29.631  1.00  0.00     0.060 A 
BRANCH  75  76
ATOM     76  S   UNL A   1      33.103  35.499  28.733  1.00  0.00     0.124 S 
ATOM     77  O   UNL A   1      33.860  36.324  27.800  1.00  0.00    -0.237 OA
ATOM     78  O   UNL A   1      32.366  34.384  28.145  1.00  0.00    -0.237 OA
ATOM     79  O   UNL A   1      32.391  36.223  29.782  1.00  0.00    -0.744 OA
ENDBRANCH  75  76
ENDBRANCH  54  68
BRANCH  55  80
ATOM     80  C   UNL A   1      43.898  28.624  35.801  1.00  0.00     0.058 A 
ATOM     81  C   UNL A   1      43.619  27.562  36.673  1.00  0.00     0.135 A 
ATOM     82  C   UNL A   1      45.237  29.019  35.659  1.00  0.00     0.135 A 
ATOM     83  F   UNL A   1      42.353  27.153  36.854  1.00  0.00    -0.206 F 
ATOM     84  C   UNL A   1      44.625  26.932  37.398  1.00  0.00     0.059 A 
ATOM     85  C   UNL A   1      46.264  28.389  36.354  1.00  0.00     0.059 A 
ATOM     86  F   UNL A   1      45.553  30.023  34.827  1.00  0.00    -0.206 F 
ATOM     87  C   UNL A   1      45.945  27.356  37.235  1.00  0.00     0.060 A 
BRANCH  87  88
ATOM     88  S   UNL A   1      47.234  26.531  38.192  1.00  0.00     0.124 S 
ATOM     89  O   UNL A   1      48.218  27.600  38.335  1.00  0.00    -0.237 OA
ATOM     90  O   UNL A   1      46.521  26.159  39.409  1.00  0.00    -0.237 OA
ATOM     91  O   UNL A   1      47.633  25.420  37.336  1.00  0.00    -0.744 OA
ENDBRANCH  87  88
ENDBRANCH  55  80
BRANCH  67  92
ATOM     92  C   UNL A   1      39.620  33.896  37.443  1.00  0.00     0.058 A 
ATOM     93  C   UNL A   1      40.310  35.112  37.574  1.00  0.00     0.135 A 
ATOM     94  C   UNL A   1      38.855  33.453  38.532  1.00  0.00     0.135 A 
ATOM     95  F   UNL A   1      41.060  35.578  36.562  1.00  0.00    -0.206 F 
ATOM     96  C   UNL A   1      40.263  35.850  38.750  1.00  0.00     0.059 A 
ATOM     97  C   UNL A   1      38.774  34.188  39.711  1.00  0.00     0.059 A 
ATOM     98  F   UNL A   1      38.169  32.301  38.451  1.00  0.00    -0.206 F 
ATOM     99  C   UNL A   1      39.497  35.376  39.816  1.00  0.00     0.060 A 
BRANCH  99 100
ATOM    100  S   UNL A   1      39.448  36.345  41.338  1.00  0.00     0.124 S 
ATOM    101  O   UNL A   1      38.378  35.685  42.078  1.00  0.00    -0.237 OA
ATOM    102  O   UNL A   1      40.795  36.159  41.868  1.00  0.00    -0.237 OA
ATOM    103  O   UNL A   1      39.148  37.695  40.871  1.00  0.00    -0.744 OA
ENDBRANCH  99 100
ENDBRANCH  67  92
ENDBRANCH  41  42
ENDBRANCH  33  36
ENDBRANCH  31  32
ENDBRANCH  30  31
ENDBRANCH  29  30
ENDBRANCH  28  29
ENDBRANCH   1  28
TORSDOF 21
ENDMDL
MODEL 3
REMARK VINA RESULT:     -11.3      1.236      2.317
REMARK SMILES CCOc1cc(F)ccc1NC(=O)CC1(C(=O)NCCCCCCNC(=O)c2ccc(-c3c4nc(c(-c5c(F)cc(S(=O)(=O)[O-])cc5F)c5ccc([nH]5)c(-c5c(F)cc(S(=O)(=O)[O-])cc5F)c5nc(c(-c6c(F)cc(S(=O)(=O)[O-])cc6F)c6ccc3[nH]6)C=C5)C=C4)cc2)CCCCC1
REMARK SMILES IDX 20 1 19 2 18 3 16 4 17 5 15 7 94 8 98 9 95 10 97 11 96 12
REMARK SMILES IDX 14 13 12 14 11 15 13 17 10 18 4 19 5 20 6 21 9 22 7 23 8 24
REMARK SMILES IDX 3 25 2 26 1 27 21 28 22 29 23 30 24 31 25 32 26 33 27 35
REMARK SMILES IDX 28 36 29 37 93 38 30 39 92 40 31 41 32 42 33 43 86 44 34 45
REMARK SMILES IDX 91 46 85 47 87 48 35 49 90 50 84 51 83 52 36 54 70 55 49 56
REMARK SMILES IDX 69 57 50 58 53 59 68 60 88 61 51 62 52 63 67 65 89 66 54 67
REMARK SMILES IDX 37 68 38 69 47 70 39 71 40 72 46 73 48 74 41 75 42 76 43 77
REMARK SMILES IDX 44 78 45 79 71 80 72 81 81 82 73 83 74 84 80 85 82 86 75 87
REMARK SMILES IDX 76 88 77 89 78 90 79 91 55 92 56 93 65 94 57 95 58 96 64 97
REMARK SMILES IDX 66 98 59 99 60 100 61 101 62 102 63 103
REMARK H PARENT 18 6 11 16 25 34 87 53 53 64
REMARK Flexibility Score: inf
ROOT
ATOM      1  C   UNL A   1      36.901  21.682  25.940  1.00  0.00     0.021 C 
ENDROOT
BRANCH   1   2
ATOM      2  C   UNL A   1      36.211  21.007  24.764  1.00  0.00     0.116 C 
BRANCH   2   3
ATOM      3  N   UNL A   1      35.059  20.237  25.136  1.00  0.00    -0.356 N 
ATOM      4  C   UNL A   1      33.748  20.577  25.232  1.00  0.00     0.226 C 
ATOM      5  O   UNL A   1      33.019  19.671  25.645  1.00  0.00    -0.274 OA
ATOM      6  H   UNL A   1      35.253  19.299  25.361  1.00  0.00     0.163 HD
BRANCH   4   7
ATOM      7  C   UNL A   1      33.187  22.008  24.942  1.00  0.00     0.058 C 
ATOM      8  C   UNL A   1      33.811  23.118  25.817  1.00  0.00     0.017 C 
ATOM      9  C   UNL A   1      31.628  21.983  25.016  1.00  0.00     0.017 C 
ATOM     10  C   UNL A   1      33.069  23.703  27.019  1.00  0.00     0.001 C 
ATOM     11  C   UNL A   1      30.962  22.446  26.307  1.00  0.00     0.001 C 
ATOM     12  C   UNL A   1      31.557  23.729  26.866  1.00  0.00     0.000 C 
BRANCH   7  13
ATOM     13  C   UNL A   1      33.516  22.293  23.404  1.00  0.00     0.117 C 
BRANCH  13  14
ATOM     14  C   UNL A   1      34.339  23.531  23.022  1.00  0.00     0.225 C 
ATOM     15  N   UNL A   1      33.839  24.804  23.024  1.00  0.00    -0.323 N 
ATOM     16  H   UNL A   1      34.502  25.489  22.776  1.00  0.00     0.170 HD
ATOM     17  O   UNL A   1      35.530  23.415  22.711  1.00  0.00    -0.275 OA
BRANCH  15  18
ATOM     18  C   UNL A   1      32.566  25.332  23.309  1.00  0.00     0.084 A 
ATOM     19  C   UNL A   1      32.505  26.331  24.307  1.00  0.00     0.145 A 
ATOM     20  C   UNL A   1      31.275  26.656  24.873  1.00  0.00     0.087 A 
ATOM     21  C   UNL A   1      30.119  26.040  24.404  1.00  0.00     0.127 A 
ATOM     22  C   UNL A   1      31.384  24.823  22.763  1.00  0.00     0.033 A 
ATOM     23  F   UNL A   1      28.945  26.319  24.984  1.00  0.00    -0.207 F 
ATOM     24  C   UNL A   1      30.156  25.161  23.330  1.00  0.00     0.041 A 
BRANCH  19  25
ATOM     25  O   UNL A   1      33.683  26.955  24.625  1.00  0.00    -0.492 OA
BRANCH  25  26
ATOM     26  C   UNL A   1      33.635  28.344  24.966  1.00  0.00     0.226 C 
ATOM     27  C   UNL A   1      33.854  28.609  26.449  1.00  0.00     0.049 C 
ENDBRANCH  25  26
ENDBRANCH  19  25
ENDBRANCH  15  18
ENDBRANCH  13  14
ENDBRANCH   7  13
ENDBRANCH   4   7
ENDBRANCH   2   3
ENDBRANCH   1   2
BRANCH   1  28
ATOM     28  C   UNL A   1      38.176  22.432  25.569  1.00  0.00     0.002 C 
BRANCH  28  29
ATOM     29  C   UNL A   1      39.465  21.887  26.198  1.00  0.00     0.002 C 
BRANCH  29  30
ATOM     30  C   UNL A   1      39.954  22.604  27.460  1.00  0.00     0.021 C 
BRANCH  30  31
ATOM     31  C   UNL A   1      41.421  23.022  27.449  1.00  0.00     0.116 C 
BRANCH  31  32
ATOM     32  N   UNL A   1      41.757  23.807  26.273  1.00  0.00    -0.352 N 
ATOM     33  C   UNL A   1      41.725  25.161  26.087  1.00  0.00     0.251 C 
ATOM     34  H   UNL A   1      42.050  23.285  25.492  1.00  0.00     0.163 HD
ATOM     35  O   UNL A   1      41.847  25.623  24.951  1.00  0.00    -0.269 OA
BRANCH  33  36
ATOM     36  C   UNL A   1      41.538  26.067  27.237  1.00  0.00     0.039 A 
ATOM     37  C   UNL A   1      40.305  26.074  27.896  1.00  0.00     0.014 A 
ATOM     38  C   UNL A   1      42.557  26.935  27.640  1.00  0.00     0.014 A 
ATOM     39  C   UNL A   1      40.109  26.925  28.984  1.00  0.00     0.010 A 
ATOM     40  C   UNL A   1      42.383  27.735  28.765  1.00  0.00     0.010 A 
ATOM     41  C   UNL A   1      41.152  27.748  29.439  1.00  0.00    -0.014 A 
BRANCH  41  42
ATOM     42  C   UNL A   1      40.965  28.654  30.599  1.00  0.00     0.031 A 
ATOM     43  C   UNL A   1      41.849  28.514  31.808  1.00  0.00     0.074 A 
ATOM     44  C   UNL A   1      39.980  29.572  30.576  1.00  0.00     0.049 A 
ATOM     45  N   UNL A   1      41.799  29.158  32.945  1.00  0.00    -0.248 NA
ATOM     46  C   UNL A   1      42.915  27.501  31.740  1.00  0.00     0.031 C 
ATOM     47  C   UNL A   1      39.047  29.783  29.467  1.00  0.00     0.029 A 
ATOM     48  N   UNL A   1      39.598  30.500  31.511  1.00  0.00    -0.354 N 
ATOM     49  C   UNL A   1      42.818  28.627  33.725  1.00  0.00     0.074 A 
ATOM     50  C   UNL A   1      43.434  27.568  32.956  1.00  0.00     0.031 C 
ATOM     51  C   UNL A   1      38.222  30.797  29.773  1.00  0.00     0.029 A 
ATOM     52  C   UNL A   1      38.540  31.283  31.113  1.00  0.00     0.049 A 
ATOM     53  H   UNL A   1      40.039  30.595  32.386  1.00  0.00     0.167 HD
ATOM     54  C   UNL A   1      43.223  29.007  34.960  1.00  0.00     0.037 A 
ATOM     55  C   UNL A   1      37.901  32.280  31.756  1.00  0.00     0.037 A 
ATOM     56  C   UNL A   1      42.622  30.081  35.707  1.00  0.00     0.049 A 
ATOM     57  C   UNL A   1      38.356  32.672  33.134  1.00  0.00     0.074 A 
ATOM     58  C   UNL A   1      42.973  30.560  36.957  1.00  0.00     0.029 A 
ATOM     59  N   UNL A   1      41.553  30.849  35.269  1.00  0.00    -0.354 N 
ATOM     60  N   UNL A   1      39.334  32.170  33.850  1.00  0.00    -0.248 NA
ATOM     61  C   UNL A   1      37.627  33.764  33.792  1.00  0.00     0.031 C 
ATOM     62  C   UNL A   1      42.096  31.598  37.287  1.00  0.00     0.029 A 
ATOM     63  C   UNL A   1      41.226  31.794  36.227  1.00  0.00     0.049 A 
ATOM     64  H   UNL A   1      41.094  30.738  34.405  1.00  0.00     0.167 HD
ATOM     65  C   UNL A   1      39.355  32.904  35.032  1.00  0.00     0.074 A 
ATOM     66  C   UNL A   1      38.296  33.887  34.930  1.00  0.00     0.031 C 
ATOM     67  C   UNL A   1      40.177  32.774  36.102  1.00  0.00     0.037 A 
BRANCH  54  68
ATOM     68  C   UNL A   1      44.383  28.275  35.575  1.00  0.00     0.058 A 
ATOM     69  C   UNL A   1      45.704  28.678  35.322  1.00  0.00     0.135 A 
ATOM     70  C   UNL A   1      44.188  27.135  36.371  1.00  0.00     0.135 A 
ATOM     71  F   UNL A   1      45.948  29.764  34.573  1.00  0.00    -0.206 F 
ATOM     72  C   UNL A   1      46.789  27.968  35.826  1.00  0.00     0.059 A 
ATOM     73  C   UNL A   1      45.259  26.425  36.908  1.00  0.00     0.059 A 
ATOM     74  F   UNL A   1      42.944  26.720  36.664  1.00  0.00    -0.206 F 
ATOM     75  C   UNL A   1      46.557  26.842  36.616  1.00  0.00     0.060 A 
BRANCH  75  76
ATOM     76  S   UNL A   1      47.976  25.950  37.288  1.00  0.00     0.124 S 
ATOM     77  O   UNL A   1      48.919  27.033  37.541  1.00  0.00    -0.237 OA
ATOM     78  O   UNL A   1      47.404  25.315  38.472  1.00  0.00    -0.237 OA
ATOM     79  O   UNL A   1      48.340  25.034  36.212  1.00  0.00    -0.744 OA
ENDBRANCH  75  76
ENDBRANCH  54  68
BRANCH  55  80
ATOM     80  C   UNL A   1      36.788  33.000  31.081  1.00  0.00     0.058 A 
ATOM     81  C   UNL A   1      35.449  32.779  31.436  1.00  0.00     0.135 A 
ATOM     82  C   UNL A   1      37.047  33.902  30.037  1.00  0.00     0.135 A 
ATOM     83  F   UNL A   1      35.146  31.917  32.420  1.00  0.00    -0.206 F 
ATOM     84  C   UNL A   1      34.406  33.409  30.767  1.00  0.00     0.059 A 
ATOM     85  C   UNL A   1      36.022  34.563  29.369  1.00  0.00     0.059 A 
ATOM     86  F   UNL A   1      38.313  34.152  29.670  1.00  0.00    -0.206 F 
ATOM     87  C   UNL A   1      34.702  34.296  29.730  1.00  0.00     0.060 A 
BRANCH  87  88
ATOM     88  S   UNL A   1      33.332  35.095  28.868  1.00  0.00     0.124 S 
ATOM     89  O   UNL A   1      32.427  35.391  29.973  1.00  0.00    -0.237 OA
ATOM     90  O   UNL A   1      33.986  36.248  28.257  1.00  0.00    -0.237 OA
ATOM     91  O   UNL A   1      32.875  34.070  27.937  1.00  0.00    -0.744 OA
ENDBRANCH  87  88
ENDBRANCH  55  80
BRANCH  67  92
ATOM     92  C   UNL A   1      39.993  33.734  37.243  1.00  0.00     0.058 A 
ATOM     93  C   UNL A   1      39.093  33.438  38.279  1.00  0.00     0.135 A 
ATOM     94  C   UNL A   1      40.636  34.981  37.265  1.00  0.00     0.135 A 
ATOM     95  F   UNL A   1      38.449  32.260  38.300  1.00  0.00    -0.206 F 
ATOM     96  C   UNL A   1      38.820  34.354  39.288  1.00  0.00     0.059 A 
ATOM     97  C   UNL A   1      40.396  35.904  38.279  1.00  0.00     0.059 A 
ATOM     98  F   UNL A   1      41.513  35.306  36.303  1.00  0.00    -0.206 F 
ATOM     99  C   UNL A   1      39.472  35.588  39.275  1.00  0.00     0.060 A 
BRANCH  99 100
ATOM    100  S   UNL A   1      39.105  36.768  40.591  1.00  0.00     0.124 S 
ATOM    101  O   UNL A   1      38.223  35.989  41.453  1.00  0.00    -0.237 OA
ATOM    102  O   UNL A   1      40.432  37.052  41.131  1.00  0.00    -0.237 OA
ATOM    103  O   UNL A   1      38.474  37.878  39.884  1.00  0.00    -0.744 OA
ENDBRANCH  99 100
ENDBRANCH  67  92
ENDBRANCH  41  42
ENDBRANCH  33  36
ENDBRANCH  31  32
ENDBRANCH  30  31
ENDBRANCH  29  30
ENDBRANCH  28  29
ENDBRANCH   1  28
TORSDOF 21
ENDMDL
