MODEL 1
REMARK VINA RESULT:     -11.1      0.000      0.000
REMARK SMILES C[C@@H](C(=O)NCCCCCCNC(=O)c1ccc(-c2c3nc(c(-c4c(F)cc(S(=O)(=O)[O-])cc4F)c4ccc([nH]4)c(-c4c(F)cc(S(=O)(=O)[O-])cc4F)c4nc(c(-c5c(F)cc(S(=O)(=O)[O-])cc5F)c5ccc2[nH]5)C=C4)C=C3)cc1)c1ccc(Cc2ccoc2)cc1F
REMARK SMILES IDX 8 1 7 2 6 3 5 4 3 5 4 6 2 8 1 9 81 10 82 11 92 12 83 13
REMARK SMILES IDX 91 14 93 15 84 16 85 17 86 18 87 19 90 20 88 21 89 22 9 23
REMARK SMILES IDX 10 24 11 25 12 26 13 27 14 29 15 30 16 31 80 32 17 33 79 34
REMARK SMILES IDX 18 35 19 36 20 37 73 38 21 39 78 40 72 41 74 42 22 43 77 44
REMARK SMILES IDX 71 45 70 46 23 48 57 49 36 50 56 51 37 52 40 53 55 54 75 55
REMARK SMILES IDX 38 56 39 57 54 59 76 60 41 61 24 62 25 63 34 64 26 65 27 66
REMARK SMILES IDX 33 67 35 68 28 69 29 70 30 71 31 72 32 73 58 74 59 75 68 76
REMARK SMILES IDX 60 77 61 78 67 79 69 80 62 81 63 82 64 83 65 84 66 85 42 86
REMARK SMILES IDX 43 87 52 88 44 89 45 90 51 91 53 92 46 93 47 94 48 95 49 96
REMARK SMILES IDX 50 97
REMARK H PARENT 5 7 12 28 74 47 40 58
REMARK Flexibility Score: inf
ROOT
ATOM      1  C   UNL A   1      37.416  22.875  24.842  1.00  0.00     0.002 C 
ENDROOT
BRANCH   1   2
ATOM      2  C   UNL A   1      37.133  21.374  24.671  1.00  0.00     0.021 C 
BRANCH   2   3
ATOM      3  C   UNL A   1      35.881  20.886  25.406  1.00  0.00     0.116 C 
BRANCH   3   4
ATOM      4  N   UNL A   1      34.690  21.304  24.696  1.00  0.00    -0.356 N 
ATOM      5  C   UNL A   1      33.739  22.221  25.026  1.00  0.00     0.227 C 
ATOM      6  O   UNL A   1      32.737  22.250  24.306  1.00  0.00    -0.274 OA
ATOM      7  H   UNL A   1      34.542  20.849  23.835  1.00  0.00     0.163 HD
BRANCH   5   8
ATOM      8  C   UNL A   1      33.956  23.178  26.213  1.00  0.00     0.108 C 
ATOM      9  C   UNL A   1      33.205  22.751  27.480  1.00  0.00     0.023 C 
BRANCH   8  10
ATOM     10  C   UNL A   1      33.556  24.609  25.872  1.00  0.00    -0.000 A 
ATOM     11  C   UNL A   1      32.494  25.237  26.540  1.00  0.00     0.008 A 
ATOM     12  C   UNL A   1      34.249  25.344  24.909  1.00  0.00     0.127 A 
ATOM     13  C   UNL A   1      32.151  26.559  26.256  1.00  0.00     0.004 A 
ATOM     14  C   UNL A   1      33.899  26.662  24.605  1.00  0.00     0.043 A 
ATOM     15  F   UNL A   1      35.293  24.795  24.270  1.00  0.00    -0.207 F 
ATOM     16  C   UNL A   1      32.838  27.289  25.277  1.00  0.00    -0.041 A 
BRANCH  16  17
ATOM     17  C   UNL A   1      32.487  28.731  25.004  1.00  0.00     0.074 C 
BRANCH  17  18
ATOM     18  C   UNL A   1      33.016  29.569  26.122  1.00  0.00    -0.005 A 
ATOM     19  C   UNL A   1      34.291  29.511  26.763  1.00  0.00     0.046 A 
ATOM     20  C   UNL A   1      32.381  30.650  26.705  1.00  0.00     0.198 A 
ATOM     21  C   UNL A   1      34.324  30.532  27.681  1.00  0.00     0.195 A 
ATOM     22  O   UNL A   1      33.167  31.234  27.645  1.00  0.00    -0.472 OA
ENDBRANCH  17  18
ENDBRANCH  16  17
ENDBRANCH   8  10
ENDBRANCH   5   8
ENDBRANCH   3   4
ENDBRANCH   2   3
ENDBRANCH   1   2
BRANCH   1  23
ATOM     23  C   UNL A   1      38.098  23.260  26.158  1.00  0.00     0.002 C 
BRANCH  23  24
ATOM     24  C   UNL A   1      39.322  22.414  26.520  1.00  0.00     0.021 C 
BRANCH  24  25
ATOM     25  C   UNL A   1      40.526  23.217  27.004  1.00  0.00     0.116 C 
BRANCH  25  26
ATOM     26  N   UNL A   1      41.005  24.146  25.991  1.00  0.00    -0.352 N 
ATOM     27  C   UNL A   1      41.183  25.506  26.075  1.00  0.00     0.251 C 
ATOM     28  H   UNL A   1      41.235  23.743  25.123  1.00  0.00     0.163 HD
ATOM     29  O   UNL A   1      41.402  26.161  25.059  1.00  0.00    -0.269 OA
BRANCH  27  30
ATOM     30  C   UNL A   1      41.084  26.180  27.386  1.00  0.00     0.039 A 
ATOM     31  C   UNL A   1      42.141  26.985  27.815  1.00  0.00     0.014 A 
ATOM     32  C   UNL A   1      39.941  26.036  28.179  1.00  0.00     0.014 A 
ATOM     33  C   UNL A   1      42.016  27.716  28.998  1.00  0.00     0.010 A 
ATOM     34  C   UNL A   1      39.792  26.815  29.324  1.00  0.00     0.010 A 
ATOM     35  C   UNL A   1      40.819  27.678  29.735  1.00  0.00    -0.014 A 
BRANCH  35  36
ATOM     36  C   UNL A   1      40.601  28.585  30.892  1.00  0.00     0.031 A 
ATOM     37  C   UNL A   1      39.544  29.654  30.839  1.00  0.00     0.074 A 
ATOM     38  C   UNL A   1      41.424  28.496  31.958  1.00  0.00     0.049 A 
ATOM     39  N   UNL A   1      39.275  30.587  31.716  1.00  0.00    -0.248 NA
ATOM     40  C   UNL A   1      38.692  29.696  29.639  1.00  0.00     0.031 C 
ATOM     41  C   UNL A   1      42.522  27.535  32.100  1.00  0.00     0.029 A 
ATOM     42  N   UNL A   1      41.484  29.234  33.115  1.00  0.00    -0.354 N 
ATOM     43  C   UNL A   1      38.240  31.336  31.171  1.00  0.00     0.074 A 
ATOM     44  C   UNL A   1      37.946  30.768  29.873  1.00  0.00     0.031 C 
ATOM     45  C   UNL A   1      43.140  27.740  33.274  1.00  0.00     0.029 A 
ATOM     46  C   UNL A   1      42.518  28.873  33.949  1.00  0.00     0.049 A 
ATOM     47  H   UNL A   1      40.847  29.955  33.327  1.00  0.00     0.167 HD
ATOM     48  C   UNL A   1      37.588  32.393  31.712  1.00  0.00     0.037 A 
ATOM     49  C   UNL A   1      42.938  29.410  35.111  1.00  0.00     0.037 A 
ATOM     50  C   UNL A   1      37.867  32.929  33.019  1.00  0.00     0.049 A 
ATOM     51  C   UNL A   1      42.198  30.592  35.681  1.00  0.00     0.074 A 
ATOM     52  C   UNL A   1      37.190  33.930  33.695  1.00  0.00     0.029 A 
ATOM     53  N   UNL A   1      38.906  32.526  33.842  1.00  0.00    -0.354 N 
ATOM     54  N   UNL A   1      41.149  31.215  35.200  1.00  0.00    -0.248 NA
ATOM     55  C   UNL A   1      42.699  31.148  36.946  1.00  0.00     0.031 C 
ATOM     56  C   UNL A   1      37.860  34.178  34.896  1.00  0.00     0.029 A 
ATOM     57  C   UNL A   1      38.920  33.291  34.996  1.00  0.00     0.049 A 
ATOM     58  H   UNL A   1      39.542  31.802  33.636  1.00  0.00     0.167 HD
ATOM     59  C   UNL A   1      40.857  32.224  36.111  1.00  0.00     0.074 A 
ATOM     60  C   UNL A   1      41.821  32.111  37.185  1.00  0.00     0.031 C 
ATOM     61  C   UNL A   1      39.884  33.167  36.060  1.00  0.00     0.037 A 
BRANCH  48  62
ATOM     62  C   UNL A   1      36.504  33.056  30.909  1.00  0.00     0.058 A 
ATOM     63  C   UNL A   1      35.145  32.847  31.189  1.00  0.00     0.135 A 
ATOM     64  C   UNL A   1      36.833  34.005  29.926  1.00  0.00     0.135 A 
ATOM     65  F   UNL A   1      34.776  31.941  32.108  1.00  0.00    -0.206 F 
ATOM     66  C   UNL A   1      34.150  33.557  30.525  1.00  0.00     0.059 A 
ATOM     67  C   UNL A   1      35.855  34.744  29.267  1.00  0.00     0.059 A 
ATOM     68  F   UNL A   1      38.118  34.240  29.617  1.00  0.00    -0.206 F 
ATOM     69  C   UNL A   1      34.516  34.513  29.574  1.00  0.00     0.060 A 
BRANCH  69  70
ATOM     70  S   UNL A   1      33.212  35.471  28.772  1.00  0.00     0.124 S 
ATOM     71  O   UNL A   1      33.992  36.419  27.981  1.00  0.00    -0.237 OA
ATOM     72  O   UNL A   1      32.499  34.448  28.013  1.00  0.00    -0.237 OA
ATOM     73  O   UNL A   1      32.474  36.048  29.891  1.00  0.00    -0.744 OA
ENDBRANCH  69  70
ENDBRANCH  48  62
BRANCH  49  74
ATOM     74  C   UNL A   1      44.137  28.865  35.804  1.00  0.00     0.058 A 
ATOM     75  C   UNL A   1      45.422  29.362  35.535  1.00  0.00     0.135 A 
ATOM     76  C   UNL A   1      44.027  27.809  36.724  1.00  0.00     0.135 A 
ATOM     77  F   UNL A   1      45.583  30.365  34.661  1.00  0.00    -0.206 F 
ATOM     78  C   UNL A   1      46.556  28.807  36.121  1.00  0.00     0.059 A 
ATOM     79  C   UNL A   1      45.142  27.261  37.348  1.00  0.00     0.059 A 
ATOM     80  F   UNL A   1      42.821  27.309  37.032  1.00  0.00    -0.206 F 
ATOM     81  C   UNL A   1      46.405  27.752  37.024  1.00  0.00     0.060 A 
BRANCH  81  82
ATOM     82  S   UNL A   1      47.881  27.039  37.781  1.00  0.00     0.124 S 
ATOM     83  O   UNL A   1      48.928  27.899  37.243  1.00  0.00    -0.237 OA
ATOM     84  O   UNL A   1      47.598  27.188  39.204  1.00  0.00    -0.237 OA
ATOM     85  O   UNL A   1      47.878  25.665  37.288  1.00  0.00    -0.744 OA
ENDBRANCH  81  82
ENDBRANCH  49  74
BRANCH  61  86
ATOM     86  C   UNL A   1      39.803  34.147  37.196  1.00  0.00     0.058 A 
ATOM     87  C   UNL A   1      40.537  35.344  37.184  1.00  0.00     0.135 A 
ATOM     88  C   UNL A   1      38.934  33.921  38.276  1.00  0.00     0.135 A 
ATOM     89  F   UNL A   1      41.390  35.603  36.181  1.00  0.00    -0.206 F 
ATOM     90  C   UNL A   1      40.423  36.275  38.211  1.00  0.00     0.059 A 
ATOM     91  C   UNL A   1      38.782  34.854  39.298  1.00  0.00     0.059 A 
ATOM     92  F   UNL A   1      38.204  32.796  38.333  1.00  0.00    -0.206 F 
ATOM     93  C   UNL A   1      39.538  36.024  39.260  1.00  0.00     0.060 A 
BRANCH  93  94
ATOM     94  S   UNL A   1      39.363  37.268  40.556  1.00  0.00     0.124 S 
ATOM     95  O   UNL A   1      38.217  38.035  40.076  1.00  0.00    -0.237 OA
ATOM     96  O   UNL A   1      39.128  36.452  41.742  1.00  0.00    -0.237 OA
ATOM     97  O   UNL A   1      40.643  37.971  40.529  1.00  0.00    -0.744 OA
ENDBRANCH  93  94
ENDBRANCH  61  86
ENDBRANCH  35  36
ENDBRANCH  27  30
ENDBRANCH  25  26
ENDBRANCH  24  25
ENDBRANCH  23  24
ENDBRANCH   1  23
TORSDOF 19
ENDMDL
MODEL 2
REMARK VINA RESULT:     -11.0      3.070      5.827
REMARK SMILES C[C@@H](C(=O)NCCCCCCNC(=O)c1ccc(-c2c3nc(c(-c4c(F)cc(S(=O)(=O)[O-])cc4F)c4ccc([nH]4)c(-c4c(F)cc(S(=O)(=O)[O-])cc4F)c4nc(c(-c5c(F)cc(S(=O)(=O)[O-])cc5F)c5ccc2[nH]5)C=C4)C=C3)cc1)c1ccc(Cc2ccoc2)cc1F
REMARK SMILES IDX 8 1 7 2 6 3 5 4 3 5 4 6 2 8 1 9 81 10 82 11 92 12 83 13
REMARK SMILES IDX 91 14 93 15 84 16 85 17 86 18 87 19 90 20 88 21 89 22 9 23
REMARK SMILES IDX 10 24 11 25 12 26 13 27 14 29 15 30 16 31 80 32 17 33 79 34
REMARK SMILES IDX 18 35 19 36 20 37 73 38 21 39 78 40 72 41 74 42 22 43 77 44
REMARK SMILES IDX 71 45 70 46 23 48 57 49 36 50 56 51 37 52 40 53 55 54 75 55
REMARK SMILES IDX 38 56 39 57 54 59 76 60 41 61 24 62 25 63 34 64 26 65 27 66
REMARK SMILES IDX 33 67 35 68 28 69 29 70 30 71 31 72 32 73 58 74 59 75 68 76
REMARK SMILES IDX 60 77 61 78 67 79 69 80 62 81 63 82 64 83 65 84 66 85 42 86
REMARK SMILES IDX 43 87 52 88 44 89 45 90 51 91 53 92 46 93 47 94 48 95 49 96
REMARK SMILES IDX 50 97
REMARK H PARENT 5 7 12 28 74 47 40 58
REMARK Flexibility Score: inf
ROOT
ATOM      1  C   UNL A   1      41.195  19.713  26.866  1.00  0.00     0.002 C 
ENDROOT
BRANCH   1   2
ATOM      2  C   UNL A   1      42.647  19.229  26.738  1.00  0.00     0.021 C 
BRANCH   2   3
ATOM      3  C   UNL A   1      43.310  19.583  25.404  1.00  0.00     0.116 C 
BRANCH   3   4
ATOM      4  N   UNL A   1      44.611  20.176  25.633  1.00  0.00    -0.356 N 
ATOM      5  C   UNL A   1      44.984  21.482  25.731  1.00  0.00     0.227 C 
ATOM      6  O   UNL A   1      46.198  21.700  25.761  1.00  0.00    -0.274 OA
ATOM      7  H   UNL A   1      45.346  19.528  25.732  1.00  0.00     0.163 HD
BRANCH   5   8
ATOM      8  C   UNL A   1      43.921  22.591  25.839  1.00  0.00     0.108 C 
ATOM      9  C   UNL A   1      43.723  23.368  24.532  1.00  0.00     0.023 C 
BRANCH   8  10
ATOM     10  C   UNL A   1      44.244  23.585  26.948  1.00  0.00    -0.000 A 
ATOM     11  C   UNL A   1      44.965  24.757  26.676  1.00  0.00     0.008 A 
ATOM     12  C   UNL A   1      43.812  23.373  28.258  1.00  0.00     0.127 A 
ATOM     13  C   UNL A   1      45.229  25.686  27.683  1.00  0.00     0.004 A 
ATOM     14  C   UNL A   1      44.088  24.288  29.276  1.00  0.00     0.043 A 
ATOM     15  F   UNL A   1      43.090  22.282  28.557  1.00  0.00    -0.207 F 
ATOM     16  C   UNL A   1      44.807  25.462  29.000  1.00  0.00    -0.041 A 
BRANCH  16  17
ATOM     17  C   UNL A   1      45.061  26.490  30.075  1.00  0.00     0.074 C 
BRANCH  17  18
ATOM     18  C   UNL A   1      46.293  26.100  30.824  1.00  0.00    -0.005 A 
ATOM     19  C   UNL A   1      47.662  26.239  30.439  1.00  0.00     0.046 A 
ATOM     20  C   UNL A   1      46.343  25.594  32.111  1.00  0.00     0.198 A 
ATOM     21  C   UNL A   1      48.421  25.799  31.495  1.00  0.00     0.195 A 
ATOM     22  O   UNL A   1      47.624  25.413  32.519  1.00  0.00    -0.472 OA
ENDBRANCH  17  18
ENDBRANCH  16  17
ENDBRANCH   8  10
ENDBRANCH   5   8
ENDBRANCH   3   4
ENDBRANCH   2   3
ENDBRANCH   1   2
BRANCH   1  23
ATOM     23  C   UNL A   1      40.853  20.961  26.046  1.00  0.00     0.002 C 
BRANCH  23  24
ATOM     24  C   UNL A   1      39.731  21.824  26.628  1.00  0.00     0.021 C 
BRANCH  24  25
ATOM     25  C   UNL A   1      40.192  23.159  27.206  1.00  0.00     0.116 C 
BRANCH  25  26
ATOM     26  N   UNL A   1      40.671  24.065  26.173  1.00  0.00    -0.352 N 
ATOM     27  C   UNL A   1      40.880  25.421  26.235  1.00  0.00     0.251 C 
ATOM     28  H   UNL A   1      40.875  23.646  25.305  1.00  0.00     0.163 HD
ATOM     29  O   UNL A   1      41.093  26.059  25.207  1.00  0.00    -0.269 OA
BRANCH  27  30
ATOM     30  C   UNL A   1      40.822  26.114  27.539  1.00  0.00     0.039 A 
ATOM     31  C   UNL A   1      41.868  26.964  27.902  1.00  0.00     0.014 A 
ATOM     32  C   UNL A   1      39.725  25.942  28.391  1.00  0.00     0.014 A 
ATOM     33  C   UNL A   1      41.775  27.710  29.079  1.00  0.00     0.010 A 
ATOM     34  C   UNL A   1      39.605  26.735  29.530  1.00  0.00     0.010 A 
ATOM     35  C   UNL A   1      40.618  27.642  29.876  1.00  0.00    -0.014 A 
BRANCH  35  36
ATOM     36  C   UNL A   1      40.424  28.559  31.028  1.00  0.00     0.031 A 
ATOM     37  C   UNL A   1      39.384  29.645  30.976  1.00  0.00     0.074 A 
ATOM     38  C   UNL A   1      41.255  28.465  32.087  1.00  0.00     0.049 A 
ATOM     39  N   UNL A   1      39.137  30.588  31.849  1.00  0.00    -0.248 NA
ATOM     40  C   UNL A   1      38.522  29.691  29.784  1.00  0.00     0.031 C 
ATOM     41  C   UNL A   1      42.339  27.488  32.226  1.00  0.00     0.029 A 
ATOM     42  N   UNL A   1      41.336  29.210  33.238  1.00  0.00    -0.354 N 
ATOM     43  C   UNL A   1      38.109  31.349  31.307  1.00  0.00     0.074 A 
ATOM     44  C   UNL A   1      37.795  30.777  30.016  1.00  0.00     0.031 C 
ATOM     45  C   UNL A   1      42.970  27.691  33.394  1.00  0.00     0.029 A 
ATOM     46  C   UNL A   1      42.372  28.838  34.066  1.00  0.00     0.049 A 
ATOM     47  H   UNL A   1      40.713  29.942  33.451  1.00  0.00     0.167 HD
ATOM     48  C   UNL A   1      37.479  32.420  31.847  1.00  0.00     0.037 A 
ATOM     49  C   UNL A   1      42.810  29.376  35.221  1.00  0.00     0.037 A 
ATOM     50  C   UNL A   1      37.777  32.960  33.148  1.00  0.00     0.049 A 
ATOM     51  C   UNL A   1      42.094  30.574  35.788  1.00  0.00     0.074 A 
ATOM     52  C   UNL A   1      37.122  33.977  33.823  1.00  0.00     0.029 A 
ATOM     53  N   UNL A   1      38.817  32.546  33.965  1.00  0.00    -0.354 N 
ATOM     54  N   UNL A   1      41.051  31.210  35.313  1.00  0.00    -0.248 NA
ATOM     55  C   UNL A   1      42.614  31.130  37.046  1.00  0.00     0.031 C 
ATOM     56  C   UNL A   1      37.806  34.222  35.016  1.00  0.00     0.029 A 
ATOM     57  C   UNL A   1      38.853  33.320  35.114  1.00  0.00     0.049 A 
ATOM     58  H   UNL A   1      39.439  31.811  33.758  1.00  0.00     0.167 HD
ATOM     59  C   UNL A   1      40.782  32.230  36.219  1.00  0.00     0.074 A 
ATOM     60  C   UNL A   1      41.753  32.109  37.285  1.00  0.00     0.031 C 
ATOM     61  C   UNL A   1      39.824  33.187  36.169  1.00  0.00     0.037 A 
BRANCH  48  62
ATOM     62  C   UNL A   1      36.398  33.094  31.048  1.00  0.00     0.058 A 
ATOM     63  C   UNL A   1      35.045  32.997  31.408  1.00  0.00     0.135 A 
ATOM     64  C   UNL A   1      36.734  33.946  29.983  1.00  0.00     0.135 A 
ATOM     65  F   UNL A   1      34.668  32.186  32.408  1.00  0.00    -0.206 F 
ATOM     66  C   UNL A   1      34.064  33.723  30.740  1.00  0.00     0.059 A 
ATOM     67  C   UNL A   1      35.772  34.700  29.318  1.00  0.00     0.059 A 
ATOM     68  F   UNL A   1      38.014  34.072  29.597  1.00  0.00    -0.206 F 
ATOM     69  C   UNL A   1      34.439  34.581  29.704  1.00  0.00     0.060 A 
BRANCH  69  70
ATOM     70  S   UNL A   1      33.158  35.564  28.895  1.00  0.00     0.124 S 
ATOM     71  O   UNL A   1      32.476  34.552  28.093  1.00  0.00    -0.237 OA
ATOM     72  O   UNL A   1      32.405  36.086  30.031  1.00  0.00    -0.237 OA
ATOM     73  O   UNL A   1      33.916  36.555  28.138  1.00  0.00    -0.744 OA
ENDBRANCH  69  70
ENDBRANCH  48  62
BRANCH  49  74
ATOM     74  C   UNL A   1      44.007  28.817  35.907  1.00  0.00     0.058 A 
ATOM     75  C   UNL A   1      43.895  27.749  36.811  1.00  0.00     0.135 A 
ATOM     76  C   UNL A   1      45.284  29.366  35.702  1.00  0.00     0.135 A 
ATOM     77  F   UNL A   1      42.698  27.194  37.047  1.00  0.00    -0.206 F 
ATOM     78  C   UNL A   1      44.997  27.271  37.514  1.00  0.00     0.059 A 
ATOM     79  C   UNL A   1      46.405  28.883  36.367  1.00  0.00     0.059 A 
ATOM     80  F   UNL A   1      45.451  30.376  34.835  1.00  0.00    -0.206 F 
ATOM     81  C   UNL A   1      46.248  27.849  37.289  1.00  0.00     0.060 A 
BRANCH  81  82
ATOM     82  S   UNL A   1      47.672  27.221  38.204  1.00  0.00     0.124 S 
ATOM     83  O   UNL A   1      48.060  26.076  37.391  1.00  0.00    -0.237 OA
ATOM     84  O   UNL A   1      48.581  28.362  38.177  1.00  0.00    -0.237 OA
ATOM     85  O   UNL A   1      47.113  26.906  39.515  1.00  0.00    -0.744 OA
ENDBRANCH  81  82
ENDBRANCH  49  74
BRANCH  61  86
ATOM     86  C   UNL A   1      39.768  34.176  37.300  1.00  0.00     0.058 A 
ATOM     87  C   UNL A   1      40.403  35.425  37.211  1.00  0.00     0.135 A 
ATOM     88  C   UNL A   1      39.019  33.902  38.455  1.00  0.00     0.135 A 
ATOM     89  F   UNL A   1      41.140  35.734  36.134  1.00  0.00    -0.206 F 
ATOM     90  C   UNL A   1      40.308  36.361  38.236  1.00  0.00     0.059 A 
ATOM     91  C   UNL A   1      38.886  34.836  39.478  1.00  0.00     0.059 A 
ATOM     92  F   UNL A   1      38.386  32.725  38.588  1.00  0.00    -0.206 F 
ATOM     93  C   UNL A   1      39.541  36.060  39.362  1.00  0.00     0.060 A 
BRANCH  93  94
ATOM     94  S   UNL A   1      39.386  37.307  40.657  1.00  0.00     0.124 S 
ATOM     95  O   UNL A   1      38.351  38.177  40.106  1.00  0.00    -0.237 OA
ATOM     96  O   UNL A   1      38.994  36.509  41.814  1.00  0.00    -0.237 OA
ATOM     97  O   UNL A   1      40.723  37.892  40.730  1.00  0.00    -0.744 OA
ENDBRANCH  93  94
ENDBRANCH  61  86
ENDBRANCH  35  36
ENDBRANCH  27  30
ENDBRANCH  25  26
ENDBRANCH  24  25
ENDBRANCH  23  24
ENDBRANCH   1  23
TORSDOF 19
ENDMDL
MODEL 3
REMARK VINA RESULT:     -11.0      3.714      8.753
REMARK SMILES C[C@@H](C(=O)NCCCCCCNC(=O)c1ccc(-c2c3nc(c(-c4c(F)cc(S(=O)(=O)[O-])cc4F)c4ccc([nH]4)c(-c4c(F)cc(S(=O)(=O)[O-])cc4F)c4nc(c(-c5c(F)cc(S(=O)(=O)[O-])cc5F)c5ccc2[nH]5)C=C4)C=C3)cc1)c1ccc(Cc2ccoc2)cc1F
REMARK SMILES IDX 8 1 7 2 6 3 5 4 3 5 4 6 2 8 1 9 81 10 82 11 92 12 83 13
REMARK SMILES IDX 91 14 93 15 84 16 85 17 86 18 87 19 90 20 88 21 89 22 9 23
REMARK SMILES IDX 10 24 11 25 12 26 13 27 14 29 15 30 16 31 80 32 17 33 79 34
REMARK SMILES IDX 18 35 19 36 20 37 73 38 21 39 78 40 72 41 74 42 22 43 77 44
REMARK SMILES IDX 71 45 70 46 23 48 57 49 36 50 56 51 37 52 40 53 55 54 75 55
REMARK SMILES IDX 38 56 39 57 54 59 76 60 41 61 24 62 25 63 34 64 26 65 27 66
REMARK SMILES IDX 33 67 35 68 28 69 29 70 30 71 31 72 32 73 58 74 59 75 68 76
REMARK SMILES IDX 60 77 61 78 67 79 69 80 62 81 63 82 64 83 65 84 66 85 42 86
REMARK SMILES IDX 43 87 52 88 44 89 45 90 51 91 53 92 46 93 47 94 48 95 49 96
REMARK SMILES IDX 50 97
REMARK H PARENT 5 7 12 28 74 47 40 58
REMARK Flexibility Score: inf
ROOT
ATOM      1  C   UNL A   1      32.983  25.556  26.237  1.00  0.00     0.002 C 
ENDROOT
BRANCH   1   2
ATOM      2  C   UNL A   1      32.273  24.203  26.399  1.00  0.00     0.021 C 
BRANCH   2   3
ATOM      3  C   UNL A   1      32.375  23.293  25.172  1.00  0.00     0.116 C 
BRANCH   3   4
ATOM      4  N   UNL A   1      33.592  23.572  24.441  1.00  0.00    -0.356 N 
ATOM      5  C   UNL A   1      33.779  23.987  23.157  1.00  0.00     0.227 C 
ATOM      6  O   UNL A   1      34.942  23.982  22.747  1.00  0.00    -0.274 OA
ATOM      7  H   UNL A   1      34.422  23.439  24.955  1.00  0.00     0.163 HD
BRANCH   5   8
ATOM      8  C   UNL A   1      32.585  24.468  22.311  1.00  0.00     0.108 C 
ATOM      9  C   UNL A   1      32.902  24.561  20.815  1.00  0.00     0.023 C 
BRANCH   8  10
ATOM     10  C   UNL A   1      32.061  25.820  22.780  1.00  0.00    -0.000 A 
ATOM     11  C   UNL A   1      32.873  26.963  22.731  1.00  0.00     0.008 A 
ATOM     12  C   UNL A   1      30.753  25.967  23.247  1.00  0.00     0.127 A 
ATOM     13  C   UNL A   1      32.383  28.207  23.124  1.00  0.00     0.004 A 
ATOM     14  C   UNL A   1      30.261  27.207  23.661  1.00  0.00     0.043 A 
ATOM     15  F   UNL A   1      29.930  24.908  23.280  1.00  0.00    -0.207 F 
ATOM     16  C   UNL A   1      31.075  28.349  23.607  1.00  0.00    -0.041 A 
BRANCH  16  17
ATOM     17  C   UNL A   1      30.540  29.706  23.993  1.00  0.00     0.074 C 
BRANCH  17  18
ATOM     18  C   UNL A   1      29.493  30.103  23.004  1.00  0.00    -0.005 A 
ATOM     19  C   UNL A   1      28.215  30.697  23.238  1.00  0.00     0.046 A 
ATOM     20  C   UNL A   1      29.606  30.049  21.627  1.00  0.00     0.198 A 
ATOM     21  C   UNL A   1      27.654  30.937  22.008  1.00  0.00     0.195 A 
ATOM     22  O   UNL A   1      28.499  30.552  21.023  1.00  0.00    -0.472 OA
ENDBRANCH  17  18
ENDBRANCH  16  17
ENDBRANCH   8  10
ENDBRANCH   5   8
ENDBRANCH   3   4
ENDBRANCH   2   3
ENDBRANCH   1   2
BRANCH   1  23
ATOM     23  C   UNL A   1      32.135  26.780  26.593  1.00  0.00     0.002 C 
BRANCH  23  24
ATOM     24  C   UNL A   1      32.906  27.929  27.248  1.00  0.00     0.021 C 
BRANCH  24  25
ATOM     25  C   UNL A   1      33.893  28.638  26.324  1.00  0.00     0.116 C 
BRANCH  25  26
ATOM     26  N   UNL A   1      33.901  30.078  26.535  1.00  0.00    -0.352 N 
ATOM     27  C   UNL A   1      34.720  30.834  27.338  1.00  0.00     0.251 C 
ATOM     28  H   UNL A   1      33.223  30.582  26.029  1.00  0.00     0.163 HD
ATOM     29  O   UNL A   1      34.454  32.014  27.551  1.00  0.00    -0.269 OA
BRANCH  27  30
ATOM     30  C   UNL A   1      35.907  30.216  27.964  1.00  0.00     0.039 A 
ATOM     31  C   UNL A   1      37.107  30.176  27.250  1.00  0.00     0.014 A 
ATOM     32  C   UNL A   1      35.842  29.698  29.262  1.00  0.00     0.014 A 
ATOM     33  C   UNL A   1      38.263  29.697  27.869  1.00  0.00     0.010 A 
ATOM     34  C   UNL A   1      37.009  29.282  29.899  1.00  0.00     0.010 A 
ATOM     35  C   UNL A   1      38.235  29.295  29.217  1.00  0.00    -0.014 A 
BRANCH  35  36
ATOM     36  C   UNL A   1      39.486  28.957  29.944  1.00  0.00     0.031 A 
ATOM     37  C   UNL A   1      39.949  29.794  31.104  1.00  0.00     0.074 A 
ATOM     38  C   UNL A   1      40.251  27.941  29.491  1.00  0.00     0.049 A 
ATOM     39  N   UNL A   1      41.055  29.700  31.796  1.00  0.00    -0.248 NA
ATOM     40  C   UNL A   1      39.066  30.891  31.534  1.00  0.00     0.031 C 
ATOM     41  C   UNL A   1      39.935  27.093  28.338  1.00  0.00     0.029 A 
ATOM     42  N   UNL A   1      41.462  27.461  29.928  1.00  0.00    -0.354 N 
ATOM     43  C   UNL A   1      41.013  30.730  32.726  1.00  0.00     0.074 A 
ATOM     44  C   UNL A   1      39.785  31.458  32.494  1.00  0.00     0.031 C 
ATOM     45  C   UNL A   1      40.919  26.198  28.164  1.00  0.00     0.029 A 
ATOM     46  C   UNL A   1      41.961  26.434  29.158  1.00  0.00     0.049 A 
ATOM     47  H   UNL A   1      41.930  27.819  30.717  1.00  0.00     0.167 HD
ATOM     48  C   UNL A   1      41.914  31.031  33.692  1.00  0.00     0.037 A 
ATOM     49  C   UNL A   1      43.134  25.776  29.224  1.00  0.00     0.037 A 
ATOM     50  C   UNL A   1      43.118  30.279  33.935  1.00  0.00     0.049 A 
ATOM     51  C   UNL A   1      44.119  26.142  30.303  1.00  0.00     0.074 A 
ATOM     52  C   UNL A   1      44.038  30.444  34.957  1.00  0.00     0.029 A 
ATOM     53  N   UNL A   1      43.579  29.235  33.149  1.00  0.00    -0.354 N 
ATOM     54  N   UNL A   1      44.008  27.049  31.245  1.00  0.00    -0.248 NA
ATOM     55  C   UNL A   1      45.389  25.402  30.330  1.00  0.00     0.031 C 
ATOM     56  C   UNL A   1      45.088  29.546  34.750  1.00  0.00     0.029 A 
ATOM     57  C   UNL A   1      44.794  28.780  33.633  1.00  0.00     0.049 A 
ATOM     58  H   UNL A   1      43.112  28.871  32.362  1.00  0.00     0.167 HD
ATOM     59  C   UNL A   1      45.185  26.977  31.982  1.00  0.00     0.074 A 
ATOM     60  C   UNL A   1      45.981  25.920  31.396  1.00  0.00     0.031 C 
ATOM     61  C   UNL A   1      45.576  27.724  33.042  1.00  0.00     0.037 A 
BRANCH  48  62
ATOM     62  C   UNL A   1      41.651  32.221  34.573  1.00  0.00     0.058 A 
ATOM     63  C   UNL A   1      42.044  33.516  34.202  1.00  0.00     0.135 A 
ATOM     64  C   UNL A   1      40.890  32.077  35.745  1.00  0.00     0.135 A 
ATOM     65  F   UNL A   1      42.786  33.707  33.100  1.00  0.00    -0.206 F 
ATOM     66  C   UNL A   1      41.689  34.626  34.960  1.00  0.00     0.059 A 
ATOM     67  C   UNL A   1      40.502  33.177  36.505  1.00  0.00     0.059 A 
ATOM     68  F   UNL A   1      40.491  30.860  36.146  1.00  0.00    -0.206 F 
ATOM     69  C   UNL A   1      40.908  34.448  36.104  1.00  0.00     0.060 A 
BRANCH  69  70
ATOM     70  S   UNL A   1      40.402  35.909  37.038  1.00  0.00     0.124 S 
ATOM     71  O   UNL A   1      41.638  36.253  37.734  1.00  0.00    -0.237 OA
ATOM     72  O   UNL A   1      39.996  36.828  35.978  1.00  0.00    -0.237 OA
ATOM     73  O   UNL A   1      39.322  35.415  37.885  1.00  0.00    -0.744 OA
ENDBRANCH  69  70
ENDBRANCH  48  62
BRANCH  49  74
ATOM     74  C   UNL A   1      43.468  24.726  28.223  1.00  0.00     0.058 A 
ATOM     75  C   UNL A   1      44.280  25.010  27.114  1.00  0.00     0.135 A 
ATOM     76  C   UNL A   1      42.950  23.425  28.335  1.00  0.00     0.135 A 
ATOM     77  F   UNL A   1      44.794  26.238  26.957  1.00  0.00    -0.206 F 
ATOM     78  C   UNL A   1      44.535  24.056  26.134  1.00  0.00     0.059 A 
ATOM     79  C   UNL A   1      43.218  22.445  27.386  1.00  0.00     0.059 A 
ATOM     80  F   UNL A   1      42.184  23.094  29.386  1.00  0.00    -0.206 F 
ATOM     81  C   UNL A   1      43.994  22.776  26.277  1.00  0.00     0.060 A 
BRANCH  81  82
ATOM     82  S   UNL A   1      44.330  21.543  25.001  1.00  0.00     0.124 S 
ATOM     83  O   UNL A   1      45.745  21.273  25.223  1.00  0.00    -0.237 OA
ATOM     84  O   UNL A   1      43.409  20.470  25.361  1.00  0.00    -0.237 OA
ATOM     85  O   UNL A   1      44.008  22.247  23.763  1.00  0.00    -0.744 OA
ENDBRANCH  81  82
ENDBRANCH  49  74
BRANCH  61  86
ATOM     86  C   UNL A   1      46.919  27.425  33.648  1.00  0.00     0.058 A 
ATOM     87  C   UNL A   1      47.066  26.468  34.665  1.00  0.00     0.135 A 
ATOM     88  C   UNL A   1      48.079  28.049  33.162  1.00  0.00     0.135 A 
ATOM     89  F   UNL A   1      45.988  25.850  35.172  1.00  0.00    -0.206 F 
ATOM     90  C   UNL A   1      48.315  26.153  35.190  1.00  0.00     0.059 A 
ATOM     91  C   UNL A   1      49.341  27.726  33.651  1.00  0.00     0.059 A 
ATOM     92  F   UNL A   1      47.996  28.966  32.185  1.00  0.00    -0.206 F 
ATOM     93  C   UNL A   1      49.448  26.782  34.671  1.00  0.00     0.060 A 
BRANCH  93  94
ATOM     94  S   UNL A   1      51.065  26.321  35.327  1.00  0.00     0.124 S 
ATOM     95  O   UNL A   1      50.851  24.922  35.682  1.00  0.00    -0.237 OA
ATOM     96  O   UNL A   1      51.943  26.559  34.186  1.00  0.00    -0.237 OA
ATOM     97  O   UNL A   1      51.248  27.233  36.453  1.00  0.00    -0.744 OA
ENDBRANCH  93  94
ENDBRANCH  61  86
ENDBRANCH  35  36
ENDBRANCH  27  30
ENDBRANCH  25  26
ENDBRANCH  24  25
ENDBRANCH  23  24
ENDBRANCH   1  23
TORSDOF 19
ENDMDL
