MODEL 1
REMARK VINA RESULT:     -11.5      0.000      0.000
REMARK SMILES CC[C@@H](C)NC(=O)[C@H](C)[NH+]1CC(n2cc(C(=O)NCCCCCCNC(=O)c3ccc(-c4c5nc(c(-c6c(F)cc(S(=O)(=O)[O-])cc6F)c6ccc([nH]6)c(-c6c(F)cc(S(=O)(=O)[O-])cc6F)c6nc(c(-c7c(F)cc(S(=O)(=O)[O-])cc7F)c7ccc4[nH]7)C=C6)C=C5)cc3)nn2)C1
REMARK SMILES IDX 20 1 19 2 18 3 16 4 17 5 15 7 13 8 14 9 95 10 94 11 12 12
REMARK SMILES IDX 10 13 11 14 96 15 8 17 9 18 6 19 5 20 7 22 3 23 4 24 2 25
REMARK SMILES IDX 1 26 21 27 22 28 23 29 24 30 25 31 26 32 27 34 28 35 29 36
REMARK SMILES IDX 93 37 30 38 92 39 31 40 32 41 33 42 86 43 34 44 91 45 85 46
REMARK SMILES IDX 87 47 35 48 90 49 84 50 83 51 36 53 70 54 49 55 69 56 50 57
REMARK SMILES IDX 53 58 68 59 88 60 51 61 52 62 67 64 89 65 54 66 37 67 38 68
REMARK SMILES IDX 47 69 39 70 40 71 46 72 48 73 41 74 42 75 43 76 44 77 45 78
REMARK SMILES IDX 71 79 72 80 81 81 73 82 74 83 80 84 82 85 75 86 76 87 77 88
REMARK SMILES IDX 78 89 79 90 55 91 56 92 65 93 57 94 58 95 64 96 66 97 59 98
REMARK SMILES IDX 60 99 61 100 62 101 63 102
REMARK H PARENT 18 6 10 16 5 21 25 33 87 52 53 63
REMARK Flexibility Score: inf
ROOT
ATOM      1  C   UNL A   1      38.854  23.312  26.629  1.00  0.00     0.021 C 
ENDROOT
BRANCH   1   2
ATOM      2  C   UNL A   1      37.654  23.380  25.688  1.00  0.00     0.116 C 
BRANCH   2   3
ATOM      3  N   UNL A   1      36.563  22.570  26.189  1.00  0.00    -0.351 N 
ATOM      4  C   UNL A   1      35.237  22.518  25.845  1.00  0.00     0.273 C 
ATOM      5  O   UNL A   1      34.567  21.630  26.389  1.00  0.00    -0.267 OA
ATOM      6  H   UNL A   1      36.819  21.947  26.905  1.00  0.00     0.163 HD
BRANCH   4   7
ATOM      7  C   UNL A   1      34.664  23.410  24.848  1.00  0.00     0.170 A 
ATOM      8  N   UNL A   1      33.837  25.031  23.658  1.00  0.00    -0.237 N 
ATOM      9  C   UNL A   1      34.069  24.656  24.953  1.00  0.00     0.145 A 
ATOM     10  N   UNL A   1      34.174  24.052  22.805  1.00  0.00    -0.066 NA
ATOM     11  N   UNL A   1      34.653  23.046  23.519  1.00  0.00    -0.125 NA
BRANCH   8  12
ATOM     12  C   UNL A   1      33.354  26.320  23.258  1.00  0.00     0.218 C 
ATOM     13  N   UNL A   1      32.162  27.903  23.951  1.00  0.00    -0.321 N 
ATOM     14  C   UNL A   1      33.530  27.437  24.308  1.00  0.00     0.296 C 
ATOM     15  C   UNL A   1      31.845  26.498  23.567  1.00  0.00     0.296 C 
ATOM     16  H   UNL A   1      32.024  28.682  23.307  1.00  0.00     0.348 HD
BRANCH  13  17
ATOM     17  C   UNL A   1      31.345  28.448  25.069  1.00  0.00     0.271 C 
ATOM     18  C   UNL A   1      31.815  28.241  26.512  1.00  0.00     0.086 C 
BRANCH  17  19
ATOM     19  C   UNL A   1      30.991  29.945  24.903  1.00  0.00     0.278 C 
ATOM     20  N   UNL A   1      30.176  30.381  23.904  1.00  0.00    -0.349 N 
ATOM     21  H   UNL A   1      30.146  31.359  23.805  1.00  0.00     0.163 HD
ATOM     22  O   UNL A   1      31.372  30.812  25.697  1.00  0.00    -0.268 OA
BRANCH  20  23
ATOM     23  C   UNL A   1      29.338  29.656  22.955  1.00  0.00     0.078 C 
ATOM     24  C   UNL A   1      29.787  30.007  21.540  1.00  0.00     0.031 C 
BRANCH  23  25
ATOM     25  C   UNL A   1      27.870  30.029  23.225  1.00  0.00     0.021 C 
ATOM     26  C   UNL A   1      27.668  31.477  23.643  1.00  0.00     0.006 C 
ENDBRANCH  23  25
ENDBRANCH  20  23
ENDBRANCH  17  19
ENDBRANCH  13  17
ENDBRANCH   8  12
ENDBRANCH   4   7
ENDBRANCH   2   3
ENDBRANCH   1   2
BRANCH   1  27
ATOM     27  C   UNL A   1      39.714  22.056  26.436  1.00  0.00     0.002 C 
BRANCH  27  28
ATOM     28  C   UNL A   1      40.638  21.698  27.612  1.00  0.00     0.002 C 
BRANCH  28  29
ATOM     29  C   UNL A   1      41.575  20.500  27.392  1.00  0.00     0.021 C 
BRANCH  29  30
ATOM     30  C   UNL A   1      41.565  19.977  25.964  1.00  0.00     0.116 C 
BRANCH  30  31
ATOM     31  N   UNL A   1      42.910  19.651  25.495  1.00  0.00    -0.352 N 
ATOM     32  C   UNL A   1      43.913  20.511  25.111  1.00  0.00     0.251 C 
ATOM     33  H   UNL A   1      43.126  18.692  25.447  1.00  0.00     0.163 HD
ATOM     34  O   UNL A   1      44.824  20.118  24.380  1.00  0.00    -0.269 OA
BRANCH  32  35
ATOM     35  C   UNL A   1      43.890  21.902  25.591  1.00  0.00     0.039 A 
ATOM     36  C   UNL A   1      43.101  22.874  24.967  1.00  0.00     0.014 A 
ATOM     37  C   UNL A   1      44.683  22.228  26.688  1.00  0.00     0.014 A 
ATOM     38  C   UNL A   1      43.064  24.158  25.505  1.00  0.00     0.010 A 
ATOM     39  C   UNL A   1      44.536  23.444  27.303  1.00  0.00     0.010 A 
ATOM     40  C   UNL A   1      43.774  24.429  26.685  1.00  0.00    -0.014 A 
BRANCH  40  41
ATOM     41  C   UNL A   1      43.616  25.695  27.391  1.00  0.00     0.031 A 
ATOM     42  C   UNL A   1      44.660  26.696  27.049  1.00  0.00     0.074 A 
ATOM     43  C   UNL A   1      42.495  26.000  28.083  1.00  0.00     0.049 A 
ATOM     44  N   UNL A   1      45.601  27.132  27.817  1.00  0.00    -0.248 NA
ATOM     45  C   UNL A   1      44.804  27.121  25.645  1.00  0.00     0.031 C 
ATOM     46  C   UNL A   1      41.287  25.184  28.246  1.00  0.00     0.029 A 
ATOM     47  N   UNL A   1      42.146  27.163  28.699  1.00  0.00    -0.354 N 
ATOM     48  C   UNL A   1      46.281  28.092  27.074  1.00  0.00     0.074 A 
ATOM     49  C   UNL A   1      45.913  27.862  25.704  1.00  0.00     0.031 C 
ATOM     50  C   UNL A   1      40.275  25.955  28.698  1.00  0.00     0.029 A 
ATOM     51  C   UNL A   1      40.786  27.280  28.995  1.00  0.00     0.049 A 
ATOM     52  H   UNL A   1      42.800  27.865  28.918  1.00  0.00     0.167 HD
ATOM     53  C   UNL A   1      46.856  29.166  27.687  1.00  0.00     0.037 A 
ATOM     54  C   UNL A   1      40.134  28.399  29.414  1.00  0.00     0.037 A 
ATOM     55  C   UNL A   1      46.940  28.949  29.113  1.00  0.00     0.049 A 
ATOM     56  C   UNL A   1      41.174  29.304  29.980  1.00  0.00     0.074 A 
ATOM     57  C   UNL A   1      47.511  27.977  29.912  1.00  0.00     0.029 A 
ATOM     58  N   UNL A   1      46.019  29.596  29.905  1.00  0.00    -0.354 N 
ATOM     59  N   UNL A   1      41.839  29.035  31.071  1.00  0.00    -0.248 NA
ATOM     60  C   UNL A   1      41.820  30.243  29.074  1.00  0.00     0.031 C 
ATOM     61  C   UNL A   1      46.570  27.766  30.961  1.00  0.00     0.029 A 
ATOM     62  C   UNL A   1      45.533  28.686  30.807  1.00  0.00     0.049 A 
ATOM     63  H   UNL A   1      45.757  30.542  29.834  1.00  0.00     0.167 HD
ATOM     64  C   UNL A   1      43.148  29.391  30.780  1.00  0.00     0.074 A 
ATOM     65  C   UNL A   1      43.061  30.206  29.568  1.00  0.00     0.031 C 
ATOM     66  C   UNL A   1      44.199  28.739  31.361  1.00  0.00     0.037 A 
BRANCH  53  67
ATOM     67  C   UNL A   1      46.969  30.552  27.088  1.00  0.00     0.058 A 
ATOM     68  C   UNL A   1      48.195  31.241  27.206  1.00  0.00     0.135 A 
ATOM     69  C   UNL A   1      45.871  31.338  26.674  1.00  0.00     0.135 A 
ATOM     70  F   UNL A   1      49.311  30.596  27.585  1.00  0.00    -0.206 F 
ATOM     71  C   UNL A   1      48.302  32.619  27.021  1.00  0.00     0.059 A 
ATOM     72  C   UNL A   1      45.967  32.703  26.432  1.00  0.00     0.059 A 
ATOM     73  F   UNL A   1      44.631  30.851  26.571  1.00  0.00    -0.206 F 
ATOM     74  C   UNL A   1      47.175  33.344  26.649  1.00  0.00     0.060 A 
BRANCH  74  75
ATOM     75  S   UNL A   1      47.285  35.133  26.496  1.00  0.00     0.124 S 
ATOM     76  O   UNL A   1      47.819  35.276  25.147  1.00  0.00    -0.237 OA
ATOM     77  O   UNL A   1      45.896  35.537  26.683  1.00  0.00    -0.237 OA
ATOM     78  O   UNL A   1      48.192  35.505  27.578  1.00  0.00    -0.744 OA
ENDBRANCH  74  75
ENDBRANCH  53  67
BRANCH  54  79
ATOM     79  C   UNL A   1      38.756  28.868  29.078  1.00  0.00     0.058 A 
ATOM     80  C   UNL A   1      37.785  29.055  30.083  1.00  0.00     0.135 A 
ATOM     81  C   UNL A   1      38.444  29.424  27.821  1.00  0.00     0.135 A 
ATOM     82  F   UNL A   1      37.984  28.562  31.316  1.00  0.00    -0.206 F 
ATOM     83  C   UNL A   1      36.629  29.822  29.881  1.00  0.00     0.059 A 
ATOM     84  C   UNL A   1      37.293  30.178  27.591  1.00  0.00     0.059 A 
ATOM     85  F   UNL A   1      39.298  29.343  26.791  1.00  0.00    -0.206 F 
ATOM     86  C   UNL A   1      36.409  30.408  28.636  1.00  0.00     0.060 A 
BRANCH  86  87
ATOM     87  S   UNL A   1      35.065  31.602  28.428  1.00  0.00     0.124 S 
ATOM     88  O   UNL A   1      34.782  31.986  29.806  1.00  0.00    -0.237 OA
ATOM     89  O   UNL A   1      35.686  32.625  27.594  1.00  0.00    -0.237 OA
ATOM     90  O   UNL A   1      34.020  30.821  27.770  1.00  0.00    -0.744 OA
ENDBRANCH  86  87
ENDBRANCH  54  79
BRANCH  66  91
ATOM     91  C   UNL A   1      43.927  27.836  32.538  1.00  0.00     0.058 A 
ATOM     92  C   UNL A   1      43.819  26.435  32.468  1.00  0.00     0.135 A 
ATOM     93  C   UNL A   1      43.949  28.410  33.818  1.00  0.00     0.135 A 
ATOM     94  F   UNL A   1      43.898  25.792  31.294  1.00  0.00    -0.206 F 
ATOM     95  C   UNL A   1      43.695  25.647  33.614  1.00  0.00     0.059 A 
ATOM     96  C   UNL A   1      43.861  27.643  34.974  1.00  0.00     0.059 A 
ATOM     97  F   UNL A   1      44.115  29.736  33.955  1.00  0.00    -0.206 F 
ATOM     98  C   UNL A   1      43.719  26.262  34.865  1.00  0.00     0.060 A 
BRANCH  98  99
ATOM     99  S   UNL A   1      43.625  25.243  36.352  1.00  0.00     0.124 S 
ATOM    100  O   UNL A   1      45.008  24.806  36.511  1.00  0.00    -0.237 OA
ATOM    101  O   UNL A   1      43.138  26.186  37.354  1.00  0.00    -0.237 OA
ATOM    102  O   UNL A   1      42.677  24.192  35.986  1.00  0.00    -0.744 OA
ENDBRANCH  98  99
ENDBRANCH  66  91
ENDBRANCH  40  41
ENDBRANCH  32  35
ENDBRANCH  30  31
ENDBRANCH  29  30
ENDBRANCH  28  29
ENDBRANCH  27  28
ENDBRANCH   1  27
TORSDOF 21
ENDMDL
MODEL 2
REMARK VINA RESULT:     -10.5      1.638      2.523
REMARK SMILES CC[C@@H](C)NC(=O)[C@H](C)[NH+]1CC(n2cc(C(=O)NCCCCCCNC(=O)c3ccc(-c4c5nc(c(-c6c(F)cc(S(=O)(=O)[O-])cc6F)c6ccc([nH]6)c(-c6c(F)cc(S(=O)(=O)[O-])cc6F)c6nc(c(-c7c(F)cc(S(=O)(=O)[O-])cc7F)c7ccc4[nH]7)C=C6)C=C5)cc3)nn2)C1
REMARK SMILES IDX 20 1 19 2 18 3 16 4 17 5 15 7 13 8 14 9 95 10 94 11 12 12
REMARK SMILES IDX 10 13 11 14 96 15 8 17 9 18 6 19 5 20 7 22 3 23 4 24 2 25
REMARK SMILES IDX 1 26 21 27 22 28 23 29 24 30 25 31 26 32 27 34 28 35 29 36
REMARK SMILES IDX 93 37 30 38 92 39 31 40 32 41 33 42 86 43 34 44 91 45 85 46
REMARK SMILES IDX 87 47 35 48 90 49 84 50 83 51 36 53 70 54 49 55 69 56 50 57
REMARK SMILES IDX 53 58 68 59 88 60 51 61 52 62 67 64 89 65 54 66 37 67 38 68
REMARK SMILES IDX 47 69 39 70 40 71 46 72 48 73 41 74 42 75 43 76 44 77 45 78
REMARK SMILES IDX 71 79 72 80 81 81 73 82 74 83 80 84 82 85 75 86 76 87 77 88
REMARK SMILES IDX 78 89 79 90 55 91 56 92 65 93 57 94 58 95 64 96 66 97 59 98
REMARK SMILES IDX 60 99 61 100 62 101 63 102
REMARK H PARENT 18 6 10 16 5 21 25 33 87 52 53 63
REMARK Flexibility Score: inf
ROOT
ATOM      1  C   UNL A   1      38.527  23.673  26.418  1.00  0.00     0.021 C 
ENDROOT
BRANCH   1   2
ATOM      2  C   UNL A   1      37.184  24.079  25.816  1.00  0.00     0.116 C 
BRANCH   2   3
ATOM      3  N   UNL A   1      36.111  23.281  26.371  1.00  0.00    -0.351 N 
ATOM      4  C   UNL A   1      34.910  22.881  25.844  1.00  0.00     0.273 C 
ATOM      5  O   UNL A   1      34.244  22.100  26.538  1.00  0.00    -0.267 OA
ATOM      6  H   UNL A   1      36.273  22.970  27.289  1.00  0.00     0.163 HD
BRANCH   4   7
ATOM      7  C   UNL A   1      34.473  23.295  24.519  1.00  0.00     0.170 A 
ATOM      8  N   UNL A   1      33.638  24.231  22.743  1.00  0.00    -0.237 N 
ATOM      9  C   UNL A   1      33.496  24.185  24.103  1.00  0.00     0.145 A 
ATOM     10  N   UNL A   1      34.573  23.364  22.326  1.00  0.00    -0.066 NA
ATOM     11  N   UNL A   1      35.069  22.765  23.396  1.00  0.00    -0.125 NA
BRANCH   8  12
ATOM     12  C   UNL A   1      32.928  25.129  21.881  1.00  0.00     0.218 C 
ATOM     13  N   UNL A   1      31.848  26.929  21.931  1.00  0.00    -0.321 N 
ATOM     14  C   UNL A   1      33.300  26.618  22.040  1.00  0.00     0.296 C 
ATOM     15  C   UNL A   1      31.574  25.575  22.493  1.00  0.00     0.296 C 
ATOM     16  H   UNL A   1      31.442  27.239  21.049  1.00  0.00     0.348 HD
BRANCH  13  17
ATOM     17  C   UNL A   1      31.360  28.063  22.762  1.00  0.00     0.271 C 
ATOM     18  C   UNL A   1      30.265  28.980  22.208  1.00  0.00     0.086 C 
BRANCH  17  19
ATOM     19  C   UNL A   1      30.942  27.646  24.192  1.00  0.00     0.278 C 
ATOM     20  N   UNL A   1      31.803  27.728  25.242  1.00  0.00    -0.349 N 
ATOM     21  H   UNL A   1      31.481  27.295  26.064  1.00  0.00     0.163 HD
ATOM     22  O   UNL A   1      29.795  27.280  24.471  1.00  0.00    -0.268 OA
BRANCH  20  23
ATOM     23  C   UNL A   1      33.121  28.343  25.365  1.00  0.00     0.078 C 
ATOM     24  C   UNL A   1      33.944  27.538  26.366  1.00  0.00     0.031 C 
BRANCH  23  25
ATOM     25  C   UNL A   1      32.930  29.810  25.791  1.00  0.00     0.021 C 
ATOM     26  C   UNL A   1      31.830  30.015  26.820  1.00  0.00     0.006 C 
ENDBRANCH  23  25
ENDBRANCH  20  23
ENDBRANCH  17  19
ENDBRANCH  13  17
ENDBRANCH   8  12
ENDBRANCH   4   7
ENDBRANCH   2   3
ENDBRANCH   1   2
BRANCH   1  27
ATOM     27  C   UNL A   1      38.875  22.195  26.199  1.00  0.00     0.002 C 
BRANCH  27  28
ATOM     28  C   UNL A   1      40.089  21.676  26.988  1.00  0.00     0.002 C 
BRANCH  28  29
ATOM     29  C   UNL A   1      40.919  20.579  26.302  1.00  0.00     0.021 C 
BRANCH  29  30
ATOM     30  C   UNL A   1      42.404  20.657  26.617  1.00  0.00     0.116 C 
BRANCH  30  31
ATOM     31  N   UNL A   1      43.177  21.143  25.475  1.00  0.00    -0.352 N 
ATOM     32  C   UNL A   1      43.351  22.439  25.049  1.00  0.00     0.251 C 
ATOM     33  H   UNL A   1      43.630  20.451  24.940  1.00  0.00     0.163 HD
ATOM     34  O   UNL A   1      43.678  22.673  23.885  1.00  0.00    -0.269 OA
BRANCH  32  35
ATOM     35  C   UNL A   1      43.152  23.541  26.005  1.00  0.00     0.039 A 
ATOM     36  C   UNL A   1      43.948  23.666  27.147  1.00  0.00     0.014 A 
ATOM     37  C   UNL A   1      42.138  24.460  25.741  1.00  0.00     0.014 A 
ATOM     38  C   UNL A   1      43.761  24.766  27.981  1.00  0.00     0.010 A 
ATOM     39  C   UNL A   1      42.052  25.614  26.475  1.00  0.00     0.010 A 
ATOM     40  C   UNL A   1      42.819  25.744  27.626  1.00  0.00    -0.014 A 
BRANCH  40  41
ATOM     41  C   UNL A   1      42.722  27.002  28.358  1.00  0.00     0.031 A 
ATOM     42  C   UNL A   1      43.811  27.960  28.033  1.00  0.00     0.074 A 
ATOM     43  C   UNL A   1      41.618  27.346  29.058  1.00  0.00     0.049 A 
ATOM     44  N   UNL A   1      44.774  28.334  28.807  1.00  0.00    -0.248 NA
ATOM     45  C   UNL A   1      43.974  28.404  26.637  1.00  0.00     0.031 C 
ATOM     46  C   UNL A   1      40.373  26.585  29.208  1.00  0.00     0.029 A 
ATOM     47  N   UNL A   1      41.325  28.512  29.698  1.00  0.00    -0.354 N 
ATOM     48  C   UNL A   1      45.497  29.276  28.082  1.00  0.00     0.074 A 
ATOM     49  C   UNL A   1      45.116  29.092  26.708  1.00  0.00     0.031 C 
ATOM     50  C   UNL A   1      39.399  27.394  29.678  1.00  0.00     0.029 A 
ATOM     51  C   UNL A   1      39.973  28.687  29.999  1.00  0.00     0.049 A 
ATOM     52  H   UNL A   1      42.012  29.178  29.929  1.00  0.00     0.167 HD
ATOM     53  C   UNL A   1      46.124  30.309  28.715  1.00  0.00     0.037 A 
ATOM     54  C   UNL A   1      39.375  29.826  30.443  1.00  0.00     0.037 A 
ATOM     55  C   UNL A   1      46.199  30.060  30.136  1.00  0.00     0.049 A 
ATOM     56  C   UNL A   1      40.457  30.671  31.024  1.00  0.00     0.074 A 
ATOM     57  C   UNL A   1      46.725  29.046  30.914  1.00  0.00     0.029 A 
ATOM     58  N   UNL A   1      45.311  30.734  30.942  1.00  0.00    -0.354 N 
ATOM     59  N   UNL A   1      41.110  30.348  32.107  1.00  0.00    -0.248 NA
ATOM     60  C   UNL A   1      41.146  31.596  30.135  1.00  0.00     0.031 C 
ATOM     61  C   UNL A   1      45.776  28.859  31.961  1.00  0.00     0.029 A 
ATOM     62  C   UNL A   1      44.784  29.830  31.827  1.00  0.00     0.049 A 
ATOM     63  H   UNL A   1      45.093  31.693  30.892  1.00  0.00     0.167 HD
ATOM     64  C   UNL A   1      42.434  30.648  31.821  1.00  0.00     0.074 A 
ATOM     65  C   UNL A   1      42.385  31.490  30.625  1.00  0.00     0.031 C 
ATOM     66  C   UNL A   1      43.455  29.935  32.386  1.00  0.00     0.037 A 
BRANCH  53  67
ATOM     67  C   UNL A   1      46.301  31.700  28.143  1.00  0.00     0.058 A 
ATOM     68  C   UNL A   1      47.578  32.299  28.207  1.00  0.00     0.135 A 
ATOM     69  C   UNL A   1      45.240  32.571  27.811  1.00  0.00     0.135 A 
ATOM     70  F   UNL A   1      48.664  31.568  28.506  1.00  0.00    -0.206 F 
ATOM     71  C   UNL A   1      47.771  33.671  28.049  1.00  0.00     0.059 A 
ATOM     72  C   UNL A   1      45.419  33.933  27.596  1.00  0.00     0.059 A 
ATOM     73  F   UNL A   1      43.964  32.175  27.768  1.00  0.00    -0.206 F 
ATOM     74  C   UNL A   1      46.679  34.482  27.759  1.00  0.00     0.060 A 
BRANCH  74  75
ATOM     75  S   UNL A   1      46.908  36.263  27.642  1.00  0.00     0.124 S 
ATOM     76  O   UNL A   1      47.869  36.503  28.712  1.00  0.00    -0.237 OA
ATOM     77  O   UNL A   1      47.412  36.411  26.281  1.00  0.00    -0.237 OA
ATOM     78  O   UNL A   1      45.565  36.787  27.868  1.00  0.00    -0.744 OA
ENDBRANCH  74  75
ENDBRANCH  53  67
BRANCH  54  79
ATOM     79  C   UNL A   1      38.021  30.367  30.119  1.00  0.00     0.058 A 
ATOM     80  C   UNL A   1      37.177  30.872  31.131  1.00  0.00     0.135 A 
ATOM     81  C   UNL A   1      37.637  30.676  28.799  1.00  0.00     0.135 A 
ATOM     82  F   UNL A   1      37.451  30.631  32.423  1.00  0.00    -0.206 F 
ATOM     83  C   UNL A   1      36.083  31.704  30.854  1.00  0.00     0.059 A 
ATOM     84  C   UNL A   1      36.545  31.490  28.498  1.00  0.00     0.059 A 
ATOM     85  F   UNL A   1      38.372  30.283  27.748  1.00  0.00    -0.206 F 
ATOM     86  C   UNL A   1      35.795  32.035  29.532  1.00  0.00     0.060 A 
BRANCH  86  87
ATOM     87  S   UNL A   1      34.555  33.302  29.170  1.00  0.00     0.124 S 
ATOM     88  O   UNL A   1      33.720  32.637  28.176  1.00  0.00    -0.237 OA
ATOM     89  O   UNL A   1      33.944  33.519  30.476  1.00  0.00    -0.237 OA
ATOM     90  O   UNL A   1      35.353  34.419  28.669  1.00  0.00    -0.744 OA
ENDBRANCH  86  87
ENDBRANCH  54  79
BRANCH  66  91
ATOM     91  C   UNL A   1      43.142  29.023  33.545  1.00  0.00     0.058 A 
ATOM     92  C   UNL A   1      42.971  29.444  34.876  1.00  0.00     0.135 A 
ATOM     93  C   UNL A   1      42.835  27.685  33.255  1.00  0.00     0.135 A 
ATOM     94  F   UNL A   1      43.136  30.728  35.223  1.00  0.00    -0.206 F 
ATOM     95  C   UNL A   1      42.555  28.565  35.879  1.00  0.00     0.059 A 
ATOM     96  C   UNL A   1      42.387  26.800  34.231  1.00  0.00     0.059 A 
ATOM     97  F   UNL A   1      42.916  27.236  31.992  1.00  0.00    -0.206 F 
ATOM     98  C   UNL A   1      42.264  27.244  35.545  1.00  0.00     0.060 A 
BRANCH  98  99
ATOM     99  S   UNL A   1      41.663  26.121  36.825  1.00  0.00     0.124 S 
ATOM    100  O   UNL A   1      40.593  26.902  37.438  1.00  0.00    -0.237 OA
ATOM    101  O   UNL A   1      41.237  24.957  36.053  1.00  0.00    -0.237 OA
ATOM    102  O   UNL A   1      42.838  25.904  37.667  1.00  0.00    -0.744 OA
ENDBRANCH  98  99
ENDBRANCH  66  91
ENDBRANCH  40  41
ENDBRANCH  32  35
ENDBRANCH  30  31
ENDBRANCH  29  30
ENDBRANCH  28  29
ENDBRANCH  27  28
ENDBRANCH   1  27
TORSDOF 21
ENDMDL
MODEL 3
REMARK VINA RESULT:      -9.3      3.743      5.617
REMARK SMILES CC[C@@H](C)NC(=O)[C@H](C)[NH+]1CC(n2cc(C(=O)NCCCCCCNC(=O)c3ccc(-c4c5nc(c(-c6c(F)cc(S(=O)(=O)[O-])cc6F)c6ccc([nH]6)c(-c6c(F)cc(S(=O)(=O)[O-])cc6F)c6nc(c(-c7c(F)cc(S(=O)(=O)[O-])cc7F)c7ccc4[nH]7)C=C6)C=C5)cc3)nn2)C1
REMARK SMILES IDX 20 1 19 2 18 3 16 4 17 5 15 7 13 8 14 9 95 10 94 11 12 12
REMARK SMILES IDX 10 13 11 14 96 15 8 17 9 18 6 19 5 20 7 22 3 23 4 24 2 25
REMARK SMILES IDX 1 26 21 27 22 28 23 29 24 30 25 31 26 32 27 34 28 35 29 36
REMARK SMILES IDX 93 37 30 38 92 39 31 40 32 41 33 42 86 43 34 44 91 45 85 46
REMARK SMILES IDX 87 47 35 48 90 49 84 50 83 51 36 53 70 54 49 55 69 56 50 57
REMARK SMILES IDX 53 58 68 59 88 60 51 61 52 62 67 64 89 65 54 66 37 67 38 68
REMARK SMILES IDX 47 69 39 70 40 71 46 72 48 73 41 74 42 75 43 76 44 77 45 78
REMARK SMILES IDX 71 79 72 80 81 81 73 82 74 83 80 84 82 85 75 86 76 87 77 88
REMARK SMILES IDX 78 89 79 90 55 91 56 92 65 93 57 94 58 95 64 96 66 97 59 98
REMARK SMILES IDX 60 99 61 100 62 101 63 102
REMARK H PARENT 18 6 10 16 5 21 25 33 87 52 53 63
REMARK Flexibility Score: inf
ROOT
ATOM      1  C   UNL A   1      39.125  27.297  28.504  1.00  0.00     0.021 C 
ENDROOT
BRANCH   1   2
ATOM      2  C   UNL A   1      38.285  28.553  28.285  1.00  0.00     0.116 C 
BRANCH   2   3
ATOM      3  N   UNL A   1      37.650  28.967  29.519  1.00  0.00    -0.351 N 
ATOM      4  C   UNL A   1      36.448  29.579  29.762  1.00  0.00     0.273 C 
ATOM      5  O   UNL A   1      36.132  29.708  30.953  1.00  0.00    -0.267 OA
ATOM      6  H   UNL A   1      38.177  28.776  30.327  1.00  0.00     0.163 HD
BRANCH   4   7
ATOM      7  C   UNL A   1      35.561  29.992  28.684  1.00  0.00     0.170 A 
ATOM      8  N   UNL A   1      34.171  30.200  27.025  1.00  0.00    -0.237 N 
ATOM      9  C   UNL A   1      35.002  29.294  27.626  1.00  0.00     0.145 A 
ATOM     10  N   UNL A   1      34.273  31.406  27.604  1.00  0.00    -0.066 NA
ATOM     11  N   UNL A   1      35.139  31.301  28.598  1.00  0.00    -0.125 NA
BRANCH   8  12
ATOM     12  C   UNL A   1      33.267  29.891  25.957  1.00  0.00     0.218 C 
ATOM     13  N   UNL A   1      32.232  28.271  25.112  1.00  0.00    -0.321 N 
ATOM     14  C   UNL A   1      32.038  29.051  26.365  1.00  0.00     0.296 C 
ATOM     15  C   UNL A   1      33.683  28.605  25.196  1.00  0.00     0.296 C 
ATOM     16  H   UNL A   1      31.680  28.471  24.278  1.00  0.00     0.348 HD
BRANCH  13  17
ATOM     17  C   UNL A   1      31.917  26.819  25.191  1.00  0.00     0.271 C 
ATOM     18  C   UNL A   1      31.513  26.211  26.537  1.00  0.00     0.086 C 
BRANCH  17  19
ATOM     19  C   UNL A   1      30.883  26.354  24.138  1.00  0.00     0.278 C 
ATOM     20  N   UNL A   1      31.265  25.875  22.923  1.00  0.00    -0.349 N 
ATOM     21  H   UNL A   1      30.525  25.756  22.285  1.00  0.00     0.163 HD
ATOM     22  O   UNL A   1      29.668  26.330  24.363  1.00  0.00    -0.268 OA
BRANCH  20  23
ATOM     23  C   UNL A   1      32.575  25.509  22.396  1.00  0.00     0.078 C 
ATOM     24  C   UNL A   1      32.528  25.583  20.874  1.00  0.00     0.031 C 
BRANCH  23  25
ATOM     25  C   UNL A   1      32.927  24.103  22.916  1.00  0.00     0.021 C 
ATOM     26  C   UNL A   1      34.407  23.906  23.205  1.00  0.00     0.006 C 
ENDBRANCH  23  25
ENDBRANCH  20  23
ENDBRANCH  17  19
ENDBRANCH  13  17
ENDBRANCH   8  12
ENDBRANCH   4   7
ENDBRANCH   2   3
ENDBRANCH   1   2
BRANCH   1  27
ATOM     27  C   UNL A   1      40.031  26.951  27.315  1.00  0.00     0.002 C 
BRANCH  27  28
ATOM     28  C   UNL A   1      40.077  25.463  26.928  1.00  0.00     0.002 C 
BRANCH  28  29
ATOM     29  C   UNL A   1      41.327  25.005  26.162  1.00  0.00     0.021 C 
BRANCH  29  30
ATOM     30  C   UNL A   1      42.517  24.714  27.062  1.00  0.00     0.116 C 
BRANCH  30  31
ATOM     31  N   UNL A   1      43.771  24.671  26.310  1.00  0.00    -0.352 N 
ATOM     32  C   UNL A   1      44.465  25.717  25.747  1.00  0.00     0.251 C 
ATOM     33  H   UNL A   1      44.167  23.779  26.189  1.00  0.00     0.163 HD
ATOM     34  O   UNL A   1      45.262  25.513  24.830  1.00  0.00    -0.269 OA
BRANCH  32  35
ATOM     35  C   UNL A   1      44.253  27.080  26.262  1.00  0.00     0.039 A 
ATOM     36  C   UNL A   1      43.224  27.890  25.772  1.00  0.00     0.014 A 
ATOM     37  C   UNL A   1      45.113  27.545  27.254  1.00  0.00     0.014 A 
ATOM     38  C   UNL A   1      43.026  29.145  26.342  1.00  0.00     0.010 A 
ATOM     39  C   UNL A   1      44.830  28.713  27.913  1.00  0.00     0.010 A 
ATOM     40  C   UNL A   1      43.826  29.541  27.425  1.00  0.00    -0.014 A 
BRANCH  40  41
ATOM     41  C   UNL A   1      43.535  30.756  28.178  1.00  0.00     0.031 A 
ATOM     42  C   UNL A   1      44.141  31.977  27.585  1.00  0.00     0.074 A 
ATOM     43  C   UNL A   1      42.606  30.792  29.159  1.00  0.00     0.049 A 
ATOM     44  N   UNL A   1      45.105  32.683  28.073  1.00  0.00    -0.248 NA
ATOM     45  C   UNL A   1      43.779  32.352  26.206  1.00  0.00     0.031 C 
ATOM     46  C   UNL A   1      41.750  29.697  29.630  1.00  0.00     0.029 A 
ATOM     47  N   UNL A   1      42.142  31.852  29.876  1.00  0.00    -0.354 N 
ATOM     48  C   UNL A   1      45.276  33.748  27.195  1.00  0.00     0.074 A 
ATOM     49  C   UNL A   1      44.623  33.360  25.975  1.00  0.00     0.031 C 
ATOM     50  C   UNL A   1      40.733  30.198  30.363  1.00  0.00     0.029 A 
ATOM     51  C   UNL A   1      40.934  31.624  30.539  1.00  0.00     0.049 A 
ATOM     52  H   UNL A   1      42.619  32.712  29.923  1.00  0.00     0.167 HD
ATOM     53  C   UNL A   1      45.690  34.965  27.651  1.00  0.00     0.037 A 
ATOM     54  C   UNL A   1      40.148  32.552  31.149  1.00  0.00     0.037 A 
ATOM     55  C   UNL A   1      46.213  34.851  28.993  1.00  0.00     0.049 A 
ATOM     56  C   UNL A   1      41.023  33.727  31.427  1.00  0.00     0.074 A 
ATOM     57  C   UNL A   1      47.217  34.105  29.579  1.00  0.00     0.029 A 
ATOM     58  N   UNL A   1      45.405  35.274  30.023  1.00  0.00    -0.354 N 
ATOM     59  N   UNL A   1      42.006  33.697  32.285  1.00  0.00    -0.248 NA
ATOM     60  C   UNL A   1      41.124  34.754  30.401  1.00  0.00     0.031 C 
ATOM     61  C   UNL A   1      46.689  33.708  30.843  1.00  0.00     0.029 A 
ATOM     62  C   UNL A   1      45.443  34.316  31.002  1.00  0.00     0.049 A 
ATOM     63  H   UNL A   1      44.891  36.113  30.051  1.00  0.00     0.167 HD
ATOM     64  C   UNL A   1      43.043  34.368  31.653  1.00  0.00     0.074 A 
ATOM     65  C   UNL A   1      42.416  35.069  30.532  1.00  0.00     0.031 C 
ATOM     66  C   UNL A   1      44.347  34.045  31.905  1.00  0.00     0.037 A 
BRANCH  53  67
ATOM     67  C   UNL A   1      45.262  36.300  27.078  1.00  0.00     0.058 A 
ATOM     68  C   UNL A   1      46.258  37.244  26.748  1.00  0.00     0.135 A 
ATOM     69  C   UNL A   1      43.942  36.801  27.112  1.00  0.00     0.135 A 
ATOM     70  F   UNL A   1      47.549  36.881  26.677  1.00  0.00    -0.206 F 
ATOM     71  C   UNL A   1      45.977  38.597  26.562  1.00  0.00     0.059 A 
ATOM     72  C   UNL A   1      43.633  38.135  26.876  1.00  0.00     0.059 A 
ATOM     73  F   UNL A   1      42.892  36.052  27.465  1.00  0.00    -0.206 F 
ATOM     74  C   UNL A   1      44.660  39.035  26.645  1.00  0.00     0.060 A 
BRANCH  74  75
ATOM     75  S   UNL A   1      44.302  40.791  26.494  1.00  0.00     0.124 S 
ATOM     76  O   UNL A   1      45.315  41.370  27.368  1.00  0.00    -0.237 OA
ATOM     77  O   UNL A   1      44.485  41.013  25.064  1.00  0.00    -0.237 OA
ATOM     78  O   UNL A   1      42.925  40.893  26.967  1.00  0.00    -0.744 OA
ENDBRANCH  74  75
ENDBRANCH  53  67
BRANCH  54  79
ATOM     79  C   UNL A   1      38.657  32.627  31.218  1.00  0.00     0.058 A 
ATOM     80  C   UNL A   1      37.971  32.384  32.425  1.00  0.00     0.135 A 
ATOM     81  C   UNL A   1      37.893  33.220  30.193  1.00  0.00     0.135 A 
ATOM     82  F   UNL A   1      38.608  31.818  33.463  1.00  0.00    -0.206 F 
ATOM     83  C   UNL A   1      36.645  32.788  32.633  1.00  0.00     0.059 A 
ATOM     84  C   UNL A   1      36.568  33.617  30.371  1.00  0.00     0.059 A 
ATOM     85  F   UNL A   1      38.436  33.531  29.008  1.00  0.00    -0.206 F 
ATOM     86  C   UNL A   1      35.961  33.436  31.607  1.00  0.00     0.060 A 
BRANCH  86  87
ATOM     87  S   UNL A   1      34.348  34.189  31.934  1.00  0.00     0.124 S 
ATOM     88  O   UNL A   1      34.724  35.491  32.474  1.00  0.00    -0.237 OA
ATOM     89  O   UNL A   1      33.736  34.198  30.610  1.00  0.00    -0.237 OA
ATOM     90  O   UNL A   1      33.736  33.269  32.890  1.00  0.00    -0.744 OA
ENDBRANCH  86  87
ENDBRANCH  54  79
BRANCH  66  91
ATOM     91  C   UNL A   1      44.656  33.164  33.089  1.00  0.00     0.058 A 
ATOM     92  C   UNL A   1      44.753  33.610  34.419  1.00  0.00     0.135 A 
ATOM     93  C   UNL A   1      44.685  31.777  32.877  1.00  0.00     0.135 A 
ATOM     94  F   UNL A   1      44.627  34.908  34.725  1.00  0.00    -0.206 F 
ATOM     95  C   UNL A   1      44.914  32.721  35.484  1.00  0.00     0.059 A 
ATOM     96  C   UNL A   1      44.810  30.871  33.925  1.00  0.00     0.059 A 
ATOM     97  F   UNL A   1      44.533  31.284  31.637  1.00  0.00    -0.206 F 
ATOM     98  C   UNL A   1      44.940  31.351  35.226  1.00  0.00     0.060 A 
BRANCH  98  99
ATOM     99  S   UNL A   1      45.082  30.195  36.606  1.00  0.00     0.124 S 
ATOM    100  O   UNL A   1      43.994  30.625  37.477  1.00  0.00    -0.237 OA
ATOM    101  O   UNL A   1      44.901  28.900  35.955  1.00  0.00    -0.237 OA
ATOM    102  O   UNL A   1      46.428  30.441  37.120  1.00  0.00    -0.744 OA
ENDBRANCH  98  99
ENDBRANCH  66  91
ENDBRANCH  40  41
ENDBRANCH  32  35
ENDBRANCH  30  31
ENDBRANCH  29  30
ENDBRANCH  28  29
ENDBRANCH  27  28
ENDBRANCH   1  27
TORSDOF 21
ENDMDL
