MODEL 1
REMARK VINA RESULT:     -12.0      0.000      0.000
REMARK SMILES Cc1cc(Cl)ccc1-c1ccc(C(=O)NCCCCCCNC(=O)c2ccc(-c3c4nc(c(-c5c(F)cc(S(=O)(=O)[O-])cc5F)c5ccc([nH]5)c(-c5c(F)cc(S(=O)(=O)[O-])cc5F)c5nc(c(-c6c(F)cc(S(=O)(=O)[O-])cc6F)c6ccc3[nH]6)C=C5)C=C4)cc2)c(Cl)c1
REMARK SMILES IDX 19 1 18 2 17 3 16 4 15 5 13 6 14 7 12 9 9 10 10 11 93 12
REMARK SMILES IDX 11 13 91 14 92 15 8 16 1 17 2 18 3 19 4 20 7 21 5 22 6 23
REMARK SMILES IDX 20 24 21 25 22 26 23 27 24 29 25 30 26 31 90 32 27 33 89 34
REMARK SMILES IDX 28 35 29 36 30 37 83 38 31 39 88 40 82 41 84 42 32 43 87 44
REMARK SMILES IDX 81 45 80 46 33 48 67 49 46 50 66 51 47 52 50 53 65 54 85 55
REMARK SMILES IDX 48 56 49 57 64 59 86 60 51 61 34 62 35 63 44 64 36 65 37 66
REMARK SMILES IDX 43 67 45 68 38 69 39 70 40 71 41 72 42 73 68 74 69 75 78 76
REMARK SMILES IDX 70 77 71 78 77 79 79 80 72 81 73 82 74 83 75 84 76 85 52 86
REMARK SMILES IDX 53 87 62 88 54 89 55 90 61 91 63 92 56 93 57 94 58 95 59 96
REMARK SMILES IDX 60 97
REMARK H PARENT 15 8 22 28 84 47 50 58
REMARK Flexibility Score: inf
ROOT
ATOM      1  C   UNL A   1      37.264  22.074  25.409  1.00  0.00     0.002 C 
ENDROOT
BRANCH   1   2
ATOM      2  C   UNL A   1      35.879  21.629  25.884  1.00  0.00     0.002 C 
BRANCH   2   3
ATOM      3  C   UNL A   1      35.229  20.555  25.010  1.00  0.00     0.021 C 
BRANCH   3   4
ATOM      4  C   UNL A   1      33.721  20.378  25.242  1.00  0.00     0.116 C 
BRANCH   4   5
ATOM      5  N   UNL A   1      33.000  20.868  24.085  1.00  0.00    -0.352 N 
ATOM      6  C   UNL A   1      32.507  22.089  23.719  1.00  0.00     0.252 C 
ATOM      7  O   UNL A   1      31.832  22.105  22.683  1.00  0.00    -0.269 OA
ATOM      8  H   UNL A   1      32.827  20.167  23.416  1.00  0.00     0.163 HD
BRANCH   6   9
ATOM      9  C   UNL A   1      32.797  23.397  24.378  1.00  0.00     0.058 A 
ATOM     10  C   UNL A   1      33.269  26.083  25.221  1.00  0.00    -0.017 A 
ATOM     11  C   UNL A   1      33.315  25.756  23.868  1.00  0.00     0.009 A 
ATOM     12  C   UNL A   1      32.995  25.062  26.138  1.00  0.00     0.030 A 
ATOM     13  C   UNL A   1      33.103  24.432  23.461  1.00  0.00     0.016 A 
ATOM     14  C   UNL A   1      32.696  23.753  25.726  1.00  0.00     0.054 A 
ATOM     15  Cl  UNL A   1      32.008  22.793  26.977  1.00  0.00    -0.083 Cl
BRANCH  10  16
ATOM     16  C   UNL A   1      33.386  27.461  25.708  1.00  0.00    -0.015 A 
ATOM     17  C   UNL A   1      31.182  28.176  24.595  1.00  0.00     0.045 C 
ATOM     18  C   UNL A   1      32.385  28.430  25.467  1.00  0.00    -0.042 A 
ATOM     19  C   UNL A   1      32.497  29.700  26.062  1.00  0.00     0.024 A 
ATOM     20  C   UNL A   1      33.569  30.000  26.900  1.00  0.00     0.041 A 
ATOM     21  C   UNL A   1      34.470  27.796  26.543  1.00  0.00     0.010 A 
ATOM     22  Cl  UNL A   1      33.657  31.544  27.655  1.00  0.00    -0.084 Cl
ATOM     23  C   UNL A   1      34.559  29.055  27.139  1.00  0.00     0.021 A 
ENDBRANCH  10  16
ENDBRANCH   6   9
ENDBRANCH   4   5
ENDBRANCH   3   4
ENDBRANCH   2   3
ENDBRANCH   1   2
BRANCH   1  24
ATOM     24  C   UNL A   1      37.471  23.591  25.353  1.00  0.00     0.021 C 
BRANCH  24  25
ATOM     25  C   UNL A   1      38.346  24.147  26.473  1.00  0.00     0.116 C 
BRANCH  25  26
ATOM     26  N   UNL A   1      39.760  23.995  26.164  1.00  0.00    -0.352 N 
ATOM     27  C   UNL A   1      40.809  24.808  26.500  1.00  0.00     0.251 C 
ATOM     28  H   UNL A   1      39.996  23.196  25.639  1.00  0.00     0.163 HD
ATOM     29  O   UNL A   1      41.890  24.691  25.916  1.00  0.00    -0.269 OA
BRANCH  27  30
ATOM     30  C   UNL A   1      40.644  25.819  27.562  1.00  0.00     0.039 A 
ATOM     31  C   UNL A   1      39.658  25.637  28.534  1.00  0.00     0.014 A 
ATOM     32  C   UNL A   1      41.451  26.960  27.582  1.00  0.00     0.014 A 
ATOM     33  C   UNL A   1      39.512  26.580  29.553  1.00  0.00     0.010 A 
ATOM     34  C   UNL A   1      41.357  27.858  28.639  1.00  0.00     0.010 A 
ATOM     35  C   UNL A   1      40.378  27.685  29.627  1.00  0.00    -0.014 A 
BRANCH  35  36
ATOM     36  C   UNL A   1      40.267  28.676  30.726  1.00  0.00     0.031 A 
ATOM     37  C   UNL A   1      41.158  28.568  31.932  1.00  0.00     0.074 A 
ATOM     38  C   UNL A   1      39.326  29.636  30.659  1.00  0.00     0.049 A 
ATOM     39  N   UNL A   1      41.190  29.313  33.007  1.00  0.00    -0.248 NA
ATOM     40  C   UNL A   1      42.124  27.458  31.943  1.00  0.00     0.031 C 
ATOM     41  C   UNL A   1      38.378  29.815  29.559  1.00  0.00     0.029 A 
ATOM     42  N   UNL A   1      39.011  30.642  31.537  1.00  0.00    -0.354 N 
ATOM     43  C   UNL A   1      42.167  28.758  33.824  1.00  0.00     0.074 A 
ATOM     44  C   UNL A   1      42.657  27.575  33.150  1.00  0.00     0.031 C 
ATOM     45  C   UNL A   1      37.617  30.892  29.806  1.00  0.00     0.029 A 
ATOM     46  C   UNL A   1      37.992  31.455  31.099  1.00  0.00     0.049 A 
ATOM     47  H   UNL A   1      39.470  30.769  32.398  1.00  0.00     0.167 HD
ATOM     48  C   UNL A   1      42.633  29.206  35.016  1.00  0.00     0.037 A 
ATOM     49  C   UNL A   1      37.430  32.535  31.675  1.00  0.00     0.037 A 
ATOM     50  C   UNL A   1      42.141  30.388  35.675  1.00  0.00     0.049 A 
ATOM     51  C   UNL A   1      37.940  32.999  33.010  1.00  0.00     0.074 A 
ATOM     52  C   UNL A   1      42.572  30.959  36.859  1.00  0.00     0.029 A 
ATOM     53  N   UNL A   1      41.097  31.178  35.208  1.00  0.00    -0.354 N 
ATOM     54  N   UNL A   1      38.907  32.500  33.744  1.00  0.00    -0.248 NA
ATOM     55  C   UNL A   1      37.284  34.176  33.596  1.00  0.00     0.031 C 
ATOM     56  C   UNL A   1      41.756  32.062  37.133  1.00  0.00     0.029 A 
ATOM     57  C   UNL A   1      40.852  32.214  36.093  1.00  0.00     0.049 A 
ATOM     58  H   UNL A   1      40.604  31.022  34.370  1.00  0.00     0.167 HD
ATOM     59  C   UNL A   1      38.997  33.320  34.863  1.00  0.00     0.074 A 
ATOM     60  C   UNL A   1      37.990  34.350  34.706  1.00  0.00     0.031 C 
ATOM     61  C   UNL A   1      39.841  33.231  35.923  1.00  0.00     0.037 A 
BRANCH  48  62
ATOM     62  C   UNL A   1      43.719  28.398  35.676  1.00  0.00     0.058 A 
ATOM     63  C   UNL A   1      43.427  27.392  36.613  1.00  0.00     0.135 A 
ATOM     64  C   UNL A   1      45.071  28.648  35.391  1.00  0.00     0.135 A 
ATOM     65  F   UNL A   1      42.152  27.116  36.933  1.00  0.00    -0.206 F 
ATOM     66  C   UNL A   1      44.433  26.708  37.288  1.00  0.00     0.059 A 
ATOM     67  C   UNL A   1      46.094  27.952  36.029  1.00  0.00     0.059 A 
ATOM     68  F   UNL A   1      45.413  29.592  34.499  1.00  0.00    -0.206 F 
ATOM     69  C   UNL A   1      45.765  27.005  36.997  1.00  0.00     0.060 A 
BRANCH  69  70
ATOM     70  S   UNL A   1      47.060  26.149  37.919  1.00  0.00     0.124 S 
ATOM     71  O   UNL A   1      47.911  25.661  36.837  1.00  0.00    -0.237 OA
ATOM     72  O   UNL A   1      47.626  27.219  38.734  1.00  0.00    -0.237 OA
ATOM     73  O   UNL A   1      46.331  25.122  38.656  1.00  0.00    -0.744 OA
ENDBRANCH  69  70
ENDBRANCH  48  62
BRANCH  49  74
ATOM     74  C   UNL A   1      36.362  33.277  30.957  1.00  0.00     0.058 A 
ATOM     75  C   UNL A   1      35.027  33.194  31.382  1.00  0.00     0.135 A 
ATOM     76  C   UNL A   1      36.652  34.118  29.871  1.00  0.00     0.135 A 
ATOM     77  F   UNL A   1      34.701  32.398  32.412  1.00  0.00    -0.206 F 
ATOM     78  C   UNL A   1      34.017  33.917  30.758  1.00  0.00     0.059 A 
ATOM     79  C   UNL A   1      35.662  34.869  29.246  1.00  0.00     0.059 A 
ATOM     80  F   UNL A   1      37.914  34.245  29.437  1.00  0.00    -0.206 F 
ATOM     81  C   UNL A   1      34.346  34.759  29.694  1.00  0.00     0.060 A 
BRANCH  81  82
ATOM     82  S   UNL A   1      33.036  35.752  28.945  1.00  0.00     0.124 S 
ATOM     83  O   UNL A   1      33.805  36.757  28.221  1.00  0.00    -0.237 OA
ATOM     84  O   UNL A   1      32.340  34.766  28.124  1.00  0.00    -0.237 OA
ATOM     85  O   UNL A   1      32.284  36.239  30.097  1.00  0.00    -0.744 OA
ENDBRANCH  81  82
ENDBRANCH  49  74
BRANCH  61  86
ATOM     86  C   UNL A   1      39.731  34.294  36.981  1.00  0.00     0.058 A 
ATOM     87  C   UNL A   1      40.282  35.573  36.808  1.00  0.00     0.135 A 
ATOM     88  C   UNL A   1      39.025  34.040  38.170  1.00  0.00     0.135 A 
ATOM     89  F   UNL A   1      40.973  35.866  35.695  1.00  0.00    -0.206 F 
ATOM     90  C   UNL A   1      40.160  36.555  37.785  1.00  0.00     0.059 A 
ATOM     91  C   UNL A   1      38.866  35.016  39.148  1.00  0.00     0.059 A 
ATOM     92  F   UNL A   1      38.469  32.837  38.383  1.00  0.00    -0.206 F 
ATOM     93  C   UNL A   1      39.449  36.268  38.952  1.00  0.00     0.060 A 
BRANCH  93  94
ATOM     94  S   UNL A   1      39.272  37.560  40.200  1.00  0.00     0.124 S 
ATOM     95  O   UNL A   1      38.256  38.415  39.595  1.00  0.00    -0.237 OA
ATOM     96  O   UNL A   1      38.847  36.804  41.374  1.00  0.00    -0.237 OA
ATOM     97  O   UNL A   1      40.610  38.138  40.284  1.00  0.00    -0.744 OA
ENDBRANCH  93  94
ENDBRANCH  61  86
ENDBRANCH  35  36
ENDBRANCH  27  30
ENDBRANCH  25  26
ENDBRANCH  24  25
ENDBRANCH   1  24
TORSDOF 17
ENDMDL
MODEL 2
REMARK VINA RESULT:     -11.7      6.689     12.293
REMARK SMILES Cc1cc(Cl)ccc1-c1ccc(C(=O)NCCCCCCNC(=O)c2ccc(-c3c4nc(c(-c5c(F)cc(S(=O)(=O)[O-])cc5F)c5ccc([nH]5)c(-c5c(F)cc(S(=O)(=O)[O-])cc5F)c5nc(c(-c6c(F)cc(S(=O)(=O)[O-])cc6F)c6ccc3[nH]6)C=C5)C=C4)cc2)c(Cl)c1
REMARK SMILES IDX 19 1 18 2 17 3 16 4 15 5 13 6 14 7 12 9 9 10 10 11 93 12
REMARK SMILES IDX 11 13 91 14 92 15 8 16 1 17 2 18 3 19 4 20 7 21 5 22 6 23
REMARK SMILES IDX 20 24 21 25 22 26 23 27 24 29 25 30 26 31 90 32 27 33 89 34
REMARK SMILES IDX 28 35 29 36 30 37 83 38 31 39 88 40 82 41 84 42 32 43 87 44
REMARK SMILES IDX 81 45 80 46 33 48 67 49 46 50 66 51 47 52 50 53 65 54 85 55
REMARK SMILES IDX 48 56 49 57 64 59 86 60 51 61 34 62 35 63 44 64 36 65 37 66
REMARK SMILES IDX 43 67 45 68 38 69 39 70 40 71 41 72 42 73 68 74 69 75 78 76
REMARK SMILES IDX 70 77 71 78 77 79 79 80 72 81 73 82 74 83 75 84 76 85 52 86
REMARK SMILES IDX 53 87 62 88 54 89 55 90 61 91 63 92 56 93 57 94 58 95 59 96
REMARK SMILES IDX 60 97
REMARK H PARENT 15 8 22 28 84 47 50 58
REMARK Flexibility Score: inf
ROOT
ATOM      1  C   UNL A   1      34.361  32.632  28.250  1.00  0.00     0.002 C 
ENDROOT
BRANCH   1   2
ATOM      2  C   UNL A   1      33.860  31.325  27.632  1.00  0.00     0.002 C 
BRANCH   2   3
ATOM      3  C   UNL A   1      34.964  30.306  27.336  1.00  0.00     0.021 C 
BRANCH   3   4
ATOM      4  C   UNL A   1      34.456  28.876  27.102  1.00  0.00     0.116 C 
BRANCH   4   5
ATOM      5  N   UNL A   1      33.307  28.916  26.222  1.00  0.00    -0.352 N 
ATOM      6  C   UNL A   1      32.814  28.077  25.262  1.00  0.00     0.252 C 
ATOM      7  O   UNL A   1      31.847  28.506  24.621  1.00  0.00    -0.269 OA
ATOM      8  H   UNL A   1      32.761  29.727  26.340  1.00  0.00     0.163 HD
BRANCH   6   9
ATOM      9  C   UNL A   1      33.253  26.674  24.999  1.00  0.00     0.058 A 
ATOM     10  C   UNL A   1      33.830  23.883  24.860  1.00  0.00    -0.017 A 
ATOM     11  C   UNL A   1      33.328  24.436  26.036  1.00  0.00     0.009 A 
ATOM     12  C   UNL A   1      34.045  24.732  23.770  1.00  0.00     0.030 A 
ATOM     13  C   UNL A   1      33.066  25.811  26.105  1.00  0.00     0.016 A 
ATOM     14  C   UNL A   1      33.701  26.094  23.809  1.00  0.00     0.054 A 
ATOM     15  Cl  UNL A   1      33.677  26.828  22.253  1.00  0.00    -0.083 Cl
BRANCH  10  16
ATOM     16  C   UNL A   1      34.035  22.441  24.687  1.00  0.00    -0.015 A 
ATOM     17  C   UNL A   1      36.485  22.569  25.457  1.00  0.00     0.045 C 
ATOM     18  C   UNL A   1      35.257  21.811  25.018  1.00  0.00    -0.042 A 
ATOM     19  C   UNL A   1      35.353  20.410  24.945  1.00  0.00     0.024 A 
ATOM     20  C   UNL A   1      34.252  19.641  24.572  1.00  0.00     0.041 A 
ATOM     21  C   UNL A   1      32.944  21.643  24.293  1.00  0.00     0.010 A 
ATOM     22  Cl  UNL A   1      34.381  17.926  24.537  1.00  0.00    -0.084 Cl
ATOM     23  C   UNL A   1      33.049  20.252  24.241  1.00  0.00     0.021 A 
ENDBRANCH  10  16
ENDBRANCH   6   9
ENDBRANCH   4   5
ENDBRANCH   3   4
ENDBRANCH   2   3
ENDBRANCH   1   2
BRANCH   1  24
ATOM     24  C   UNL A   1      35.864  32.888  28.090  1.00  0.00     0.021 C 
BRANCH  24  25
ATOM     25  C   UNL A   1      36.629  32.976  29.408  1.00  0.00     0.116 C 
BRANCH  25  26
ATOM     26  N   UNL A   1      36.140  31.999  30.370  1.00  0.00    -0.352 N 
ATOM     27  C   UNL A   1      36.625  30.751  30.654  1.00  0.00     0.251 C 
ATOM     28  H   UNL A   1      35.349  32.274  30.888  1.00  0.00     0.163 HD
ATOM     29  O   UNL A   1      35.927  29.947  31.277  1.00  0.00    -0.269 OA
BRANCH  27  30
ATOM     30  C   UNL A   1      37.983  30.373  30.216  1.00  0.00     0.039 A 
ATOM     31  C   UNL A   1      39.003  30.265  31.164  1.00  0.00     0.014 A 
ATOM     32  C   UNL A   1      38.251  30.147  28.862  1.00  0.00     0.014 A 
ATOM     33  C   UNL A   1      40.284  29.887  30.758  1.00  0.00     0.010 A 
ATOM     34  C   UNL A   1      39.506  29.696  28.470  1.00  0.00     0.010 A 
ATOM     35  C   UNL A   1      40.538  29.575  29.411  1.00  0.00    -0.014 A 
BRANCH  35  36
ATOM     36  C   UNL A   1      41.882  29.130  28.966  1.00  0.00     0.031 A 
ATOM     37  C   UNL A   1      43.030  30.100  28.949  1.00  0.00     0.074 A 
ATOM     38  C   UNL A   1      42.050  27.870  28.524  1.00  0.00     0.049 A 
ATOM     39  N   UNL A   1      44.266  29.913  28.563  1.00  0.00    -0.248 NA
ATOM     40  C   UNL A   1      42.745  31.471  29.402  1.00  0.00     0.031 C 
ATOM     41  C   UNL A   1      41.000  26.851  28.455  1.00  0.00     0.029 A 
ATOM     42  N   UNL A   1      43.165  27.229  28.048  1.00  0.00    -0.354 N 
ATOM     43  C   UNL A   1      44.901  31.139  28.716  1.00  0.00     0.074 A 
ATOM     44  C   UNL A   1      43.897  32.079  29.166  1.00  0.00     0.031 C 
ATOM     45  C   UNL A   1      41.531  25.704  28.006  1.00  0.00     0.029 A 
ATOM     46  C   UNL A   1      42.946  25.914  27.717  1.00  0.00     0.049 A 
ATOM     47  H   UNL A   1      44.040  27.671  27.952  1.00  0.00     0.167 HD
ATOM     48  C   UNL A   1      46.207  31.450  28.524  1.00  0.00     0.037 A 
ATOM     49  C   UNL A   1      43.793  24.982  27.238  1.00  0.00     0.037 A 
ATOM     50  C   UNL A   1      47.198  30.504  28.080  1.00  0.00     0.049 A 
ATOM     51  C   UNL A   1      45.230  25.354  27.004  1.00  0.00     0.074 A 
ATOM     52  C   UNL A   1      48.555  30.698  27.898  1.00  0.00     0.029 A 
ATOM     53  N   UNL A   1      46.935  29.183  27.740  1.00  0.00    -0.354 N 
ATOM     54  N   UNL A   1      45.831  26.502  27.211  1.00  0.00    -0.248 NA
ATOM     55  C   UNL A   1      46.107  24.301  26.473  1.00  0.00     0.031 C 
ATOM     56  C   UNL A   1      49.103  29.511  27.399  1.00  0.00     0.029 A 
ATOM     57  C   UNL A   1      48.098  28.558  27.322  1.00  0.00     0.049 A 
ATOM     58  H   UNL A   1      46.049  28.754  27.788  1.00  0.00     0.167 HD
ATOM     59  C   UNL A   1      47.162  26.302  26.864  1.00  0.00     0.074 A 
ATOM     60  C   UNL A   1      47.279  24.921  26.442  1.00  0.00     0.031 C 
ATOM     61  C   UNL A   1      48.196  27.182  26.900  1.00  0.00     0.037 A 
BRANCH  48  62
ATOM     62  C   UNL A   1      46.618  32.875  28.782  1.00  0.00     0.058 A 
ATOM     63  C   UNL A   1      46.577  33.852  27.773  1.00  0.00     0.135 A 
ATOM     64  C   UNL A   1      47.086  33.267  30.048  1.00  0.00     0.135 A 
ATOM     65  F   UNL A   1      46.149  33.534  26.541  1.00  0.00    -0.206 F 
ATOM     66  C   UNL A   1      47.042  35.146  27.990  1.00  0.00     0.059 A 
ATOM     67  C   UNL A   1      47.524  34.564  30.296  1.00  0.00     0.059 A 
ATOM     68  F   UNL A   1      47.142  32.380  31.054  1.00  0.00    -0.206 F 
ATOM     69  C   UNL A   1      47.525  35.488  29.253  1.00  0.00     0.060 A 
BRANCH  69  70
ATOM     70  S   UNL A   1      48.176  37.154  29.505  1.00  0.00     0.124 S 
ATOM     71  O   UNL A   1      49.413  36.875  30.228  1.00  0.00    -0.237 OA
ATOM     72  O   UNL A   1      48.338  37.638  28.138  1.00  0.00    -0.237 OA
ATOM     73  O   UNL A   1      47.130  37.813  30.281  1.00  0.00    -0.744 OA
ENDBRANCH  69  70
ENDBRANCH  48  62
BRANCH  49  74
ATOM     74  C   UNL A   1      43.307  23.597  27.009  1.00  0.00     0.058 A 
ATOM     75  C   UNL A   1      43.031  23.145  25.710  1.00  0.00     0.135 A 
ATOM     76  C   UNL A   1      43.155  22.684  28.065  1.00  0.00     0.135 A 
ATOM     77  F   UNL A   1      43.155  23.982  24.669  1.00  0.00    -0.206 F 
ATOM     78  C   UNL A   1      42.622  21.839  25.463  1.00  0.00     0.059 A 
ATOM     79  C   UNL A   1      42.770  21.366  27.841  1.00  0.00     0.059 A 
ATOM     80  F   UNL A   1      43.422  23.063  29.324  1.00  0.00    -0.206 F 
ATOM     81  C   UNL A   1      42.503  20.954  26.536  1.00  0.00     0.060 A 
BRANCH  81  82
ATOM     82  S   UNL A   1      42.047  19.240  26.192  1.00  0.00     0.124 S 
ATOM     83  O   UNL A   1      40.625  19.367  25.896  1.00  0.00    -0.237 OA
ATOM     84  O   UNL A   1      42.910  18.917  25.061  1.00  0.00    -0.237 OA
ATOM     85  O   UNL A   1      42.375  18.550  27.437  1.00  0.00    -0.744 OA
ENDBRANCH  81  82
ENDBRANCH  49  74
BRANCH  61  86
ATOM     86  C   UNL A   1      49.551  26.667  26.497  1.00  0.00     0.058 A 
ATOM     87  C   UNL A   1      50.433  26.093  27.425  1.00  0.00     0.135 A 
ATOM     88  C   UNL A   1      49.954  26.711  25.151  1.00  0.00     0.135 A 
ATOM     89  F   UNL A   1      50.101  26.032  28.725  1.00  0.00    -0.206 F 
ATOM     90  C   UNL A   1      51.676  25.604  27.040  1.00  0.00     0.059 A 
ATOM     91  C   UNL A   1      51.181  26.202  24.739  1.00  0.00     0.059 A 
ATOM     92  F   UNL A   1      49.145  27.240  24.219  1.00  0.00    -0.206 F 
ATOM     93  C   UNL A   1      52.042  25.662  25.694  1.00  0.00     0.060 A 
BRANCH  93  94
ATOM     94  S   UNL A   1      53.646  24.997  25.202  1.00  0.00     0.124 S 
ATOM     95  O   UNL A   1      53.342  23.579  25.048  1.00  0.00    -0.237 OA
ATOM     96  O   UNL A   1      53.920  25.724  23.965  1.00  0.00    -0.237 OA
ATOM     97  O   UNL A   1      54.514  25.335  26.325  1.00  0.00    -0.744 OA
ENDBRANCH  93  94
ENDBRANCH  61  86
ENDBRANCH  35  36
ENDBRANCH  27  30
ENDBRANCH  25  26
ENDBRANCH  24  25
ENDBRANCH   1  24
TORSDOF 17
ENDMDL
MODEL 3
REMARK VINA RESULT:     -11.7      3.529      9.377
REMARK SMILES Cc1cc(Cl)ccc1-c1ccc(C(=O)NCCCCCCNC(=O)c2ccc(-c3c4nc(c(-c5c(F)cc(S(=O)(=O)[O-])cc5F)c5ccc([nH]5)c(-c5c(F)cc(S(=O)(=O)[O-])cc5F)c5nc(c(-c6c(F)cc(S(=O)(=O)[O-])cc6F)c6ccc3[nH]6)C=C5)C=C4)cc2)c(Cl)c1
REMARK SMILES IDX 19 1 18 2 17 3 16 4 15 5 13 6 14 7 12 9 9 10 10 11 93 12
REMARK SMILES IDX 11 13 91 14 92 15 8 16 1 17 2 18 3 19 4 20 7 21 5 22 6 23
REMARK SMILES IDX 20 24 21 25 22 26 23 27 24 29 25 30 26 31 90 32 27 33 89 34
REMARK SMILES IDX 28 35 29 36 30 37 83 38 31 39 88 40 82 41 84 42 32 43 87 44
REMARK SMILES IDX 81 45 80 46 33 48 67 49 46 50 66 51 47 52 50 53 65 54 85 55
REMARK SMILES IDX 48 56 49 57 64 59 86 60 51 61 34 62 35 63 44 64 36 65 37 66
REMARK SMILES IDX 43 67 45 68 38 69 39 70 40 71 41 72 42 73 68 74 69 75 78 76
REMARK SMILES IDX 70 77 71 78 77 79 79 80 72 81 73 82 74 83 75 84 76 85 52 86
REMARK SMILES IDX 53 87 62 88 54 89 55 90 61 91 63 92 56 93 57 94 58 95 59 96
REMARK SMILES IDX 60 97
REMARK H PARENT 15 8 22 28 84 47 50 58
REMARK Flexibility Score: inf
ROOT
ATOM      1  C   UNL A   1      33.897  26.398  24.574  1.00  0.00     0.002 C 
ENDROOT
BRANCH   1   2
ATOM      2  C   UNL A   1      34.389  25.563  25.759  1.00  0.00     0.002 C 
BRANCH   2   3
ATOM      3  C   UNL A   1      34.482  24.062  25.475  1.00  0.00     0.021 C 
BRANCH   3   4
ATOM      4  C   UNL A   1      34.127  23.170  26.673  1.00  0.00     0.116 C 
BRANCH   4   5
ATOM      5  N   UNL A   1      33.171  22.166  26.253  1.00  0.00    -0.352 N 
ATOM      6  C   UNL A   1      31.985  22.207  25.574  1.00  0.00     0.252 C 
ATOM      7  O   UNL A   1      31.376  21.134  25.495  1.00  0.00    -0.269 OA
ATOM      8  H   UNL A   1      33.432  21.253  26.514  1.00  0.00     0.163 HD
BRANCH   6   9
ATOM      9  C   UNL A   1      31.425  23.379  24.837  1.00  0.00     0.058 A 
ATOM     10  C   UNL A   1      30.362  25.832  23.838  1.00  0.00    -0.017 A 
ATOM     11  C   UNL A   1      30.311  25.551  25.201  1.00  0.00     0.009 A 
ATOM     12  C   UNL A   1      30.937  24.881  22.989  1.00  0.00     0.030 A 
ATOM     13  C   UNL A   1      30.815  24.335  25.684  1.00  0.00     0.016 A 
ATOM     14  C   UNL A   1      31.522  23.702  23.480  1.00  0.00     0.054 A 
ATOM     15  Cl  UNL A   1      32.505  22.902  22.317  1.00  0.00    -0.083 Cl
BRANCH  10  16
ATOM     16  C   UNL A   1      29.941  27.121  23.278  1.00  0.00    -0.015 A 
ATOM     17  C   UNL A   1      27.483  26.746  23.932  1.00  0.00     0.045 C 
ATOM     18  C   UNL A   1      28.607  27.579  23.369  1.00  0.00    -0.042 A 
ATOM     19  C   UNL A   1      28.291  28.875  22.922  1.00  0.00     0.024 A 
ATOM     20  C   UNL A   1      29.281  29.712  22.413  1.00  0.00     0.041 A 
ATOM     21  C   UNL A   1      30.920  27.979  22.741  1.00  0.00     0.010 A 
ATOM     22  Cl  UNL A   1      28.877  31.310  21.917  1.00  0.00    -0.084 Cl
ATOM     23  C   UNL A   1      30.594  29.268  22.315  1.00  0.00     0.021 A 
ENDBRANCH  10  16
ENDBRANCH   6   9
ENDBRANCH   4   5
ENDBRANCH   3   4
ENDBRANCH   2   3
ENDBRANCH   1   2
BRANCH   1  24
ATOM     24  C   UNL A   1      33.741  27.895  24.860  1.00  0.00     0.021 C 
BRANCH  24  25
ATOM     25  C   UNL A   1      34.022  28.291  26.307  1.00  0.00     0.116 C 
BRANCH  25  26
ATOM     26  N   UNL A   1      33.822  29.718  26.512  1.00  0.00    -0.352 N 
ATOM     27  C   UNL A   1      34.474  30.566  27.366  1.00  0.00     0.251 C 
ATOM     28  H   UNL A   1      33.120  30.131  25.960  1.00  0.00     0.163 HD
ATOM     29  O   UNL A   1      33.988  31.671  27.626  1.00  0.00    -0.269 OA
BRANCH  27  30
ATOM     30  C   UNL A   1      35.756  30.157  27.972  1.00  0.00     0.039 A 
ATOM     31  C   UNL A   1      36.933  30.276  27.230  1.00  0.00     0.014 A 
ATOM     32  C   UNL A   1      35.789  29.635  29.269  1.00  0.00     0.014 A 
ATOM     33  C   UNL A   1      38.151  29.911  27.806  1.00  0.00     0.010 A 
ATOM     34  C   UNL A   1      37.009  29.345  29.868  1.00  0.00     0.010 A 
ATOM     35  C   UNL A   1      38.201  29.467  29.139  1.00  0.00    -0.014 A 
BRANCH  35  36
ATOM     36  C   UNL A   1      39.489  29.114  29.783  1.00  0.00     0.031 A 
ATOM     37  C   UNL A   1      39.974  29.891  30.976  1.00  0.00     0.074 A 
ATOM     38  C   UNL A   1      40.246  28.132  29.258  1.00  0.00     0.049 A 
ATOM     39  N   UNL A   1      41.084  29.759  31.654  1.00  0.00    -0.248 NA
ATOM     40  C   UNL A   1      39.106  30.980  31.452  1.00  0.00     0.031 C 
ATOM     41  C   UNL A   1      39.899  27.337  28.079  1.00  0.00     0.029 A 
ATOM     42  N   UNL A   1      41.464  27.637  29.647  1.00  0.00    -0.354 N 
ATOM     43  C   UNL A   1      41.055  30.750  32.628  1.00  0.00     0.074 A 
ATOM     44  C   UNL A   1      39.848  31.518  32.409  1.00  0.00     0.031 C 
ATOM     45  C   UNL A   1      40.860  26.425  27.867  1.00  0.00     0.029 A 
ATOM     46  C   UNL A   1      41.910  26.597  28.866  1.00  0.00     0.049 A 
ATOM     47  H   UNL A   1      41.971  27.992  30.412  1.00  0.00     0.167 HD
ATOM     48  C   UNL A   1      41.938  30.984  33.629  1.00  0.00     0.037 A 
ATOM     49  C   UNL A   1      43.036  25.863  28.951  1.00  0.00     0.037 A 
ATOM     50  C   UNL A   1      43.134  30.209  33.840  1.00  0.00     0.049 A 
ATOM     51  C   UNL A   1      44.018  26.158  30.050  1.00  0.00     0.074 A 
ATOM     52  C   UNL A   1      44.073  30.329  34.848  1.00  0.00     0.029 A 
ATOM     53  N   UNL A   1      43.560  29.173  33.019  1.00  0.00    -0.354 N 
ATOM     54  N   UNL A   1      43.948  27.058  31.002  1.00  0.00    -0.248 NA
ATOM     55  C   UNL A   1      45.233  25.332  30.090  1.00  0.00     0.031 C 
ATOM     56  C   UNL A   1      45.092  29.400  34.608  1.00  0.00     0.029 A 
ATOM     57  C   UNL A   1      44.762  28.663  33.481  1.00  0.00     0.049 A 
ATOM     58  H   UNL A   1      43.078  28.849  32.223  1.00  0.00     0.167 HD
ATOM     59  C   UNL A   1      45.093  26.889  31.772  1.00  0.00     0.074 A 
ATOM     60  C   UNL A   1      45.834  25.795  31.178  1.00  0.00     0.031 C 
ATOM     61  C   UNL A   1      45.490  27.574  32.875  1.00  0.00     0.037 A 
BRANCH  48  62
ATOM     62  C   UNL A   1      41.638  32.134  34.554  1.00  0.00     0.058 A 
ATOM     63  C   UNL A   1      40.750  32.001  35.635  1.00  0.00     0.135 A 
ATOM     64  C   UNL A   1      42.223  33.393  34.345  1.00  0.00     0.135 A 
ATOM     65  F   UNL A   1      40.152  30.824  35.879  1.00  0.00    -0.206 F 
ATOM     66  C   UNL A   1      40.405  33.087  36.435  1.00  0.00     0.059 A 
ATOM     67  C   UNL A   1      41.919  34.485  35.152  1.00  0.00     0.059 A 
ATOM     68  F   UNL A   1      43.085  33.580  33.332  1.00  0.00    -0.206 F 
ATOM     69  C   UNL A   1      40.987  34.329  36.177  1.00  0.00     0.060 A 
BRANCH  69  70
ATOM     70  S   UNL A   1      40.490  35.740  37.187  1.00  0.00     0.124 S 
ATOM     71  O   UNL A   1      41.785  36.322  37.528  1.00  0.00    -0.237 OA
ATOM     72  O   UNL A   1      39.672  36.517  36.261  1.00  0.00    -0.237 OA
ATOM     73  O   UNL A   1      39.766  35.126  38.295  1.00  0.00    -0.744 OA
ENDBRANCH  69  70
ENDBRANCH  48  62
BRANCH  49  74
ATOM     74  C   UNL A   1      43.258  24.745  27.998  1.00  0.00     0.058 A 
ATOM     75  C   UNL A   1      43.882  24.975  26.763  1.00  0.00     0.135 A 
ATOM     76  C   UNL A   1      42.900  23.425  28.315  1.00  0.00     0.135 A 
ATOM     77  F   UNL A   1      44.238  26.221  26.414  1.00  0.00    -0.206 F 
ATOM     78  C   UNL A   1      44.146  23.938  25.875  1.00  0.00     0.059 A 
ATOM     79  C   UNL A   1      43.173  22.368  27.452  1.00  0.00     0.059 A 
ATOM     80  F   UNL A   1      42.314  23.151  29.490  1.00  0.00    -0.206 F 
ATOM     81  C   UNL A   1      43.794  22.635  26.233  1.00  0.00     0.060 A 
BRANCH  81  82
ATOM     82  S   UNL A   1      44.213  21.289  25.103  1.00  0.00     0.124 S 
ATOM     83  O   UNL A   1      44.173  21.965  23.812  1.00  0.00    -0.237 OA
ATOM     84  O   UNL A   1      45.534  20.893  25.578  1.00  0.00    -0.237 OA
ATOM     85  O   UNL A   1      43.153  20.312  25.339  1.00  0.00    -0.744 OA
ENDBRANCH  81  82
ENDBRANCH  49  74
BRANCH  61  86
ATOM     86  C   UNL A   1      46.773  27.140  33.528  1.00  0.00     0.058 A 
ATOM     87  C   UNL A   1      46.801  26.152  34.524  1.00  0.00     0.135 A 
ATOM     88  C   UNL A   1      48.000  27.692  33.119  1.00  0.00     0.135 A 
ATOM     89  F   UNL A   1      45.658  25.597  34.958  1.00  0.00    -0.206 F 
ATOM     90  C   UNL A   1      47.995  25.744  35.111  1.00  0.00     0.059 A 
ATOM     91  C   UNL A   1      49.207  27.279  33.671  1.00  0.00     0.059 A 
ATOM     92  F   UNL A   1      48.032  28.633  32.163  1.00  0.00    -0.206 F 
ATOM     93  C   UNL A   1      49.193  26.313  34.677  1.00  0.00     0.060 A 
BRANCH  93  94
ATOM     94  S   UNL A   1      50.739  25.754  35.425  1.00  0.00     0.124 S 
ATOM     95  O   UNL A   1      50.252  24.864  36.473  1.00  0.00    -0.237 OA
ATOM     96  O   UNL A   1      51.411  25.105  34.303  1.00  0.00    -0.237 OA
ATOM     97  O   UNL A   1      51.359  26.991  35.889  1.00  0.00    -0.744 OA
ENDBRANCH  93  94
ENDBRANCH  61  86
ENDBRANCH  35  36
ENDBRANCH  27  30
ENDBRANCH  25  26
ENDBRANCH  24  25
ENDBRANCH   1  24
TORSDOF 17
ENDMDL
