MODEL 1
REMARK VINA RESULT:     -10.0      0.000      0.000
REMARK SMILES COCCCC(=O)Nc1nc2ccc(C(=O)NCCCCCCNC(=O)c3ccc(-c4c5nc(c(-c6c(F)cc(S(=O)(=O)[O-])cc6F)c6ccc([nH]6)c(-c6c(F)cc(S(=O)(=O)[O-])cc6F)c6nc(c(-c7c(F)cc(S(=O)(=O)[O-])cc7F)c7ccc4[nH]7)C=C6)C=C5)cc3)cc2s1
REMARK SMILES IDX 19 1 18 2 17 3 15 4 16 5 14 7 9 8 10 9 95 10 11 11 94 12
REMARK SMILES IDX 12 13 93 14 13 15 8 16 6 17 7 18 5 20 4 21 3 22 2 23 1 24
REMARK SMILES IDX 20 25 21 26 22 27 23 28 24 29 25 30 26 32 27 33 28 34 92 35
REMARK SMILES IDX 29 36 91 37 30 38 31 39 32 40 85 41 33 42 90 43 84 44 86 45
REMARK SMILES IDX 34 46 89 47 83 48 82 49 35 51 69 52 48 53 68 54 49 55 52 56
REMARK SMILES IDX 67 57 87 58 50 59 51 60 66 62 88 63 53 64 36 65 37 66 46 67
REMARK SMILES IDX 38 68 39 69 45 70 47 71 40 72 41 73 42 74 43 75 44 76 70 77
REMARK SMILES IDX 71 78 80 79 72 80 73 81 79 82 81 83 74 84 75 85 76 86 77 87
REMARK SMILES IDX 78 88 54 89 55 90 64 91 56 92 57 93 63 94 65 95 58 96 59 97
REMARK SMILES IDX 60 98 61 99 62 100
REMARK H PARENT 17 6 8 19 24 31 86 50 52 61
REMARK Flexibility Score: inf
ROOT
ATOM      1  C   UNL A   1      32.670  27.716  23.254  1.00  0.00     0.021 C 
ENDROOT
BRANCH   1   2
ATOM      2  C   UNL A   1      31.771  27.187  22.137  1.00  0.00     0.116 C 
BRANCH   2   3
ATOM      3  N   UNL A   1      30.373  27.355  22.478  1.00  0.00    -0.352 N 
ATOM      4  C   UNL A   1      29.607  26.757  23.441  1.00  0.00     0.251 C 
ATOM      5  O   UNL A   1      28.471  27.182  23.642  1.00  0.00    -0.269 OA
ATOM      6  H   UNL A   1      29.892  28.012  21.924  1.00  0.00     0.163 HD
BRANCH   4   7
ATOM      7  C   UNL A   1      30.092  25.612  24.256  1.00  0.00     0.041 A 
ATOM      8  C   UNL A   1      32.930  22.014  25.163  1.00  0.00     0.190 A 
ATOM      9  N   UNL A   1      32.512  22.785  26.131  1.00  0.00    -0.220 NA
ATOM     10  S   UNL A   1      32.055  22.073  23.702  1.00  0.00    -0.097 S 
ATOM     11  C   UNL A   1      31.531  23.635  25.635  1.00  0.00     0.084 A 
ATOM     12  C   UNL A   1      31.294  23.522  24.264  1.00  0.00     0.057 A 
ATOM     13  C   UNL A   1      30.893  24.669  26.350  1.00  0.00     0.031 A 
ATOM     14  C   UNL A   1      30.584  24.500  23.551  1.00  0.00     0.035 A 
ATOM     15  C   UNL A   1      30.215  25.675  25.646  1.00  0.00     0.016 A 
BRANCH   8  16
ATOM     16  N   UNL A   1      33.963  21.132  25.185  1.00  0.00    -0.302 N 
ATOM     17  C   UNL A   1      35.208  21.329  24.677  1.00  0.00     0.226 C 
ATOM     18  O   UNL A   1      36.039  20.427  24.835  1.00  0.00    -0.275 OA
ATOM     19  H   UNL A   1      33.792  20.261  25.612  1.00  0.00     0.172 HD
BRANCH  17  20
ATOM     20  C   UNL A   1      35.587  22.560  23.859  1.00  0.00     0.103 C 
BRANCH  20  21
ATOM     21  C   UNL A   1      36.052  23.773  24.682  1.00  0.00     0.038 C 
BRANCH  21  22
ATOM     22  C   UNL A   1      36.308  23.557  26.175  1.00  0.00     0.160 C 
BRANCH  22  23
ATOM     23  O   UNL A   1      37.685  23.653  26.523  1.00  0.00    -0.385 OA
ATOM     24  C   UNL A   1      38.521  22.677  25.922  1.00  0.00     0.194 C 
ENDBRANCH  22  23
ENDBRANCH  21  22
ENDBRANCH  20  21
ENDBRANCH  17  20
ENDBRANCH   8  16
ENDBRANCH   4   7
ENDBRANCH   2   3
ENDBRANCH   1   2
BRANCH   1  25
ATOM     25  C   UNL A   1      33.635  26.668  23.824  1.00  0.00     0.002 C 
BRANCH  25  26
ATOM     26  C   UNL A   1      33.785  26.684  25.351  1.00  0.00     0.002 C 
BRANCH  26  27
ATOM     27  C   UNL A   1      34.206  28.028  25.954  1.00  0.00     0.021 C 
BRANCH  27  28
ATOM     28  C   UNL A   1      33.598  28.330  27.321  1.00  0.00     0.116 C 
BRANCH  28  29
ATOM     29  N   UNL A   1      33.475  29.761  27.550  1.00  0.00    -0.352 N 
ATOM     30  C   UNL A   1      34.366  30.630  28.127  1.00  0.00     0.251 C 
ATOM     31  H   UNL A   1      32.631  30.165  27.246  1.00  0.00     0.163 HD
ATOM     32  O   UNL A   1      33.995  31.760  28.442  1.00  0.00    -0.269 OA
BRANCH  30  33
ATOM     33  C   UNL A   1      35.760  30.212  28.381  1.00  0.00     0.039 A 
ATOM     34  C   UNL A   1      36.692  30.296  27.342  1.00  0.00     0.014 A 
ATOM     35  C   UNL A   1      36.147  29.708  29.628  1.00  0.00     0.014 A 
ATOM     36  C   UNL A   1      38.018  29.923  27.568  1.00  0.00     0.010 A 
ATOM     37  C   UNL A   1      37.485  29.399  29.870  1.00  0.00     0.010 A 
ATOM     38  C   UNL A   1      38.433  29.497  28.840  1.00  0.00    -0.014 A 
BRANCH  38  39
ATOM     39  C   UNL A   1      39.854  29.161  29.106  1.00  0.00     0.031 A 
ATOM     40  C   UNL A   1      40.786  30.187  29.691  1.00  0.00     0.074 A 
ATOM     41  C   UNL A   1      40.318  27.940  28.772  1.00  0.00     0.049 A 
ATOM     42  N   UNL A   1      42.060  30.081  29.969  1.00  0.00    -0.248 NA
ATOM     43  C   UNL A   1      40.220  31.515  29.976  1.00  0.00     0.031 C 
ATOM     44  C   UNL A   1      39.526  26.879  28.146  1.00  0.00     0.029 A 
ATOM     45  N   UNL A   1      41.565  27.385  28.908  1.00  0.00    -0.354 N 
ATOM     46  C   UNL A   1      42.450  31.325  30.451  1.00  0.00     0.074 A 
ATOM     47  C   UNL A   1      41.289  32.186  30.377  1.00  0.00     0.031 C 
ATOM     48  C   UNL A   1      40.299  25.795  27.974  1.00  0.00     0.029 A 
ATOM     49  C   UNL A   1      41.647  26.092  28.448  1.00  0.00     0.049 A 
ATOM     50  H   UNL A   1      42.330  27.868  29.296  1.00  0.00     0.167 HD
ATOM     51  C   UNL A   1      43.658  31.709  30.931  1.00  0.00     0.037 A 
ATOM     52  C   UNL A   1      42.690  25.240  28.412  1.00  0.00     0.037 A 
ATOM     53  C   UNL A   1      44.803  30.839  31.022  1.00  0.00     0.049 A 
ATOM     54  C   UNL A   1      44.016  25.682  28.966  1.00  0.00     0.074 A 
ATOM     55  C   UNL A   1      46.051  31.112  31.555  1.00  0.00     0.029 A 
ATOM     56  N   UNL A   1      44.841  29.530  30.565  1.00  0.00    -0.354 N 
ATOM     57  N   UNL A   1      44.347  26.841  29.487  1.00  0.00    -0.248 NA
ATOM     58  C   UNL A   1      45.107  24.700  28.938  1.00  0.00     0.031 C 
ATOM     59  C   UNL A   1      46.857  29.981  31.382  1.00  0.00     0.029 A 
ATOM     60  C   UNL A   1      46.098  28.987  30.783  1.00  0.00     0.049 A 
ATOM     61  H   UNL A   1      44.087  29.055  30.148  1.00  0.00     0.167 HD
ATOM     62  C   UNL A   1      45.679  26.721  29.865  1.00  0.00     0.074 A 
ATOM     63  C   UNL A   1      46.086  25.371  29.530  1.00  0.00     0.031 C 
ATOM     64  C   UNL A   1      46.491  27.644  30.437  1.00  0.00     0.037 A 
BRANCH  51  65
ATOM     65  C   UNL A   1      43.800  33.132  31.399  1.00  0.00     0.058 A 
ATOM     66  C   UNL A   1      43.644  33.483  32.751  1.00  0.00     0.135 A 
ATOM     67  C   UNL A   1      44.119  34.155  30.492  1.00  0.00     0.135 A 
ATOM     68  F   UNL A   1      43.326  32.549  33.659  1.00  0.00    -0.206 F 
ATOM     69  C   UNL A   1      43.764  34.802  33.179  1.00  0.00     0.059 A 
ATOM     70  C   UNL A   1      44.272  35.477  30.902  1.00  0.00     0.059 A 
ATOM     71  F   UNL A   1      44.281  33.877  29.188  1.00  0.00    -0.206 F 
ATOM     72  C   UNL A   1      44.075  35.792  32.247  1.00  0.00     0.060 A 
BRANCH  72  73
ATOM     73  S   UNL A   1      44.222  37.500  32.813  1.00  0.00     0.124 S 
ATOM     74  O   UNL A   1      45.488  37.454  33.543  1.00  0.00    -0.237 OA
ATOM     75  O   UNL A   1      44.247  38.245  31.555  1.00  0.00    -0.237 OA
ATOM     76  O   UNL A   1      43.033  37.694  33.629  1.00  0.00    -0.744 OA
ENDBRANCH  72  73
ENDBRANCH  51  65
BRANCH  52  77
ATOM     77  C   UNL A   1      42.508  23.874  27.857  1.00  0.00     0.058 A 
ATOM     78  C   UNL A   1      42.386  22.762  28.702  1.00  0.00     0.135 A 
ATOM     79  C   UNL A   1      42.420  23.656  26.473  1.00  0.00     0.135 A 
ATOM     80  F   UNL A   1      42.470  22.919  30.032  1.00  0.00    -0.206 F 
ATOM     81  C   UNL A   1      42.194  21.479  28.197  1.00  0.00     0.059 A 
ATOM     82  C   UNL A   1      42.204  22.388  25.945  1.00  0.00     0.059 A 
ATOM     83  F   UNL A   1      42.511  24.691  25.622  1.00  0.00    -0.206 F 
ATOM     84  C   UNL A   1      42.099  21.304  26.815  1.00  0.00     0.060 A 
BRANCH  84  85
ATOM     85  S   UNL A   1      41.785  19.645  26.172  1.00  0.00     0.124 S 
ATOM     86  O   UNL A   1      40.347  19.690  25.933  1.00  0.00    -0.237 OA
ATOM     87  O   UNL A   1      42.630  19.615  24.980  1.00  0.00    -0.237 OA
ATOM     88  O   UNL A   1      42.220  18.776  27.260  1.00  0.00    -0.744 OA
ENDBRANCH  84  85
ENDBRANCH  52  77
BRANCH  64  89
ATOM     89  C   UNL A   1      47.898  27.218  30.752  1.00  0.00     0.058 A 
ATOM     90  C   UNL A   1      48.197  26.435  31.878  1.00  0.00     0.135 A 
ATOM     91  C   UNL A   1      48.958  27.573  29.900  1.00  0.00     0.135 A 
ATOM     92  F   UNL A   1      47.221  26.075  32.728  1.00  0.00    -0.206 F 
ATOM     93  C   UNL A   1      49.499  26.044  32.167  1.00  0.00     0.059 A 
ATOM     94  C   UNL A   1      50.265  27.169  30.155  1.00  0.00     0.059 A 
ATOM     95  F   UNL A   1      48.726  28.311  28.803  1.00  0.00    -0.206 F 
ATOM     96  C   UNL A   1      50.528  26.418  31.300  1.00  0.00     0.060 A 
BRANCH  96  97
ATOM     97  S   UNL A   1      52.214  25.892  31.677  1.00  0.00     0.124 S 
ATOM     98  O   UNL A   1      52.821  25.882  30.350  1.00  0.00    -0.237 OA
ATOM     99  O   UNL A   1      52.676  26.944  32.579  1.00  0.00    -0.237 OA
ATOM    100  O   UNL A   1      52.029  24.582  32.294  1.00  0.00    -0.744 OA
ENDBRANCH  96  97
ENDBRANCH  64  89
ENDBRANCH  38  39
ENDBRANCH  30  33
ENDBRANCH  28  29
ENDBRANCH  27  28
ENDBRANCH  26  27
ENDBRANCH  25  26
ENDBRANCH   1  25
TORSDOF 21
ENDMDL
MODEL 2
REMARK VINA RESULT:      -9.8      3.061      4.095
REMARK SMILES COCCCC(=O)Nc1nc2ccc(C(=O)NCCCCCCNC(=O)c3ccc(-c4c5nc(c(-c6c(F)cc(S(=O)(=O)[O-])cc6F)c6ccc([nH]6)c(-c6c(F)cc(S(=O)(=O)[O-])cc6F)c6nc(c(-c7c(F)cc(S(=O)(=O)[O-])cc7F)c7ccc4[nH]7)C=C6)C=C5)cc3)cc2s1
REMARK SMILES IDX 19 1 18 2 17 3 15 4 16 5 14 7 9 8 10 9 95 10 11 11 94 12
REMARK SMILES IDX 12 13 93 14 13 15 8 16 6 17 7 18 5 20 4 21 3 22 2 23 1 24
REMARK SMILES IDX 20 25 21 26 22 27 23 28 24 29 25 30 26 32 27 33 28 34 92 35
REMARK SMILES IDX 29 36 91 37 30 38 31 39 32 40 85 41 33 42 90 43 84 44 86 45
REMARK SMILES IDX 34 46 89 47 83 48 82 49 35 51 69 52 48 53 68 54 49 55 52 56
REMARK SMILES IDX 67 57 87 58 50 59 51 60 66 62 88 63 53 64 36 65 37 66 46 67
REMARK SMILES IDX 38 68 39 69 45 70 47 71 40 72 41 73 42 74 43 75 44 76 70 77
REMARK SMILES IDX 71 78 80 79 72 80 73 81 79 82 81 83 74 84 75 85 76 86 77 87
REMARK SMILES IDX 78 88 54 89 55 90 64 91 56 92 57 93 63 94 65 95 58 96 59 97
REMARK SMILES IDX 60 98 61 99 62 100
REMARK H PARENT 17 6 8 19 24 31 86 50 52 61
REMARK Flexibility Score: inf
ROOT
ATOM      1  C   UNL A   1      32.722  30.542  26.727  1.00  0.00     0.021 C 
ENDROOT
BRANCH   1   2
ATOM      2  C   UNL A   1      32.814  29.604  25.523  1.00  0.00     0.116 C 
BRANCH   2   3
ATOM      3  N   UNL A   1      31.686  29.795  24.635  1.00  0.00    -0.352 N 
ATOM      4  C   UNL A   1      30.808  28.895  24.096  1.00  0.00     0.251 C 
ATOM      5  O   UNL A   1      29.827  29.319  23.487  1.00  0.00    -0.269 OA
ATOM      6  H   UNL A   1      31.524  30.730  24.373  1.00  0.00     0.163 HD
BRANCH   4   7
ATOM      7  C   UNL A   1      30.989  27.425  24.216  1.00  0.00     0.041 A 
ATOM      8  C   UNL A   1      33.537  23.512  24.359  1.00  0.00     0.190 A 
ATOM      9  N   UNL A   1      32.492  23.647  25.131  1.00  0.00    -0.220 NA
ATOM     10  S   UNL A   1      33.644  24.560  23.020  1.00  0.00    -0.097 S 
ATOM     11  C   UNL A   1      31.800  24.791  24.752  1.00  0.00     0.084 A 
ATOM     12  C   UNL A   1      32.404  25.532  23.734  1.00  0.00     0.057 A 
ATOM     13  C   UNL A   1      30.662  25.322  25.394  1.00  0.00     0.031 A 
ATOM     14  C   UNL A   1      32.021  26.853  23.452  1.00  0.00     0.035 A 
ATOM     15  C   UNL A   1      30.295  26.653  25.151  1.00  0.00     0.016 A 
BRANCH   8  16
ATOM     16  N   UNL A   1      34.543  22.606  24.468  1.00  0.00    -0.302 N 
ATOM     17  C   UNL A   1      34.418  21.288  24.780  1.00  0.00     0.226 C 
ATOM     18  O   UNL A   1      35.446  20.601  24.783  1.00  0.00    -0.275 OA
ATOM     19  H   UNL A   1      35.457  22.937  24.305  1.00  0.00     0.172 HD
BRANCH  17  20
ATOM     20  C   UNL A   1      33.095  20.656  25.202  1.00  0.00     0.103 C 
BRANCH  20  21
ATOM     21  C   UNL A   1      32.393  19.824  24.117  1.00  0.00     0.038 C 
BRANCH  21  22
ATOM     22  C   UNL A   1      32.423  18.301  24.266  1.00  0.00     0.160 C 
BRANCH  22  23
ATOM     23  O   UNL A   1      33.355  17.675  23.389  1.00  0.00    -0.385 OA
ATOM     24  C   UNL A   1      34.549  17.226  24.011  1.00  0.00     0.194 C 
ENDBRANCH  22  23
ENDBRANCH  21  22
ENDBRANCH  20  21
ENDBRANCH  17  20
ENDBRANCH   8  16
ENDBRANCH   4   7
ENDBRANCH   2   3
ENDBRANCH   1   2
BRANCH   1  25
ATOM     25  C   UNL A   1      34.025  30.655  27.529  1.00  0.00     0.002 C 
BRANCH  25  26
ATOM     26  C   UNL A   1      34.324  32.050  28.093  1.00  0.00     0.002 C 
BRANCH  26  27
ATOM     27  C   UNL A   1      35.771  32.525  27.934  1.00  0.00     0.021 C 
BRANCH  27  28
ATOM     28  C   UNL A   1      36.498  32.802  29.247  1.00  0.00     0.116 C 
BRANCH  28  29
ATOM     29  N   UNL A   1      36.118  31.854  30.282  1.00  0.00    -0.352 N 
ATOM     30  C   UNL A   1      36.720  30.679  30.651  1.00  0.00     0.251 C 
ATOM     31  H   UNL A   1      35.311  32.091  30.793  1.00  0.00     0.163 HD
ATOM     32  O   UNL A   1      36.126  29.898  31.393  1.00  0.00    -0.269 OA
BRANCH  30  33
ATOM     33  C   UNL A   1      38.071  30.343  30.153  1.00  0.00     0.039 A 
ATOM     34  C   UNL A   1      39.130  30.278  31.063  1.00  0.00     0.014 A 
ATOM     35  C   UNL A   1      38.304  30.121  28.792  1.00  0.00     0.014 A 
ATOM     36  C   UNL A   1      40.410  29.944  30.616  1.00  0.00     0.010 A 
ATOM     37  C   UNL A   1      39.567  29.723  28.357  1.00  0.00     0.010 A 
ATOM     38  C   UNL A   1      40.635  29.637  29.263  1.00  0.00    -0.014 A 
BRANCH  38  39
ATOM     39  C   UNL A   1      41.978  29.218  28.790  1.00  0.00     0.031 A 
ATOM     40  C   UNL A   1      43.099  30.216  28.689  1.00  0.00     0.074 A 
ATOM     41  C   UNL A   1      42.173  27.942  28.402  1.00  0.00     0.049 A 
ATOM     42  N   UNL A   1      44.328  30.037  28.278  1.00  0.00    -0.248 NA
ATOM     43  C   UNL A   1      42.794  31.602  29.077  1.00  0.00     0.031 C 
ATOM     44  C   UNL A   1      41.148  26.895  28.398  1.00  0.00     0.029 A 
ATOM     45  N   UNL A   1      43.294  27.307  27.933  1.00  0.00    -0.354 N 
ATOM     46  C   UNL A   1      44.939  31.284  28.346  1.00  0.00     0.074 A 
ATOM     47  C   UNL A   1      43.929  32.221  28.789  1.00  0.00     0.031 C 
ATOM     48  C   UNL A   1      41.694  25.746  27.972  1.00  0.00     0.029 A 
ATOM     49  C   UNL A   1      43.097  25.978  27.644  1.00  0.00     0.049 A 
ATOM     50  H   UNL A   1      44.160  27.762  27.813  1.00  0.00     0.167 HD
ATOM     51  C   UNL A   1      46.227  31.614  28.086  1.00  0.00     0.037 A 
ATOM     52  C   UNL A   1      43.949  25.050  27.168  1.00  0.00     0.037 A 
ATOM     53  C   UNL A   1      47.232  30.671  27.667  1.00  0.00     0.049 A 
ATOM     54  C   UNL A   1      45.378  25.434  26.902  1.00  0.00     0.074 A 
ATOM     55  C   UNL A   1      48.580  30.891  27.443  1.00  0.00     0.029 A 
ATOM     56  N   UNL A   1      46.998  29.329  27.404  1.00  0.00    -0.354 N 
ATOM     57  N   UNL A   1      45.956  26.604  27.044  1.00  0.00    -0.248 NA
ATOM     58  C   UNL A   1      46.273  24.373  26.422  1.00  0.00     0.031 C 
ATOM     59  C   UNL A   1      49.152  29.693  27.004  1.00  0.00     0.029 A 
ATOM     60  C   UNL A   1      48.172  28.713  26.999  1.00  0.00     0.049 A 
ATOM     61  H   UNL A   1      46.127  28.879  27.493  1.00  0.00     0.167 HD
ATOM     62  C   UNL A   1      47.287  26.416  26.688  1.00  0.00     0.074 A 
ATOM     63  C   UNL A   1      47.430  25.015  26.343  1.00  0.00     0.031 C 
ATOM     64  C   UNL A   1      48.297  27.319  26.651  1.00  0.00     0.037 A 
BRANCH  51  65
ATOM     65  C   UNL A   1      46.622  33.056  28.251  1.00  0.00     0.058 A 
ATOM     66  C   UNL A   1      46.544  33.970  27.187  1.00  0.00     0.135 A 
ATOM     67  C   UNL A   1      47.062  33.540  29.494  1.00  0.00     0.135 A 
ATOM     68  F   UNL A   1      46.143  33.560  25.973  1.00  0.00    -0.206 F 
ATOM     69  C   UNL A   1      46.922  35.300  27.338  1.00  0.00     0.059 A 
ATOM     70  C   UNL A   1      47.418  34.874  29.677  1.00  0.00     0.059 A 
ATOM     71  F   UNL A   1      47.154  32.712  30.547  1.00  0.00    -0.206 F 
ATOM     72  C   UNL A   1      47.361  35.743  28.587  1.00  0.00     0.060 A 
BRANCH  72  73
ATOM     73  S   UNL A   1      47.854  37.469  28.771  1.00  0.00     0.124 S 
ATOM     74  O   UNL A   1      47.881  37.911  27.377  1.00  0.00    -0.237 OA
ATOM     75  O   UNL A   1      46.770  38.018  29.584  1.00  0.00    -0.237 OA
ATOM     76  O   UNL A   1      49.148  37.387  29.429  1.00  0.00    -0.744 OA
ENDBRANCH  72  73
ENDBRANCH  51  65
BRANCH  52  77
ATOM     77  C   UNL A   1      43.475  23.660  26.942  1.00  0.00     0.058 A 
ATOM     78  C   UNL A   1      43.316  22.769  28.013  1.00  0.00     0.135 A 
ATOM     79  C   UNL A   1      43.140  23.203  25.658  1.00  0.00     0.135 A 
ATOM     80  F   UNL A   1      43.628  23.157  29.260  1.00  0.00    -0.206 F 
ATOM     81  C   UNL A   1      42.853  21.471  27.820  1.00  0.00     0.059 A 
ATOM     82  C   UNL A   1      42.652  21.919  25.442  1.00  0.00     0.059 A 
ATOM     83  F   UNL A   1      43.257  24.023  24.601  1.00  0.00    -0.206 F 
ATOM     84  C   UNL A   1      42.518  21.057  26.530  1.00  0.00     0.060 A 
BRANCH  84  85
ATOM     85  S   UNL A   1      41.857  19.392  26.297  1.00  0.00     0.124 S 
ATOM     86  O   UNL A   1      40.428  19.659  26.170  1.00  0.00    -0.237 OA
ATOM     87  O   UNL A   1      42.537  18.960  25.079  1.00  0.00    -0.237 OA
ATOM     88  O   UNL A   1      42.266  18.697  27.513  1.00  0.00    -0.744 OA
ENDBRANCH  84  85
ENDBRANCH  52  77
BRANCH  64  89
ATOM     89  C   UNL A   1      49.652  26.816  26.236  1.00  0.00     0.058 A 
ATOM     90  C   UNL A   1      50.503  26.159  27.140  1.00  0.00     0.135 A 
ATOM     91  C   UNL A   1      50.093  26.965  24.911  1.00  0.00     0.135 A 
ATOM     92  F   UNL A   1      50.131  25.997  28.421  1.00  0.00    -0.206 F 
ATOM     93  C   UNL A   1      51.755  25.696  26.754  1.00  0.00     0.059 A 
ATOM     94  C   UNL A   1      51.331  26.485  24.496  1.00  0.00     0.059 A 
ATOM     95  F   UNL A   1      49.315  27.575  24.003  1.00  0.00    -0.206 F 
ATOM     96  C   UNL A   1      52.162  25.866  25.429  1.00  0.00     0.060 A 
BRANCH  96  97
ATOM     97  S   UNL A   1      53.785  25.247  24.935  1.00  0.00     0.124 S 
ATOM     98  O   UNL A   1      53.967  25.900  23.643  1.00  0.00    -0.237 OA
ATOM     99  O   UNL A   1      54.645  25.724  26.015  1.00  0.00    -0.237 OA
ATOM    100  O   UNL A   1      53.595  23.800  24.887  1.00  0.00    -0.744 OA
ENDBRANCH  96  97
ENDBRANCH  64  89
ENDBRANCH  38  39
ENDBRANCH  30  33
ENDBRANCH  28  29
ENDBRANCH  27  28
ENDBRANCH  26  27
ENDBRANCH  25  26
ENDBRANCH   1  25
TORSDOF 21
ENDMDL
MODEL 3
REMARK VINA RESULT:      -9.5      4.777      9.720
REMARK SMILES COCCCC(=O)Nc1nc2ccc(C(=O)NCCCCCCNC(=O)c3ccc(-c4c5nc(c(-c6c(F)cc(S(=O)(=O)[O-])cc6F)c6ccc([nH]6)c(-c6c(F)cc(S(=O)(=O)[O-])cc6F)c6nc(c(-c7c(F)cc(S(=O)(=O)[O-])cc7F)c7ccc4[nH]7)C=C6)C=C5)cc3)cc2s1
REMARK SMILES IDX 19 1 18 2 17 3 15 4 16 5 14 7 9 8 10 9 95 10 11 11 94 12
REMARK SMILES IDX 12 13 93 14 13 15 8 16 6 17 7 18 5 20 4 21 3 22 2 23 1 24
REMARK SMILES IDX 20 25 21 26 22 27 23 28 24 29 25 30 26 32 27 33 28 34 92 35
REMARK SMILES IDX 29 36 91 37 30 38 31 39 32 40 85 41 33 42 90 43 84 44 86 45
REMARK SMILES IDX 34 46 89 47 83 48 82 49 35 51 69 52 48 53 68 54 49 55 52 56
REMARK SMILES IDX 67 57 87 58 50 59 51 60 66 62 88 63 53 64 36 65 37 66 46 67
REMARK SMILES IDX 38 68 39 69 45 70 47 71 40 72 41 73 42 74 43 75 44 76 70 77
REMARK SMILES IDX 71 78 80 79 72 80 73 81 79 82 81 83 74 84 75 85 76 86 77 87
REMARK SMILES IDX 78 88 54 89 55 90 64 91 56 92 57 93 63 94 65 95 58 96 59 97
REMARK SMILES IDX 60 98 61 99 62 100
REMARK H PARENT 17 6 8 19 24 31 86 50 52 61
REMARK Flexibility Score: inf
ROOT
ATOM      1  C   UNL A   1      36.338  20.771  25.402  1.00  0.00     0.021 C 
ENDROOT
BRANCH   1   2
ATOM      2  C   UNL A   1      35.161  21.275  24.566  1.00  0.00     0.116 C 
BRANCH   2   3
ATOM      3  N   UNL A   1      33.971  20.493  24.830  1.00  0.00    -0.352 N 
ATOM      4  C   UNL A   1      32.676  20.878  25.045  1.00  0.00     0.251 C 
ATOM      5  O   UNL A   1      31.802  20.013  25.094  1.00  0.00    -0.269 OA
ATOM      6  H   UNL A   1      34.118  19.520  24.859  1.00  0.00     0.163 HD
BRANCH   4   7
ATOM      7  C   UNL A   1      32.279  22.299  25.225  1.00  0.00     0.041 A 
ATOM      8  C   UNL A   1      30.372  26.328  23.829  1.00  0.00     0.190 A 
ATOM      9  N   UNL A   1      30.232  25.925  25.063  1.00  0.00    -0.220 NA
ATOM     10  S   UNL A   1      31.623  25.609  22.922  1.00  0.00    -0.097 S 
ATOM     11  C   UNL A   1      31.056  24.825  25.271  1.00  0.00     0.084 A 
ATOM     12  C   UNL A   1      31.745  24.385  24.139  1.00  0.00     0.057 A 
ATOM     13  C   UNL A   1      31.128  24.056  26.450  1.00  0.00     0.031 A 
ATOM     14  C   UNL A   1      32.357  23.124  24.089  1.00  0.00     0.035 A 
ATOM     15  C   UNL A   1      31.701  22.777  26.403  1.00  0.00     0.016 A 
BRANCH   8  16
ATOM     16  N   UNL A   1      29.663  27.288  23.178  1.00  0.00    -0.302 N 
ATOM     17  C   UNL A   1      29.827  28.633  23.290  1.00  0.00     0.226 C 
ATOM     18  O   UNL A   1      29.120  29.356  22.578  1.00  0.00    -0.275 OA
ATOM     19  H   UNL A   1      28.958  26.978  22.564  1.00  0.00     0.172 HD
BRANCH  17  20
ATOM     20  C   UNL A   1      30.771  29.274  24.304  1.00  0.00     0.103 C 
BRANCH  20  21
ATOM     21  C   UNL A   1      32.265  29.189  23.949  1.00  0.00     0.038 C 
BRANCH  21  22
ATOM     22  C   UNL A   1      33.184  28.461  24.934  1.00  0.00     0.160 C 
BRANCH  22  23
ATOM     23  O   UNL A   1      33.246  29.093  26.208  1.00  0.00    -0.385 OA
ATOM     24  C   UNL A   1      34.525  29.073  26.821  1.00  0.00     0.194 C 
ENDBRANCH  22  23
ENDBRANCH  21  22
ENDBRANCH  20  21
ENDBRANCH  17  20
ENDBRANCH   8  16
ENDBRANCH   4   7
ENDBRANCH   2   3
ENDBRANCH   1   2
BRANCH   1  25
ATOM     25  C   UNL A   1      37.623  21.591  25.224  1.00  0.00     0.002 C 
BRANCH  25  26
ATOM     26  C   UNL A   1      37.408  23.084  24.943  1.00  0.00     0.002 C 
BRANCH  26  27
ATOM     27  C   UNL A   1      37.552  24.006  26.157  1.00  0.00     0.021 C 
BRANCH  27  28
ATOM     28  C   UNL A   1      38.904  23.925  26.862  1.00  0.00     0.116 C 
BRANCH  28  29
ATOM     29  N   UNL A   1      39.984  24.397  26.010  1.00  0.00    -0.352 N 
ATOM     30  C   UNL A   1      40.734  25.541  26.109  1.00  0.00     0.251 C 
ATOM     31  H   UNL A   1      40.210  23.811  25.253  1.00  0.00     0.163 HD
ATOM     32  O   UNL A   1      41.447  25.883  25.167  1.00  0.00    -0.269 OA
BRANCH  30  33
ATOM     33  C   UNL A   1      40.680  26.367  27.334  1.00  0.00     0.039 A 
ATOM     34  C   UNL A   1      41.556  27.449  27.458  1.00  0.00     0.014 A 
ATOM     35  C   UNL A   1      39.793  26.062  28.371  1.00  0.00     0.014 A 
ATOM     36  C   UNL A   1      41.508  28.252  28.599  1.00  0.00     0.010 A 
ATOM     37  C   UNL A   1      39.701  26.903  29.479  1.00  0.00     0.010 A 
ATOM     38  C   UNL A   1      40.562  28.003  29.608  1.00  0.00    -0.014 A 
BRANCH  38  39
ATOM     39  C   UNL A   1      40.460  28.891  30.794  1.00  0.00     0.031 A 
ATOM     40  C   UNL A   1      39.430  29.987  30.842  1.00  0.00     0.074 A 
ATOM     41  C   UNL A   1      41.333  28.739  31.809  1.00  0.00     0.049 A 
ATOM     42  N   UNL A   1      39.209  30.870  31.782  1.00  0.00    -0.248 NA
ATOM     43  C   UNL A   1      38.550  30.125  29.671  1.00  0.00     0.031 C 
ATOM     44  C   UNL A   1      42.414  27.751  31.853  1.00  0.00     0.029 A 
ATOM     45  N   UNL A   1      41.456  29.415  32.997  1.00  0.00    -0.354 N 
ATOM     46  C   UNL A   1      38.176  31.674  31.314  1.00  0.00     0.074 A 
ATOM     47  C   UNL A   1      37.849  31.205  29.984  1.00  0.00     0.031 C 
ATOM     48  C   UNL A   1      43.072  27.869  33.016  1.00  0.00     0.029 A 
ATOM     49  C   UNL A   1      42.483  28.958  33.788  1.00  0.00     0.049 A 
ATOM     50  H   UNL A   1      40.864  30.158  33.257  1.00  0.00     0.167 HD
ATOM     51  C   UNL A   1      37.542  32.693  31.943  1.00  0.00     0.037 A 
ATOM     52  C   UNL A   1      42.903  29.370  35.000  1.00  0.00     0.037 A 
ATOM     53  C   UNL A   1      37.858  33.139  33.276  1.00  0.00     0.049 A 
ATOM     54  C   UNL A   1      42.174  30.492  35.686  1.00  0.00     0.074 A 
ATOM     55  C   UNL A   1      37.231  34.117  34.028  1.00  0.00     0.029 A 
ATOM     56  N   UNL A   1      38.891  32.638  34.054  1.00  0.00    -0.354 N 
ATOM     57  N   UNL A   1      41.150  31.192  35.259  1.00  0.00    -0.248 NA
ATOM     58  C   UNL A   1      42.650  30.873  37.022  1.00  0.00     0.031 C 
ATOM     59  C   UNL A   1      37.912  34.238  35.244  1.00  0.00     0.029 A 
ATOM     60  C   UNL A   1      38.935  33.302  35.270  1.00  0.00     0.049 A 
ATOM     61  H   UNL A   1      39.504  31.917  33.785  1.00  0.00     0.167 HD
ATOM     62  C   UNL A   1      40.846  32.085  36.280  1.00  0.00     0.074 A 
ATOM     63  C   UNL A   1      41.784  31.822  37.353  1.00  0.00     0.031 C 
ATOM     64  C   UNL A   1      39.880  33.034  36.326  1.00  0.00     0.037 A 
BRANCH  51  65
ATOM     65  C   UNL A   1      36.440  33.393  31.196  1.00  0.00     0.058 A 
ATOM     66  C   UNL A   1      35.091  33.243  31.560  1.00  0.00     0.135 A 
ATOM     67  C   UNL A   1      36.734  34.244  30.118  1.00  0.00     0.135 A 
ATOM     68  F   UNL A   1      34.750  32.432  32.573  1.00  0.00    -0.206 F 
ATOM     69  C   UNL A   1      34.072  33.882  30.859  1.00  0.00     0.059 A 
ATOM     70  C   UNL A   1      35.733  34.916  29.421  1.00  0.00     0.059 A 
ATOM     71  F   UNL A   1      38.006  34.426  29.728  1.00  0.00    -0.206 F 
ATOM     72  C   UNL A   1      34.403  34.715  29.789  1.00  0.00     0.060 A 
BRANCH  72  73
ATOM     73  S   UNL A   1      33.073  35.533  28.884  1.00  0.00     0.124 S 
ATOM     74  O   UNL A   1      33.824  36.476  28.058  1.00  0.00    -0.237 OA
ATOM     75  O   UNL A   1      32.454  34.420  28.166  1.00  0.00    -0.237 OA
ATOM     76  O   UNL A   1      32.260  36.127  29.934  1.00  0.00    -0.744 OA
ENDBRANCH  72  73
ENDBRANCH  51  65
BRANCH  52  77
ATOM     77  C   UNL A   1      44.055  28.693  35.650  1.00  0.00     0.058 A 
ATOM     78  C   UNL A   1      45.372  29.091  35.379  1.00  0.00     0.135 A 
ATOM     79  C   UNL A   1      43.864  27.658  36.579  1.00  0.00     0.135 A 
ATOM     80  F   UNL A   1      45.607  30.073  34.494  1.00  0.00    -0.206 F 
ATOM     81  C   UNL A   1      46.460  28.481  35.995  1.00  0.00     0.059 A 
ATOM     82  C   UNL A   1      44.933  27.049  37.226  1.00  0.00     0.059 A 
ATOM     83  F   UNL A   1      42.621  27.253  36.887  1.00  0.00    -0.206 F 
ATOM     84  C   UNL A   1      46.230  27.463  36.922  1.00  0.00     0.060 A 
BRANCH  84  85
ATOM     85  S   UNL A   1      47.644  26.721  37.766  1.00  0.00     0.124 S 
ATOM     86  O   UNL A   1      47.869  27.670  38.851  1.00  0.00    -0.237 OA
ATOM     87  O   UNL A   1      47.116  25.416  38.157  1.00  0.00    -0.237 OA
ATOM     88  O   UNL A   1      48.671  26.687  36.730  1.00  0.00    -0.744 OA
ENDBRANCH  84  85
ENDBRANCH  52  77
BRANCH  64  89
ATOM     89  C   UNL A   1      39.779  33.850  37.585  1.00  0.00     0.058 A 
ATOM     90  C   UNL A   1      40.480  35.057  37.740  1.00  0.00     0.135 A 
ATOM     91  C   UNL A   1      38.947  33.435  38.638  1.00  0.00     0.135 A 
ATOM     92  F   UNL A   1      41.294  35.495  36.766  1.00  0.00    -0.206 F 
ATOM     93  C   UNL A   1      40.384  35.808  38.906  1.00  0.00     0.059 A 
ATOM     94  C   UNL A   1      38.815  34.185  39.803  1.00  0.00     0.059 A 
ATOM     95  F   UNL A   1      38.246  32.295  38.538  1.00  0.00    -0.206 F 
ATOM     96  C   UNL A   1      39.550  35.363  39.933  1.00  0.00     0.060 A 
BRANCH  96  97
ATOM     97  S   UNL A   1      39.423  36.354  41.438  1.00  0.00     0.124 S 
ATOM     98  O   UNL A   1      40.785  36.279  41.954  1.00  0.00    -0.237 OA
ATOM     99  O   UNL A   1      39.011  37.656  40.921  1.00  0.00    -0.237 OA
ATOM    100  O   UNL A   1      38.413  35.651  42.222  1.00  0.00    -0.744 OA
ENDBRANCH  96  97
ENDBRANCH  64  89
ENDBRANCH  38  39
ENDBRANCH  30  33
ENDBRANCH  28  29
ENDBRANCH  27  28
ENDBRANCH  26  27
ENDBRANCH  25  26
ENDBRANCH   1  25
TORSDOF 21
ENDMDL
