MODEL 1
REMARK VINA RESULT:     -13.3      0.000      0.000
REMARK SMILES O=C(NCCCCCCNC(=O)[C@H]1CCCN(c2cc(-c3ccccn3)nc(-c3ccccc3F)n2)C1)c1ccc(-c2c3nc(c(-c4c(F)cc(S(=O)(=O)[O-])cc4F)c4ccc([nH]4)c(-c4c(F)cc(S(=O)(=O)[O-])cc4F)c4nc(c(-c5c(F)cc(S(=O)(=O)[O-])cc5F)c5ccc2[nH]5)C=C4)C=C3)cc1
REMARK SMILES IDX 6 1 5 2 4 3 3 4 1 5 2 6 38 8 39 9 103 10 40 11 102 12 41 13
REMARK SMILES IDX 42 14 43 15 96 16 44 17 101 18 95 19 97 20 45 21 100 22
REMARK SMILES IDX 94 23 93 24 46 26 80 27 59 28 79 29 60 30 63 31 78 32 98 33
REMARK SMILES IDX 61 34 62 35 77 37 99 38 64 39 47 40 48 41 57 42 49 43 50 44
REMARK SMILES IDX 56 45 58 46 51 47 52 48 53 49 54 50 55 51 81 52 82 53 91 54
REMARK SMILES IDX 83 55 84 56 90 57 92 58 85 59 86 60 87 61 88 62 89 63 65 64
REMARK SMILES IDX 66 65 75 66 67 67 68 68 74 69 76 70 69 71 70 72 71 73 72 74
REMARK SMILES IDX 73 75 7 76 8 77 9 78 10 79 11 80 12 82 13 83 14 84 37 85
REMARK SMILES IDX 15 86 17 87 16 88 18 89 19 90 36 91 20 92 28 93 27 94 21 95
REMARK SMILES IDX 22 96 26 97 23 98 25 99 24 100 29 101 30 102 34 103 31 104
REMARK SMILES IDX 33 105 35 106 32 107
REMARK H PARENT 3 7 97 25 63 36 10 81
REMARK Flexibility Score: inf
ROOT
ATOM      1  C   UNL A   1      33.693  29.108  26.467  1.00  0.00     0.002 C 
ENDROOT
BRANCH   1   2
ATOM      2  C   UNL A   1      34.140  30.155  27.486  1.00  0.00     0.021 C 
BRANCH   2   3
ATOM      3  C   UNL A   1      35.367  29.763  28.297  1.00  0.00     0.116 C 
BRANCH   3   4
ATOM      4  N   UNL A   1      35.515  30.578  29.490  1.00  0.00    -0.352 N 
ATOM      5  O   UNL A   1      36.531  31.305  31.367  1.00  0.00    -0.269 OA
ATOM      6  C   UNL A   1      36.625  30.743  30.278  1.00  0.00     0.251 C 
ATOM      7  H   UNL A   1      34.713  31.076  29.768  1.00  0.00     0.163 HD
BRANCH   6   8
ATOM      8  C   UNL A   1      37.929  30.227  29.812  1.00  0.00     0.039 A 
ATOM      9  C   UNL A   1      38.243  30.226  28.450  1.00  0.00     0.014 A 
ATOM     10  C   UNL A   1      38.853  29.760  30.750  1.00  0.00     0.014 A 
ATOM     11  C   UNL A   1      39.439  29.670  28.016  1.00  0.00     0.010 A 
ATOM     12  C   UNL A   1      40.089  29.272  30.317  1.00  0.00     0.010 A 
ATOM     13  C   UNL A   1      40.388  29.221  28.947  1.00  0.00    -0.014 A 
BRANCH  13  14
ATOM     14  C   UNL A   1      41.740  28.832  28.479  1.00  0.00     0.031 A 
ATOM     15  C   UNL A   1      42.045  27.427  28.048  1.00  0.00     0.074 A 
ATOM     16  C   UNL A   1      42.702  29.777  28.471  1.00  0.00     0.049 A 
ATOM     17  N   UNL A   1      43.188  26.920  27.668  1.00  0.00    -0.248 NA
ATOM     18  C   UNL A   1      40.931  26.465  28.042  1.00  0.00     0.031 C 
ATOM     19  C   UNL A   1      42.511  31.171  28.886  1.00  0.00     0.029 A 
ATOM     20  N   UNL A   1      44.024  29.720  28.109  1.00  0.00    -0.354 N 
ATOM     21  C   UNL A   1      42.942  25.580  27.396  1.00  0.00     0.074 A 
ATOM     22  C   UNL A   1      41.539  25.346  27.664  1.00  0.00     0.031 C 
ATOM     23  C   UNL A   1      43.663  31.838  28.737  1.00  0.00     0.029 A 
ATOM     24  C   UNL A   1      44.692  30.909  28.287  1.00  0.00     0.049 A 
ATOM     25  H   UNL A   1      44.452  28.907  27.757  1.00  0.00     0.167 HD
ATOM     26  C   UNL A   1      43.814  24.641  26.959  1.00  0.00     0.037 A 
ATOM     27  C   UNL A   1      45.996  31.213  28.146  1.00  0.00     0.037 A 
ATOM     28  C   UNL A   1      45.204  24.902  26.679  1.00  0.00     0.049 A 
ATOM     29  C   UNL A   1      46.946  30.140  27.700  1.00  0.00     0.074 A 
ATOM     30  C   UNL A   1      46.150  24.030  26.167  1.00  0.00     0.029 A 
ATOM     31  N   UNL A   1      45.848  26.111  26.894  1.00  0.00    -0.354 N 
ATOM     32  N   UNL A   1      46.683  28.892  27.393  1.00  0.00    -0.248 NA
ATOM     33  C   UNL A   1      48.364  30.504  27.594  1.00  0.00     0.031 C 
ATOM     34  C   UNL A   1      47.379  24.694  26.127  1.00  0.00     0.029 A 
ATOM     35  C   UNL A   1      47.189  25.996  26.564  1.00  0.00     0.049 A 
ATOM     36  H   UNL A   1      45.417  26.929  27.232  1.00  0.00     0.167 HD
ATOM     37  C   UNL A   1      47.902  28.322  27.055  1.00  0.00     0.074 A 
ATOM     38  C   UNL A   1      48.899  29.365  27.171  1.00  0.00     0.031 C 
ATOM     39  C   UNL A   1      48.169  27.046  26.687  1.00  0.00     0.037 A 
BRANCH  26  40
ATOM     40  C   UNL A   1      43.321  23.237  26.748  1.00  0.00     0.058 A 
ATOM     41  C   UNL A   1      43.092  22.396  27.851  1.00  0.00     0.135 A 
ATOM     42  C   UNL A   1      43.214  22.681  25.466  1.00  0.00     0.135 A 
ATOM     43  F   UNL A   1      43.176  22.880  29.100  1.00  0.00    -0.206 F 
ATOM     44  C   UNL A   1      42.809  21.043  27.688  1.00  0.00     0.059 A 
ATOM     45  C   UNL A   1      42.911  21.334  25.278  1.00  0.00     0.059 A 
ATOM     46  F   UNL A   1      43.405  23.446  24.379  1.00  0.00    -0.206 F 
ATOM     47  C   UNL A   1      42.733  20.519  26.397  1.00  0.00     0.060 A 
BRANCH  47  48
ATOM     48  S   UNL A   1      42.392  18.756  26.203  1.00  0.00     0.124 S 
ATOM     49  O   UNL A   1      40.995  18.762  25.787  1.00  0.00    -0.237 OA
ATOM     50  O   UNL A   1      43.360  18.369  25.182  1.00  0.00    -0.237 OA
ATOM     51  O   UNL A   1      42.649  18.214  27.535  1.00  0.00    -0.744 OA
ENDBRANCH  47  48
ENDBRANCH  26  40
BRANCH  27  52
ATOM     52  C   UNL A   1      46.468  32.583  28.474  1.00  0.00     0.058 A 
ATOM     53  C   UNL A   1      46.532  33.581  27.487  1.00  0.00     0.135 A 
ATOM     54  C   UNL A   1      46.904  32.912  29.765  1.00  0.00     0.135 A 
ATOM     55  F   UNL A   1      46.138  33.314  26.232  1.00  0.00    -0.206 F 
ATOM     56  C   UNL A   1      47.041  34.844  27.759  1.00  0.00     0.059 A 
ATOM     57  C   UNL A   1      47.390  34.180  30.070  1.00  0.00     0.059 A 
ATOM     58  F   UNL A   1      46.853  31.995  30.743  1.00  0.00    -0.206 F 
ATOM     59  C   UNL A   1      47.469  35.134  29.056  1.00  0.00     0.060 A 
BRANCH  59  60
ATOM     60  S   UNL A   1      48.121  36.784  29.390  1.00  0.00     0.124 S 
ATOM     61  O   UNL A   1      49.223  36.484  30.298  1.00  0.00    -0.237 OA
ATOM     62  O   UNL A   1      48.501  37.240  28.057  1.00  0.00    -0.237 OA
ATOM     63  O   UNL A   1      46.985  37.480  29.987  1.00  0.00    -0.744 OA
ENDBRANCH  59  60
ENDBRANCH  27  52
BRANCH  39  64
ATOM     64  C   UNL A   1      49.597  26.689  26.388  1.00  0.00     0.058 A 
ATOM     65  C   UNL A   1      50.125  26.882  25.102  1.00  0.00     0.135 A 
ATOM     66  C   UNL A   1      50.401  26.050  27.343  1.00  0.00     0.135 A 
ATOM     67  F   UNL A   1      49.394  27.487  24.153  1.00  0.00    -0.206 F 
ATOM     68  C   UNL A   1      51.390  26.416  24.762  1.00  0.00     0.059 A 
ATOM     69  C   UNL A   1      51.680  25.599  27.032  1.00  0.00     0.059 A 
ATOM     70  F   UNL A   1      49.945  25.860  28.592  1.00  0.00    -0.206 F 
ATOM     71  C   UNL A   1      52.155  25.765  25.731  1.00  0.00     0.060 A 
BRANCH  71  72
ATOM     72  S   UNL A   1      53.778  25.133  25.259  1.00  0.00     0.124 S 
ATOM     73  O   UNL A   1      54.630  25.685  26.306  1.00  0.00    -0.237 OA
ATOM     74  O   UNL A   1      53.570  23.689  25.305  1.00  0.00    -0.237 OA
ATOM     75  O   UNL A   1      53.984  25.688  23.924  1.00  0.00    -0.744 OA
ENDBRANCH  71  72
ENDBRANCH  39  64
ENDBRANCH  13  14
ENDBRANCH   6   8
ENDBRANCH   3   4
ENDBRANCH   2   3
ENDBRANCH   1   2
BRANCH   1  76
ATOM     76  C   UNL A   1      32.515  29.524  25.580  1.00  0.00     0.002 C 
BRANCH  76  77
ATOM     77  C   UNL A   1      32.453  28.842  24.208  1.00  0.00     0.021 C 
BRANCH  77  78
ATOM     78  C   UNL A   1      33.741  28.144  23.784  1.00  0.00     0.116 C 
BRANCH  78  79
ATOM     79  N   UNL A   1      33.675  27.695  22.405  1.00  0.00    -0.356 N 
ATOM     80  C   UNL A   1      33.247  26.498  21.914  1.00  0.00     0.224 C 
ATOM     81  H   UNL A   1      33.982  28.345  21.733  1.00  0.00     0.163 HD
ATOM     82  O   UNL A   1      33.258  26.325  20.695  1.00  0.00    -0.275 OA
BRANCH  80  83
ATOM     83  C   UNL A   1      32.817  25.419  22.887  1.00  0.00     0.098 C 
ATOM     84  C   UNL A   1      31.289  25.342  22.998  1.00  0.00     0.017 C 
ATOM     85  C   UNL A   1      33.383  24.083  22.406  1.00  0.00     0.131 C 
ATOM     86  C   UNL A   1      30.888  24.200  23.932  1.00  0.00     0.022 C 
ATOM     87  N   UNL A   1      32.895  22.998  23.249  1.00  0.00    -0.356 N 
ATOM     88  C   UNL A   1      31.460  22.864  23.454  1.00  0.00     0.118 C 
BRANCH  87  89
ATOM     89  C   UNL A   1      33.799  22.163  23.866  1.00  0.00     0.133 A 
ATOM     90  C   UNL A   1      35.002  22.660  24.322  1.00  0.00     0.077 A 
ATOM     91  N   UNL A   1      33.470  20.872  24.039  1.00  0.00    -0.211 NA
ATOM     92  C   UNL A   1      35.845  21.793  24.987  1.00  0.00     0.095 A 
ATOM     93  C   UNL A   1      34.369  20.082  24.663  1.00  0.00     0.165 A 
ATOM     94  N   UNL A   1      35.544  20.493  25.160  1.00  0.00    -0.226 NA
BRANCH  92  95
ATOM     95  C   UNL A   1      37.095  22.274  25.587  1.00  0.00     0.089 A 
ATOM     96  C   UNL A   1      37.219  23.588  26.042  1.00  0.00     0.030 A 
ATOM     97  N   UNL A   1      38.132  21.397  25.626  1.00  0.00    -0.255 NA
ATOM     98  C   UNL A   1      38.438  24.014  26.565  1.00  0.00     0.004 A 
ATOM     99  C   UNL A   1      39.296  21.831  26.156  1.00  0.00     0.112 A 
ATOM    100  C   UNL A   1      39.497  23.118  26.627  1.00  0.00     0.020 A 
ENDBRANCH  92  95
BRANCH  93 101
ATOM    101  C   UNL A   1      34.081  18.653  24.728  1.00  0.00     0.055 A 
ATOM    102  C   UNL A   1      35.109  17.699  24.591  1.00  0.00     0.015 A 
ATOM    103  C   UNL A   1      32.786  18.183  24.972  1.00  0.00     0.134 A 
ATOM    104  C   UNL A   1      34.843  16.331  24.717  1.00  0.00     0.001 A 
ATOM    105  C   UNL A   1      32.513  16.820  25.089  1.00  0.00     0.040 A 
ATOM    106  F   UNL A   1      31.761  19.044  25.078  1.00  0.00    -0.206 F 
ATOM    107  C   UNL A   1      33.545  15.892  24.968  1.00  0.00     0.003 A 
ENDBRANCH  93 101
ENDBRANCH  87  89
ENDBRANCH  80  83
ENDBRANCH  78  79
ENDBRANCH  77  78
ENDBRANCH  76  77
ENDBRANCH   1  76
TORSDOF 19
ENDMDL
MODEL 2
REMARK VINA RESULT:     -13.2      6.223     11.892
REMARK SMILES O=C(NCCCCCCNC(=O)[C@H]1CCCN(c2cc(-c3ccccn3)nc(-c3ccccc3F)n2)C1)c1ccc(-c2c3nc(c(-c4c(F)cc(S(=O)(=O)[O-])cc4F)c4ccc([nH]4)c(-c4c(F)cc(S(=O)(=O)[O-])cc4F)c4nc(c(-c5c(F)cc(S(=O)(=O)[O-])cc5F)c5ccc2[nH]5)C=C4)C=C3)cc1
REMARK SMILES IDX 6 1 5 2 4 3 3 4 1 5 2 6 38 8 39 9 103 10 40 11 102 12 41 13
REMARK SMILES IDX 42 14 43 15 96 16 44 17 101 18 95 19 97 20 45 21 100 22
REMARK SMILES IDX 94 23 93 24 46 26 80 27 59 28 79 29 60 30 63 31 78 32 98 33
REMARK SMILES IDX 61 34 62 35 77 37 99 38 64 39 47 40 48 41 57 42 49 43 50 44
REMARK SMILES IDX 56 45 58 46 51 47 52 48 53 49 54 50 55 51 81 52 82 53 91 54
REMARK SMILES IDX 83 55 84 56 90 57 92 58 85 59 86 60 87 61 88 62 89 63 65 64
REMARK SMILES IDX 66 65 75 66 67 67 68 68 74 69 76 70 69 71 70 72 71 73 72 74
REMARK SMILES IDX 73 75 7 76 8 77 9 78 10 79 11 80 12 82 13 83 14 84 37 85
REMARK SMILES IDX 15 86 17 87 16 88 18 89 19 90 36 91 20 92 28 93 27 94 21 95
REMARK SMILES IDX 22 96 26 97 23 98 25 99 24 100 29 101 30 102 34 103 31 104
REMARK SMILES IDX 33 105 35 106 32 107
REMARK H PARENT 3 7 97 25 63 36 10 81
REMARK Flexibility Score: inf
ROOT
ATOM      1  C   UNL A   1      38.187  21.814  25.591  1.00  0.00     0.002 C 
ENDROOT
BRANCH   1   2
ATOM      2  C   UNL A   1      38.240  23.238  26.144  1.00  0.00     0.021 C 
BRANCH   2   3
ATOM      3  C   UNL A   1      39.452  23.532  27.017  1.00  0.00     0.116 C 
BRANCH   3   4
ATOM      4  N   UNL A   1      40.656  23.728  26.228  1.00  0.00    -0.352 N 
ATOM      5  O   UNL A   1      42.367  24.906  25.351  1.00  0.00    -0.269 OA
ATOM      6  C   UNL A   1      41.506  24.804  26.222  1.00  0.00     0.251 C 
ATOM      7  H   UNL A   1      40.892  22.992  25.619  1.00  0.00     0.163 HD
BRANCH   6   8
ATOM      8  C   UNL A   1      41.367  25.844  27.263  1.00  0.00     0.039 A 
ATOM      9  C   UNL A   1      40.537  25.633  28.367  1.00  0.00     0.014 A 
ATOM     10  C   UNL A   1      42.091  27.033  27.142  1.00  0.00     0.014 A 
ATOM     11  C   UNL A   1      40.355  26.645  29.300  1.00  0.00     0.010 A 
ATOM     12  C   UNL A   1      41.966  28.021  28.122  1.00  0.00     0.010 A 
ATOM     13  C   UNL A   1      41.095  27.834  29.206  1.00  0.00    -0.014 A 
BRANCH  13  14
ATOM     14  C   UNL A   1      41.049  28.811  30.321  1.00  0.00     0.031 A 
ATOM     15  C   UNL A   1      42.014  28.736  31.467  1.00  0.00     0.074 A 
ATOM     16  C   UNL A   1      40.096  29.764  30.286  1.00  0.00     0.049 A 
ATOM     17  N   UNL A   1      42.066  29.480  32.541  1.00  0.00    -0.248 NA
ATOM     18  C   UNL A   1      43.054  27.695  31.409  1.00  0.00     0.031 C 
ATOM     19  C   UNL A   1      39.098  29.914  29.221  1.00  0.00     0.029 A 
ATOM     20  N   UNL A   1      39.800  30.780  31.158  1.00  0.00    -0.354 N 
ATOM     21  C   UNL A   1      43.125  28.992  33.295  1.00  0.00     0.074 A 
ATOM     22  C   UNL A   1      43.687  27.877  32.562  1.00  0.00     0.031 C 
ATOM     23  C   UNL A   1      38.317  30.968  29.493  1.00  0.00     0.029 A 
ATOM     24  C   UNL A   1      38.708  31.526  30.781  1.00  0.00     0.049 A 
ATOM     25  H   UNL A   1      40.320  30.959  31.975  1.00  0.00     0.167 HD
ATOM     26  C   UNL A   1      43.581  29.443  34.488  1.00  0.00     0.037 A 
ATOM     27  C   UNL A   1      38.062  32.521  31.417  1.00  0.00     0.037 A 
ATOM     28  C   UNL A   1      43.018  30.570  35.190  1.00  0.00     0.049 A 
ATOM     29  C   UNL A   1      38.565  32.971  32.757  1.00  0.00     0.074 A 
ATOM     30  C   UNL A   1      43.456  31.144  36.371  1.00  0.00     0.029 A 
ATOM     31  N   UNL A   1      41.898  31.282  34.788  1.00  0.00    -0.354 N 
ATOM     32  N   UNL A   1      39.604  32.534  33.429  1.00  0.00    -0.248 NA
ATOM     33  C   UNL A   1      37.811  34.034  33.433  1.00  0.00     0.031 C 
ATOM     34  C   UNL A   1      42.567  32.166  36.714  1.00  0.00     0.029 A 
ATOM     35  C   UNL A   1      41.606  32.264  35.720  1.00  0.00     0.049 A 
ATOM     36  H   UNL A   1      41.388  31.115  33.964  1.00  0.00     0.167 HD
ATOM     37  C   UNL A   1      39.629  33.270  34.606  1.00  0.00     0.074 A 
ATOM     38  C   UNL A   1      38.518  34.195  34.545  1.00  0.00     0.031 C 
ATOM     39  C   UNL A   1      40.494  33.179  35.645  1.00  0.00     0.037 A 
BRANCH  26  40
ATOM     40  C   UNL A   1      44.742  28.740  35.133  1.00  0.00     0.058 A 
ATOM     41  C   UNL A   1      44.517  27.718  36.070  1.00  0.00     0.135 A 
ATOM     42  C   UNL A   1      46.063  29.168  34.934  1.00  0.00     0.135 A 
ATOM     43  F   UNL A   1      43.272  27.267  36.294  1.00  0.00    -0.206 F 
ATOM     44  C   UNL A   1      45.556  27.171  36.815  1.00  0.00     0.059 A 
ATOM     45  C   UNL A   1      47.122  28.620  35.654  1.00  0.00     0.059 A 
ATOM     46  F   UNL A   1      46.334  30.128  34.036  1.00  0.00    -0.206 F 
ATOM     47  C   UNL A   1      46.855  27.638  36.608  1.00  0.00     0.060 A 
BRANCH  47  48
ATOM     48  S   UNL A   1      48.190  26.937  37.602  1.00  0.00     0.124 S 
ATOM     49  O   UNL A   1      48.978  26.233  36.598  1.00  0.00    -0.237 OA
ATOM     50  O   UNL A   1      48.805  28.132  38.172  1.00  0.00    -0.237 OA
ATOM     51  O   UNL A   1      47.488  26.088  38.560  1.00  0.00    -0.744 OA
ENDBRANCH  47  48
ENDBRANCH  26  40
BRANCH  27  52
ATOM     52  C   UNL A   1      36.847  33.116  30.801  1.00  0.00     0.058 A 
ATOM     53  C   UNL A   1      36.950  34.028  29.738  1.00  0.00     0.135 A 
ATOM     54  C   UNL A   1      35.566  32.823  31.290  1.00  0.00     0.135 A 
ATOM     55  F   UNL A   1      38.154  34.352  29.241  1.00  0.00    -0.206 F 
ATOM     56  C   UNL A   1      35.830  34.650  29.200  1.00  0.00     0.059 A 
ATOM     57  C   UNL A   1      34.427  33.411  30.749  1.00  0.00     0.059 A 
ATOM     58  F   UNL A   1      35.419  31.952  32.300  1.00  0.00    -0.206 F 
ATOM     59  C   UNL A   1      34.571  34.335  29.715  1.00  0.00     0.060 A 
BRANCH  59  60
ATOM     60  S   UNL A   1      33.128  35.151  28.998  1.00  0.00     0.124 S 
ATOM     61  O   UNL A   1      32.266  35.297  30.166  1.00  0.00    -0.237 OA
ATOM     62  O   UNL A   1      33.703  36.385  28.473  1.00  0.00    -0.237 OA
ATOM     63  O   UNL A   1      32.669  34.199  27.992  1.00  0.00    -0.744 OA
ENDBRANCH  59  60
ENDBRANCH  27  52
BRANCH  39  64
ATOM     64  C   UNL A   1      40.279  34.095  36.815  1.00  0.00     0.058 A 
ATOM     65  C   UNL A   1      39.407  33.733  37.853  1.00  0.00     0.135 A 
ATOM     66  C   UNL A   1      40.847  35.377  36.846  1.00  0.00     0.135 A 
ATOM     67  F   UNL A   1      38.837  32.518  37.867  1.00  0.00    -0.206 F 
ATOM     68  C   UNL A   1      39.074  34.628  38.863  1.00  0.00     0.059 A 
ATOM     69  C   UNL A   1      40.548  36.280  37.862  1.00  0.00     0.059 A 
ATOM     70  F   UNL A   1      41.701  35.761  35.884  1.00  0.00    -0.206 F 
ATOM     71  C   UNL A   1      39.641  35.903  38.852  1.00  0.00     0.060 A 
BRANCH  71  72
ATOM     72  S   UNL A   1      39.166  37.064  40.150  1.00  0.00     0.124 S 
ATOM     73  O   UNL A   1      38.331  36.229  41.007  1.00  0.00    -0.237 OA
ATOM     74  O   UNL A   1      40.460  37.450  40.705  1.00  0.00    -0.237 OA
ATOM     75  O   UNL A   1      38.463  38.118  39.423  1.00  0.00    -0.744 OA
ENDBRANCH  71  72
ENDBRANCH  39  64
ENDBRANCH  13  14
ENDBRANCH   6   8
ENDBRANCH   3   4
ENDBRANCH   2   3
ENDBRANCH   1   2
BRANCH   1  76
ATOM     76  C   UNL A   1      36.811  21.359  25.097  1.00  0.00     0.002 C 
BRANCH  76  77
ATOM     77  C   UNL A   1      35.626  22.202  25.580  1.00  0.00     0.021 C 
BRANCH  77  78
ATOM     78  C   UNL A   1      34.283  21.480  25.573  1.00  0.00     0.116 C 
BRANCH  78  79
ATOM     79  N   UNL A   1      33.463  21.866  26.708  1.00  0.00    -0.356 N 
ATOM     80  C   UNL A   1      32.492  22.819  26.777  1.00  0.00     0.224 C 
ATOM     81  H   UNL A   1      33.634  21.371  27.541  1.00  0.00     0.163 HD
ATOM     82  O   UNL A   1      31.899  22.978  27.845  1.00  0.00    -0.275 OA
BRANCH  80  83
ATOM     83  C   UNL A   1      32.212  23.670  25.555  1.00  0.00     0.098 C 
ATOM     84  C   UNL A   1      31.651  22.827  24.402  1.00  0.00     0.017 C 
ATOM     85  C   UNL A   1      31.219  24.763  25.946  1.00  0.00     0.131 C 
ATOM     86  C   UNL A   1      31.316  23.724  23.211  1.00  0.00     0.022 C 
ATOM     87  N   UNL A   1      30.831  25.534  24.770  1.00  0.00    -0.356 N 
ATOM     88  C   UNL A   1      30.326  24.823  23.604  1.00  0.00     0.118 C 
BRANCH  87  89
ATOM     89  C   UNL A   1      30.998  26.901  24.772  1.00  0.00     0.133 A 
ATOM     90  C   UNL A   1      30.244  27.692  23.932  1.00  0.00     0.077 A 
ATOM     91  N   UNL A   1      31.883  27.440  25.626  1.00  0.00    -0.211 NA
ATOM     92  C   UNL A   1      30.407  29.060  24.018  1.00  0.00     0.095 A 
ATOM     93  C   UNL A   1      32.012  28.783  25.618  1.00  0.00     0.165 A 
ATOM     94  N   UNL A   1      31.296  29.623  24.856  1.00  0.00    -0.226 NA
BRANCH  92  95
ATOM     95  C   UNL A   1      29.567  29.967  23.227  1.00  0.00     0.089 A 
ATOM     96  C   UNL A   1      29.126  31.184  23.751  1.00  0.00     0.030 A 
ATOM     97  N   UNL A   1      29.202  29.540  21.991  1.00  0.00    -0.255 NA
ATOM     98  C   UNL A   1      28.295  31.994  22.981  1.00  0.00     0.004 A 
ATOM     99  C   UNL A   1      28.413  30.356  21.258  1.00  0.00     0.112 A 
ATOM    100  C   UNL A   1      27.933  31.575  21.708  1.00  0.00     0.020 A 
ENDBRANCH  92  95
BRANCH  93 101
ATOM    101  C   UNL A   1      33.068  29.366  26.440  1.00  0.00     0.055 A 
ATOM    102  C   UNL A   1      34.292  28.696  26.629  1.00  0.00     0.015 A 
ATOM    103  C   UNL A   1      32.917  30.625  27.030  1.00  0.00     0.134 A 
ATOM    104  C   UNL A   1      35.328  29.283  27.365  1.00  0.00     0.001 A 
ATOM    105  C   UNL A   1      33.942  31.212  27.772  1.00  0.00     0.040 A 
ATOM    106  F   UNL A   1      31.760  31.295  26.912  1.00  0.00    -0.206 F 
ATOM    107  C   UNL A   1      35.153  30.542  27.935  1.00  0.00     0.003 A 
ENDBRANCH  93 101
ENDBRANCH  87  89
ENDBRANCH  80  83
ENDBRANCH  78  79
ENDBRANCH  77  78
ENDBRANCH  76  77
ENDBRANCH   1  76
TORSDOF 19
ENDMDL
MODEL 3
REMARK VINA RESULT:     -12.9      6.379     12.178
REMARK SMILES O=C(NCCCCCCNC(=O)[C@H]1CCCN(c2cc(-c3ccccn3)nc(-c3ccccc3F)n2)C1)c1ccc(-c2c3nc(c(-c4c(F)cc(S(=O)(=O)[O-])cc4F)c4ccc([nH]4)c(-c4c(F)cc(S(=O)(=O)[O-])cc4F)c4nc(c(-c5c(F)cc(S(=O)(=O)[O-])cc5F)c5ccc2[nH]5)C=C4)C=C3)cc1
REMARK SMILES IDX 6 1 5 2 4 3 3 4 1 5 2 6 38 8 39 9 103 10 40 11 102 12 41 13
REMARK SMILES IDX 42 14 43 15 96 16 44 17 101 18 95 19 97 20 45 21 100 22
REMARK SMILES IDX 94 23 93 24 46 26 80 27 59 28 79 29 60 30 63 31 78 32 98 33
REMARK SMILES IDX 61 34 62 35 77 37 99 38 64 39 47 40 48 41 57 42 49 43 50 44
REMARK SMILES IDX 56 45 58 46 51 47 52 48 53 49 54 50 55 51 81 52 82 53 91 54
REMARK SMILES IDX 83 55 84 56 90 57 92 58 85 59 86 60 87 61 88 62 89 63 65 64
REMARK SMILES IDX 66 65 75 66 67 67 68 68 74 69 76 70 69 71 70 72 71 73 72 74
REMARK SMILES IDX 73 75 7 76 8 77 9 78 10 79 11 80 12 82 13 83 14 84 37 85
REMARK SMILES IDX 15 86 17 87 16 88 18 89 19 90 36 91 20 92 28 93 27 94 21 95
REMARK SMILES IDX 22 96 26 97 23 98 25 99 24 100 29 101 30 102 34 103 31 104
REMARK SMILES IDX 33 105 35 106 32 107
REMARK H PARENT 3 7 97 25 63 36 10 81
REMARK Flexibility Score: inf
ROOT
ATOM      1  C   UNL A   1      37.768  22.760  25.650  1.00  0.00     0.002 C 
ENDROOT
BRANCH   1   2
ATOM      2  C   UNL A   1      38.459  23.938  26.335  1.00  0.00     0.021 C 
BRANCH   2   3
ATOM      3  C   UNL A   1      39.879  23.653  26.801  1.00  0.00     0.116 C 
BRANCH   3   4
ATOM      4  N   UNL A   1      40.871  24.231  25.911  1.00  0.00    -0.352 N 
ATOM      5  O   UNL A   1      42.138  25.883  25.045  1.00  0.00    -0.269 OA
ATOM      6  C   UNL A   1      41.472  25.461  25.987  1.00  0.00     0.251 C 
ATOM      7  H   UNL A   1      41.147  23.665  25.154  1.00  0.00     0.163 HD
BRANCH   6   8
ATOM      8  C   UNL A   1      41.299  26.279  27.206  1.00  0.00     0.039 A 
ATOM      9  C   UNL A   1      42.029  27.460  27.375  1.00  0.00     0.014 A 
ATOM     10  C   UNL A   1      40.385  25.870  28.180  1.00  0.00     0.014 A 
ATOM     11  C   UNL A   1      41.916  28.180  28.557  1.00  0.00     0.010 A 
ATOM     12  C   UNL A   1      40.215  26.637  29.335  1.00  0.00     0.010 A 
ATOM     13  C   UNL A   1      40.982  27.796  29.532  1.00  0.00    -0.014 A 
BRANCH  13  14
ATOM     14  C   UNL A   1      40.723  28.692  30.685  1.00  0.00     0.031 A 
ATOM     15  C   UNL A   1      39.642  29.731  30.641  1.00  0.00     0.074 A 
ATOM     16  C   UNL A   1      41.504  28.559  31.776  1.00  0.00     0.049 A 
ATOM     17  N   UNL A   1      39.330  30.624  31.544  1.00  0.00    -0.248 NA
ATOM     18  C   UNL A   1      38.801  29.782  29.433  1.00  0.00     0.031 C 
ATOM     19  C   UNL A   1      42.595  27.587  31.913  1.00  0.00     0.029 A 
ATOM     20  N   UNL A   1      41.515  29.235  32.969  1.00  0.00    -0.354 N 
ATOM     21  C   UNL A   1      38.276  31.355  31.012  1.00  0.00     0.074 A 
ATOM     22  C   UNL A   1      38.003  30.810  29.700  1.00  0.00     0.031 C 
ATOM     23  C   UNL A   1      43.152  27.716  33.124  1.00  0.00     0.029 A 
ATOM     24  C   UNL A   1      42.511  28.823  33.823  1.00  0.00     0.049 A 
ATOM     25  H   UNL A   1      40.871  29.945  33.193  1.00  0.00     0.167 HD
ATOM     26  C   UNL A   1      37.602  32.383  31.579  1.00  0.00     0.037 A 
ATOM     27  C   UNL A   1      42.899  29.306  35.018  1.00  0.00     0.037 A 
ATOM     28  C   UNL A   1      37.877  32.897  32.898  1.00  0.00     0.049 A 
ATOM     29  C   UNL A   1      42.159  30.474  35.602  1.00  0.00     0.074 A 
ATOM     30  C   UNL A   1      37.202  33.891  33.585  1.00  0.00     0.029 A 
ATOM     31  N   UNL A   1      38.909  32.471  33.720  1.00  0.00    -0.354 N 
ATOM     32  N   UNL A   1      41.126  31.116  35.109  1.00  0.00    -0.248 NA
ATOM     33  C   UNL A   1      42.635  30.993  36.889  1.00  0.00     0.031 C 
ATOM     34  C   UNL A   1      37.860  34.107  34.798  1.00  0.00     0.029 A 
ATOM     35  C   UNL A   1      38.914  33.211  34.891  1.00  0.00     0.049 A 
ATOM     36  H   UNL A   1      39.543  31.750  33.504  1.00  0.00     0.167 HD
ATOM     37  C   UNL A   1      40.829  32.114  36.027  1.00  0.00     0.074 A 
ATOM     38  C   UNL A   1      41.773  31.977  37.115  1.00  0.00     0.031 C 
ATOM     39  C   UNL A   1      39.863  33.062  35.966  1.00  0.00     0.037 A 
BRANCH  26  40
ATOM     40  C   UNL A   1      36.496  33.041  30.801  1.00  0.00     0.058 A 
ATOM     41  C   UNL A   1      36.800  33.922  29.750  1.00  0.00     0.135 A 
ATOM     42  C   UNL A   1      35.153  32.914  31.183  1.00  0.00     0.135 A 
ATOM     43  F   UNL A   1      38.069  34.077  29.341  1.00  0.00    -0.206 F 
ATOM     44  C   UNL A   1      35.813  34.682  29.129  1.00  0.00     0.059 A 
ATOM     45  C   UNL A   1      34.146  33.649  30.561  1.00  0.00     0.059 A 
ATOM     46  F   UNL A   1      34.807  32.071  32.170  1.00  0.00    -0.206 F 
ATOM     47  C   UNL A   1      34.490  34.547  29.551  1.00  0.00     0.060 A 
BRANCH  47  48
ATOM     48  S   UNL A   1      33.225  35.560  28.753  1.00  0.00     0.124 S 
ATOM     49  O   UNL A   1      34.031  36.515  28.003  1.00  0.00    -0.237 OA
ATOM     50  O   UNL A   1      32.501  34.573  27.957  1.00  0.00    -0.237 OA
ATOM     51  O   UNL A   1      32.477  36.114  29.878  1.00  0.00    -0.744 OA
ENDBRANCH  47  48
ENDBRANCH  26  40
BRANCH  27  52
ATOM     52  C   UNL A   1      44.070  28.704  35.707  1.00  0.00     0.058 A 
ATOM     53  C   UNL A   1      43.902  27.694  36.668  1.00  0.00     0.135 A 
ATOM     54  C   UNL A   1      45.373  29.155  35.453  1.00  0.00     0.135 A 
ATOM     55  F   UNL A   1      42.674  27.236  36.957  1.00  0.00    -0.206 F 
ATOM     56  C   UNL A   1      44.979  27.173  37.374  1.00  0.00     0.059 A 
ATOM     57  C   UNL A   1      46.471  28.628  36.127  1.00  0.00     0.059 A 
ATOM     58  F   UNL A   1      45.584  30.113  34.537  1.00  0.00    -0.206 F 
ATOM     59  C   UNL A   1      46.261  27.648  37.096  1.00  0.00     0.060 A 
BRANCH  59  60
ATOM     60  S   UNL A   1      47.648  26.954  38.021  1.00  0.00     0.124 S 
ATOM     61  O   UNL A   1      46.997  25.875  38.757  1.00  0.00    -0.237 OA
ATOM     62  O   UNL A   1      48.552  26.540  36.954  1.00  0.00    -0.237 OA
ATOM     63  O   UNL A   1      48.110  28.078  38.829  1.00  0.00    -0.744 OA
ENDBRANCH  59  60
ENDBRANCH  27  52
BRANCH  39  64
ATOM     64  C   UNL A   1      39.771  34.039  37.102  1.00  0.00     0.058 A 
ATOM     65  C   UNL A   1      40.518  35.228  37.082  1.00  0.00     0.135 A 
ATOM     66  C   UNL A   1      39.035  33.742  38.259  1.00  0.00     0.135 A 
ATOM     67  F   UNL A   1      41.239  35.556  35.998  1.00  0.00    -0.206 F 
ATOM     68  C   UNL A   1      40.569  36.070  38.186  1.00  0.00     0.059 A 
ATOM     69  C   UNL A   1      39.052  34.583  39.367  1.00  0.00     0.059 A 
ATOM     70  F   UNL A   1      38.292  32.625  38.318  1.00  0.00    -0.206 F 
ATOM     71  C   UNL A   1      39.842  35.732  39.329  1.00  0.00     0.060 A 
BRANCH  71  72
ATOM     72  S   UNL A   1      39.953  36.816  40.767  1.00  0.00     0.124 S 
ATOM     73  O   UNL A   1      40.424  35.899  41.798  1.00  0.00    -0.237 OA
ATOM     74  O   UNL A   1      40.914  37.820  40.321  1.00  0.00    -0.237 OA
ATOM     75  O   UNL A   1      38.584  37.300  40.935  1.00  0.00    -0.744 OA
ENDBRANCH  71  72
ENDBRANCH  39  64
ENDBRANCH  13  14
ENDBRANCH   6   8
ENDBRANCH   3   4
ENDBRANCH   2   3
ENDBRANCH   1   2
BRANCH   1  76
ATOM     76  C   UNL A   1      36.276  22.607  25.964  1.00  0.00     0.002 C 
BRANCH  76  77
ATOM     77  C   UNL A   1      35.596  21.384  25.339  1.00  0.00     0.021 C 
BRANCH  77  78
ATOM     78  C   UNL A   1      34.100  21.545  25.090  1.00  0.00     0.116 C 
BRANCH  78  79
ATOM     79  N   UNL A   1      33.390  21.892  26.309  1.00  0.00    -0.356 N 
ATOM     80  C   UNL A   1      32.449  22.857  26.506  1.00  0.00     0.224 C 
ATOM     81  H   UNL A   1      33.621  21.356  27.101  1.00  0.00     0.163 HD
ATOM     82  O   UNL A   1      31.955  22.977  27.627  1.00  0.00    -0.275 OA
BRANCH  80  83
ATOM     83  C   UNL A   1      32.083  23.769  25.352  1.00  0.00     0.098 C 
ATOM     84  C   UNL A   1      31.369  22.998  24.234  1.00  0.00     0.017 C 
ATOM     85  C   UNL A   1      31.185  24.884  25.886  1.00  0.00     0.131 C 
ATOM     86  C   UNL A   1      30.952  23.958  23.119  1.00  0.00     0.022 C 
ATOM     87  N   UNL A   1      30.712  25.718  24.786  1.00  0.00    -0.356 N 
ATOM     88  C   UNL A   1      30.058  25.078  23.655  1.00  0.00     0.118 C 
BRANCH  87  89
ATOM     89  C   UNL A   1      30.938  27.076  24.823  1.00  0.00     0.133 A 
ATOM     90  C   UNL A   1      31.891  27.597  25.672  1.00  0.00     0.077 A 
ATOM     91  N   UNL A   1      30.236  27.869  23.996  1.00  0.00    -0.211 NA
ATOM     92  C   UNL A   1      32.121  28.957  25.624  1.00  0.00     0.095 A 
ATOM     93  C   UNL A   1      30.492  29.192  24.042  1.00  0.00     0.165 A 
ATOM     94  N   UNL A   1      31.421  29.773  24.815  1.00  0.00    -0.226 NA
BRANCH  92  95
ATOM     95  C   UNL A   1      33.188  29.567  26.426  1.00  0.00     0.089 A 
ATOM     96  C   UNL A   1      34.345  28.856  26.750  1.00  0.00     0.030 A 
ATOM     97  N   UNL A   1      32.969  30.829  26.877  1.00  0.00    -0.255 NA
ATOM     98  C   UNL A   1      35.312  29.459  27.549  1.00  0.00     0.004 A 
ATOM     99  C   UNL A   1      33.933  31.397  27.633  1.00  0.00     0.112 A 
ATOM    100  C   UNL A   1      35.105  30.757  27.998  1.00  0.00     0.020 A 
ENDBRANCH  92  95
BRANCH  93 101
ATOM    101  C   UNL A   1      29.638  30.073  23.252  1.00  0.00     0.055 A 
ATOM    102  C   UNL A   1      29.138  29.668  21.999  1.00  0.00     0.015 A 
ATOM    103  C   UNL A   1      29.252  31.330  23.729  1.00  0.00     0.134 A 
ATOM    104  C   UNL A   1      28.268  30.487  21.270  1.00  0.00     0.001 A 
ATOM    105  C   UNL A   1      28.393  32.156  23.004  1.00  0.00     0.040 A 
ATOM    106  F   UNL A   1      29.724  31.785  24.901  1.00  0.00    -0.206 F 
ATOM    107  C   UNL A   1      27.895  31.731  21.775  1.00  0.00     0.003 A 
ENDBRANCH  93 101
ENDBRANCH  87  89
ENDBRANCH  80  83
ENDBRANCH  78  79
ENDBRANCH  77  78
ENDBRANCH  76  77
ENDBRANCH   1  76
TORSDOF 19
ENDMDL
