MODEL 1
REMARK VINA RESULT:     -11.6      0.000      0.000
REMARK SMILES Cc1nn(C)c2c1nc(SCC(=O)NCCCCCCNC(=O)c1ccc(-c3c4nc(c(-c5c(F)cc(S(=O)(=O)[O-])cc5F)c5ccc([nH]5)c(-c5c(F)cc(S(=O)(=O)[O-])cc5F)c5nc(c(-c6c(F)cc(S(=O)(=O)[O-])cc6F)c6ccc3[nH]6)C=C5)C=C4)cc1)n2[C@H]1CC[N@@H+](C)C1
REMARK SMILES IDX 17 1 16 2 15 3 14 4 12 5 13 6 11 8 10 9 9 10 1 11 2 12 3 13
REMARK SMILES IDX 7 14 4 15 6 16 8 17 5 18 90 19 91 20 92 21 96 22 93 23 94 24
REMARK SMILES IDX 95 25 18 27 19 28 20 29 21 30 22 31 23 33 24 34 25 35 89 36
REMARK SMILES IDX 26 37 88 38 27 39 28 40 29 41 82 42 30 43 87 44 81 45 83 46
REMARK SMILES IDX 31 47 86 48 80 49 79 50 32 52 66 53 45 54 65 55 46 56 49 57
REMARK SMILES IDX 64 58 84 59 47 60 48 61 63 63 85 64 50 65 33 66 34 67 43 68
REMARK SMILES IDX 35 69 36 70 42 71 44 72 37 73 38 74 39 75 40 76 41 77 67 78
REMARK SMILES IDX 68 79 77 80 69 81 70 82 76 83 78 84 71 85 72 86 73 87 74 88
REMARK SMILES IDX 75 89 51 90 52 91 61 92 53 93 54 94 60 95 62 96 55 97 56 98
REMARK SMILES IDX 57 99 58 100 59 101
REMARK H PARENT 14 7 94 26 21 32 83 51 49 62
REMARK Flexibility Score: inf
ROOT
ATOM      1  C   UNL A   1      39.112  21.691  26.213  1.00  0.00     0.002 C 
ENDROOT
BRANCH   1   2
ATOM      2  C   UNL A   1      38.688  23.150  26.450  1.00  0.00     0.021 C 
BRANCH   2   3
ATOM      3  C   UNL A   1      37.350  23.527  25.808  1.00  0.00     0.116 C 
BRANCH   3   4
ATOM      4  N   UNL A   1      37.425  23.444  24.359  1.00  0.00    -0.355 N 
ATOM      5  C   UNL A   1      36.612  22.872  23.427  1.00  0.00     0.230 C 
ATOM      6  O   UNL A   1      36.973  22.977  22.248  1.00  0.00    -0.274 OA
ATOM      7  H   UNL A   1      38.217  23.886  23.977  1.00  0.00     0.163 HD
BRANCH   5   8
ATOM      8  C   UNL A   1      35.247  22.322  23.761  1.00  0.00     0.178 C 
BRANCH   8   9
ATOM      9  S   UNL A   1      33.896  22.865  22.736  1.00  0.00    -0.078 SA
BRANCH   9  10
ATOM     10  C   UNL A   1      33.448  24.450  23.271  1.00  0.00     0.171 A 
ATOM     11  C   UNL A   1      33.860  28.942  22.781  1.00  0.00     0.071 C 
ATOM     12  C   UNL A   1      33.213  27.902  23.600  1.00  0.00     0.087 A 
ATOM     13  N   UNL A   1      32.456  28.261  24.649  1.00  0.00    -0.174 NA
ATOM     14  C   UNL A   1      33.258  26.510  23.512  1.00  0.00     0.132 A 
ATOM     15  N   UNL A   1      32.092  27.086  25.228  1.00  0.00    -0.250 N 
ATOM     16  C   UNL A   1      32.566  25.997  24.559  1.00  0.00     0.159 A 
ATOM     17  N   UNL A   1      33.812  25.583  22.703  1.00  0.00    -0.219 NA
ATOM     18  C   UNL A   1      31.296  27.172  26.422  1.00  0.00     0.176 C 
ATOM     19  N   UNL A   1      32.697  24.637  24.446  1.00  0.00    -0.295 N 
BRANCH  19  20
ATOM     20  C   UNL A   1      32.164  23.539  25.242  1.00  0.00     0.152 C 
ATOM     21  C   UNL A   1      32.703  23.468  26.693  1.00  0.00     0.093 C 
ATOM     22  C   UNL A   1      30.660  23.413  25.460  1.00  0.00     0.288 C 
ATOM     23  C   UNL A   1      31.505  23.199  27.583  1.00  0.00     0.264 C 
ATOM     24  N   UNL A   1      30.579  22.557  26.656  1.00  0.00    -0.336 N 
ATOM     25  C   UNL A   1      29.240  22.496  27.236  1.00  0.00     0.332 C 
ATOM     26  H   UNL A   1      30.804  21.586  26.436  1.00  0.00     0.347 HD
ENDBRANCH  19  20
ENDBRANCH   9  10
ENDBRANCH   8   9
ENDBRANCH   5   8
ENDBRANCH   3   4
ENDBRANCH   2   3
ENDBRANCH   1   2
BRANCH   1  27
ATOM     27  C   UNL A   1      40.491  21.289  26.763  1.00  0.00     0.002 C 
BRANCH  27  28
ATOM     28  C   UNL A   1      41.142  20.045  26.142  1.00  0.00     0.021 C 
BRANCH  28  29
ATOM     29  C   UNL A   1      42.474  19.665  26.770  1.00  0.00     0.116 C 
BRANCH  29  30
ATOM     30  N   UNL A   1      43.559  19.540  25.789  1.00  0.00    -0.352 N 
ATOM     31  C   UNL A   1      44.146  20.534  25.016  1.00  0.00     0.251 C 
ATOM     32  H   UNL A   1      43.919  18.632  25.663  1.00  0.00     0.163 HD
ATOM     33  O   UNL A   1      44.745  20.262  23.990  1.00  0.00    -0.269 OA
BRANCH  31  34
ATOM     34  C   UNL A   1      44.045  21.931  25.485  1.00  0.00     0.039 A 
ATOM     35  C   UNL A   1      43.285  22.909  24.836  1.00  0.00     0.014 A 
ATOM     36  C   UNL A   1      44.730  22.235  26.652  1.00  0.00     0.014 A 
ATOM     37  C   UNL A   1      43.184  24.175  25.420  1.00  0.00     0.010 A 
ATOM     38  C   UNL A   1      44.410  23.361  27.346  1.00  0.00     0.010 A 
ATOM     39  C   UNL A   1      43.752  24.386  26.685  1.00  0.00    -0.014 A 
BRANCH  39  40
ATOM     40  C   UNL A   1      43.614  25.627  27.438  1.00  0.00     0.031 A 
ATOM     41  C   UNL A   1      44.666  26.628  27.116  1.00  0.00     0.074 A 
ATOM     42  C   UNL A   1      42.464  25.927  28.094  1.00  0.00     0.049 A 
ATOM     43  N   UNL A   1      45.605  27.076  27.883  1.00  0.00    -0.248 NA
ATOM     44  C   UNL A   1      44.806  27.048  25.707  1.00  0.00     0.031 C 
ATOM     45  C   UNL A   1      41.230  25.127  28.173  1.00  0.00     0.029 A 
ATOM     46  N   UNL A   1      42.096  27.071  28.733  1.00  0.00    -0.354 N 
ATOM     47  C   UNL A   1      46.268  28.041  27.128  1.00  0.00     0.074 A 
ATOM     48  C   UNL A   1      45.914  27.790  25.758  1.00  0.00     0.031 C 
ATOM     49  C   UNL A   1      40.204  25.897  28.604  1.00  0.00     0.029 A 
ATOM     50  C   UNL A   1      40.728  27.191  28.997  1.00  0.00     0.049 A 
ATOM     51  H   UNL A   1      42.747  27.765  28.989  1.00  0.00     0.167 HD
ATOM     52  C   UNL A   1      46.791  29.154  27.714  1.00  0.00     0.037 A 
ATOM     53  C   UNL A   1      40.084  28.294  29.474  1.00  0.00     0.037 A 
ATOM     54  C   UNL A   1      46.900  28.979  29.143  1.00  0.00     0.049 A 
ATOM     55  C   UNL A   1      41.127  29.180  30.045  1.00  0.00     0.074 A 
ATOM     56  C   UNL A   1      47.532  28.064  29.964  1.00  0.00     0.029 A 
ATOM     57  N   UNL A   1      45.954  29.592  29.930  1.00  0.00    -0.354 N 
ATOM     58  N   UNL A   1      41.813  28.882  31.112  1.00  0.00    -0.248 NA
ATOM     59  C   UNL A   1      41.741  30.147  29.149  1.00  0.00     0.031 C 
ATOM     60  C   UNL A   1      46.613  27.826  31.027  1.00  0.00     0.029 A 
ATOM     61  C   UNL A   1      45.519  28.671  30.848  1.00  0.00     0.049 A 
ATOM     62  H   UNL A   1      45.645  30.523  29.847  1.00  0.00     0.167 HD
ATOM     63  C   UNL A   1      43.108  29.277  30.817  1.00  0.00     0.074 A 
ATOM     64  C   UNL A   1      42.991  30.111  29.620  1.00  0.00     0.031 C 
ATOM     65  C   UNL A   1      44.177  28.646  31.384  1.00  0.00     0.037 A 
BRANCH  52  66
ATOM     66  C   UNL A   1      46.810  30.524  27.070  1.00  0.00     0.058 A 
ATOM     67  C   UNL A   1      48.001  31.278  27.100  1.00  0.00     0.135 A 
ATOM     68  C   UNL A   1      45.654  31.238  26.678  1.00  0.00     0.135 A 
ATOM     69  F   UNL A   1      49.160  30.708  27.467  1.00  0.00    -0.206 F 
ATOM     70  C   UNL A   1      48.027  32.649  26.836  1.00  0.00     0.059 A 
ATOM     71  C   UNL A   1      45.668  32.590  26.354  1.00  0.00     0.059 A 
ATOM     72  F   UNL A   1      44.431  30.696  26.683  1.00  0.00    -0.206 F 
ATOM     73  C   UNL A   1      46.850  33.297  26.477  1.00  0.00     0.060 A 
BRANCH  73  74
ATOM     74  S   UNL A   1      46.856  35.080  26.230  1.00  0.00     0.124 S 
ATOM     75  O   UNL A   1      47.928  35.234  25.254  1.00  0.00    -0.237 OA
ATOM     76  O   UNL A   1      45.502  35.319  25.740  1.00  0.00    -0.237 OA
ATOM     77  O   UNL A   1      47.135  35.602  27.565  1.00  0.00    -0.744 OA
ENDBRANCH  73  74
ENDBRANCH  52  66
BRANCH  53  78
ATOM     78  C   UNL A   1      38.720  28.811  29.184  1.00  0.00     0.058 A 
ATOM     79  C   UNL A   1      37.765  29.041  30.200  1.00  0.00     0.135 A 
ATOM     80  C   UNL A   1      38.445  29.407  27.951  1.00  0.00     0.135 A 
ATOM     81  F   UNL A   1      37.957  28.531  31.426  1.00  0.00    -0.206 F 
ATOM     82  C   UNL A   1      36.631  29.853  30.016  1.00  0.00     0.059 A 
ATOM     83  C   UNL A   1      37.336  30.225  27.763  1.00  0.00     0.059 A 
ATOM     84  F   UNL A   1      39.297  29.312  26.920  1.00  0.00    -0.206 F 
ATOM     85  C   UNL A   1      36.437  30.466  28.787  1.00  0.00     0.060 A 
BRANCH  85  86
ATOM     86  S   UNL A   1      35.101  31.664  28.529  1.00  0.00     0.124 S 
ATOM     87  O   UNL A   1      35.746  32.655  27.678  1.00  0.00    -0.237 OA
ATOM     88  O   UNL A   1      34.065  30.846  27.911  1.00  0.00    -0.237 OA
ATOM     89  O   UNL A   1      34.795  32.122  29.884  1.00  0.00    -0.744 OA
ENDBRANCH  85  86
ENDBRANCH  53  78
BRANCH  65  90
ATOM     90  C   UNL A   1      43.917  27.699  32.528  1.00  0.00     0.058 A 
ATOM     91  C   UNL A   1      43.593  28.088  33.842  1.00  0.00     0.135 A 
ATOM     92  C   UNL A   1      43.848  26.330  32.235  1.00  0.00     0.135 A 
ATOM     93  F   UNL A   1      43.541  29.383  34.184  1.00  0.00    -0.206 F 
ATOM     94  C   UNL A   1      43.251  27.156  34.826  1.00  0.00     0.059 A 
ATOM     95  C   UNL A   1      43.481  25.387  33.189  1.00  0.00     0.059 A 
ATOM     96  F   UNL A   1      44.090  25.899  30.985  1.00  0.00    -0.206 F 
ATOM     97  C   UNL A   1      43.196  25.806  34.487  1.00  0.00     0.060 A 
BRANCH  97  98
ATOM     98  S   UNL A   1      42.691  24.601  35.733  1.00  0.00     0.124 S 
ATOM     99  O   UNL A   1      42.897  23.334  35.038  1.00  0.00    -0.237 OA
ATOM    100  O   UNL A   1      43.610  24.877  36.833  1.00  0.00    -0.237 OA
ATOM    101  O   UNL A   1      41.295  24.947  35.997  1.00  0.00    -0.744 OA
ENDBRANCH  97  98
ENDBRANCH  65  90
ENDBRANCH  39  40
ENDBRANCH  31  34
ENDBRANCH  29  30
ENDBRANCH  28  29
ENDBRANCH  27  28
ENDBRANCH   1  27
TORSDOF 19
ENDMDL
MODEL 2
REMARK VINA RESULT:     -11.5      0.947      2.355
REMARK SMILES Cc1nn(C)c2c1nc(SCC(=O)NCCCCCCNC(=O)c1ccc(-c3c4nc(c(-c5c(F)cc(S(=O)(=O)[O-])cc5F)c5ccc([nH]5)c(-c5c(F)cc(S(=O)(=O)[O-])cc5F)c5nc(c(-c6c(F)cc(S(=O)(=O)[O-])cc6F)c6ccc3[nH]6)C=C5)C=C4)cc1)n2[C@H]1CC[N@@H+](C)C1
REMARK SMILES IDX 17 1 16 2 15 3 14 4 12 5 13 6 11 8 10 9 9 10 1 11 2 12 3 13
REMARK SMILES IDX 7 14 4 15 6 16 8 17 5 18 90 19 91 20 92 21 96 22 93 23 94 24
REMARK SMILES IDX 95 25 18 27 19 28 20 29 21 30 22 31 23 33 24 34 25 35 89 36
REMARK SMILES IDX 26 37 88 38 27 39 28 40 29 41 82 42 30 43 87 44 81 45 83 46
REMARK SMILES IDX 31 47 86 48 80 49 79 50 32 52 66 53 45 54 65 55 46 56 49 57
REMARK SMILES IDX 64 58 84 59 47 60 48 61 63 63 85 64 50 65 33 66 34 67 43 68
REMARK SMILES IDX 35 69 36 70 42 71 44 72 37 73 38 74 39 75 40 76 41 77 67 78
REMARK SMILES IDX 68 79 77 80 69 81 70 82 76 83 78 84 71 85 72 86 73 87 74 88
REMARK SMILES IDX 75 89 51 90 52 91 61 92 53 93 54 94 60 95 62 96 55 97 56 98
REMARK SMILES IDX 57 99 58 100 59 101
REMARK H PARENT 14 7 94 26 21 32 83 51 49 62
REMARK Flexibility Score: inf
ROOT
ATOM      1  C   UNL A   1      40.280  21.649  27.492  1.00  0.00     0.002 C 
ENDROOT
BRANCH   1   2
ATOM      2  C   UNL A   1      39.760  22.389  26.248  1.00  0.00     0.021 C 
BRANCH   2   3
ATOM      3  C   UNL A   1      38.471  21.805  25.663  1.00  0.00     0.116 C 
BRANCH   3   4
ATOM      4  N   UNL A   1      37.301  22.355  26.326  1.00  0.00    -0.355 N 
ATOM      5  C   UNL A   1      36.146  22.901  25.852  1.00  0.00     0.230 C 
ATOM      6  O   UNL A   1      35.334  23.287  26.702  1.00  0.00    -0.274 OA
ATOM      7  H   UNL A   1      37.353  22.327  27.308  1.00  0.00     0.163 HD
BRANCH   5   8
ATOM      8  C   UNL A   1      35.761  22.858  24.393  1.00  0.00     0.178 C 
BRANCH   8   9
ATOM      9  S   UNL A   1      34.273  21.969  23.986  1.00  0.00    -0.078 SA
BRANCH   9  10
ATOM     10  C   UNL A   1      32.955  22.795  24.745  1.00  0.00     0.171 A 
ATOM     11  C   UNL A   1      29.396  22.613  27.554  1.00  0.00     0.071 C 
ATOM     12  C   UNL A   1      30.140  23.512  26.654  1.00  0.00     0.087 A 
ATOM     13  N   UNL A   1      29.708  24.769  26.469  1.00  0.00    -0.174 NA
ATOM     14  C   UNL A   1      31.276  23.289  25.875  1.00  0.00     0.132 A 
ATOM     15  N   UNL A   1      30.549  25.287  25.534  1.00  0.00    -0.250 N 
ATOM     16  C   UNL A   1      31.517  24.408  25.149  1.00  0.00     0.159 A 
ATOM     17  N   UNL A   1      32.143  22.281  25.647  1.00  0.00    -0.219 NA
ATOM     18  C   UNL A   1      30.288  26.633  25.105  1.00  0.00     0.176 C 
ATOM     19  N   UNL A   1      32.603  24.105  24.369  1.00  0.00    -0.295 N 
BRANCH  19  20
ATOM     20  C   UNL A   1      33.357  24.893  23.402  1.00  0.00     0.152 C 
ATOM     21  C   UNL A   1      32.761  24.909  21.972  1.00  0.00     0.093 C 
ATOM     22  C   UNL A   1      33.606  26.376  23.653  1.00  0.00     0.288 C 
ATOM     23  C   UNL A   1      32.826  26.347  21.496  1.00  0.00     0.264 C 
ATOM     24  N   UNL A   1      33.915  26.883  22.306  1.00  0.00    -0.336 N 
ATOM     25  C   UNL A   1      33.936  28.341  22.225  1.00  0.00     0.332 C 
ATOM     26  H   UNL A   1      34.847  26.600  22.004  1.00  0.00     0.347 HD
ENDBRANCH  19  20
ENDBRANCH   9  10
ENDBRANCH   8   9
ENDBRANCH   5   8
ENDBRANCH   3   4
ENDBRANCH   2   3
ENDBRANCH   1   2
BRANCH   1  27
ATOM     27  C   UNL A   1      41.796  21.399  27.547  1.00  0.00     0.002 C 
BRANCH  27  28
ATOM     28  C   UNL A   1      42.278  20.005  27.121  1.00  0.00     0.021 C 
BRANCH  28  29
ATOM     29  C   UNL A   1      42.369  19.816  25.614  1.00  0.00     0.116 C 
BRANCH  29  30
ATOM     30  N   UNL A   1      43.746  19.623  25.140  1.00  0.00    -0.352 N 
ATOM     31  C   UNL A   1      44.669  20.585  24.746  1.00  0.00     0.251 C 
ATOM     32  H   UNL A   1      44.056  18.690  25.098  1.00  0.00     0.163 HD
ATOM     33  O   UNL A   1      45.608  20.297  24.026  1.00  0.00    -0.269 OA
BRANCH  31  34
ATOM     34  C   UNL A   1      44.492  21.964  25.244  1.00  0.00     0.039 A 
ATOM     35  C   UNL A   1      43.591  22.876  24.685  1.00  0.00     0.014 A 
ATOM     36  C   UNL A   1      45.256  22.318  26.346  1.00  0.00     0.014 A 
ATOM     37  C   UNL A   1      43.437  24.123  25.295  1.00  0.00     0.010 A 
ATOM     38  C   UNL A   1      44.907  23.408  27.084  1.00  0.00     0.010 A 
ATOM     39  C   UNL A   1      44.103  24.375  26.504  1.00  0.00    -0.014 A 
BRANCH  39  40
ATOM     40  C   UNL A   1      43.930  25.594  27.285  1.00  0.00     0.031 A 
ATOM     41  C   UNL A   1      44.956  26.630  26.990  1.00  0.00     0.074 A 
ATOM     42  C   UNL A   1      42.771  25.848  27.945  1.00  0.00     0.049 A 
ATOM     43  N   UNL A   1      45.881  27.084  27.770  1.00  0.00    -0.248 NA
ATOM     44  C   UNL A   1      45.089  27.086  25.593  1.00  0.00     0.031 C 
ATOM     45  C   UNL A   1      41.558  25.014  28.001  1.00  0.00     0.029 A 
ATOM     46  N   UNL A   1      42.371  26.967  28.609  1.00  0.00    -0.354 N 
ATOM     47  C   UNL A   1      46.519  28.084  27.040  1.00  0.00     0.074 A 
ATOM     48  C   UNL A   1      46.176  27.856  25.664  1.00  0.00     0.031 C 
ATOM     49  C   UNL A   1      40.511  25.746  28.446  1.00  0.00     0.029 A 
ATOM     50  C   UNL A   1      40.999  27.044  28.871  1.00  0.00     0.049 A 
ATOM     51  H   UNL A   1      43.002  27.670  28.884  1.00  0.00     0.167 HD
ATOM     52  C   UNL A   1      47.011  29.196  27.654  1.00  0.00     0.037 A 
ATOM     53  C   UNL A   1      40.326  28.118  29.373  1.00  0.00     0.037 A 
ATOM     54  C   UNL A   1      47.122  28.990  29.079  1.00  0.00     0.049 A 
ATOM     55  C   UNL A   1      41.343  29.017  29.968  1.00  0.00     0.074 A 
ATOM     56  C   UNL A   1      47.776  28.073  29.880  1.00  0.00     0.029 A 
ATOM     57  N   UNL A   1      46.158  29.559  29.877  1.00  0.00    -0.354 N 
ATOM     58  N   UNL A   1      42.034  28.712  31.030  1.00  0.00    -0.248 NA
ATOM     59  C   UNL A   1      41.933  30.021  29.097  1.00  0.00     0.031 C 
ATOM     60  C   UNL A   1      46.860  27.786  30.934  1.00  0.00     0.029 A 
ATOM     61  C   UNL A   1      45.745  28.606  30.772  1.00  0.00     0.049 A 
ATOM     62  H   UNL A   1      45.824  30.483  29.816  1.00  0.00     0.167 HD
ATOM     63  C   UNL A   1      43.319  29.148  30.748  1.00  0.00     0.074 A 
ATOM     64  C   UNL A   1      43.183  30.007  29.570  1.00  0.00     0.031 C 
ATOM     65  C   UNL A   1      44.403  28.533  31.303  1.00  0.00     0.037 A 
BRANCH  52  66
ATOM     66  C   UNL A   1      46.996  30.581  27.042  1.00  0.00     0.058 A 
ATOM     67  C   UNL A   1      48.187  31.335  27.026  1.00  0.00     0.135 A 
ATOM     68  C   UNL A   1      45.821  31.303  26.731  1.00  0.00     0.135 A 
ATOM     69  F   UNL A   1      49.364  30.758  27.316  1.00  0.00    -0.206 F 
ATOM     70  C   UNL A   1      48.199  32.712  26.794  1.00  0.00     0.059 A 
ATOM     71  C   UNL A   1      45.818  32.662  26.438  1.00  0.00     0.059 A 
ATOM     72  F   UNL A   1      44.600  30.760  26.789  1.00  0.00    -0.206 F 
ATOM     73  C   UNL A   1      47.005  33.367  26.514  1.00  0.00     0.060 A 
BRANCH  73  74
ATOM     74  S   UNL A   1      46.997  35.155  26.310  1.00  0.00     0.124 S 
ATOM     75  O   UNL A   1      45.759  35.357  25.567  1.00  0.00    -0.237 OA
ATOM     76  O   UNL A   1      46.998  35.615  27.694  1.00  0.00    -0.237 OA
ATOM     77  O   UNL A   1      48.228  35.413  25.569  1.00  0.00    -0.744 OA
ENDBRANCH  73  74
ENDBRANCH  52  66
BRANCH  53  78
ATOM     78  C   UNL A   1      38.949  28.605  29.091  1.00  0.00     0.058 A 
ATOM     79  C   UNL A   1      37.986  28.788  30.109  1.00  0.00     0.135 A 
ATOM     80  C   UNL A   1      38.661  29.221  27.870  1.00  0.00     0.135 A 
ATOM     81  F   UNL A   1      38.190  28.257  31.324  1.00  0.00    -0.206 F 
ATOM     82  C   UNL A   1      36.831  29.575  29.940  1.00  0.00     0.059 A 
ATOM     83  C   UNL A   1      37.531  30.013  27.697  1.00  0.00     0.059 A 
ATOM     84  F   UNL A   1      39.517  29.169  26.839  1.00  0.00    -0.206 F 
ATOM     85  C   UNL A   1      36.624  30.208  28.723  1.00  0.00     0.060 A 
BRANCH  85  86
ATOM     86  S   UNL A   1      35.258  31.376  28.488  1.00  0.00     0.124 S 
ATOM     87  O   UNL A   1      35.857  32.366  27.603  1.00  0.00    -0.237 OA
ATOM     88  O   UNL A   1      34.220  30.530  27.915  1.00  0.00    -0.237 OA
ATOM     89  O   UNL A   1      34.985  31.850  29.844  1.00  0.00    -0.744 OA
ENDBRANCH  85  86
ENDBRANCH  53  78
BRANCH  65  90
ATOM     90  C   UNL A   1      44.165  27.552  32.423  1.00  0.00     0.058 A 
ATOM     91  C   UNL A   1      43.861  27.903  33.753  1.00  0.00     0.135 A 
ATOM     92  C   UNL A   1      44.096  26.192  32.093  1.00  0.00     0.135 A 
ATOM     93  F   UNL A   1      43.810  29.187  34.133  1.00  0.00    -0.206 F 
ATOM     94  C   UNL A   1      43.539  26.942  34.716  1.00  0.00     0.059 A 
ATOM     95  C   UNL A   1      43.749  25.220  33.025  1.00  0.00     0.059 A 
ATOM     96  F   UNL A   1      44.319  25.798  30.828  1.00  0.00    -0.206 F 
ATOM     97  C   UNL A   1      43.483  25.601  34.339  1.00  0.00     0.060 A 
BRANCH  97  98
ATOM     98  S   UNL A   1      43.003  24.359  35.559  1.00  0.00     0.124 S 
ATOM     99  O   UNL A   1      43.621  24.870  36.778  1.00  0.00    -0.237 OA
ATOM    100  O   UNL A   1      41.545  24.418  35.515  1.00  0.00    -0.237 OA
ATOM    101  O   UNL A   1      43.583  23.124  35.036  1.00  0.00    -0.744 OA
ENDBRANCH  97  98
ENDBRANCH  65  90
ENDBRANCH  39  40
ENDBRANCH  31  34
ENDBRANCH  29  30
ENDBRANCH  28  29
ENDBRANCH  27  28
ENDBRANCH   1  27
TORSDOF 19
ENDMDL
MODEL 3
REMARK VINA RESULT:     -11.4      2.455      3.622
REMARK SMILES Cc1nn(C)c2c1nc(SCC(=O)NCCCCCCNC(=O)c1ccc(-c3c4nc(c(-c5c(F)cc(S(=O)(=O)[O-])cc5F)c5ccc([nH]5)c(-c5c(F)cc(S(=O)(=O)[O-])cc5F)c5nc(c(-c6c(F)cc(S(=O)(=O)[O-])cc6F)c6ccc3[nH]6)C=C5)C=C4)cc1)n2[C@H]1CC[N@@H+](C)C1
REMARK SMILES IDX 17 1 16 2 15 3 14 4 12 5 13 6 11 8 10 9 9 10 1 11 2 12 3 13
REMARK SMILES IDX 7 14 4 15 6 16 8 17 5 18 90 19 91 20 92 21 96 22 93 23 94 24
REMARK SMILES IDX 95 25 18 27 19 28 20 29 21 30 22 31 23 33 24 34 25 35 89 36
REMARK SMILES IDX 26 37 88 38 27 39 28 40 29 41 82 42 30 43 87 44 81 45 83 46
REMARK SMILES IDX 31 47 86 48 80 49 79 50 32 52 66 53 45 54 65 55 46 56 49 57
REMARK SMILES IDX 64 58 84 59 47 60 48 61 63 63 85 64 50 65 33 66 34 67 43 68
REMARK SMILES IDX 35 69 36 70 42 71 44 72 37 73 38 74 39 75 40 76 41 77 67 78
REMARK SMILES IDX 68 79 77 80 69 81 70 82 76 83 78 84 71 85 72 86 73 87 74 88
REMARK SMILES IDX 75 89 51 90 52 91 61 92 53 93 54 94 60 95 62 96 55 97 56 98
REMARK SMILES IDX 57 99 58 100 59 101
REMARK H PARENT 14 7 94 26 21 32 83 51 49 62
REMARK Flexibility Score: inf
ROOT
ATOM      1  C   UNL A   1      37.085  21.450  24.661  1.00  0.00     0.002 C 
ENDROOT
BRANCH   1   2
ATOM      2  C   UNL A   1      36.737  22.930  24.426  1.00  0.00     0.021 C 
BRANCH   2   3
ATOM      3  C   UNL A   1      35.235  23.228  24.410  1.00  0.00     0.116 C 
BRANCH   3   4
ATOM      4  N   UNL A   1      34.693  23.102  23.068  1.00  0.00    -0.355 N 
ATOM      5  C   UNL A   1      33.561  23.586  22.483  1.00  0.00     0.230 C 
ATOM      6  O   UNL A   1      33.386  23.284  21.296  1.00  0.00    -0.274 OA
ATOM      7  H   UNL A   1      35.252  22.562  22.464  1.00  0.00     0.163 HD
BRANCH   5   8
ATOM      8  C   UNL A   1      32.666  24.601  23.152  1.00  0.00     0.178 C 
BRANCH   8   9
ATOM      9  S   UNL A   1      32.500  26.176  22.340  1.00  0.00    -0.078 SA
BRANCH   9  10
ATOM     10  C   UNL A   1      32.627  27.400  23.557  1.00  0.00     0.171 A 
ATOM     11  C   UNL A   1      34.764  28.967  27.241  1.00  0.00     0.071 C 
ATOM     12  C   UNL A   1      33.641  29.239  26.327  1.00  0.00     0.087 A 
ATOM     13  N   UNL A   1      32.841  30.293  26.557  1.00  0.00    -0.174 NA
ATOM     14  C   UNL A   1      33.193  28.551  25.199  1.00  0.00     0.132 A 
ATOM     15  N   UNL A   1      31.876  30.206  25.603  1.00  0.00    -0.250 N 
ATOM     16  C   UNL A   1      32.061  29.153  24.758  1.00  0.00     0.159 A 
ATOM     17  N   UNL A   1      33.565  27.471  24.481  1.00  0.00    -0.219 NA
ATOM     18  C   UNL A   1      30.840  31.201  25.639  1.00  0.00     0.176 C 
ATOM     19  N   UNL A   1      31.644  28.399  23.691  1.00  0.00    -0.295 N 
BRANCH  19  20
ATOM     20  C   UNL A   1      30.516  28.542  22.781  1.00  0.00     0.152 C 
ATOM     21  C   UNL A   1      29.126  28.324  23.430  1.00  0.00     0.093 C 
ATOM     22  C   UNL A   1      30.305  29.849  22.024  1.00  0.00     0.288 C 
ATOM     23  C   UNL A   1      28.231  29.432  22.911  1.00  0.00     0.264 C 
ATOM     24  N   UNL A   1      28.882  29.780  21.652  1.00  0.00    -0.336 N 
ATOM     25  C   UNL A   1      28.354  31.042  21.140  1.00  0.00     0.332 C 
ATOM     26  H   UNL A   1      28.725  29.115  20.895  1.00  0.00     0.347 HD
ENDBRANCH  19  20
ENDBRANCH   9  10
ENDBRANCH   8   9
ENDBRANCH   5   8
ENDBRANCH   3   4
ENDBRANCH   2   3
ENDBRANCH   1   2
BRANCH   1  27
ATOM     27  C   UNL A   1      38.371  21.176  25.459  1.00  0.00     0.002 C 
BRANCH  27  28
ATOM     28  C   UNL A   1      39.034  22.388  26.129  1.00  0.00     0.021 C 
BRANCH  28  29
ATOM     29  C   UNL A   1      40.253  22.040  26.970  1.00  0.00     0.116 C 
BRANCH  29  30
ATOM     30  N   UNL A   1      41.473  21.864  26.172  1.00  0.00    -0.352 N 
ATOM     31  C   UNL A   1      42.274  22.839  25.588  1.00  0.00     0.251 C 
ATOM     32  H   UNL A   1      41.762  20.933  26.032  1.00  0.00     0.163 HD
ATOM     33  O   UNL A   1      43.010  22.572  24.655  1.00  0.00    -0.269 OA
BRANCH  31  34
ATOM     34  C   UNL A   1      42.226  24.205  26.148  1.00  0.00     0.039 A 
ATOM     35  C   UNL A   1      41.476  25.243  25.584  1.00  0.00     0.014 A 
ATOM     36  C   UNL A   1      42.952  24.415  27.311  1.00  0.00     0.014 A 
ATOM     37  C   UNL A   1      41.428  26.470  26.250  1.00  0.00     0.010 A 
ATOM     38  C   UNL A   1      42.683  25.503  28.083  1.00  0.00     0.010 A 
ATOM     39  C   UNL A   1      42.037  26.585  27.508  1.00  0.00    -0.014 A 
BRANCH  39  40
ATOM     40  C   UNL A   1      41.956  27.779  28.342  1.00  0.00     0.031 A 
ATOM     41  C   UNL A   1      43.078  28.729  28.116  1.00  0.00     0.074 A 
ATOM     42  C   UNL A   1      40.809  28.108  28.988  1.00  0.00     0.049 A 
ATOM     43  N   UNL A   1      44.021  29.062  28.935  1.00  0.00    -0.248 NA
ATOM     44  C   UNL A   1      43.286  29.233  26.744  1.00  0.00     0.031 C 
ATOM     45  C   UNL A   1      39.524  27.386  28.981  1.00  0.00     0.029 A 
ATOM     46  N   UNL A   1      40.495  29.228  29.695  1.00  0.00    -0.354 N 
ATOM     47  C   UNL A   1      44.765  30.030  28.266  1.00  0.00     0.074 A 
ATOM     48  C   UNL A   1      44.437  29.896  26.873  1.00  0.00     0.031 C 
ATOM     49  C   UNL A   1      38.537  28.191  29.438  1.00  0.00     0.029 A 
ATOM     50  C   UNL A   1      39.130  29.419  29.933  1.00  0.00     0.049 A 
ATOM     51  H   UNL A   1      41.180  29.858  30.015  1.00  0.00     0.167 HD
ATOM     52  C   UNL A   1      45.340  31.065  28.941  1.00  0.00     0.037 A 
ATOM     53  C   UNL A   1      38.544  30.526  30.469  1.00  0.00     0.037 A 
ATOM     54  C   UNL A   1      45.396  30.787  30.356  1.00  0.00     0.049 A 
ATOM     55  C   UNL A   1      39.623  31.302  31.126  1.00  0.00     0.074 A 
ATOM     56  C   UNL A   1      45.945  29.779  31.127  1.00  0.00     0.029 A 
ATOM     57  N   UNL A   1      44.468  31.405  31.160  1.00  0.00    -0.354 N 
ATOM     58  N   UNL A   1      40.257  30.888  32.187  1.00  0.00    -0.248 NA
ATOM     59  C   UNL A   1      40.323  32.285  30.315  1.00  0.00     0.031 C 
ATOM     60  C   UNL A   1      44.981  29.531  32.148  1.00  0.00     0.029 A 
ATOM     61  C   UNL A   1      43.948  30.455  32.001  1.00  0.00     0.049 A 
ATOM     62  H   UNL A   1      44.221  32.358  31.134  1.00  0.00     0.167 HD
ATOM     63  C   UNL A   1      41.583  31.217  31.952  1.00  0.00     0.074 A 
ATOM     64  C   UNL A   1      41.554  32.136  30.813  1.00  0.00     0.031 C 
ATOM     65  C   UNL A   1      42.593  30.481  32.500  1.00  0.00     0.037 A 
BRANCH  52  66
ATOM     66  C   UNL A   1      45.464  32.471  28.393  1.00  0.00     0.058 A 
ATOM     67  C   UNL A   1      46.715  33.119  28.449  1.00  0.00     0.135 A 
ATOM     68  C   UNL A   1      44.367  33.306  28.079  1.00  0.00     0.135 A 
ATOM     69  F   UNL A   1      47.828  32.430  28.749  1.00  0.00    -0.206 F 
ATOM     70  C   UNL A   1      46.853  34.498  28.282  1.00  0.00     0.059 A 
ATOM     71  C   UNL A   1      44.490  34.671  27.850  1.00  0.00     0.059 A 
ATOM     72  F   UNL A   1      43.103  32.869  28.073  1.00  0.00    -0.206 F 
ATOM     73  C   UNL A   1      45.730  35.266  27.995  1.00  0.00     0.060 A 
BRANCH  73  74
ATOM     74  S   UNL A   1      45.883  37.056  27.874  1.00  0.00     0.124 S 
ATOM     75  O   UNL A   1      47.080  37.189  27.053  1.00  0.00    -0.237 OA
ATOM     76  O   UNL A   1      44.622  37.421  27.235  1.00  0.00    -0.237 OA
ATOM     77  O   UNL A   1      46.018  37.475  29.266  1.00  0.00    -0.744 OA
ENDBRANCH  73  74
ENDBRANCH  52  66
BRANCH  53  78
ATOM     78  C   UNL A   1      37.224  31.149  30.182  1.00  0.00     0.058 A 
ATOM     79  C   UNL A   1      36.474  31.826  31.170  1.00  0.00     0.135 A 
ATOM     80  C   UNL A   1      36.834  31.385  28.861  1.00  0.00     0.135 A 
ATOM     81  F   UNL A   1      36.792  31.683  32.465  1.00  0.00    -0.206 F 
ATOM     82  C   UNL A   1      35.432  32.721  30.862  1.00  0.00     0.059 A 
ATOM     83  C   UNL A   1      35.817  32.279  28.546  1.00  0.00     0.059 A 
ATOM     84  F   UNL A   1      37.497  30.846  27.828  1.00  0.00    -0.206 F 
ATOM     85  C   UNL A   1      35.125  32.960  29.531  1.00  0.00     0.060 A 
BRANCH  85  86
ATOM     86  S   UNL A   1      33.921  34.228  29.053  1.00  0.00     0.124 S 
ATOM     87  O   UNL A   1      33.259  34.507  30.321  1.00  0.00    -0.237 OA
ATOM     88  O   UNL A   1      34.774  35.280  28.517  1.00  0.00    -0.237 OA
ATOM     89  O   UNL A   1      33.090  33.546  28.062  1.00  0.00    -0.744 OA
ENDBRANCH  85  86
ENDBRANCH  53  78
BRANCH  65  90
ATOM     90  C   UNL A   1      42.240  29.477  33.569  1.00  0.00     0.058 A 
ATOM     91  C   UNL A   1      41.773  28.171  33.328  1.00  0.00     0.135 A 
ATOM     92  C   UNL A   1      42.532  29.814  34.897  1.00  0.00     0.135 A 
ATOM     93  F   UNL A   1      41.559  27.735  32.079  1.00  0.00    -0.206 F 
ATOM     94  C   UNL A   1      41.575  27.254  34.364  1.00  0.00     0.059 A 
ATOM     95  C   UNL A   1      42.371  28.909  35.942  1.00  0.00     0.059 A 
ATOM     96  F   UNL A   1      43.034  31.026  35.187  1.00  0.00    -0.206 F 
ATOM     97  C   UNL A   1      41.880  27.634  35.670  1.00  0.00     0.060 A 
BRANCH  97  98
ATOM     98  S   UNL A   1      41.690  26.436  37.007  1.00  0.00     0.124 S 
ATOM     99  O   UNL A   1      40.405  26.819  37.582  1.00  0.00    -0.237 OA
ATOM    100  O   UNL A   1      41.711  25.161  36.296  1.00  0.00    -0.237 OA
ATOM    101  O   UNL A   1      42.852  26.685  37.857  1.00  0.00    -0.744 OA
ENDBRANCH  97  98
ENDBRANCH  65  90
ENDBRANCH  39  40
ENDBRANCH  31  34
ENDBRANCH  29  30
ENDBRANCH  28  29
ENDBRANCH  27  28
ENDBRANCH   1  27
TORSDOF 19
ENDMDL
