MODEL 1
REMARK VINA RESULT:     -12.8      0.000      0.000
REMARK SMILES C[C@H](C(=O)NCCCCCCNC(=O)c1ccc(-c2c3nc(c(-c4c(F)cc(S(=O)(=O)[O-])cc4F)c4ccc([nH]4)c(-c4c(F)cc(S(=O)(=O)[O-])cc4F)c4nc(c(-c5c(F)cc(S(=O)(=O)[O-])cc5F)c5ccc2[nH]5)C=C4)C=C3)cc1)N1C(=O)C[C@@H](N2C(=O)/C(=C/c3ccccc3)SC2=S)C1=O
REMARK SMILES IDX 8 1 7 2 6 3 5 4 3 5 4 6 2 8 1 9 81 10 82 11 100 12 83 13
REMARK SMILES IDX 84 14 85 15 101 16 86 17 87 18 98 19 88 20 89 21 97 22 99 23
REMARK SMILES IDX 90 24 91 25 92 26 96 27 93 28 95 29 94 30 9 31 10 32 11 33
REMARK SMILES IDX 12 34 13 35 14 37 15 38 16 39 80 40 17 41 79 42 18 43 19 44
REMARK SMILES IDX 20 45 73 46 21 47 78 48 72 49 74 50 22 51 77 52 71 53 70 54
REMARK SMILES IDX 23 56 57 57 36 58 56 59 37 60 40 61 55 62 75 63 38 64 39 65
REMARK SMILES IDX 54 67 76 68 41 69 24 70 25 71 34 72 26 73 27 74 33 75 35 76
REMARK SMILES IDX 28 77 29 78 30 79 31 80 32 81 58 82 59 83 68 84 60 85 61 86
REMARK SMILES IDX 67 87 69 88 62 89 63 90 64 91 65 92 66 93 42 94 43 95 52 96
REMARK SMILES IDX 44 97 45 98 51 99 53 100 46 101 47 102 48 103 49 104 50 105
REMARK H PARENT 5 7 12 36 74 55 40 66
REMARK Flexibility Score: inf
ROOT
ATOM      1  C   UNL A   1      33.613  28.533  26.700  1.00  0.00     0.002 C 
ENDROOT
BRANCH   1   2
ATOM      2  C   UNL A   1      32.973  29.074  25.423  1.00  0.00     0.021 C 
BRANCH   2   3
ATOM      3  C   UNL A   1      31.454  28.868  25.369  1.00  0.00     0.116 C 
BRANCH   3   4
ATOM      4  N   UNL A   1      31.054  28.618  23.996  1.00  0.00    -0.354 N 
ATOM      5  C   UNL A   1      30.875  27.430  23.345  1.00  0.00     0.243 C 
ATOM      6  O   UNL A   1      30.872  27.473  22.111  1.00  0.00    -0.273 OA
ATOM      7  H   UNL A   1      30.888  29.424  23.454  1.00  0.00     0.163 HD
BRANCH   5   8
ATOM      8  C   UNL A   1      30.724  26.099  24.124  1.00  0.00     0.179 C 
ATOM      9  C   UNL A   1      29.988  25.118  23.204  1.00  0.00     0.042 C 
BRANCH   8  10
ATOM     10  N   UNL A   1      32.030  25.630  24.617  1.00  0.00    -0.268 N 
ATOM     11  C   UNL A   1      32.192  25.152  25.890  1.00  0.00     0.232 C 
ATOM     12  C   UNL A   1      33.163  25.376  23.884  1.00  0.00     0.253 C 
ATOM     13  O   UNL A   1      31.333  24.801  26.678  1.00  0.00    -0.274 OA
ATOM     14  C   UNL A   1      33.652  25.081  26.191  1.00  0.00     0.136 C 
ATOM     15  C   UNL A   1      34.214  24.779  24.820  1.00  0.00     0.191 C 
ATOM     16  O   UNL A   1      33.321  25.459  22.674  1.00  0.00    -0.272 OA
BRANCH  15  17
ATOM     17  N   UNL A   1      34.478  23.337  24.631  1.00  0.00    -0.280 N 
ATOM     18  C   UNL A   1      33.475  22.515  24.146  1.00  0.00     0.266 C 
ATOM     19  C   UNL A   1      35.615  22.689  25.073  1.00  0.00     0.149 C 
ATOM     20  O   UNL A   1      32.445  22.885  23.599  1.00  0.00    -0.268 OA
ATOM     21  C   UNL A   1      33.798  21.089  24.379  1.00  0.00     0.081 C 
ATOM     22  S   UNL A   1      35.419  20.945  24.908  1.00  0.00    -0.054 SA
ATOM     23  S   UNL A   1      36.993  23.359  25.731  1.00  0.00    -0.052 S 
ATOM     24  C   UNL A   1      32.870  20.140  24.202  1.00  0.00     0.029 C 
BRANCH  24  25
ATOM     25  C   UNL A   1      33.051  18.700  24.396  1.00  0.00    -0.024 A 
ATOM     26  C   UNL A   1      32.610  18.125  25.594  1.00  0.00     0.008 A 
ATOM     27  C   UNL A   1      33.681  17.895  23.440  1.00  0.00     0.008 A 
ATOM     28  C   UNL A   1      32.755  16.756  25.813  1.00  0.00     0.001 A 
ATOM     29  C   UNL A   1      33.824  16.523  23.662  1.00  0.00     0.001 A 
ATOM     30  C   UNL A   1      33.354  15.955  24.844  1.00  0.00     0.000 A 
ENDBRANCH  24  25
ENDBRANCH  15  17
ENDBRANCH   8  10
ENDBRANCH   5   8
ENDBRANCH   3   4
ENDBRANCH   2   3
ENDBRANCH   1   2
BRANCH   1  31
ATOM     31  C   UNL A   1      34.832  29.336  27.164  1.00  0.00     0.002 C 
BRANCH  31  32
ATOM     32  C   UNL A   1      34.544  30.794  27.543  1.00  0.00     0.021 C 
BRANCH  32  33
ATOM     33  C   UNL A   1      35.667  31.478  28.317  1.00  0.00     0.116 C 
BRANCH  33  34
ATOM     34  N   UNL A   1      35.519  31.277  29.751  1.00  0.00    -0.352 N 
ATOM     35  C   UNL A   1      36.330  30.587  30.615  1.00  0.00     0.251 C 
ATOM     36  H   UNL A   1      34.724  31.694  30.156  1.00  0.00     0.163 HD
ATOM     37  O   UNL A   1      35.913  30.266  31.724  1.00  0.00    -0.269 OA
BRANCH  35  38
ATOM     38  C   UNL A   1      37.706  30.241  30.205  1.00  0.00     0.039 A 
ATOM     39  C   UNL A   1      38.674  30.010  31.186  1.00  0.00     0.014 A 
ATOM     40  C   UNL A   1      38.042  30.165  28.850  1.00  0.00     0.014 A 
ATOM     41  C   UNL A   1      39.971  29.658  30.804  1.00  0.00     0.010 A 
ATOM     42  C   UNL A   1      39.311  29.741  28.475  1.00  0.00     0.010 A 
ATOM     43  C   UNL A   1      40.293  29.494  29.447  1.00  0.00    -0.014 A 
BRANCH  43  44
ATOM     44  C   UNL A   1      41.654  29.083  29.019  1.00  0.00     0.031 A 
ATOM     45  C   UNL A   1      42.762  30.100  28.959  1.00  0.00     0.074 A 
ATOM     46  C   UNL A   1      41.874  27.815  28.622  1.00  0.00     0.049 A 
ATOM     47  N   UNL A   1      43.991  29.959  28.535  1.00  0.00    -0.248 NA
ATOM     48  C   UNL A   1      42.436  31.465  29.406  1.00  0.00     0.031 C 
ATOM     49  C   UNL A   1      40.867  26.751  28.594  1.00  0.00     0.029 A 
ATOM     50  N   UNL A   1      43.011  27.207  28.153  1.00  0.00    -0.354 N 
ATOM     51  C   UNL A   1      44.580  31.213  28.652  1.00  0.00     0.074 A 
ATOM     52  C   UNL A   1      43.556  32.116  29.131  1.00  0.00     0.031 C 
ATOM     53  C   UNL A   1      41.437  25.618  28.153  1.00  0.00     0.029 A 
ATOM     54  C   UNL A   1      42.835  25.883  27.825  1.00  0.00     0.049 A 
ATOM     55  H   UNL A   1      43.872  27.674  28.059  1.00  0.00     0.167 HD
ATOM     56  C   UNL A   1      45.861  31.573  28.406  1.00  0.00     0.037 A 
ATOM     57  C   UNL A   1      43.698  24.987  27.309  1.00  0.00     0.037 A 
ATOM     58  C   UNL A   1      46.878  30.661  27.949  1.00  0.00     0.049 A 
ATOM     59  C   UNL A   1      45.115  25.413  27.033  1.00  0.00     0.074 A 
ATOM     60  C   UNL A   1      48.220  30.912  27.722  1.00  0.00     0.029 A 
ATOM     61  N   UNL A   1      46.666  29.323  27.646  1.00  0.00    -0.354 N 
ATOM     62  N   UNL A   1      45.671  26.588  27.207  1.00  0.00    -0.248 NA
ATOM     63  C   UNL A   1      46.024  24.390  26.499  1.00  0.00     0.031 C 
ATOM     64  C   UNL A   1      48.806  29.741  27.231  1.00  0.00     0.029 A 
ATOM     65  C   UNL A   1      47.846  28.742  27.211  1.00  0.00     0.049 A 
ATOM     66  H   UNL A   1      45.803  28.855  27.730  1.00  0.00     0.167 HD
ATOM     67  C   UNL A   1      47.002  26.439  26.833  1.00  0.00     0.074 A 
ATOM     68  C   UNL A   1      47.169  25.056  26.432  1.00  0.00     0.031 C 
ATOM     69  C   UNL A   1      47.997  27.362  26.823  1.00  0.00     0.037 A 
BRANCH  56  70
ATOM     70  C   UNL A   1      46.237  33.015  28.623  1.00  0.00     0.058 A 
ATOM     71  C   UNL A   1      46.704  33.479  29.864  1.00  0.00     0.135 A 
ATOM     72  C   UNL A   1      46.157  33.940  27.569  1.00  0.00     0.135 A 
ATOM     73  F   UNL A   1      46.786  32.644  30.911  1.00  0.00    -0.206 F 
ATOM     74  C   UNL A   1      47.043  34.814  30.061  1.00  0.00     0.059 A 
ATOM     75  C   UNL A   1      46.524  35.273  27.735  1.00  0.00     0.059 A 
ATOM     76  F   UNL A   1      45.719  33.553  26.361  1.00  0.00    -0.206 F 
ATOM     77  C   UNL A   1      46.950  35.704  28.991  1.00  0.00     0.060 A 
BRANCH  77  78
ATOM     78  S   UNL A   1      47.394  37.431  29.265  1.00  0.00     0.124 S 
ATOM     79  O   UNL A   1      46.734  38.084  28.139  1.00  0.00    -0.237 OA
ATOM     80  O   UNL A   1      46.816  37.697  30.579  1.00  0.00    -0.237 OA
ATOM     81  O   UNL A   1      48.853  37.420  29.216  1.00  0.00    -0.744 OA
ENDBRANCH  77  78
ENDBRANCH  56  70
BRANCH  57  82
ATOM     82  C   UNL A   1      43.249  23.595  27.040  1.00  0.00     0.058 A 
ATOM     83  C   UNL A   1      43.002  23.155  25.730  1.00  0.00     0.135 A 
ATOM     84  C   UNL A   1      43.077  22.669  28.081  1.00  0.00     0.135 A 
ATOM     85  F   UNL A   1      43.147  24.003  24.701  1.00  0.00    -0.206 F 
ATOM     86  C   UNL A   1      42.586  21.855  25.462  1.00  0.00     0.059 A 
ATOM     87  C   UNL A   1      42.688  21.356  27.837  1.00  0.00     0.059 A 
ATOM     88  F   UNL A   1      43.316  23.033  29.351  1.00  0.00    -0.206 F 
ATOM     89  C   UNL A   1      42.436  20.961  26.524  1.00  0.00     0.060 A 
BRANCH  89  90
ATOM     90  S   UNL A   1      41.945  19.261  26.160  1.00  0.00     0.124 S 
ATOM     91  O   UNL A   1      40.508  19.407  25.958  1.00  0.00    -0.237 OA
ATOM     92  O   UNL A   1      42.731  18.965  24.966  1.00  0.00    -0.237 OA
ATOM     93  O   UNL A   1      42.343  18.532  27.361  1.00  0.00    -0.744 OA
ENDBRANCH  89  90
ENDBRANCH  57  82
BRANCH  69  94
ATOM     94  C   UNL A   1      49.367  26.901  26.407  1.00  0.00     0.058 A 
ATOM     95  C   UNL A   1      50.282  26.368  27.328  1.00  0.00     0.135 A 
ATOM     96  C   UNL A   1      49.747  26.940  25.055  1.00  0.00     0.135 A 
ATOM     97  F   UNL A   1      49.973  26.313  28.634  1.00  0.00    -0.206 F 
ATOM     98  C   UNL A   1      51.534  25.912  26.927  1.00  0.00     0.059 A 
ATOM     99  C   UNL A   1      50.981  26.462  24.627  1.00  0.00     0.059 A 
ATOM    100  F   UNL A   1      48.906  27.430  24.130  1.00  0.00    -0.206 F 
ATOM    101  C   UNL A   1      51.872  25.959  25.574  1.00  0.00     0.060 A 
BRANCH 101 102
ATOM    102  S   UNL A   1      53.485  25.327  25.063  1.00  0.00     0.124 S 
ATOM    103  O   UNL A   1      54.381  26.052  25.958  1.00  0.00    -0.237 OA
ATOM    104  O   UNL A   1      53.354  23.897  25.318  1.00  0.00    -0.237 OA
ATOM    105  O   UNL A   1      53.566  25.702  23.654  1.00  0.00    -0.744 OA
ENDBRANCH 101 102
ENDBRANCH  69  94
ENDBRANCH  43  44
ENDBRANCH  35  38
ENDBRANCH  33  34
ENDBRANCH  32  33
ENDBRANCH  31  32
ENDBRANCH   1  31
TORSDOF 19
ENDMDL
MODEL 2
REMARK VINA RESULT:     -12.0      1.171      7.919
REMARK SMILES C[C@H](C(=O)NCCCCCCNC(=O)c1ccc(-c2c3nc(c(-c4c(F)cc(S(=O)(=O)[O-])cc4F)c4ccc([nH]4)c(-c4c(F)cc(S(=O)(=O)[O-])cc4F)c4nc(c(-c5c(F)cc(S(=O)(=O)[O-])cc5F)c5ccc2[nH]5)C=C4)C=C3)cc1)N1C(=O)C[C@@H](N2C(=O)/C(=C/c3ccccc3)SC2=S)C1=O
REMARK SMILES IDX 8 1 7 2 6 3 5 4 3 5 4 6 2 8 1 9 81 10 82 11 100 12 83 13
REMARK SMILES IDX 84 14 85 15 101 16 86 17 87 18 98 19 88 20 89 21 97 22 99 23
REMARK SMILES IDX 90 24 91 25 92 26 96 27 93 28 95 29 94 30 9 31 10 32 11 33
REMARK SMILES IDX 12 34 13 35 14 37 15 38 16 39 80 40 17 41 79 42 18 43 19 44
REMARK SMILES IDX 20 45 73 46 21 47 78 48 72 49 74 50 22 51 77 52 71 53 70 54
REMARK SMILES IDX 23 56 57 57 36 58 56 59 37 60 40 61 55 62 75 63 38 64 39 65
REMARK SMILES IDX 54 67 76 68 41 69 24 70 25 71 34 72 26 73 27 74 33 75 35 76
REMARK SMILES IDX 28 77 29 78 30 79 31 80 32 81 58 82 59 83 68 84 60 85 61 86
REMARK SMILES IDX 67 87 69 88 62 89 63 90 64 91 65 92 66 93 42 94 43 95 52 96
REMARK SMILES IDX 44 97 45 98 51 99 53 100 46 101 47 102 48 103 49 104 50 105
REMARK H PARENT 5 7 12 36 74 55 40 66
REMARK Flexibility Score: inf
ROOT
ATOM      1  C   UNL A   1      32.299  29.541  26.730  1.00  0.00     0.002 C 
ENDROOT
BRANCH   1   2
ATOM      2  C   UNL A   1      31.497  30.417  25.770  1.00  0.00     0.021 C 
BRANCH   2   3
ATOM      3  C   UNL A   1      30.935  29.646  24.569  1.00  0.00     0.116 C 
BRANCH   3   4
ATOM      4  N   UNL A   1      31.938  29.594  23.522  1.00  0.00    -0.354 N 
ATOM      5  C   UNL A   1      32.522  28.509  22.930  1.00  0.00     0.243 C 
ATOM      6  O   UNL A   1      33.577  28.714  22.323  1.00  0.00    -0.273 OA
ATOM      7  H   UNL A   1      32.245  30.469  23.189  1.00  0.00     0.163 HD
BRANCH   5   8
ATOM      8  C   UNL A   1      31.903  27.094  23.053  1.00  0.00     0.179 C 
ATOM      9  C   UNL A   1      31.511  26.646  21.639  1.00  0.00     0.042 C 
BRANCH   8  10
ATOM     10  N   UNL A   1      32.815  26.183  23.764  1.00  0.00    -0.268 N 
ATOM     11  C   UNL A   1      32.823  26.088  25.129  1.00  0.00     0.232 C 
ATOM     12  C   UNL A   1      33.580  25.174  23.230  1.00  0.00     0.253 C 
ATOM     13  O   UNL A   1      31.984  26.485  25.917  1.00  0.00    -0.274 OA
ATOM     14  C   UNL A   1      34.056  25.360  25.551  1.00  0.00     0.136 C 
ATOM     15  C   UNL A   1      34.251  24.423  24.379  1.00  0.00     0.191 C 
ATOM     16  O   UNL A   1      33.644  24.804  22.066  1.00  0.00    -0.272 OA
BRANCH  15  17
ATOM     17  N   UNL A   1      33.710  23.074  24.649  1.00  0.00    -0.280 N 
ATOM     18  C   UNL A   1      34.573  22.047  24.991  1.00  0.00     0.266 C 
ATOM     19  C   UNL A   1      32.402  22.698  24.413  1.00  0.00     0.149 C 
ATOM     20  O   UNL A   1      35.733  22.174  25.356  1.00  0.00    -0.268 OA
ATOM     21  C   UNL A   1      33.910  20.729  24.853  1.00  0.00     0.081 C 
ATOM     22  S   UNL A   1      32.233  20.952  24.594  1.00  0.00    -0.054 SA
ATOM     23  S   UNL A   1      31.117  23.662  23.964  1.00  0.00    -0.052 S 
ATOM     24  C   UNL A   1      34.622  19.597  24.908  1.00  0.00     0.029 C 
BRANCH  24  25
ATOM     25  C   UNL A   1      34.099  18.234  24.786  1.00  0.00    -0.024 A 
ATOM     26  C   UNL A   1      33.192  17.777  25.749  1.00  0.00     0.008 A 
ATOM     27  C   UNL A   1      34.506  17.371  23.763  1.00  0.00     0.008 A 
ATOM     28  C   UNL A   1      32.663  16.489  25.664  1.00  0.00     0.001 A 
ATOM     29  C   UNL A   1      33.974  16.083  23.679  1.00  0.00     0.001 A 
ATOM     30  C   UNL A   1      33.049  15.646  24.624  1.00  0.00     0.000 A 
ENDBRANCH  24  25
ENDBRANCH  15  17
ENDBRANCH   8  10
ENDBRANCH   5   8
ENDBRANCH   3   4
ENDBRANCH   2   3
ENDBRANCH   1   2
BRANCH   1  31
ATOM     31  C   UNL A   1      33.807  29.555  26.461  1.00  0.00     0.002 C 
BRANCH  31  32
ATOM     32  C   UNL A   1      34.680  29.083  27.629  1.00  0.00     0.021 C 
BRANCH  32  33
ATOM     33  C   UNL A   1      35.632  30.144  28.175  1.00  0.00     0.116 C 
BRANCH  33  34
ATOM     34  N   UNL A   1      35.618  30.167  29.630  1.00  0.00    -0.352 N 
ATOM     35  C   UNL A   1      36.584  29.753  30.511  1.00  0.00     0.251 C 
ATOM     36  H   UNL A   1      34.799  30.530  30.040  1.00  0.00     0.163 HD
ATOM     37  O   UNL A   1      36.301  29.566  31.691  1.00  0.00    -0.269 OA
BRANCH  35  38
ATOM     38  C   UNL A   1      37.965  29.538  30.031  1.00  0.00     0.039 A 
ATOM     39  C   UNL A   1      38.933  29.066  30.921  1.00  0.00     0.014 A 
ATOM     40  C   UNL A   1      38.306  29.826  28.706  1.00  0.00     0.014 A 
ATOM     41  C   UNL A   1      40.234  28.838  30.467  1.00  0.00     0.010 A 
ATOM     42  C   UNL A   1      39.580  29.527  28.238  1.00  0.00     0.010 A 
ATOM     43  C   UNL A   1      40.561  29.041  29.116  1.00  0.00    -0.014 A 
BRANCH  43  44
ATOM     44  C   UNL A   1      41.928  28.770  28.602  1.00  0.00     0.031 A 
ATOM     45  C   UNL A   1      42.298  27.383  28.149  1.00  0.00     0.074 A 
ATOM     46  C   UNL A   1      42.850  29.752  28.607  1.00  0.00     0.049 A 
ATOM     47  N   UNL A   1      43.456  26.927  27.747  1.00  0.00    -0.248 NA
ATOM     48  C   UNL A   1      41.232  26.368  28.179  1.00  0.00     0.031 C 
ATOM     49  C   UNL A   1      42.621  31.125  29.065  1.00  0.00     0.029 A 
ATOM     50  N   UNL A   1      44.168  29.745  28.228  1.00  0.00    -0.354 N 
ATOM     51  C   UNL A   1      43.263  25.575  27.491  1.00  0.00     0.074 A 
ATOM     52  C   UNL A   1      41.892  25.271  27.838  1.00  0.00     0.031 C 
ATOM     53  C   UNL A   1      43.753  31.831  28.919  1.00  0.00     0.029 A 
ATOM     54  C   UNL A   1      44.799  30.954  28.402  1.00  0.00     0.049 A 
ATOM     55  H   UNL A   1      44.621  28.949  27.866  1.00  0.00     0.167 HD
ATOM     56  C   UNL A   1      44.141  24.674  26.990  1.00  0.00     0.037 A 
ATOM     57  C   UNL A   1      46.079  31.314  28.179  1.00  0.00     0.037 A 
ATOM     58  C   UNL A   1      45.499  24.992  26.627  1.00  0.00     0.049 A 
ATOM     59  C   UNL A   1      47.040  30.293  27.632  1.00  0.00     0.074 A 
ATOM     60  C   UNL A   1      46.453  24.166  26.060  1.00  0.00     0.029 A 
ATOM     61  N   UNL A   1      46.096  26.233  26.800  1.00  0.00    -0.354 N 
ATOM     62  N   UNL A   1      46.824  29.033  27.337  1.00  0.00    -0.248 NA
ATOM     63  C   UNL A   1      48.415  30.744  27.379  1.00  0.00     0.031 C 
ATOM     64  C   UNL A   1      47.642  24.893  25.940  1.00  0.00     0.029 A 
ATOM     65  C   UNL A   1      47.413  26.188  26.373  1.00  0.00     0.049 A 
ATOM     66  H   UNL A   1      45.648  27.028  27.170  1.00  0.00     0.167 HD
ATOM     67  C   UNL A   1      48.028  28.548  26.836  1.00  0.00     0.074 A 
ATOM     68  C   UNL A   1      48.963  29.655  26.859  1.00  0.00     0.031 C 
ATOM     69  C   UNL A   1      48.330  27.301  26.395  1.00  0.00     0.037 A 
BRANCH  56  70
ATOM     70  C   UNL A   1      43.663  23.258  26.805  1.00  0.00     0.058 A 
ATOM     71  C   UNL A   1      43.419  22.411  27.899  1.00  0.00     0.135 A 
ATOM     72  C   UNL A   1      43.417  22.750  25.519  1.00  0.00     0.135 A 
ATOM     73  F   UNL A   1      43.650  22.838  29.150  1.00  0.00    -0.206 F 
ATOM     74  C   UNL A   1      42.983  21.102  27.723  1.00  0.00     0.059 A 
ATOM     75  C   UNL A   1      42.948  21.453  25.321  1.00  0.00     0.059 A 
ATOM     76  F   UNL A   1      43.632  23.514  24.437  1.00  0.00    -0.206 F 
ATOM     77  C   UNL A   1      42.751  20.631  26.430  1.00  0.00     0.060 A 
BRANCH  77  78
ATOM     78  S   UNL A   1      42.186  18.930  26.221  1.00  0.00     0.124 S 
ATOM     79  O   UNL A   1      40.808  19.133  25.785  1.00  0.00    -0.237 OA
ATOM     80  O   UNL A   1      43.103  18.420  25.206  1.00  0.00    -0.237 OA
ATOM     81  O   UNL A   1      42.344  18.352  27.552  1.00  0.00    -0.744 OA
ENDBRANCH  77  78
ENDBRANCH  56  70
BRANCH  57  82
ATOM     82  C   UNL A   1      46.516  32.709  28.456  1.00  0.00     0.058 A 
ATOM     83  C   UNL A   1      46.515  33.680  27.443  1.00  0.00     0.135 A 
ATOM     84  C   UNL A   1      46.924  33.105  29.739  1.00  0.00     0.135 A 
ATOM     85  F   UNL A   1      46.139  33.350  26.198  1.00  0.00    -0.206 F 
ATOM     86  C   UNL A   1      46.918  34.990  27.687  1.00  0.00     0.059 A 
ATOM     87  C   UNL A   1      47.304  34.414  30.015  1.00  0.00     0.059 A 
ATOM     88  F   UNL A   1      46.927  32.219  30.748  1.00  0.00    -0.206 F 
ATOM     89  C   UNL A   1      47.307  35.348  28.979  1.00  0.00     0.060 A 
BRANCH  89  90
ATOM     90  S   UNL A   1      47.778  37.062  29.296  1.00  0.00     0.124 S 
ATOM     91  O   UNL A   1      48.880  36.896  30.235  1.00  0.00    -0.237 OA
ATOM     92  O   UNL A   1      48.139  37.531  27.961  1.00  0.00    -0.237 OA
ATOM     93  O   UNL A   1      46.560  37.648  29.849  1.00  0.00    -0.744 OA
ENDBRANCH  89  90
ENDBRANCH  57  82
BRANCH  69  94
ATOM     94  C   UNL A   1      49.717  27.071  25.859  1.00  0.00     0.058 A 
ATOM     95  C   UNL A   1      50.771  26.651  26.685  1.00  0.00     0.135 A 
ATOM     96  C   UNL A   1      49.979  27.218  24.487  1.00  0.00     0.135 A 
ATOM     97  F   UNL A   1      50.577  26.501  28.005  1.00  0.00    -0.206 F 
ATOM     98  C   UNL A   1      52.041  26.406  26.172  1.00  0.00     0.059 A 
ATOM     99  C   UNL A   1      51.232  26.949  23.948  1.00  0.00     0.059 A 
ATOM    100  F   UNL A   1      49.004  27.607  23.649  1.00  0.00    -0.206 F 
ATOM    101  C   UNL A   1      52.261  26.554  24.802  1.00  0.00     0.060 A 
BRANCH 101 102
ATOM    102  S   UNL A   1      53.905  26.195  24.146  1.00  0.00     0.124 S 
ATOM    103  O   UNL A   1      53.652  26.189  22.708  1.00  0.00    -0.237 OA
ATOM    104  O   UNL A   1      54.691  27.316  24.648  1.00  0.00    -0.237 OA
ATOM    105  O   UNL A   1      54.228  24.897  24.732  1.00  0.00    -0.744 OA
ENDBRANCH 101 102
ENDBRANCH  69  94
ENDBRANCH  43  44
ENDBRANCH  35  38
ENDBRANCH  33  34
ENDBRANCH  32  33
ENDBRANCH  31  32
ENDBRANCH   1  31
TORSDOF 19
ENDMDL
MODEL 3
REMARK VINA RESULT:     -11.9      1.225      2.237
REMARK SMILES C[C@H](C(=O)NCCCCCCNC(=O)c1ccc(-c2c3nc(c(-c4c(F)cc(S(=O)(=O)[O-])cc4F)c4ccc([nH]4)c(-c4c(F)cc(S(=O)(=O)[O-])cc4F)c4nc(c(-c5c(F)cc(S(=O)(=O)[O-])cc5F)c5ccc2[nH]5)C=C4)C=C3)cc1)N1C(=O)C[C@@H](N2C(=O)/C(=C/c3ccccc3)SC2=S)C1=O
REMARK SMILES IDX 8 1 7 2 6 3 5 4 3 5 4 6 2 8 1 9 81 10 82 11 100 12 83 13
REMARK SMILES IDX 84 14 85 15 101 16 86 17 87 18 98 19 88 20 89 21 97 22 99 23
REMARK SMILES IDX 90 24 91 25 92 26 96 27 93 28 95 29 94 30 9 31 10 32 11 33
REMARK SMILES IDX 12 34 13 35 14 37 15 38 16 39 80 40 17 41 79 42 18 43 19 44
REMARK SMILES IDX 20 45 73 46 21 47 78 48 72 49 74 50 22 51 77 52 71 53 70 54
REMARK SMILES IDX 23 56 57 57 36 58 56 59 37 60 40 61 55 62 75 63 38 64 39 65
REMARK SMILES IDX 54 67 76 68 41 69 24 70 25 71 34 72 26 73 27 74 33 75 35 76
REMARK SMILES IDX 28 77 29 78 30 79 31 80 32 81 58 82 59 83 68 84 60 85 61 86
REMARK SMILES IDX 67 87 69 88 62 89 63 90 64 91 65 92 66 93 42 94 43 95 52 96
REMARK SMILES IDX 44 97 45 98 51 99 53 100 46 101 47 102 48 103 49 104 50 105
REMARK H PARENT 5 7 12 36 74 55 40 66
REMARK Flexibility Score: inf
ROOT
ATOM      1  C   UNL A   1      32.942  28.361  27.239  1.00  0.00     0.002 C 
ENDROOT
BRANCH   1   2
ATOM      2  C   UNL A   1      31.788  29.285  26.856  1.00  0.00     0.021 C 
BRANCH   2   3
ATOM      3  C   UNL A   1      32.057  30.101  25.586  1.00  0.00     0.116 C 
BRANCH   3   4
ATOM      4  N   UNL A   1      30.836  30.189  24.807  1.00  0.00    -0.354 N 
ATOM      5  C   UNL A   1      30.528  29.616  23.605  1.00  0.00     0.243 C 
ATOM      6  O   UNL A   1      29.578  30.107  22.988  1.00  0.00    -0.273 OA
ATOM      7  H   UNL A   1      30.124  30.744  25.202  1.00  0.00     0.163 HD
BRANCH   5   8
ATOM      8  C   UNL A   1      31.358  28.437  23.038  1.00  0.00     0.179 C 
ATOM      9  C   UNL A   1      32.785  28.953  22.820  1.00  0.00     0.042 C 
BRANCH   8  10
ATOM     10  N   UNL A   1      31.250  27.254  23.907  1.00  0.00    -0.268 N 
ATOM     11  C   UNL A   1      30.054  26.623  24.124  1.00  0.00     0.232 C 
ATOM     12  C   UNL A   1      32.271  26.487  24.413  1.00  0.00     0.253 C 
ATOM     13  O   UNL A   1      29.018  26.735  23.494  1.00  0.00    -0.274 OA
ATOM     14  C   UNL A   1      30.205  25.699  25.285  1.00  0.00     0.136 C 
ATOM     15  C   UNL A   1      31.656  25.294  25.143  1.00  0.00     0.191 C 
ATOM     16  O   UNL A   1      33.474  26.607  24.231  1.00  0.00    -0.272 OA
BRANCH  15  17
ATOM     17  N   UNL A   1      31.806  23.993  24.458  1.00  0.00    -0.280 N 
ATOM     18  C   UNL A   1      31.741  22.820  25.192  1.00  0.00     0.266 C 
ATOM     19  C   UNL A   1      32.191  23.848  23.139  1.00  0.00     0.149 C 
ATOM     20  O   UNL A   1      31.310  22.709  26.331  1.00  0.00    -0.268 OA
ATOM     21  C   UNL A   1      32.276  21.678  24.416  1.00  0.00     0.081 C 
ATOM     22  S   UNL A   1      32.525  22.152  22.791  1.00  0.00    -0.054 SA
ATOM     23  S   UNL A   1      32.393  25.036  21.987  1.00  0.00    -0.052 S 
ATOM     24  C   UNL A   1      32.522  20.504  25.010  1.00  0.00     0.029 C 
BRANCH  24  25
ATOM     25  C   UNL A   1      33.050  19.298  24.368  1.00  0.00    -0.024 A 
ATOM     26  C   UNL A   1      32.290  18.686  23.365  1.00  0.00     0.008 A 
ATOM     27  C   UNL A   1      34.268  18.725  24.753  1.00  0.00     0.008 A 
ATOM     28  C   UNL A   1      32.762  17.542  22.722  1.00  0.00     0.001 A 
ATOM     29  C   UNL A   1      34.738  17.580  24.106  1.00  0.00     0.001 A 
ATOM     30  C   UNL A   1      33.989  16.994  23.088  1.00  0.00     0.000 A 
ENDBRANCH  24  25
ENDBRANCH  15  17
ENDBRANCH   8  10
ENDBRANCH   5   8
ENDBRANCH   3   4
ENDBRANCH   2   3
ENDBRANCH   1   2
BRANCH   1  31
ATOM     31  C   UNL A   1      34.320  28.905  26.851  1.00  0.00     0.002 C 
BRANCH  31  32
ATOM     32  C   UNL A   1      35.230  29.272  28.029  1.00  0.00     0.021 C 
BRANCH  32  33
ATOM     33  C   UNL A   1      35.566  30.757  28.128  1.00  0.00     0.116 C 
BRANCH  33  34
ATOM     34  N   UNL A   1      35.615  31.196  29.515  1.00  0.00    -0.352 N 
ATOM     35  C   UNL A   1      36.567  30.944  30.468  1.00  0.00     0.251 C 
ATOM     36  H   UNL A   1      34.857  31.751  29.809  1.00  0.00     0.163 HD
ATOM     37  O   UNL A   1      36.315  31.135  31.654  1.00  0.00    -0.269 OA
BRANCH  35  38
ATOM     38  C   UNL A   1      37.897  30.447  30.058  1.00  0.00     0.039 A 
ATOM     39  C   UNL A   1      38.242  30.456  28.705  1.00  0.00     0.014 A 
ATOM     40  C   UNL A   1      38.792  29.952  31.011  1.00  0.00     0.014 A 
ATOM     41  C   UNL A   1      39.506  30.010  28.313  1.00  0.00     0.010 A 
ATOM     42  C   UNL A   1      40.075  29.581  30.628  1.00  0.00     0.010 A 
ATOM     43  C   UNL A   1      40.442  29.594  29.274  1.00  0.00    -0.014 A 
BRANCH  43  44
ATOM     44  C   UNL A   1      41.806  29.152  28.885  1.00  0.00     0.031 A 
ATOM     45  C   UNL A   1      42.933  30.148  28.834  1.00  0.00     0.074 A 
ATOM     46  C   UNL A   1      42.012  27.873  28.515  1.00  0.00     0.049 A 
ATOM     47  N   UNL A   1      44.168  29.978  28.442  1.00  0.00    -0.248 NA
ATOM     48  C   UNL A   1      42.621  31.525  29.251  1.00  0.00     0.031 C 
ATOM     49  C   UNL A   1      40.987  26.826  28.481  1.00  0.00     0.029 A 
ATOM     50  N   UNL A   1      43.149  27.237  28.084  1.00  0.00    -0.354 N 
ATOM     51  C   UNL A   1      44.776  31.223  28.552  1.00  0.00     0.074 A 
ATOM     52  C   UNL A   1      43.758  32.152  28.991  1.00  0.00     0.031 C 
ATOM     53  C   UNL A   1      41.547  25.676  28.073  1.00  0.00     0.029 A 
ATOM     54  C   UNL A   1      42.957  25.911  27.774  1.00  0.00     0.049 A 
ATOM     55  H   UNL A   1      44.020  27.688  28.003  1.00  0.00     0.167 HD
ATOM     56  C   UNL A   1      46.070  31.557  28.330  1.00  0.00     0.037 A 
ATOM     57  C   UNL A   1      43.816  24.991  27.293  1.00  0.00     0.037 A 
ATOM     58  C   UNL A   1      47.081  30.619  27.913  1.00  0.00     0.049 A 
ATOM     59  C   UNL A   1      45.246  25.387  27.044  1.00  0.00     0.074 A 
ATOM     60  C   UNL A   1      48.431  30.843  27.713  1.00  0.00     0.029 A 
ATOM     61  N   UNL A   1      46.851  29.280  27.628  1.00  0.00    -0.354 N 
ATOM     62  N   UNL A   1      45.819  26.556  27.211  1.00  0.00    -0.248 NA
ATOM     63  C   UNL A   1      46.149  24.340  26.549  1.00  0.00     0.031 C 
ATOM     64  C   UNL A   1      49.008  29.653  27.256  1.00  0.00     0.029 A 
ATOM     65  C   UNL A   1      48.031  28.672  27.231  1.00  0.00     0.049 A 
ATOM     66  H   UNL A   1      45.979  28.829  27.699  1.00  0.00     0.167 HD
ATOM     67  C   UNL A   1      47.156  26.377  26.871  1.00  0.00     0.074 A 
ATOM     68  C   UNL A   1      47.307  24.985  26.498  1.00  0.00     0.031 C 
ATOM     69  C   UNL A   1      48.166  27.282  26.870  1.00  0.00     0.037 A 
BRANCH  56  70
ATOM     70  C   UNL A   1      46.466  32.996  28.531  1.00  0.00     0.058 A 
ATOM     71  C   UNL A   1      46.397  33.934  27.488  1.00  0.00     0.135 A 
ATOM     72  C   UNL A   1      46.892  33.449  29.790  1.00  0.00     0.135 A 
ATOM     73  F   UNL A   1      46.012  33.555  26.260  1.00  0.00    -0.206 F 
ATOM     74  C   UNL A   1      46.771  35.261  27.678  1.00  0.00     0.059 A 
ATOM     75  C   UNL A   1      47.238  34.780  30.010  1.00  0.00     0.059 A 
ATOM     76  F   UNL A   1      46.977  32.596  30.823  1.00  0.00    -0.206 F 
ATOM     77  C   UNL A   1      47.190  35.675  28.943  1.00  0.00     0.060 A 
BRANCH  77  78
ATOM     78  S   UNL A   1      47.671  37.399  29.169  1.00  0.00     0.124 S 
ATOM     79  O   UNL A   1      49.012  37.406  28.592  1.00  0.00    -0.237 OA
ATOM     80  O   UNL A   1      46.649  38.111  28.408  1.00  0.00    -0.237 OA
ATOM     81  O   UNL A   1      47.611  37.582  30.617  1.00  0.00    -0.744 OA
ENDBRANCH  77  78
ENDBRANCH  56  70
BRANCH  57  82
ATOM     82  C   UNL A   1      43.348  23.603  27.038  1.00  0.00     0.058 A 
ATOM     83  C   UNL A   1      43.099  22.717  28.097  1.00  0.00     0.135 A 
ATOM     84  C   UNL A   1      43.122  23.137  25.732  1.00  0.00     0.135 A 
ATOM     85  F   UNL A   1      43.306  23.112  29.362  1.00  0.00    -0.206 F 
ATOM     86  C   UNL A   1      42.658  21.416  27.873  1.00  0.00     0.059 A 
ATOM     87  C   UNL A   1      42.655  21.851  25.484  1.00  0.00     0.059 A 
ATOM     88  F   UNL A   1      43.329  23.950  24.684  1.00  0.00    -0.206 F 
ATOM     89  C   UNL A   1      42.435  20.994  26.562  1.00  0.00     0.060 A 
BRANCH  89  90
ATOM     90  S   UNL A   1      41.814  19.321  26.287  1.00  0.00     0.124 S 
ATOM     91  O   UNL A   1      42.253  18.641  27.500  1.00  0.00    -0.237 OA
ATOM     92  O   UNL A   1      40.377  19.545  26.163  1.00  0.00    -0.237 OA
ATOM     93  O   UNL A   1      42.484  18.912  25.056  1.00  0.00    -0.744 OA
ENDBRANCH  89  90
ENDBRANCH  57  82
BRANCH  69  94
ATOM     94  C   UNL A   1      49.538  26.791  26.494  1.00  0.00     0.058 A 
ATOM     95  C   UNL A   1      50.038  26.915  25.188  1.00  0.00     0.135 A 
ATOM     96  C   UNL A   1      50.385  26.242  27.470  1.00  0.00     0.135 A 
ATOM     97  F   UNL A   1      49.268  27.427  24.215  1.00  0.00    -0.206 F 
ATOM     98  C   UNL A   1      51.321  26.490  24.859  1.00  0.00     0.059 A 
ATOM     99  C   UNL A   1      51.682  25.839  27.170  1.00  0.00     0.059 A 
ATOM    100  F   UNL A   1      49.962  26.109  28.737  1.00  0.00    -0.206 F 
ATOM    101  C   UNL A   1      52.137  25.958  25.858  1.00  0.00     0.060 A 
BRANCH 101 102
ATOM    102  S   UNL A   1      53.815  25.447  25.424  1.00  0.00     0.124 S 
ATOM    103  O   UNL A   1      54.417  25.267  26.742  1.00  0.00    -0.237 OA
ATOM    104  O   UNL A   1      53.580  24.226  24.661  1.00  0.00    -0.237 OA
ATOM    105  O   UNL A   1      54.324  26.576  24.651  1.00  0.00    -0.744 OA
ENDBRANCH 101 102
ENDBRANCH  69  94
ENDBRANCH  43  44
ENDBRANCH  35  38
ENDBRANCH  33  34
ENDBRANCH  32  33
ENDBRANCH  31  32
ENDBRANCH   1  31
TORSDOF 19
ENDMDL
