MODEL 1
REMARK VINA RESULT:     -11.6      0.000      0.000
REMARK SMILES C[NH2+][C@@]1(C(=O)NCCCCCCNC(=O)c2ccc(-c3c4nc(c(-c5c(F)cc(S(=O)(=O)[O-])cc5F)c5ccc([nH]5)c(-c5c(F)cc(S(=O)(=O)[O-])cc5F)c5nc(c(-c6c(F)cc(S(=O)(=O)[O-])cc6F)c6ccc3[nH]6)C=C5)C=C4)cc2)CC[C@H](Sc2nccc(=O)[nH]2)C1
REMARK SMILES IDX 10 1 9 2 8 3 7 4 6 5 4 6 5 7 3 9 82 10 93 11 83 12 84 13
REMARK SMILES IDX 2 14 1 15 85 18 86 19 87 20 92 21 88 22 90 23 89 25 91 26
REMARK SMILES IDX 11 27 12 28 13 29 14 30 15 32 16 33 17 34 81 35 18 36 80 37
REMARK SMILES IDX 19 38 20 39 21 40 74 41 22 42 79 43 73 44 75 45 23 46 78 47
REMARK SMILES IDX 72 48 71 49 24 51 58 52 37 53 57 54 38 55 41 56 56 57 76 58
REMARK SMILES IDX 39 59 40 60 55 62 77 63 42 64 25 65 26 66 35 67 27 68 28 69
REMARK SMILES IDX 34 70 36 71 29 72 30 73 31 74 32 75 33 76 59 77 60 78 69 79
REMARK SMILES IDX 61 80 62 81 68 82 70 83 63 84 64 85 65 86 66 87 67 88 43 89
REMARK SMILES IDX 44 90 53 91 45 92 46 93 52 94 54 95 47 96 48 97 49 98 50 99
REMARK SMILES IDX 51 100
REMARK H PARENT 6 8 2 16 2 17 92 24 13 31 75 50 41 61
REMARK Flexibility Score: inf
ROOT
ATOM      1  C   UNL A   1      41.867  21.888  26.727  1.00  0.00     0.002 C 
ENDROOT
BRANCH   1   2
ATOM      2  C   UNL A   1      40.395  22.159  27.051  1.00  0.00     0.002 C 
BRANCH   2   3
ATOM      3  C   UNL A   1      39.373  21.519  26.113  1.00  0.00     0.021 C 
BRANCH   3   4
ATOM      4  C   UNL A   1      38.126  22.344  25.838  1.00  0.00     0.116 C 
BRANCH   4   5
ATOM      5  N   UNL A   1      37.692  22.340  24.464  1.00  0.00    -0.351 N 
ATOM      6  C   UNL A   1      36.522  22.744  23.901  1.00  0.00     0.281 C 
ATOM      7  O   UNL A   1      36.569  22.926  22.673  1.00  0.00    -0.268 OA
ATOM      8  H   UNL A   1      38.353  21.985  23.826  1.00  0.00     0.163 HD
BRANCH   6   9
ATOM      9  C   UNL A   1      35.175  23.027  24.692  1.00  0.00     0.176 C 
ATOM     10  C   UNL A   1      35.195  22.299  26.055  1.00  0.00     0.080 C 
ATOM     11  C   UNL A   1      33.856  22.577  24.037  1.00  0.00     0.094 C 
ATOM     12  C   UNL A   1      34.335  21.045  25.893  1.00  0.00     0.022 C 
ATOM     13  C   UNL A   1      33.231  21.482  24.935  1.00  0.00     0.062 C 
BRANCH   9  14
ATOM     14  N   UNL A   1      35.136  24.500  24.981  1.00  0.00    -0.336 N 
ATOM     15  C   UNL A   1      34.144  25.242  24.199  1.00  0.00     0.331 C 
ATOM     16  H   UNL A   1      34.924  24.626  25.971  1.00  0.00     0.346 HD
ATOM     17  H   UNL A   1      36.050  24.872  24.721  1.00  0.00     0.346 HD
ENDBRANCH   9  14
BRANCH  13  18
ATOM     18  S   UNL A   1      32.306  20.337  23.868  1.00  0.00    -0.084 SA
BRANCH  18  19
ATOM     19  C   UNL A   1      32.645  18.720  24.371  1.00  0.00     0.168 A 
ATOM     20  N   UNL A   1      32.281  18.193  25.489  1.00  0.00    -0.233 NA
ATOM     21  N   UNL A   1      33.326  18.053  23.400  1.00  0.00    -0.301 N 
ATOM     22  C   UNL A   1      32.584  16.861  25.656  1.00  0.00     0.120 A 
ATOM     23  C   UNL A   1      33.666  16.742  23.518  1.00  0.00     0.251 A 
ATOM     24  H   UNL A   1      33.581  18.536  22.581  1.00  0.00     0.172 HD
ATOM     25  C   UNL A   1      33.229  16.098  24.766  1.00  0.00     0.091 A 
ATOM     26  O   UNL A   1      34.314  16.151  22.670  1.00  0.00    -0.269 OA
ENDBRANCH  18  19
ENDBRANCH  13  18
ENDBRANCH   6   9
ENDBRANCH   4   5
ENDBRANCH   3   4
ENDBRANCH   2   3
ENDBRANCH   1   2
BRANCH   1  27
ATOM     27  C   UNL A   1      42.901  22.473  27.696  1.00  0.00     0.021 C 
BRANCH  27  28
ATOM     28  C   UNL A   1      43.669  23.696  27.200  1.00  0.00     0.116 C 
BRANCH  28  29
ATOM     29  N   UNL A   1      43.032  24.341  26.067  1.00  0.00    -0.352 N 
ATOM     30  C   UNL A   1      42.218  25.448  26.037  1.00  0.00     0.251 C 
ATOM     31  H   UNL A   1      43.210  23.925  25.192  1.00  0.00     0.163 HD
ATOM     32  O   UNL A   1      41.662  25.758  24.986  1.00  0.00    -0.269 OA
BRANCH  30  33
ATOM     33  C   UNL A   1      41.982  26.246  27.262  1.00  0.00     0.039 A 
ATOM     34  C   UNL A   1      42.811  27.339  27.525  1.00  0.00     0.014 A 
ATOM     35  C   UNL A   1      40.966  25.918  28.161  1.00  0.00     0.014 A 
ATOM     36  C   UNL A   1      42.586  28.131  28.655  1.00  0.00     0.010 A 
ATOM     37  C   UNL A   1      40.700  26.750  29.252  1.00  0.00     0.010 A 
ATOM     38  C   UNL A   1      41.508  27.864  29.516  1.00  0.00    -0.014 A 
BRANCH  38  39
ATOM     39  C   UNL A   1      41.212  28.753  30.677  1.00  0.00     0.031 A 
ATOM     40  C   UNL A   1      41.993  28.632  31.960  1.00  0.00     0.074 A 
ATOM     41  C   UNL A   1      40.206  29.647  30.593  1.00  0.00     0.049 A 
ATOM     42  N   UNL A   1      41.868  29.317  33.069  1.00  0.00    -0.248 NA
ATOM     43  C   UNL A   1      43.035  27.596  32.013  1.00  0.00     0.031 C 
ATOM     44  C   UNL A   1      39.332  29.831  29.431  1.00  0.00     0.029 A 
ATOM     45  N   UNL A   1      39.743  30.568  31.502  1.00  0.00    -0.354 N 
ATOM     46  C   UNL A   1      42.806  28.792  33.951  1.00  0.00     0.074 A 
ATOM     47  C   UNL A   1      43.455  27.695  33.266  1.00  0.00     0.031 C 
ATOM     48  C   UNL A   1      38.463  30.821  29.687  1.00  0.00     0.029 A 
ATOM     49  C   UNL A   1      38.687  31.320  31.041  1.00  0.00     0.049 A 
ATOM     50  H   UNL A   1      40.132  30.681  32.399  1.00  0.00     0.167 HD
ATOM     51  C   UNL A   1      43.118  29.198  35.206  1.00  0.00     0.037 A 
ATOM     52  C   UNL A   1      37.975  32.297  31.638  1.00  0.00     0.037 A 
ATOM     53  C   UNL A   1      42.484  30.302  35.884  1.00  0.00     0.049 A 
ATOM     54  C   UNL A   1      38.336  32.730  33.034  1.00  0.00     0.074 A 
ATOM     55  C   UNL A   1      42.777  30.828  37.130  1.00  0.00     0.029 A 
ATOM     56  N   UNL A   1      41.426  31.042  35.378  1.00  0.00    -0.354 N 
ATOM     57  N   UNL A   1      39.282  32.275  33.820  1.00  0.00    -0.248 NA
ATOM     58  C   UNL A   1      37.537  33.815  33.622  1.00  0.00     0.031 C 
ATOM     59  C   UNL A   1      41.861  31.850  37.402  1.00  0.00     0.029 A 
ATOM     60  C   UNL A   1      41.036  32.001  36.300  1.00  0.00     0.049 A 
ATOM     61  H   UNL A   1      41.012  30.906  34.495  1.00  0.00     0.167 HD
ATOM     62  C   UNL A   1      39.211  33.036  34.982  1.00  0.00     0.074 A 
ATOM     63  C   UNL A   1      38.138  33.990  34.792  1.00  0.00     0.031 C 
ATOM     64  C   UNL A   1      39.969  32.953  36.103  1.00  0.00     0.037 A 
BRANCH  51  65
ATOM     65  C   UNL A   1      44.200  28.447  35.938  1.00  0.00     0.058 A 
ATOM     66  C   UNL A   1      45.554  28.805  35.821  1.00  0.00     0.135 A 
ATOM     67  C   UNL A   1      43.877  27.387  36.800  1.00  0.00     0.135 A 
ATOM     68  F   UNL A   1      45.922  29.805  35.004  1.00  0.00    -0.206 F 
ATOM     69  C   UNL A   1      46.551  28.117  36.505  1.00  0.00     0.059 A 
ATOM     70  C   UNL A   1      44.856  26.705  37.519  1.00  0.00     0.059 A 
ATOM     71  F   UNL A   1      42.600  27.005  36.954  1.00  0.00    -0.206 F 
ATOM     72  C   UNL A   1      46.191  27.067  37.353  1.00  0.00     0.060 A 
BRANCH  72  73
ATOM     73  S   UNL A   1      47.497  26.186  38.234  1.00  0.00     0.124 S 
ATOM     74  O   UNL A   1      46.765  25.049  38.782  1.00  0.00    -0.237 OA
ATOM     75  O   UNL A   1      48.440  25.876  37.164  1.00  0.00    -0.237 OA
ATOM     76  O   UNL A   1      47.965  27.162  39.214  1.00  0.00    -0.744 OA
ENDBRANCH  72  73
ENDBRANCH  51  65
BRANCH  52  77
ATOM     77  C   UNL A   1      36.854  32.949  30.906  1.00  0.00     0.058 A 
ATOM     78  C   UNL A   1      35.523  32.567  31.130  1.00  0.00     0.135 A 
ATOM     79  C   UNL A   1      37.093  33.972  29.975  1.00  0.00     0.135 A 
ATOM     80  F   UNL A   1      35.244  31.590  32.005  1.00  0.00    -0.206 F 
ATOM     81  C   UNL A   1      34.469  33.163  30.445  1.00  0.00     0.059 A 
ATOM     82  C   UNL A   1      36.054  34.601  29.298  1.00  0.00     0.059 A 
ATOM     83  F   UNL A   1      38.347  34.387  29.737  1.00  0.00    -0.206 F 
ATOM     84  C   UNL A   1      34.744  34.183  29.533  1.00  0.00     0.060 A 
BRANCH  84  85
ATOM     85  S   UNL A   1      33.366  34.984  28.685  1.00  0.00     0.124 S 
ATOM     86  O   UNL A   1      34.055  35.995  27.891  1.00  0.00    -0.237 OA
ATOM     87  O   UNL A   1      32.780  33.874  27.940  1.00  0.00    -0.237 OA
ATOM     88  O   UNL A   1      32.548  35.492  29.783  1.00  0.00    -0.744 OA
ENDBRANCH  84  85
ENDBRANCH  52  77
BRANCH  64  89
ATOM     89  C   UNL A   1      39.694  33.940  37.207  1.00  0.00     0.058 A 
ATOM     90  C   UNL A   1      38.914  33.603  38.325  1.00  0.00     0.135 A 
ATOM     91  C   UNL A   1      40.265  35.223  37.171  1.00  0.00     0.135 A 
ATOM     92  F   UNL A   1      38.338  32.394  38.408  1.00  0.00    -0.206 F 
ATOM     93  C   UNL A   1      38.689  34.512  39.355  1.00  0.00     0.059 A 
ATOM     94  C   UNL A   1      40.078  36.137  38.204  1.00  0.00     0.059 A 
ATOM     95  F   UNL A   1      41.028  35.595  36.131  1.00  0.00    -0.206 F 
ATOM     96  C   UNL A   1      39.278  35.776  39.287  1.00  0.00     0.060 A 
BRANCH  96  97
ATOM     97  S   UNL A   1      39.008  36.932  40.647  1.00  0.00     0.124 S 
ATOM     98  O   UNL A   1      38.308  38.021  39.973  1.00  0.00    -0.237 OA
ATOM     99  O   UNL A   1      38.205  36.141  41.574  1.00  0.00    -0.237 OA
ATOM    100  O   UNL A   1      40.359  37.242  41.105  1.00  0.00    -0.744 OA
ENDBRANCH  96  97
ENDBRANCH  64  89
ENDBRANCH  38  39
ENDBRANCH  30  33
ENDBRANCH  28  29
ENDBRANCH  27  28
ENDBRANCH   1  27
TORSDOF 19
ENDMDL
MODEL 2
REMARK VINA RESULT:     -11.2      1.455      2.381
REMARK SMILES C[NH2+][C@@]1(C(=O)NCCCCCCNC(=O)c2ccc(-c3c4nc(c(-c5c(F)cc(S(=O)(=O)[O-])cc5F)c5ccc([nH]5)c(-c5c(F)cc(S(=O)(=O)[O-])cc5F)c5nc(c(-c6c(F)cc(S(=O)(=O)[O-])cc6F)c6ccc3[nH]6)C=C5)C=C4)cc2)CC[C@H](Sc2nccc(=O)[nH]2)C1
REMARK SMILES IDX 10 1 9 2 8 3 7 4 6 5 4 6 5 7 3 9 82 10 93 11 83 12 84 13
REMARK SMILES IDX 2 14 1 15 85 18 86 19 87 20 92 21 88 22 90 23 89 25 91 26
REMARK SMILES IDX 11 27 12 28 13 29 14 30 15 32 16 33 17 34 81 35 18 36 80 37
REMARK SMILES IDX 19 38 20 39 21 40 74 41 22 42 79 43 73 44 75 45 23 46 78 47
REMARK SMILES IDX 72 48 71 49 24 51 58 52 37 53 57 54 38 55 41 56 56 57 76 58
REMARK SMILES IDX 39 59 40 60 55 62 77 63 42 64 25 65 26 66 35 67 27 68 28 69
REMARK SMILES IDX 34 70 36 71 29 72 30 73 31 74 32 75 33 76 59 77 60 78 69 79
REMARK SMILES IDX 61 80 62 81 68 82 70 83 63 84 64 85 65 86 66 87 67 88 43 89
REMARK SMILES IDX 44 90 53 91 45 92 46 93 52 94 54 95 47 96 48 97 49 98 50 99
REMARK SMILES IDX 51 100
REMARK H PARENT 6 8 2 16 2 17 92 24 13 31 75 50 41 61
REMARK Flexibility Score: inf
ROOT
ATOM      1  C   UNL A   1      37.262  23.265  24.343  1.00  0.00     0.002 C 
ENDROOT
BRANCH   1   2
ATOM      2  C   UNL A   1      35.934  22.734  23.793  1.00  0.00     0.002 C 
BRANCH   2   3
ATOM      3  C   UNL A   1      34.780  23.734  23.745  1.00  0.00     0.021 C 
BRANCH   3   4
ATOM      4  C   UNL A   1      34.379  24.338  25.082  1.00  0.00     0.116 C 
BRANCH   4   5
ATOM      5  N   UNL A   1      33.224  25.198  25.031  1.00  0.00    -0.351 N 
ATOM      6  C   UNL A   1      31.976  25.041  25.548  1.00  0.00     0.281 C 
ATOM      7  O   UNL A   1      31.309  26.085  25.626  1.00  0.00    -0.268 OA
ATOM      8  H   UNL A   1      33.361  26.040  24.538  1.00  0.00     0.163 HD
BRANCH   6   9
ATOM      9  C   UNL A   1      31.371  23.672  26.077  1.00  0.00     0.176 C 
ATOM     10  C   UNL A   1      32.232  23.122  27.236  1.00  0.00     0.080 C 
ATOM     11  C   UNL A   1      31.277  22.502  25.080  1.00  0.00     0.094 C 
ATOM     12  C   UNL A   1      33.103  22.014  26.644  1.00  0.00     0.022 C 
ATOM     13  C   UNL A   1      32.212  21.376  25.583  1.00  0.00     0.062 C 
BRANCH   9  14
ATOM     14  N   UNL A   1      30.015  23.981  26.645  1.00  0.00    -0.336 N 
ATOM     15  C   UNL A   1      29.410  22.878  27.395  1.00  0.00     0.331 C 
ATOM     16  H   UNL A   1      30.105  24.782  27.269  1.00  0.00     0.346 HD
ATOM     17  H   UNL A   1      29.402  24.164  25.850  1.00  0.00     0.346 HD
ENDBRANCH   9  14
BRANCH  13  18
ATOM     18  S   UNL A   1      32.847  20.480  24.134  1.00  0.00    -0.084 SA
BRANCH  18  19
ATOM     19  C   UNL A   1      32.923  18.798  24.518  1.00  0.00     0.168 A 
ATOM     20  N   UNL A   1      32.426  18.247  25.572  1.00  0.00    -0.233 NA
ATOM     21  N   UNL A   1      33.555  18.112  23.527  1.00  0.00    -0.301 N 
ATOM     22  C   UNL A   1      32.526  16.877  25.642  1.00  0.00     0.120 A 
ATOM     23  C   UNL A   1      33.698  16.760  23.552  1.00  0.00     0.251 A 
ATOM     24  H   UNL A   1      33.922  18.612  22.762  1.00  0.00     0.172 HD
ATOM     25  C   UNL A   1      33.105  16.096  24.722  1.00  0.00     0.091 A 
ATOM     26  O   UNL A   1      34.301  16.146  22.687  1.00  0.00    -0.269 OA
ENDBRANCH  18  19
ENDBRANCH  13  18
ENDBRANCH   6   9
ENDBRANCH   4   5
ENDBRANCH   3   4
ENDBRANCH   2   3
ENDBRANCH   1   2
BRANCH   1  27
ATOM     27  C   UNL A   1      37.540  23.011  25.829  1.00  0.00     0.021 C 
BRANCH  27  28
ATOM     28  C   UNL A   1      38.437  24.031  26.527  1.00  0.00     0.116 C 
BRANCH  28  29
ATOM     29  N   UNL A   1      39.840  23.871  26.193  1.00  0.00    -0.352 N 
ATOM     30  C   UNL A   1      40.923  24.615  26.596  1.00  0.00     0.251 C 
ATOM     31  H   UNL A   1      40.045  23.122  25.589  1.00  0.00     0.163 HD
ATOM     32  O   UNL A   1      42.022  24.404  26.089  1.00  0.00    -0.269 OA
BRANCH  30  33
ATOM     33  C   UNL A   1      40.771  25.685  27.609  1.00  0.00     0.039 A 
ATOM     34  C   UNL A   1      39.571  25.774  28.320  1.00  0.00     0.014 A 
ATOM     35  C   UNL A   1      41.787  26.610  27.851  1.00  0.00     0.014 A 
ATOM     36  C   UNL A   1      39.416  26.752  29.308  1.00  0.00     0.010 A 
ATOM     37  C   UNL A   1      41.656  27.541  28.885  1.00  0.00     0.010 A 
ATOM     38  C   UNL A   1      40.468  27.628  29.624  1.00  0.00    -0.014 A 
BRANCH  38  39
ATOM     39  C   UNL A   1      40.339  28.618  30.731  1.00  0.00     0.031 A 
ATOM     40  C   UNL A   1      41.185  28.501  31.974  1.00  0.00     0.074 A 
ATOM     41  C   UNL A   1      39.426  29.607  30.640  1.00  0.00     0.049 A 
ATOM     42  N   UNL A   1      41.202  29.268  33.035  1.00  0.00    -0.248 NA
ATOM     43  C   UNL A   1      42.117  27.366  32.043  1.00  0.00     0.031 C 
ATOM     44  C   UNL A   1      38.503  29.805  29.520  1.00  0.00     0.029 A 
ATOM     45  N   UNL A   1      39.120  30.630  31.504  1.00  0.00    -0.354 N 
ATOM     46  C   UNL A   1      42.136  28.706  33.899  1.00  0.00     0.074 A 
ATOM     47  C   UNL A   1      42.625  27.503  33.259  1.00  0.00     0.031 C 
ATOM     48  C   UNL A   1      37.757  30.896  29.751  1.00  0.00     0.029 A 
ATOM     49  C   UNL A   1      38.117  31.457  31.051  1.00  0.00     0.049 A 
ATOM     50  H   UNL A   1      39.574  30.760  32.368  1.00  0.00     0.167 HD
ATOM     51  C   UNL A   1      42.568  29.160  35.100  1.00  0.00     0.037 A 
ATOM     52  C   UNL A   1      37.548  32.542  31.615  1.00  0.00     0.037 A 
ATOM     53  C   UNL A   1      42.094  30.367  35.731  1.00  0.00     0.049 A 
ATOM     54  C   UNL A   1      38.041  33.026  32.952  1.00  0.00     0.074 A 
ATOM     55  C   UNL A   1      42.518  30.941  36.917  1.00  0.00     0.029 A 
ATOM     56  N   UNL A   1      41.087  31.180  35.234  1.00  0.00    -0.354 N 
ATOM     57  N   UNL A   1      38.984  32.526  33.714  1.00  0.00    -0.248 NA
ATOM     58  C   UNL A   1      37.396  34.227  33.504  1.00  0.00     0.031 C 
ATOM     59  C   UNL A   1      41.732  32.070  37.165  1.00  0.00     0.029 A 
ATOM     60  C   UNL A   1      40.857  32.234  36.104  1.00  0.00     0.049 A 
ATOM     61  H   UNL A   1      40.605  31.030  34.388  1.00  0.00     0.167 HD
ATOM     62  C   UNL A   1      39.066  33.367  34.820  1.00  0.00     0.074 A 
ATOM     63  C   UNL A   1      38.085  34.414  34.622  1.00  0.00     0.031 C 
ATOM     64  C   UNL A   1      39.882  33.279  35.899  1.00  0.00     0.037 A 
BRANCH  51  65
ATOM     65  C   UNL A   1      43.613  28.349  35.822  1.00  0.00     0.058 A 
ATOM     66  C   UNL A   1      43.264  27.308  36.699  1.00  0.00     0.135 A 
ATOM     67  C   UNL A   1      44.980  28.584  35.601  1.00  0.00     0.135 A 
ATOM     68  F   UNL A   1      41.973  27.044  36.956  1.00  0.00    -0.206 F 
ATOM     69  C   UNL A   1      44.231  26.554  37.356  1.00  0.00     0.059 A 
ATOM     70  C   UNL A   1      45.964  27.821  36.224  1.00  0.00     0.059 A 
ATOM     71  F   UNL A   1      45.372  29.562  34.769  1.00  0.00    -0.206 F 
ATOM     72  C   UNL A   1      45.580  26.818  37.112  1.00  0.00     0.060 A 
BRANCH  72  73
ATOM     73  S   UNL A   1      46.820  25.829  37.972  1.00  0.00     0.124 S 
ATOM     74  O   UNL A   1      45.996  25.088  38.921  1.00  0.00    -0.237 OA
ATOM     75  O   UNL A   1      47.399  25.043  36.887  1.00  0.00    -0.237 OA
ATOM     76  O   UNL A   1      47.706  26.829  38.559  1.00  0.00    -0.744 OA
ENDBRANCH  72  73
ENDBRANCH  51  65
BRANCH  52  77
ATOM     77  C   UNL A   1      36.456  33.259  30.902  1.00  0.00     0.058 A 
ATOM     78  C   UNL A   1      35.116  33.106  31.289  1.00  0.00     0.135 A 
ATOM     79  C   UNL A   1      36.731  34.117  29.826  1.00  0.00     0.135 A 
ATOM     80  F   UNL A   1      34.801  32.292  32.308  1.00  0.00    -0.206 F 
ATOM     81  C   UNL A   1      34.086  33.764  30.625  1.00  0.00     0.059 A 
ATOM     82  C   UNL A   1      35.721  34.806  29.164  1.00  0.00     0.059 A 
ATOM     83  F   UNL A   1      37.998  34.312  29.427  1.00  0.00    -0.206 F 
ATOM     84  C   UNL A   1      34.399  34.616  29.564  1.00  0.00     0.060 A 
BRANCH  84  85
ATOM     85  S   UNL A   1      33.059  35.503  28.740  1.00  0.00     0.124 S 
ATOM     86  O   UNL A   1      33.796  36.489  27.958  1.00  0.00    -0.237 OA
ATOM     87  O   UNL A   1      32.411  34.439  27.981  1.00  0.00    -0.237 OA
ATOM     88  O   UNL A   1      32.277  36.035  29.852  1.00  0.00    -0.744 OA
ENDBRANCH  84  85
ENDBRANCH  52  77
BRANCH  64  89
ATOM     89  C   UNL A   1      39.780  34.360  36.943  1.00  0.00     0.058 A 
ATOM     90  C   UNL A   1      38.973  34.217  38.083  1.00  0.00     0.135 A 
ATOM     91  C   UNL A   1      40.543  35.534  36.825  1.00  0.00     0.135 A 
ATOM     92  F   UNL A   1      38.218  33.120  38.242  1.00  0.00    -0.206 F 
ATOM     93  C   UNL A   1      38.908  35.210  39.056  1.00  0.00     0.059 A 
ATOM     94  C   UNL A   1      40.517  36.526  37.801  1.00  0.00     0.059 A 
ATOM     95  F   UNL A   1      41.340  35.719  35.760  1.00  0.00    -0.206 F 
ATOM     96  C   UNL A   1      39.686  36.360  38.908  1.00  0.00     0.060 A 
BRANCH  96  97
ATOM     97  S   UNL A   1      39.619  37.623  40.197  1.00  0.00     0.124 S 
ATOM     98  O   UNL A   1      38.661  38.568  39.632  1.00  0.00    -0.237 OA
ATOM     99  O   UNL A   1      39.154  36.864  41.353  1.00  0.00    -0.237 OA
ATOM    100  O   UNL A   1      40.996  38.099  40.280  1.00  0.00    -0.744 OA
ENDBRANCH  96  97
ENDBRANCH  64  89
ENDBRANCH  38  39
ENDBRANCH  30  33
ENDBRANCH  28  29
ENDBRANCH  27  28
ENDBRANCH   1  27
TORSDOF 19
ENDMDL
MODEL 3
REMARK VINA RESULT:     -11.1      6.362     12.153
REMARK SMILES C[NH2+][C@@]1(C(=O)NCCCCCCNC(=O)c2ccc(-c3c4nc(c(-c5c(F)cc(S(=O)(=O)[O-])cc5F)c5ccc([nH]5)c(-c5c(F)cc(S(=O)(=O)[O-])cc5F)c5nc(c(-c6c(F)cc(S(=O)(=O)[O-])cc6F)c6ccc3[nH]6)C=C5)C=C4)cc2)CC[C@H](Sc2nccc(=O)[nH]2)C1
REMARK SMILES IDX 10 1 9 2 8 3 7 4 6 5 4 6 5 7 3 9 82 10 93 11 83 12 84 13
REMARK SMILES IDX 2 14 1 15 85 18 86 19 87 20 92 21 88 22 90 23 89 25 91 26
REMARK SMILES IDX 11 27 12 28 13 29 14 30 15 32 16 33 17 34 81 35 18 36 80 37
REMARK SMILES IDX 19 38 20 39 21 40 74 41 22 42 79 43 73 44 75 45 23 46 78 47
REMARK SMILES IDX 72 48 71 49 24 51 58 52 37 53 57 54 38 55 41 56 56 57 76 58
REMARK SMILES IDX 39 59 40 60 55 62 77 63 42 64 25 65 26 66 35 67 27 68 28 69
REMARK SMILES IDX 34 70 36 71 29 72 30 73 31 74 32 75 33 76 59 77 60 78 69 79
REMARK SMILES IDX 61 80 62 81 68 82 70 83 63 84 64 85 65 86 66 87 67 88 43 89
REMARK SMILES IDX 44 90 53 91 45 92 46 93 52 94 54 95 47 96 48 97 49 98 50 99
REMARK SMILES IDX 51 100
REMARK H PARENT 6 8 2 16 2 17 92 24 13 31 75 50 41 61
REMARK Flexibility Score: inf
ROOT
ATOM      1  C   UNL A   1      35.704  32.879  28.016  1.00  0.00     0.002 C 
ENDROOT
BRANCH   1   2
ATOM      2  C   UNL A   1      34.715  31.723  27.842  1.00  0.00     0.002 C 
BRANCH   2   3
ATOM      3  C   UNL A   1      35.287  30.318  28.023  1.00  0.00     0.021 C 
BRANCH   3   4
ATOM      4  C   UNL A   1      34.538  29.206  27.306  1.00  0.00     0.116 C 
BRANCH   4   5
ATOM      5  N   UNL A   1      33.177  29.020  27.739  1.00  0.00    -0.351 N 
ATOM      6  C   UNL A   1      32.208  28.180  27.286  1.00  0.00     0.281 C 
ATOM      7  O   UNL A   1      31.255  28.014  28.066  1.00  0.00    -0.268 OA
ATOM      8  H   UNL A   1      32.901  29.598  28.487  1.00  0.00     0.163 HD
BRANCH   6   9
ATOM      9  C   UNL A   1      32.245  27.399  25.905  1.00  0.00     0.176 C 
ATOM     10  C   UNL A   1      30.833  27.353  25.280  1.00  0.00     0.080 C 
ATOM     11  C   UNL A   1      32.701  25.928  25.930  1.00  0.00     0.094 C 
ATOM     12  C   UNL A   1      30.276  25.958  25.564  1.00  0.00     0.022 C 
ATOM     13  C   UNL A   1      31.502  25.054  25.492  1.00  0.00     0.062 C 
BRANCH   9  14
ATOM     14  N   UNL A   1      33.113  28.196  24.973  1.00  0.00    -0.336 N 
ATOM     15  C   UNL A   1      32.396  28.796  23.846  1.00  0.00     0.331 C 
ATOM     16  H   UNL A   1      33.553  28.945  25.508  1.00  0.00     0.346 HD
ATOM     17  H   UNL A   1      33.789  27.544  24.575  1.00  0.00     0.346 HD
ENDBRANCH   9  14
BRANCH  13  18
ATOM     18  S   UNL A   1      31.629  23.453  26.344  1.00  0.00    -0.084 SA
BRANCH  18  19
ATOM     19  C   UNL A   1      31.915  22.223  25.166  1.00  0.00     0.168 A 
ATOM     20  N   UNL A   1      32.006  22.412  23.894  1.00  0.00    -0.233 NA
ATOM     21  N   UNL A   1      32.073  21.014  25.769  1.00  0.00    -0.301 N 
ATOM     22  C   UNL A   1      32.321  21.305  23.140  1.00  0.00     0.120 A 
ATOM     23  C   UNL A   1      32.368  19.884  25.072  1.00  0.00     0.251 A 
ATOM     24  H   UNL A   1      31.970  20.954  26.746  1.00  0.00     0.172 HD
ATOM     25  C   UNL A   1      32.519  20.073  23.622  1.00  0.00     0.091 A 
ATOM     26  O   UNL A   1      32.467  18.791  25.603  1.00  0.00    -0.269 OA
ENDBRANCH  18  19
ENDBRANCH  13  18
ENDBRANCH   6   9
ENDBRANCH   4   5
ENDBRANCH   3   4
ENDBRANCH   2   3
ENDBRANCH   1   2
BRANCH   1  27
ATOM     27  C   UNL A   1      35.654  33.630  29.352  1.00  0.00     0.021 C 
BRANCH  27  28
ATOM     28  C   UNL A   1      36.693  33.218  30.392  1.00  0.00     0.116 C 
BRANCH  28  29
ATOM     29  N   UNL A   1      36.257  32.108  31.218  1.00  0.00    -0.352 N 
ATOM     30  C   UNL A   1      36.833  30.873  31.395  1.00  0.00     0.251 C 
ATOM     31  H   UNL A   1      35.428  32.262  31.725  1.00  0.00     0.163 HD
ATOM     32  O   UNL A   1      36.232  30.013  32.034  1.00  0.00    -0.269 OA
BRANCH  30  33
ATOM     33  C   UNL A   1      38.152  30.561  30.798  1.00  0.00     0.039 A 
ATOM     34  C   UNL A   1      39.248  30.374  31.644  1.00  0.00     0.014 A 
ATOM     35  C   UNL A   1      38.324  30.472  29.415  1.00  0.00     0.014 A 
ATOM     36  C   UNL A   1      40.497  30.042  31.108  1.00  0.00     0.010 A 
ATOM     37  C   UNL A   1      39.554  30.073  28.886  1.00  0.00     0.010 A 
ATOM     38  C   UNL A   1      40.658  29.857  29.723  1.00  0.00    -0.014 A 
BRANCH  38  39
ATOM     39  C   UNL A   1      41.965  29.423  29.153  1.00  0.00     0.031 A 
ATOM     40  C   UNL A   1      43.100  30.401  28.992  1.00  0.00     0.074 A 
ATOM     41  C   UNL A   1      42.121  28.149  28.736  1.00  0.00     0.049 A 
ATOM     42  N   UNL A   1      44.302  30.199  28.511  1.00  0.00    -0.248 NA
ATOM     43  C   UNL A   1      42.849  31.789  29.405  1.00  0.00     0.031 C 
ATOM     44  C   UNL A   1      41.087  27.112  28.780  1.00  0.00     0.029 A 
ATOM     45  N   UNL A   1      43.207  27.509  28.189  1.00  0.00    -0.354 N 
ATOM     46  C   UNL A   1      44.944  31.431  28.556  1.00  0.00     0.074 A 
ATOM     47  C   UNL A   1      43.981  32.386  29.061  1.00  0.00     0.031 C 
ATOM     48  C   UNL A   1      41.597  25.962  28.310  1.00  0.00     0.029 A 
ATOM     49  C   UNL A   1      42.980  26.184  27.895  1.00  0.00     0.049 A 
ATOM     50  H   UNL A   1      44.068  27.956  28.023  1.00  0.00     0.167 HD
ATOM     51  C   UNL A   1      46.224  31.737  28.232  1.00  0.00     0.037 A 
ATOM     52  C   UNL A   1      43.787  25.251  27.351  1.00  0.00     0.037 A 
ATOM     53  C   UNL A   1      47.189  30.784  27.745  1.00  0.00     0.049 A 
ATOM     54  C   UNL A   1      45.204  25.615  26.996  1.00  0.00     0.074 A 
ATOM     55  C   UNL A   1      48.526  30.988  27.452  1.00  0.00     0.029 A 
ATOM     56  N   UNL A   1      46.921  29.451  27.472  1.00  0.00    -0.354 N 
ATOM     57  N   UNL A   1      45.818  26.767  27.124  1.00  0.00    -0.248 NA
ATOM     58  C   UNL A   1      46.042  24.549  26.427  1.00  0.00     0.031 C 
ATOM     59  C   UNL A   1      49.053  29.794  26.949  1.00  0.00     0.029 A 
ATOM     60  C   UNL A   1      48.060  28.829  26.986  1.00  0.00     0.049 A 
ATOM     61  H   UNL A   1      46.050  29.011  27.602  1.00  0.00     0.167 HD
ATOM     62  C   UNL A   1      47.119  26.558  26.680  1.00  0.00     0.074 A 
ATOM     63  C   UNL A   1      47.209  25.165  26.292  1.00  0.00     0.031 C 
ATOM     64  C   UNL A   1      48.147  27.439  26.605  1.00  0.00     0.037 A 
BRANCH  51  65
ATOM     65  C   UNL A   1      46.665  33.169  28.395  1.00  0.00     0.058 A 
ATOM     66  C   UNL A   1      47.103  33.670  29.632  1.00  0.00     0.135 A 
ATOM     67  C   UNL A   1      46.692  34.039  27.293  1.00  0.00     0.135 A 
ATOM     68  F   UNL A   1      47.090  32.886  30.723  1.00  0.00    -0.206 F 
ATOM     69  C   UNL A   1      47.519  34.989  29.778  1.00  0.00     0.059 A 
ATOM     70  C   UNL A   1      47.135  35.354  27.409  1.00  0.00     0.059 A 
ATOM     71  F   UNL A   1      46.290  33.614  26.085  1.00  0.00    -0.206 F 
ATOM     72  C   UNL A   1      47.532  35.825  28.659  1.00  0.00     0.060 A 
BRANCH  72  73
ATOM     73  S   UNL A   1      48.076  37.533  28.867  1.00  0.00     0.124 S 
ATOM     74  O   UNL A   1      47.426  38.186  27.736  1.00  0.00    -0.237 OA
ATOM     75  O   UNL A   1      47.546  37.871  30.184  1.00  0.00    -0.237 OA
ATOM     76  O   UNL A   1      49.530  37.439  28.785  1.00  0.00    -0.744 OA
ENDBRANCH  72  73
ENDBRANCH  51  65
BRANCH  52  77
ATOM     77  C   UNL A   1      43.278  23.870  27.127  1.00  0.00     0.058 A 
ATOM     78  C   UNL A   1      42.871  23.447  25.853  1.00  0.00     0.135 A 
ATOM     79  C   UNL A   1      43.195  22.947  28.180  1.00  0.00     0.135 A 
ATOM     80  F   UNL A   1      42.925  24.296  24.815  1.00  0.00    -0.206 F 
ATOM     81  C   UNL A   1      42.385  22.163  25.633  1.00  0.00     0.059 A 
ATOM     82  C   UNL A   1      42.738  21.648  27.979  1.00  0.00     0.059 A 
ATOM     83  F   UNL A   1      43.588  23.296  29.415  1.00  0.00    -0.206 F 
ATOM     84  C   UNL A   1      42.325  21.268  26.703  1.00  0.00     0.060 A 
BRANCH  84  85
ATOM     85  S   UNL A   1      41.738  19.588  26.398  1.00  0.00     0.124 S 
ATOM     86  O   UNL A   1      42.415  19.262  25.148  1.00  0.00    -0.237 OA
ATOM     87  O   UNL A   1      42.209  18.881  27.584  1.00  0.00    -0.237 OA
ATOM     88  O   UNL A   1      40.290  19.750  26.309  1.00  0.00    -0.744 OA
ENDBRANCH  84  85
ENDBRANCH  52  77
BRANCH  64  89
ATOM     89  C   UNL A   1      49.474  26.925  26.114  1.00  0.00     0.058 A 
ATOM     90  C   UNL A   1      49.841  26.992  24.760  1.00  0.00     0.135 A 
ATOM     91  C   UNL A   1      50.414  26.407  27.021  1.00  0.00     0.135 A 
ATOM     92  F   UNL A   1      48.979  27.471  23.850  1.00  0.00    -0.206 F 
ATOM     93  C   UNL A   1      51.082  26.541  24.320  1.00  0.00     0.059 A 
ATOM     94  C   UNL A   1      51.672  25.979  26.607  1.00  0.00     0.059 A 
ATOM     95  F   UNL A   1      50.120  26.329  28.329  1.00  0.00    -0.206 F 
ATOM     96  C   UNL A   1      51.993  26.039  25.252  1.00  0.00     0.060 A 
BRANCH  96  97
ATOM     97  S   UNL A   1      53.612  25.491  24.671  1.00  0.00     0.124 S 
ATOM     98  O   UNL A   1      54.503  26.403  25.382  1.00  0.00    -0.237 OA
ATOM     99  O   UNL A   1      53.647  24.100  25.112  1.00  0.00    -0.237 OA
ATOM    100  O   UNL A   1      53.539  25.683  23.226  1.00  0.00    -0.744 OA
ENDBRANCH  96  97
ENDBRANCH  64  89
ENDBRANCH  38  39
ENDBRANCH  30  33
ENDBRANCH  28  29
ENDBRANCH  27  28
ENDBRANCH   1  27
TORSDOF 19
ENDMDL
