MODEL 1
REMARK VINA RESULT:     -12.2      0.000      0.000
REMARK SMILES O=C(NCCCCCCNC(=O)[C@H]1[C@H]2CC[C@H](CC2)[C@H]1C(=O)Nc1ccc(C(=O)N2CCCC2)cc1)c1ccc(-c2c3nc(c(-c4c(F)cc(S(=O)(=O)[O-])cc4F)c4ccc([nH]4)c(-c4c(F)cc(S(=O)(=O)[O-])cc4F)c4nc(c(-c5c(F)cc(S(=O)(=O)[O-])cc5F)c5ccc2[nH]5)C=C4)C=C3)cc1
REMARK SMILES IDX 6 1 5 2 4 3 3 4 1 5 2 6 37 8 38 9 102 10 39 11 101 12 40 13
REMARK SMILES IDX 41 14 42 15 95 16 43 17 100 18 94 19 96 20 44 21 99 22 93 23
REMARK SMILES IDX 92 24 45 26 79 27 58 28 78 29 59 30 62 31 77 32 97 33 60 34
REMARK SMILES IDX 61 35 76 37 98 38 63 39 46 40 47 41 56 42 48 43 49 44 55 45
REMARK SMILES IDX 57 46 50 47 51 48 52 49 53 50 54 51 80 52 81 53 90 54 82 55
REMARK SMILES IDX 83 56 89 57 91 58 84 59 85 60 86 61 87 62 88 63 64 64 65 65
REMARK SMILES IDX 74 66 66 67 67 68 73 69 75 70 68 71 69 72 70 73 71 74 72 75
REMARK SMILES IDX 7 76 8 77 9 78 10 79 11 80 12 82 13 83 14 84 20 85 19 86
REMARK SMILES IDX 15 87 17 88 18 89 16 90 21 91 22 92 23 93 24 95 25 96 36 97
REMARK SMILES IDX 26 98 35 99 27 100 28 101 29 102 30 103 31 104 34 105 32 106
REMARK SMILES IDX 33 107
REMARK H PARENT 3 7 96 25 62 36 10 81 23 94
REMARK Flexibility Score: inf
ROOT
ATOM      1  C   UNL A   1      35.544  23.415  23.548  1.00  0.00     0.002 C 
ENDROOT
BRANCH   1   2
ATOM      2  C   UNL A   1      35.185  24.230  24.788  1.00  0.00     0.021 C 
BRANCH   2   3
ATOM      3  C   UNL A   1      36.224  24.189  25.901  1.00  0.00     0.116 C 
BRANCH   3   4
ATOM      4  N   UNL A   1      36.985  22.952  25.920  1.00  0.00    -0.352 N 
ATOM      5  O   UNL A   1      38.853  21.692  26.064  1.00  0.00    -0.269 OA
ATOM      6  C   UNL A   1      38.318  22.777  26.218  1.00  0.00     0.251 C 
ATOM      7  H   UNL A   1      36.484  22.136  25.691  1.00  0.00     0.163 HD
BRANCH   6   8
ATOM      8  C   UNL A   1      39.095  23.942  26.697  1.00  0.00     0.039 A 
ATOM      9  C   UNL A   1      39.114  24.269  28.055  1.00  0.00     0.014 A 
ATOM     10  C   UNL A   1      39.770  24.736  25.767  1.00  0.00     0.014 A 
ATOM     11  C   UNL A   1      39.691  25.465  28.467  1.00  0.00     0.010 A 
ATOM     12  C   UNL A   1      40.425  25.891  26.198  1.00  0.00     0.010 A 
ATOM     13  C   UNL A   1      40.366  26.281  27.546  1.00  0.00    -0.014 A 
BRANCH  13  14
ATOM     14  C   UNL A   1      41.060  27.505  28.019  1.00  0.00     0.031 A 
ATOM     15  C   UNL A   1      42.555  27.636  27.930  1.00  0.00     0.074 A 
ATOM     16  C   UNL A   1      40.319  28.504  28.538  1.00  0.00     0.049 A 
ATOM     17  N   UNL A   1      43.320  28.618  28.333  1.00  0.00    -0.248 NA
ATOM     18  C   UNL A   1      43.288  26.518  27.316  1.00  0.00     0.031 C 
ATOM     19  C   UNL A   1      38.861  28.484  28.681  1.00  0.00     0.029 A 
ATOM     20  N   UNL A   1      40.683  29.725  29.041  1.00  0.00    -0.354 N 
ATOM     21  C   UNL A   1      44.624  28.233  28.043  1.00  0.00     0.074 A 
ATOM     22  C   UNL A   1      44.547  26.913  27.451  1.00  0.00     0.031 C 
ATOM     23  C   UNL A   1      38.453  29.647  29.205  1.00  0.00     0.029 A 
ATOM     24  C   UNL A   1      39.621  30.467  29.502  1.00  0.00     0.049 A 
ATOM     25  H   UNL A   1      41.615  30.042  29.070  1.00  0.00     0.167 HD
ATOM     26  C   UNL A   1      45.774  28.919  28.249  1.00  0.00     0.037 A 
ATOM     27  C   UNL A   1      39.589  31.661  30.122  1.00  0.00     0.037 A 
ATOM     28  C   UNL A   1      45.833  30.235  28.837  1.00  0.00     0.049 A 
ATOM     29  C   UNL A   1      40.879  32.386  30.371  1.00  0.00     0.074 A 
ATOM     30  C   UNL A   1      46.944  31.029  29.061  1.00  0.00     0.029 A 
ATOM     31  N   UNL A   1      44.736  30.946  29.306  1.00  0.00    -0.354 N 
ATOM     32  N   UNL A   1      42.100  32.019  30.063  1.00  0.00    -0.248 NA
ATOM     33  C   UNL A   1      40.789  33.683  31.051  1.00  0.00     0.031 C 
ATOM     34  C   UNL A   1      46.527  32.195  29.712  1.00  0.00     0.029 A 
ATOM     35  C   UNL A   1      45.148  32.158  29.840  1.00  0.00     0.049 A 
ATOM     36  H   UNL A   1      43.803  30.635  29.266  1.00  0.00     0.167 HD
ATOM     37  C   UNL A   1      42.925  33.053  30.491  1.00  0.00     0.074 A 
ATOM     38  C   UNL A   1      42.060  34.063  31.068  1.00  0.00     0.031 C 
ATOM     39  C   UNL A   1      44.274  33.156  30.408  1.00  0.00     0.037 A 
BRANCH  26  40
ATOM     40  C   UNL A   1      47.068  28.254  27.859  1.00  0.00     0.058 A 
ATOM     41  C   UNL A   1      47.783  27.441  28.753  1.00  0.00     0.135 A 
ATOM     42  C   UNL A   1      47.584  28.406  26.561  1.00  0.00     0.135 A 
ATOM     43  F   UNL A   1      47.345  27.269  30.011  1.00  0.00    -0.206 F 
ATOM     44  C   UNL A   1      48.980  26.832  28.387  1.00  0.00     0.059 A 
ATOM     45  C   UNL A   1      48.765  27.784  26.164  1.00  0.00     0.059 A 
ATOM     46  F   UNL A   1      46.941  29.168  25.663  1.00  0.00    -0.206 F 
ATOM     47  C   UNL A   1      49.465  27.013  27.090  1.00  0.00     0.060 A 
BRANCH  47  48
ATOM     48  S   UNL A   1      51.028  26.232  26.639  1.00  0.00     0.124 S 
ATOM     49  O   UNL A   1      50.976  26.304  25.181  1.00  0.00    -0.237 OA
ATOM     50  O   UNL A   1      52.008  27.102  27.279  1.00  0.00    -0.237 OA
ATOM     51  O   UNL A   1      50.916  24.892  27.204  1.00  0.00    -0.744 OA
ENDBRANCH  47  48
ENDBRANCH  26  40
BRANCH  27  52
ATOM     52  C   UNL A   1      38.284  32.228  30.548  1.00  0.00     0.058 A 
ATOM     53  C   UNL A   1      37.738  31.924  31.803  1.00  0.00     0.135 A 
ATOM     54  C   UNL A   1      37.580  33.126  29.728  1.00  0.00     0.135 A 
ATOM     55  F   UNL A   1      38.373  31.069  32.621  1.00  0.00    -0.206 F 
ATOM     56  C   UNL A   1      36.538  32.483  32.229  1.00  0.00     0.059 A 
ATOM     57  C   UNL A   1      36.394  33.720  30.144  1.00  0.00     0.059 A 
ATOM     58  F   UNL A   1      38.072  33.465  28.526  1.00  0.00    -0.206 F 
ATOM     59  C   UNL A   1      35.878  33.386  31.394  1.00  0.00     0.060 A 
BRANCH  59  60
ATOM     60  S   UNL A   1      34.356  34.155  31.986  1.00  0.00     0.124 S 
ATOM     61  O   UNL A   1      33.648  34.405  30.737  1.00  0.00    -0.237 OA
ATOM     62  O   UNL A   1      33.797  33.111  32.840  1.00  0.00    -0.237 OA
ATOM     63  O   UNL A   1      34.832  35.342  32.692  1.00  0.00    -0.744 OA
ENDBRANCH  59  60
ENDBRANCH  27  52
BRANCH  39  64
ATOM     64  C   UNL A   1      44.901  34.423  30.919  1.00  0.00     0.058 A 
ATOM     65  C   UNL A   1      45.366  34.542  32.239  1.00  0.00     0.135 A 
ATOM     66  C   UNL A   1      45.082  35.519  30.059  1.00  0.00     0.135 A 
ATOM     67  F   UNL A   1      45.208  33.528  33.105  1.00  0.00    -0.206 F 
ATOM     68  C   UNL A   1      45.969  35.710  32.694  1.00  0.00     0.059 A 
ATOM     69  C   UNL A   1      45.709  36.685  30.485  1.00  0.00     0.059 A 
ATOM     70  F   UNL A   1      44.661  35.456  28.786  1.00  0.00    -0.206 F 
ATOM     71  C   UNL A   1      46.139  36.776  31.807  1.00  0.00     0.060 A 
BRANCH  71  72
ATOM     72  S   UNL A   1      46.960  38.271  32.399  1.00  0.00     0.124 S 
ATOM     73  O   UNL A   1      47.748  38.655  31.233  1.00  0.00    -0.237 OA
ATOM     74  O   UNL A   1      45.831  39.141  32.716  1.00  0.00    -0.237 OA
ATOM     75  O   UNL A   1      47.726  37.804  33.550  1.00  0.00    -0.744 OA
ENDBRANCH  71  72
ENDBRANCH  39  64
ENDBRANCH  13  14
ENDBRANCH   6   8
ENDBRANCH   3   4
ENDBRANCH   2   3
ENDBRANCH   1   2
BRANCH   1  76
ATOM     76  C   UNL A   1      34.408  23.256  22.534  1.00  0.00     0.002 C 
BRANCH  76  77
ATOM     77  C   UNL A   1      33.291  24.313  22.619  1.00  0.00     0.021 C 
BRANCH  77  78
ATOM     78  C   UNL A   1      31.927  23.779  23.060  1.00  0.00     0.116 C 
BRANCH  78  79
ATOM     79  N   UNL A   1      30.941  24.827  22.959  1.00  0.00    -0.356 N 
ATOM     80  C   UNL A   1      30.876  26.085  23.422  1.00  0.00     0.224 C 
ATOM     81  H   UNL A   1      30.147  24.563  22.441  1.00  0.00     0.163 HD
ATOM     82  O   UNL A   1      29.788  26.636  23.221  1.00  0.00    -0.275 OA
BRANCH  80  83
ATOM     83  C   UNL A   1      31.949  26.760  24.255  1.00  0.00     0.094 C 
ATOM     84  C   UNL A   1      32.223  28.290  24.410  1.00  0.00     0.002 C 
ATOM     85  C   UNL A   1      32.099  26.081  25.631  1.00  0.00     0.094 C 
ATOM     86  C   UNL A   1      31.692  28.952  25.704  1.00  0.00     0.005 C 
ATOM     87  C   UNL A   1      33.760  28.408  24.578  1.00  0.00     0.005 C 
ATOM     88  C   UNL A   1      32.959  26.991  26.553  1.00  0.00     0.002 C 
ATOM     89  C   UNL A   1      32.146  28.213  26.965  1.00  0.00     0.005 C 
ATOM     90  C   UNL A   1      34.196  27.524  25.771  1.00  0.00     0.005 C 
BRANCH  85  91
ATOM     91  C   UNL A   1      30.910  25.374  26.354  1.00  0.00     0.228 C 
ATOM     92  O   UNL A   1      29.882  26.056  26.528  1.00  0.00    -0.274 OA
ATOM     93  N   UNL A   1      30.757  24.056  26.684  1.00  0.00    -0.326 N 
ATOM     94  H   UNL A   1      29.883  23.867  27.097  1.00  0.00     0.169 HD
BRANCH  93  95
ATOM     95  C   UNL A   1      31.558  22.915  26.570  1.00  0.00     0.041 A 
ATOM     96  C   UNL A   1      31.144  21.908  25.702  1.00  0.00     0.027 A 
ATOM     97  C   UNL A   1      32.720  22.704  27.297  1.00  0.00     0.027 A 
ATOM     98  C   UNL A   1      32.045  20.901  25.327  1.00  0.00     0.016 A 
ATOM     99  C   UNL A   1      33.633  21.703  26.925  1.00  0.00     0.016 A 
ATOM    100  C   UNL A   1      33.354  20.865  25.847  1.00  0.00     0.040 A 
BRANCH 100 101
ATOM    101  C   UNL A   1      34.374  20.132  25.013  1.00  0.00     0.253 C 
ATOM    102  O   UNL A   1      35.549  20.493  25.107  1.00  0.00    -0.269 OA
ATOM    103  N   UNL A   1      34.053  18.916  24.429  1.00  0.00    -0.339 N 
ATOM    104  C   UNL A   1      33.041  18.612  23.433  1.00  0.00     0.120 C 
ATOM    105  C   UNL A   1      35.020  17.825  24.472  1.00  0.00     0.120 C 
ATOM    106  C   UNL A   1      32.915  17.103  23.540  1.00  0.00     0.023 C 
ATOM    107  C   UNL A   1      34.365  16.663  23.725  1.00  0.00     0.023 C 
ENDBRANCH 100 101
ENDBRANCH  93  95
ENDBRANCH  85  91
ENDBRANCH  80  83
ENDBRANCH  78  79
ENDBRANCH  77  78
ENDBRANCH  76  77
ENDBRANCH   1  76
TORSDOF 19
ENDMDL
MODEL 2
REMARK VINA RESULT:     -12.1      2.195      2.834
REMARK SMILES O=C(NCCCCCCNC(=O)[C@H]1[C@H]2CC[C@H](CC2)[C@H]1C(=O)Nc1ccc(C(=O)N2CCCC2)cc1)c1ccc(-c2c3nc(c(-c4c(F)cc(S(=O)(=O)[O-])cc4F)c4ccc([nH]4)c(-c4c(F)cc(S(=O)(=O)[O-])cc4F)c4nc(c(-c5c(F)cc(S(=O)(=O)[O-])cc5F)c5ccc2[nH]5)C=C4)C=C3)cc1
REMARK SMILES IDX 6 1 5 2 4 3 3 4 1 5 2 6 37 8 38 9 102 10 39 11 101 12 40 13
REMARK SMILES IDX 41 14 42 15 95 16 43 17 100 18 94 19 96 20 44 21 99 22 93 23
REMARK SMILES IDX 92 24 45 26 79 27 58 28 78 29 59 30 62 31 77 32 97 33 60 34
REMARK SMILES IDX 61 35 76 37 98 38 63 39 46 40 47 41 56 42 48 43 49 44 55 45
REMARK SMILES IDX 57 46 50 47 51 48 52 49 53 50 54 51 80 52 81 53 90 54 82 55
REMARK SMILES IDX 83 56 89 57 91 58 84 59 85 60 86 61 87 62 88 63 64 64 65 65
REMARK SMILES IDX 74 66 66 67 67 68 73 69 75 70 68 71 69 72 70 73 71 74 72 75
REMARK SMILES IDX 7 76 8 77 9 78 10 79 11 80 12 82 13 83 14 84 20 85 19 86
REMARK SMILES IDX 15 87 17 88 18 89 16 90 21 91 22 92 23 93 24 95 25 96 36 97
REMARK SMILES IDX 26 98 35 99 27 100 28 101 29 102 30 103 31 104 34 105 32 106
REMARK SMILES IDX 33 107
REMARK H PARENT 3 7 96 25 62 36 10 81 23 94
REMARK Flexibility Score: inf
ROOT
ATOM      1  C   UNL A   1      35.372  23.334  23.512  1.00  0.00     0.002 C 
ENDROOT
BRANCH   1   2
ATOM      2  C   UNL A   1      35.216  24.384  24.610  1.00  0.00     0.021 C 
BRANCH   2   3
ATOM      3  C   UNL A   1      36.269  24.318  25.709  1.00  0.00     0.116 C 
BRANCH   3   4
ATOM      4  N   UNL A   1      37.157  23.176  25.575  1.00  0.00    -0.352 N 
ATOM      5  O   UNL A   1      39.130  22.085  25.683  1.00  0.00    -0.269 OA
ATOM      6  C   UNL A   1      38.467  23.064  25.983  1.00  0.00     0.251 C 
ATOM      7  H   UNL A   1      36.772  22.382  25.138  1.00  0.00     0.163 HD
BRANCH   6   8
ATOM      8  C   UNL A   1      39.063  24.172  26.762  1.00  0.00     0.039 A 
ATOM      9  C   UNL A   1      38.777  24.314  28.122  1.00  0.00     0.014 A 
ATOM     10  C   UNL A   1      39.878  25.100  26.109  1.00  0.00     0.014 A 
ATOM     11  C   UNL A   1      39.190  25.456  28.797  1.00  0.00     0.010 A 
ATOM     12  C   UNL A   1      40.365  26.202  26.813  1.00  0.00     0.010 A 
ATOM     13  C   UNL A   1      40.001  26.405  28.154  1.00  0.00    -0.014 A 
BRANCH  13  14
ATOM     14  C   UNL A   1      40.514  27.570  28.918  1.00  0.00     0.031 A 
ATOM     15  C   UNL A   1      41.882  27.551  29.543  1.00  0.00     0.074 A 
ATOM     16  C   UNL A   1      39.724  28.654  29.045  1.00  0.00     0.049 A 
ATOM     17  N   UNL A   1      42.465  28.465  30.273  1.00  0.00    -0.248 NA
ATOM     18  C   UNL A   1      42.697  26.345  29.327  1.00  0.00     0.031 C 
ATOM     19  C   UNL A   1      38.376  28.782  28.486  1.00  0.00     0.029 A 
ATOM     20  N   UNL A   1      39.934  29.850  29.679  1.00  0.00    -0.354 N 
ATOM     21  C   UNL A   1      43.706  27.944  30.624  1.00  0.00     0.074 A 
ATOM     22  C   UNL A   1      43.780  26.618  30.044  1.00  0.00     0.031 C 
ATOM     23  C   UNL A   1      37.892  29.998  28.776  1.00  0.00     0.029 A 
ATOM     24  C   UNL A   1      38.863  30.708  29.599  1.00  0.00     0.049 A 
ATOM     25  H   UNL A   1      40.771  30.075  30.147  1.00  0.00     0.167 HD
ATOM     26  C   UNL A   1      44.689  28.520  31.356  1.00  0.00     0.037 A 
ATOM     27  C   UNL A   1      38.667  31.920  30.150  1.00  0.00     0.037 A 
ATOM     28  C   UNL A   1      44.601  29.843  31.924  1.00  0.00     0.049 A 
ATOM     29  C   UNL A   1      39.757  32.523  30.987  1.00  0.00     0.074 A 
ATOM     30  C   UNL A   1      45.553  30.531  32.656  1.00  0.00     0.029 A 
ATOM     31  N   UNL A   1      43.492  30.674  31.835  1.00  0.00    -0.354 N 
ATOM     32  N   UNL A   1      40.935  32.027  31.284  1.00  0.00    -0.248 NA
ATOM     33  C   UNL A   1      39.493  33.845  31.567  1.00  0.00     0.031 C 
ATOM     34  C   UNL A   1      45.002  31.754  33.054  1.00  0.00     0.029 A 
ATOM     35  C   UNL A   1      43.728  31.858  32.519  1.00  0.00     0.049 A 
ATOM     36  H   UNL A   1      42.660  30.456  31.357  1.00  0.00     0.167 HD
ATOM     37  C   UNL A   1      41.565  32.989  32.065  1.00  0.00     0.074 A 
ATOM     38  C   UNL A   1      40.639  34.098  32.185  1.00  0.00     0.031 C 
ATOM     39  C   UNL A   1      42.798  32.955  32.627  1.00  0.00     0.037 A 
BRANCH  26  40
ATOM     40  C   UNL A   1      45.938  27.718  31.609  1.00  0.00     0.058 A 
ATOM     41  C   UNL A   1      46.072  26.887  32.733  1.00  0.00     0.135 A 
ATOM     42  C   UNL A   1      47.006  27.756  30.696  1.00  0.00     0.135 A 
ATOM     43  F   UNL A   1      45.090  26.820  33.647  1.00  0.00    -0.206 F 
ATOM     44  C   UNL A   1      47.232  26.151  32.961  1.00  0.00     0.059 A 
ATOM     45  C   UNL A   1      48.163  27.006  30.890  1.00  0.00     0.059 A 
ATOM     46  F   UNL A   1      46.932  28.529  29.602  1.00  0.00    -0.206 F 
ATOM     47  C   UNL A   1      48.274  26.221  32.035  1.00  0.00     0.060 A 
BRANCH  47  48
ATOM     48  S   UNL A   1      49.777  25.274  32.358  1.00  0.00     0.124 S 
ATOM     49  O   UNL A   1      49.268  24.209  33.217  1.00  0.00    -0.237 OA
ATOM     50  O   UNL A   1      50.181  24.866  31.017  1.00  0.00    -0.237 OA
ATOM     51  O   UNL A   1      50.654  26.240  33.011  1.00  0.00    -0.744 OA
ENDBRANCH  47  48
ENDBRANCH  26  40
BRANCH  27  52
ATOM     52  C   UNL A   1      37.380  32.627  29.923  1.00  0.00     0.058 A 
ATOM     53  C   UNL A   1      37.277  33.655  28.975  1.00  0.00     0.135 A 
ATOM     54  C   UNL A   1      36.215  32.254  30.614  1.00  0.00     0.135 A 
ATOM     55  F   UNL A   1      38.364  34.048  28.292  1.00  0.00    -0.206 F 
ATOM     56  C   UNL A   1      36.068  34.294  28.724  1.00  0.00     0.059 A 
ATOM     57  C   UNL A   1      34.989  32.858  30.360  1.00  0.00     0.059 A 
ATOM     58  F   UNL A   1      36.258  31.262  31.517  1.00  0.00    -0.206 F 
ATOM     59  C   UNL A   1      34.928  33.883  29.417  1.00  0.00     0.060 A 
BRANCH  59  60
ATOM     60  S   UNL A   1      33.352  34.674  29.034  1.00  0.00     0.124 S 
ATOM     61  O   UNL A   1      33.791  35.919  28.415  1.00  0.00    -0.237 OA
ATOM     62  O   UNL A   1      32.730  33.701  28.142  1.00  0.00    -0.237 OA
ATOM     63  O   UNL A   1      32.717  34.809  30.342  1.00  0.00    -0.744 OA
ENDBRANCH  59  60
ENDBRANCH  27  52
BRANCH  39  64
ATOM     64  C   UNL A   1      43.239  34.172  33.393  1.00  0.00     0.058 A 
ATOM     65  C   UNL A   1      43.833  35.274  32.757  1.00  0.00     0.135 A 
ATOM     66  C   UNL A   1      43.019  34.253  34.778  1.00  0.00     0.135 A 
ATOM     67  F   UNL A   1      44.075  35.243  31.437  1.00  0.00    -0.206 F 
ATOM     68  C   UNL A   1      44.211  36.406  33.471  1.00  0.00     0.059 A 
ATOM     69  C   UNL A   1      43.362  35.387  35.506  1.00  0.00     0.059 A 
ATOM     70  F   UNL A   1      42.449  33.230  35.433  1.00  0.00    -0.206 F 
ATOM     71  C   UNL A   1      43.968  36.455  34.846  1.00  0.00     0.060 A 
BRANCH  71  72
ATOM     72  S   UNL A   1      44.428  37.946  35.754  1.00  0.00     0.124 S 
ATOM     73  O   UNL A   1      45.869  37.769  35.899  1.00  0.00    -0.237 OA
ATOM     74  O   UNL A   1      44.008  39.007  34.844  1.00  0.00    -0.237 OA
ATOM     75  O   UNL A   1      43.655  37.843  36.988  1.00  0.00    -0.744 OA
ENDBRANCH  71  72
ENDBRANCH  39  64
ENDBRANCH  13  14
ENDBRANCH   6   8
ENDBRANCH   3   4
ENDBRANCH   2   3
ENDBRANCH   1   2
BRANCH   1  76
ATOM     76  C   UNL A   1      34.279  23.361  22.440  1.00  0.00     0.002 C 
BRANCH  76  77
ATOM     77  C   UNL A   1      33.220  24.468  22.600  1.00  0.00     0.021 C 
BRANCH  77  78
ATOM     78  C   UNL A   1      31.855  23.991  23.100  1.00  0.00     0.116 C 
BRANCH  78  79
ATOM     79  N   UNL A   1      30.904  25.071  23.013  1.00  0.00    -0.356 N 
ATOM     80  C   UNL A   1      30.866  26.315  23.514  1.00  0.00     0.224 C 
ATOM     81  H   UNL A   1      30.113  24.848  22.470  1.00  0.00     0.163 HD
ATOM     82  O   UNL A   1      29.799  26.904  23.308  1.00  0.00    -0.275 OA
BRANCH  80  83
ATOM     83  C   UNL A   1      31.941  26.931  24.389  1.00  0.00     0.094 C 
ATOM     84  C   UNL A   1      32.225  28.447  24.636  1.00  0.00     0.002 C 
ATOM     85  C   UNL A   1      32.080  26.171  25.722  1.00  0.00     0.094 C 
ATOM     86  C   UNL A   1      31.694  29.035  25.966  1.00  0.00     0.005 C 
ATOM     87  C   UNL A   1      33.762  28.544  24.816  1.00  0.00     0.005 C 
ATOM     88  C   UNL A   1      32.943  27.018  26.700  1.00  0.00     0.002 C 
ATOM     89  C   UNL A   1      32.137  28.219  27.181  1.00  0.00     0.005 C 
ATOM     90  C   UNL A   1      34.187  27.587  25.955  1.00  0.00     0.005 C 
BRANCH  85  91
ATOM     91  C   UNL A   1      30.883  25.430  26.398  1.00  0.00     0.228 C 
ATOM     92  O   UNL A   1      29.838  26.091  26.550  1.00  0.00    -0.274 OA
ATOM     93  N   UNL A   1      30.745  24.105  26.704  1.00  0.00    -0.326 N 
ATOM     94  H   UNL A   1      29.863  23.893  27.087  1.00  0.00     0.169 HD
BRANCH  93  95
ATOM     95  C   UNL A   1      31.570  22.981  26.598  1.00  0.00     0.041 A 
ATOM     96  C   UNL A   1      31.148  21.931  25.787  1.00  0.00     0.027 A 
ATOM     97  C   UNL A   1      32.767  22.828  27.281  1.00  0.00     0.027 A 
ATOM     98  C   UNL A   1      32.059  20.934  25.411  1.00  0.00     0.016 A 
ATOM     99  C   UNL A   1      33.691  21.836  26.908  1.00  0.00     0.016 A 
ATOM    100  C   UNL A   1      33.389  20.950  25.875  1.00  0.00     0.040 A 
BRANCH 100 101
ATOM    101  C   UNL A   1      34.392  20.212  25.026  1.00  0.00     0.253 C 
ATOM    102  O   UNL A   1      35.573  20.555  25.115  1.00  0.00    -0.269 OA
ATOM    103  N   UNL A   1      34.049  19.007  24.431  1.00  0.00    -0.339 N 
ATOM    104  C   UNL A   1      33.026  18.729  23.439  1.00  0.00     0.120 C 
ATOM    105  C   UNL A   1      35.000  17.902  24.455  1.00  0.00     0.120 C 
ATOM    106  C   UNL A   1      32.879  17.220  23.531  1.00  0.00     0.023 C 
ATOM    107  C   UNL A   1      34.323  16.757  23.701  1.00  0.00     0.023 C 
ENDBRANCH 100 101
ENDBRANCH  93  95
ENDBRANCH  85  91
ENDBRANCH  80  83
ENDBRANCH  78  79
ENDBRANCH  77  78
ENDBRANCH  76  77
ENDBRANCH   1  76
TORSDOF 19
ENDMDL
MODEL 3
REMARK VINA RESULT:     -12.0      3.117      9.605
REMARK SMILES O=C(NCCCCCCNC(=O)[C@H]1[C@H]2CC[C@H](CC2)[C@H]1C(=O)Nc1ccc(C(=O)N2CCCC2)cc1)c1ccc(-c2c3nc(c(-c4c(F)cc(S(=O)(=O)[O-])cc4F)c4ccc([nH]4)c(-c4c(F)cc(S(=O)(=O)[O-])cc4F)c4nc(c(-c5c(F)cc(S(=O)(=O)[O-])cc5F)c5ccc2[nH]5)C=C4)C=C3)cc1
REMARK SMILES IDX 6 1 5 2 4 3 3 4 1 5 2 6 37 8 38 9 102 10 39 11 101 12 40 13
REMARK SMILES IDX 41 14 42 15 95 16 43 17 100 18 94 19 96 20 44 21 99 22 93 23
REMARK SMILES IDX 92 24 45 26 79 27 58 28 78 29 59 30 62 31 77 32 97 33 60 34
REMARK SMILES IDX 61 35 76 37 98 38 63 39 46 40 47 41 56 42 48 43 49 44 55 45
REMARK SMILES IDX 57 46 50 47 51 48 52 49 53 50 54 51 80 52 81 53 90 54 82 55
REMARK SMILES IDX 83 56 89 57 91 58 84 59 85 60 86 61 87 62 88 63 64 64 65 65
REMARK SMILES IDX 74 66 66 67 67 68 73 69 75 70 68 71 69 72 70 73 71 74 72 75
REMARK SMILES IDX 7 76 8 77 9 78 10 79 11 80 12 82 13 83 14 84 20 85 19 86
REMARK SMILES IDX 15 87 17 88 18 89 16 90 21 91 22 92 23 93 24 95 25 96 36 97
REMARK SMILES IDX 26 98 35 99 27 100 28 101 29 102 30 103 31 104 34 105 32 106
REMARK SMILES IDX 33 107
REMARK H PARENT 3 7 96 25 62 36 10 81 23 94
REMARK Flexibility Score: inf
ROOT
ATOM      1  C   UNL A   1      32.918  29.441  26.976  1.00  0.00     0.002 C 
ENDROOT
BRANCH   1   2
ATOM      2  C   UNL A   1      34.319  28.905  27.263  1.00  0.00     0.021 C 
BRANCH   2   3
ATOM      3  C   UNL A   1      35.357  29.973  27.583  1.00  0.00     0.116 C 
BRANCH   3   4
ATOM      4  N   UNL A   1      35.264  30.463  28.947  1.00  0.00    -0.352 N 
ATOM      5  O   UNL A   1      35.960  30.764  31.073  1.00  0.00    -0.269 OA
ATOM      6  C   UNL A   1      36.228  30.433  29.930  1.00  0.00     0.251 C 
ATOM      7  H   UNL A   1      34.403  30.868  29.201  1.00  0.00     0.163 HD
BRANCH   6   8
ATOM      8  C   UNL A   1      37.584  29.959  29.577  1.00  0.00     0.039 A 
ATOM      9  C   UNL A   1      38.460  29.516  30.572  1.00  0.00     0.014 A 
ATOM     10  C   UNL A   1      37.992  30.004  28.242  1.00  0.00     0.014 A 
ATOM     11  C   UNL A   1      39.786  29.251  30.253  1.00  0.00     0.010 A 
ATOM     12  C   UNL A   1      39.302  29.651  27.913  1.00  0.00     0.010 A 
ATOM     13  C   UNL A   1      40.218  29.300  28.918  1.00  0.00    -0.014 A 
BRANCH  13  14
ATOM     14  C   UNL A   1      41.613  28.918  28.583  1.00  0.00     0.031 A 
ATOM     15  C   UNL A   1      42.722  29.934  28.593  1.00  0.00     0.074 A 
ATOM     16  C   UNL A   1      41.870  27.635  28.264  1.00  0.00     0.049 A 
ATOM     17  N   UNL A   1      43.984  29.777  28.289  1.00  0.00    -0.248 NA
ATOM     18  C   UNL A   1      42.368  31.306  28.989  1.00  0.00     0.031 C 
ATOM     19  C   UNL A   1      40.870  26.565  28.216  1.00  0.00     0.029 A 
ATOM     20  N   UNL A   1      43.040  27.010  27.922  1.00  0.00    -0.354 N 
ATOM     21  C   UNL A   1      44.573  31.027  28.434  1.00  0.00     0.074 A 
ATOM     22  C   UNL A   1      43.522  31.941  28.831  1.00  0.00     0.031 C 
ATOM     23  C   UNL A   1      41.474  25.412  27.894  1.00  0.00     0.029 A 
ATOM     24  C   UNL A   1      42.886  25.673  27.644  1.00  0.00     0.049 A 
ATOM     25  H   UNL A   1      43.908  27.473  27.879  1.00  0.00     0.167 HD
ATOM     26  C   UNL A   1      45.871  31.376  28.255  1.00  0.00     0.037 A 
ATOM     27  C   UNL A   1      43.773  24.759  27.208  1.00  0.00     0.037 A 
ATOM     28  C   UNL A   1      46.907  30.454  27.862  1.00  0.00     0.049 A 
ATOM     29  C   UNL A   1      45.196  25.179  26.984  1.00  0.00     0.074 A 
ATOM     30  C   UNL A   1      48.257  30.701  27.684  1.00  0.00     0.029 A 
ATOM     31  N   UNL A   1      46.708  29.110  27.574  1.00  0.00    -0.354 N 
ATOM     32  N   UNL A   1      45.742  26.360  27.154  1.00  0.00    -0.248 NA
ATOM     33  C   UNL A   1      46.124  24.147  26.506  1.00  0.00     0.031 C 
ATOM     34  C   UNL A   1      48.864  29.521  27.238  1.00  0.00     0.029 A 
ATOM     35  C   UNL A   1      47.905  28.522  27.197  1.00  0.00     0.049 A 
ATOM     36  H   UNL A   1      45.843  28.643  27.629  1.00  0.00     0.167 HD
ATOM     37  C   UNL A   1      47.085  26.207  26.829  1.00  0.00     0.074 A 
ATOM     38  C   UNL A   1      47.268  24.817  26.462  1.00  0.00     0.031 C 
ATOM     39  C   UNL A   1      48.074  27.135  26.837  1.00  0.00     0.037 A 
BRANCH  26  40
ATOM     40  C   UNL A   1      46.242  32.822  28.459  1.00  0.00     0.058 A 
ATOM     41  C   UNL A   1      46.147  33.766  27.423  1.00  0.00     0.135 A 
ATOM     42  C   UNL A   1      46.671  33.277  29.717  1.00  0.00     0.135 A 
ATOM     43  F   UNL A   1      45.755  33.387  26.196  1.00  0.00    -0.206 F 
ATOM     44  C   UNL A   1      46.496  35.099  27.619  1.00  0.00     0.059 A 
ATOM     45  C   UNL A   1      46.998  34.611  29.943  1.00  0.00     0.059 A 
ATOM     46  F   UNL A   1      46.778  32.420  30.745  1.00  0.00    -0.206 F 
ATOM     47  C   UNL A   1      46.925  35.512  28.882  1.00  0.00     0.060 A 
BRANCH  47  48
ATOM     48  S   UNL A   1      47.391  37.240  29.111  1.00  0.00     0.124 S 
ATOM     49  O   UNL A   1      48.510  37.362  28.181  1.00  0.00    -0.237 OA
ATOM     50  O   UNL A   1      46.172  37.945  28.729  1.00  0.00    -0.237 OA
ATOM     51  O   UNL A   1      47.741  37.315  30.525  1.00  0.00    -0.744 OA
ENDBRANCH  47  48
ENDBRANCH  26  40
BRANCH  27  52
ATOM     52  C   UNL A   1      43.324  23.366  26.955  1.00  0.00     0.058 A 
ATOM     53  C   UNL A   1      43.171  22.882  25.648  1.00  0.00     0.135 A 
ATOM     54  C   UNL A   1      43.088  22.476  28.016  1.00  0.00     0.135 A 
ATOM     55  F   UNL A   1      43.383  23.696  24.602  1.00  0.00    -0.206 F 
ATOM     56  C   UNL A   1      42.793  21.567  25.400  1.00  0.00     0.059 A 
ATOM     57  C   UNL A   1      42.738  21.150  27.793  1.00  0.00     0.059 A 
ATOM     58  F   UNL A   1      43.241  22.886  29.285  1.00  0.00    -0.206 F 
ATOM     59  C   UNL A   1      42.586  20.707  26.480  1.00  0.00     0.060 A 
BRANCH  59  60
ATOM     60  S   UNL A   1      42.160  18.985  26.143  1.00  0.00     0.124 S 
ATOM     61  O   UNL A   1      42.460  18.353  27.422  1.00  0.00    -0.237 OA
ATOM     62  O   UNL A   1      40.746  19.082  25.794  1.00  0.00    -0.237 OA
ATOM     63  O   UNL A   1      43.046  18.630  25.037  1.00  0.00    -0.744 OA
ENDBRANCH  59  60
ENDBRANCH  27  52
BRANCH  39  64
ATOM     64  C   UNL A   1      49.457  26.669  26.476  1.00  0.00     0.058 A 
ATOM     65  C   UNL A   1      50.310  26.075  27.420  1.00  0.00     0.135 A 
ATOM     66  C   UNL A   1      49.916  26.776  25.153  1.00  0.00     0.135 A 
ATOM     67  F   UNL A   1      49.924  25.958  28.700  1.00  0.00    -0.206 F 
ATOM     68  C   UNL A   1      51.578  25.622  27.069  1.00  0.00     0.059 A 
ATOM     69  C   UNL A   1      51.168  26.303  24.774  1.00  0.00     0.059 A 
ATOM     70  F   UNL A   1      49.138  27.331  24.210  1.00  0.00    -0.206 F 
ATOM     71  C   UNL A   1      51.996  25.737  25.741  1.00  0.00     0.060 A 
BRANCH  71  72
ATOM     72  S   UNL A   1      53.628  25.110  25.291  1.00  0.00     0.124 S 
ATOM     73  O   UNL A   1      54.459  25.660  26.356  1.00  0.00    -0.237 OA
ATOM     74  O   UNL A   1      53.427  23.665  25.325  1.00  0.00    -0.237 OA
ATOM     75  O   UNL A   1      53.853  25.674  23.963  1.00  0.00    -0.744 OA
ENDBRANCH  71  72
ENDBRANCH  39  64
ENDBRANCH  13  14
ENDBRANCH   6   8
ENDBRANCH   3   4
ENDBRANCH   2   3
ENDBRANCH   1   2
BRANCH   1  76
ATOM     76  C   UNL A   1      31.781  28.633  27.607  1.00  0.00     0.002 C 
BRANCH  76  77
ATOM     77  C   UNL A   1      31.219  27.490  26.740  1.00  0.00     0.021 C 
BRANCH  77  78
ATOM     78  C   UNL A   1      32.115  26.254  26.638  1.00  0.00     0.116 C 
BRANCH  78  79
ATOM     79  N   UNL A   1      31.306  25.063  26.723  1.00  0.00    -0.356 N 
ATOM     80  C   UNL A   1      31.551  23.760  26.519  1.00  0.00     0.224 C 
ATOM     81  H   UNL A   1      30.375  25.245  26.987  1.00  0.00     0.163 HD
ATOM     82  O   UNL A   1      30.543  23.046  26.577  1.00  0.00    -0.275 OA
BRANCH  80  83
ATOM     83  C   UNL A   1      32.891  23.184  26.100  1.00  0.00     0.094 C 
ATOM     84  C   UNL A   1      33.638  21.954  26.706  1.00  0.00     0.002 C 
ATOM     85  C   UNL A   1      33.030  23.150  24.566  1.00  0.00     0.094 C 
ATOM     86  C   UNL A   1      33.534  20.630  25.910  1.00  0.00     0.005 C 
ATOM     87  C   UNL A   1      35.145  22.299  26.587  1.00  0.00     0.005 C 
ATOM     88  C   UNL A   1      34.254  22.269  24.188  1.00  0.00     0.002 C 
ATOM     89  C   UNL A   1      33.923  20.802  24.441  1.00  0.00     0.005 C 
ATOM     90  C   UNL A   1      35.463  22.616  25.106  1.00  0.00     0.005 C 
BRANCH  85  91
ATOM     91  C   UNL A   1      31.804  22.990  23.613  1.00  0.00     0.228 C 
ATOM     92  O   UNL A   1      31.467  21.823  23.334  1.00  0.00    -0.274 OA
ATOM     93  N   UNL A   1      30.927  23.937  23.161  1.00  0.00    -0.326 N 
ATOM     94  H   UNL A   1      30.211  23.556  22.603  1.00  0.00     0.169 HD
BRANCH  93  95
ATOM     95  C   UNL A   1      30.816  25.323  23.310  1.00  0.00     0.041 A 
ATOM     96  C   UNL A   1      31.958  26.097  23.128  1.00  0.00     0.027 A 
ATOM     97  C   UNL A   1      29.645  25.974  23.667  1.00  0.00     0.027 A 
ATOM     98  C   UNL A   1      31.839  27.484  22.967  1.00  0.00     0.016 A 
ATOM     99  C   UNL A   1      29.512  27.364  23.503  1.00  0.00     0.016 A 
ATOM    100  C   UNL A   1      30.583  28.119  23.029  1.00  0.00     0.040 A 
BRANCH 100 101
ATOM    101  C   UNL A   1      30.481  29.448  22.324  1.00  0.00     0.253 C 
ATOM    102  O   UNL A   1      31.169  29.609  21.314  1.00  0.00    -0.269 OA
ATOM    103  N   UNL A   1      29.432  30.310  22.611  1.00  0.00    -0.339 N 
ATOM    104  C   UNL A   1      29.094  30.963  23.862  1.00  0.00     0.120 C 
ATOM    105  C   UNL A   1      28.751  30.994  21.517  1.00  0.00     0.120 C 
ATOM    106  C   UNL A   1      27.658  31.398  23.629  1.00  0.00     0.023 C 
ATOM    107  C   UNL A   1      27.686  31.870  22.178  1.00  0.00     0.023 C 
ENDBRANCH 100 101
ENDBRANCH  93  95
ENDBRANCH  85  91
ENDBRANCH  80  83
ENDBRANCH  78  79
ENDBRANCH  77  78
ENDBRANCH  76  77
ENDBRANCH   1  76
TORSDOF 19
ENDMDL
