MODEL 1
REMARK VINA RESULT:     -12.3      0.000      0.000
REMARK SMILES O=C(NCCCCCCNC(=O)c1nnn(-c2cccc(OC(F)(F)F)c2)c1-c1ccncc1)c1ccc(-c2c3nc(c(-c4c(F)cc(S(=O)(=O)[O-])cc4F)c4ccc([nH]4)c(-c4c(F)cc(S(=O)(=O)[O-])cc4F)c4nc(c(-c5c(F)cc(S(=O)(=O)[O-])cc5F)c5ccc2[nH]5)C=C4)C=C3)cc1
REMARK SMILES IDX 6 1 5 2 4 3 3 4 1 5 2 6 35 8 36 9 100 10 37 11 99 12 38 13
REMARK SMILES IDX 39 14 40 15 93 16 41 17 98 18 92 19 94 20 42 21 97 22 91 23
REMARK SMILES IDX 90 24 43 26 77 27 56 28 76 29 57 30 60 31 75 32 95 33 58 34
REMARK SMILES IDX 59 35 74 37 96 38 61 39 44 40 45 41 54 42 46 43 47 44 53 45
REMARK SMILES IDX 55 46 48 47 49 48 50 49 51 50 52 51 78 52 79 53 88 54 80 55
REMARK SMILES IDX 81 56 87 57 89 58 82 59 83 60 84 61 85 62 86 63 62 64 63 65
REMARK SMILES IDX 72 66 64 67 65 68 71 69 73 70 66 71 67 72 68 73 69 74 70 75
REMARK SMILES IDX 7 76 8 77 9 78 10 79 11 80 12 82 13 83 14 84 28 85 15 86
REMARK SMILES IDX 16 87 29 88 30 89 34 90 31 91 33 92 32 93 17 94 18 95 27 96
REMARK SMILES IDX 19 97 21 98 20 99 22 100 23 101 24 102 25 103 26 104
REMARK H PARENT 3 7 94 25 60 36 10 81
REMARK Flexibility Score: inf
ROOT
ATOM      1  C   UNL A   1      40.899  20.583  27.359  1.00  0.00     0.002 C 
ENDROOT
BRANCH   1   2
ATOM      2  C   UNL A   1      41.117  19.642  26.166  1.00  0.00     0.021 C 
BRANCH   2   3
ATOM      3  C   UNL A   1      42.471  18.935  26.139  1.00  0.00     0.116 C 
BRANCH   3   4
ATOM      4  N   UNL A   1      43.385  19.441  25.138  1.00  0.00    -0.352 N 
ATOM      5  O   UNL A   1      44.766  20.685  23.949  1.00  0.00    -0.269 OA
ATOM      6  C   UNL A   1      43.990  20.646  24.908  1.00  0.00     0.251 C 
ATOM      7  H   UNL A   1      43.628  18.761  24.469  1.00  0.00     0.163 HD
BRANCH   6   8
ATOM      8  C   UNL A   1      43.754  21.888  25.694  1.00  0.00     0.039 A 
ATOM      9  C   UNL A   1      44.250  22.148  26.971  1.00  0.00     0.014 A 
ATOM     10  C   UNL A   1      42.996  22.887  25.055  1.00  0.00     0.014 A 
ATOM     11  C   UNL A   1      43.961  23.351  27.615  1.00  0.00     0.010 A 
ATOM     12  C   UNL A   1      42.723  24.100  25.684  1.00  0.00     0.010 A 
ATOM     13  C   UNL A   1      43.195  24.328  26.976  1.00  0.00    -0.014 A 
BRANCH  13  14
ATOM     14  C   UNL A   1      43.035  25.621  27.644  1.00  0.00     0.031 A 
ATOM     15  C   UNL A   1      44.116  26.628  27.400  1.00  0.00     0.074 A 
ATOM     16  C   UNL A   1      41.916  25.998  28.292  1.00  0.00     0.049 A 
ATOM     17  N   UNL A   1      44.845  27.269  28.258  1.00  0.00    -0.248 NA
ATOM     18  C   UNL A   1      44.451  26.921  25.997  1.00  0.00     0.031 C 
ATOM     19  C   UNL A   1      40.630  25.298  28.347  1.00  0.00     0.029 A 
ATOM     20  N   UNL A   1      41.663  27.168  28.948  1.00  0.00    -0.354 N 
ATOM     21  C   UNL A   1      45.605  28.177  27.519  1.00  0.00     0.074 A 
ATOM     22  C   UNL A   1      45.401  27.846  26.131  1.00  0.00     0.031 C 
ATOM     23  C   UNL A   1      39.685  26.146  28.807  1.00  0.00     0.029 A 
ATOM     24  C   UNL A   1      40.317  27.397  29.195  1.00  0.00     0.049 A 
ATOM     25  H   UNL A   1      42.371  27.793  29.222  1.00  0.00     0.167 HD
ATOM     26  C   UNL A   1      46.229  29.254  28.074  1.00  0.00     0.037 A 
ATOM     27  C   UNL A   1      39.753  28.557  29.611  1.00  0.00     0.037 A 
ATOM     28  C   UNL A   1      46.386  29.125  29.495  1.00  0.00     0.049 A 
ATOM     29  C   UNL A   1      40.816  29.392  30.223  1.00  0.00     0.074 A 
ATOM     30  C   UNL A   1      47.021  28.223  30.326  1.00  0.00     0.029 A 
ATOM     31  N   UNL A   1      45.574  29.868  30.316  1.00  0.00    -0.354 N 
ATOM     32  N   UNL A   1      41.429  29.115  31.340  1.00  0.00    -0.248 NA
ATOM     33  C   UNL A   1      41.470  30.389  29.388  1.00  0.00     0.031 C 
ATOM     34  C   UNL A   1      46.199  28.143  31.488  1.00  0.00     0.029 A 
ATOM     35  C   UNL A   1      45.129  29.019  31.298  1.00  0.00     0.049 A 
ATOM     36  H   UNL A   1      45.355  30.823  30.220  1.00  0.00     0.167 HD
ATOM     37  C   UNL A   1      42.721  29.585  31.167  1.00  0.00     0.074 A 
ATOM     38  C   UNL A   1      42.653  30.458  30.002  1.00  0.00     0.031 C 
ATOM     39  C   UNL A   1      43.779  29.018  31.818  1.00  0.00     0.037 A 
BRANCH  26  40
ATOM     40  C   UNL A   1      46.459  30.557  27.348  1.00  0.00     0.058 A 
ATOM     41  C   UNL A   1      47.754  31.101  27.244  1.00  0.00     0.135 A 
ATOM     42  C   UNL A   1      45.402  31.419  26.976  1.00  0.00     0.135 A 
ATOM     43  F   UNL A   1      48.828  30.379  27.602  1.00  0.00    -0.206 F 
ATOM     44  C   UNL A   1      47.982  32.417  26.833  1.00  0.00     0.059 A 
ATOM     45  C   UNL A   1      45.609  32.715  26.514  1.00  0.00     0.059 A 
ATOM     46  F   UNL A   1      44.118  31.066  27.131  1.00  0.00    -0.206 F 
ATOM     47  C   UNL A   1      46.900  33.220  26.483  1.00  0.00     0.060 A 
BRANCH  47  48
ATOM     48  S   UNL A   1      47.178  34.947  26.048  1.00  0.00     0.124 S 
ATOM     49  O   UNL A   1      48.093  34.817  24.920  1.00  0.00    -0.237 OA
ATOM     50  O   UNL A   1      45.829  35.404  25.727  1.00  0.00    -0.237 OA
ATOM     51  O   UNL A   1      47.749  35.511  27.267  1.00  0.00    -0.744 OA
ENDBRANCH  47  48
ENDBRANCH  26  40
BRANCH  27  52
ATOM     52  C   UNL A   1      38.425  29.109  29.238  1.00  0.00     0.058 A 
ATOM     53  C   UNL A   1      37.446  29.374  30.211  1.00  0.00     0.135 A 
ATOM     54  C   UNL A   1      38.186  29.642  27.954  1.00  0.00     0.135 A 
ATOM     55  F   UNL A   1      37.605  28.931  31.467  1.00  0.00    -0.206 F 
ATOM     56  C   UNL A   1      36.318  30.154  29.939  1.00  0.00     0.059 A 
ATOM     57  C   UNL A   1      37.062  30.407  27.655  1.00  0.00     0.059 A 
ATOM     58  F   UNL A   1      39.090  29.514  26.971  1.00  0.00    -0.206 F 
ATOM     59  C   UNL A   1      36.144  30.682  28.660  1.00  0.00     0.060 A 
BRANCH  59  60
ATOM     60  S   UNL A   1      34.786  31.832  28.348  1.00  0.00     0.124 S 
ATOM     61  O   UNL A   1      34.443  32.265  29.700  1.00  0.00    -0.237 OA
ATOM     62  O   UNL A   1      35.420  32.835  27.500  1.00  0.00    -0.237 OA
ATOM     63  O   UNL A   1      33.784  31.003  27.685  1.00  0.00    -0.744 OA
ENDBRANCH  59  60
ENDBRANCH  27  52
BRANCH  39  64
ATOM     64  C   UNL A   1      43.498  28.096  32.976  1.00  0.00     0.058 A 
ATOM     65  C   UNL A   1      43.522  26.693  32.889  1.00  0.00     0.135 A 
ATOM     66  C   UNL A   1      43.350  28.655  34.255  1.00  0.00     0.135 A 
ATOM     67  F   UNL A   1      43.770  26.079  31.724  1.00  0.00    -0.206 F 
ATOM     68  C   UNL A   1      43.362  25.884  34.015  1.00  0.00     0.059 A 
ATOM     69  C   UNL A   1      43.223  27.867  35.397  1.00  0.00     0.059 A 
ATOM     70  F   UNL A   1      43.386  29.989  34.416  1.00  0.00    -0.206 F 
ATOM     71  C   UNL A   1      43.217  26.480  35.268  1.00  0.00     0.060 A 
BRANCH  71  72
ATOM     72  S   UNL A   1      43.114  25.430  36.733  1.00  0.00     0.124 S 
ATOM     73  O   UNL A   1      43.256  26.398  37.815  1.00  0.00    -0.237 OA
ATOM     74  O   UNL A   1      41.793  24.820  36.598  1.00  0.00    -0.237 OA
ATOM     75  O   UNL A   1      44.233  24.506  36.570  1.00  0.00    -0.744 OA
ENDBRANCH  71  72
ENDBRANCH  39  64
ENDBRANCH  13  14
ENDBRANCH   6   8
ENDBRANCH   3   4
ENDBRANCH   2   3
ENDBRANCH   1   2
BRANCH   1  76
ATOM     76  C   UNL A   1      40.103  21.866  27.080  1.00  0.00     0.002 C 
BRANCH  76  77
ATOM     77  C   UNL A   1      39.247  21.866  25.810  1.00  0.00     0.021 C 
BRANCH  77  78
ATOM     78  C   UNL A   1      37.805  22.310  26.008  1.00  0.00     0.116 C 
BRANCH  78  79
ATOM     79  N   UNL A   1      36.859  21.216  25.899  1.00  0.00    -0.351 N 
ATOM     80  C   UNL A   1      35.678  21.175  25.186  1.00  0.00     0.274 C 
ATOM     81  H   UNL A   1      37.089  20.399  26.397  1.00  0.00     0.163 HD
ATOM     82  O   UNL A   1      34.966  20.183  25.268  1.00  0.00    -0.267 OA
BRANCH  80  83
ATOM     83  C   UNL A   1      35.321  22.321  24.360  1.00  0.00     0.178 A 
ATOM     84  N   UNL A   1      36.056  22.682  23.258  1.00  0.00    -0.124 NA
ATOM     85  C   UNL A   1      34.215  23.154  24.469  1.00  0.00     0.108 A 
ATOM     86  N   UNL A   1      35.413  23.659  22.632  1.00  0.00    -0.061 NA
ATOM     87  N   UNL A   1      34.374  24.038  23.410  1.00  0.00    -0.212 N 
BRANCH  85  88
ATOM     88  C   UNL A   1      33.022  23.057  25.314  1.00  0.00     0.006 A 
ATOM     89  C   UNL A   1      31.957  22.231  24.968  1.00  0.00     0.030 A 
ATOM     90  C   UNL A   1      32.920  23.852  26.465  1.00  0.00     0.030 A 
ATOM     91  C   UNL A   1      30.838  22.236  25.785  1.00  0.00     0.111 A 
ATOM     92  C   UNL A   1      31.760  23.789  27.214  1.00  0.00     0.111 A 
ATOM     93  N   UNL A   1      30.718  23.006  26.886  1.00  0.00    -0.265 NA
ENDBRANCH  85  88
BRANCH  87  94
ATOM     94  C   UNL A   1      33.561  25.146  23.081  1.00  0.00     0.071 A 
ATOM     95  C   UNL A   1      32.696  25.070  21.988  1.00  0.00     0.029 A 
ATOM     96  C   UNL A   1      33.566  26.275  23.916  1.00  0.00     0.075 A 
ATOM     97  C   UNL A   1      31.764  26.088  21.796  1.00  0.00     0.006 A 
ATOM     98  C   UNL A   1      32.658  27.308  23.704  1.00  0.00     0.131 A 
ATOM     99  C   UNL A   1      31.740  27.192  22.656  1.00  0.00     0.047 A 
BRANCH  98 100
ATOM    100  O   UNL A   1      32.551  28.447  24.448  1.00  0.00    -0.406 OA
BRANCH 100 101
ATOM    101  C   UNL A   1      32.032  28.330  25.765  1.00  0.00     0.573 C 
ATOM    102  F   UNL A   1      31.424  29.469  26.157  1.00  0.00    -0.132 F 
ATOM    103  F   UNL A   1      31.148  27.309  25.841  1.00  0.00    -0.132 F 
ATOM    104  F   UNL A   1      33.044  28.067  26.617  1.00  0.00    -0.132 F 
ENDBRANCH 100 101
ENDBRANCH  98 100
ENDBRANCH  87  94
ENDBRANCH  80  83
ENDBRANCH  78  79
ENDBRANCH  77  78
ENDBRANCH  76  77
ENDBRANCH   1  76
TORSDOF 20
ENDMDL
MODEL 2
REMARK VINA RESULT:     -11.8      2.369      4.037
REMARK SMILES O=C(NCCCCCCNC(=O)c1nnn(-c2cccc(OC(F)(F)F)c2)c1-c1ccncc1)c1ccc(-c2c3nc(c(-c4c(F)cc(S(=O)(=O)[O-])cc4F)c4ccc([nH]4)c(-c4c(F)cc(S(=O)(=O)[O-])cc4F)c4nc(c(-c5c(F)cc(S(=O)(=O)[O-])cc5F)c5ccc2[nH]5)C=C4)C=C3)cc1
REMARK SMILES IDX 6 1 5 2 4 3 3 4 1 5 2 6 35 8 36 9 100 10 37 11 99 12 38 13
REMARK SMILES IDX 39 14 40 15 93 16 41 17 98 18 92 19 94 20 42 21 97 22 91 23
REMARK SMILES IDX 90 24 43 26 77 27 56 28 76 29 57 30 60 31 75 32 95 33 58 34
REMARK SMILES IDX 59 35 74 37 96 38 61 39 44 40 45 41 54 42 46 43 47 44 53 45
REMARK SMILES IDX 55 46 48 47 49 48 50 49 51 50 52 51 78 52 79 53 88 54 80 55
REMARK SMILES IDX 81 56 87 57 89 58 82 59 83 60 84 61 85 62 86 63 62 64 63 65
REMARK SMILES IDX 72 66 64 67 65 68 71 69 73 70 66 71 67 72 68 73 69 74 70 75
REMARK SMILES IDX 7 76 8 77 9 78 10 79 11 80 12 82 13 83 14 84 28 85 15 86
REMARK SMILES IDX 16 87 29 88 30 89 34 90 31 91 33 92 32 93 17 94 18 95 27 96
REMARK SMILES IDX 19 97 21 98 20 99 22 100 23 101 24 102 25 103 26 104
REMARK H PARENT 3 7 94 25 60 36 10 81
REMARK Flexibility Score: inf
ROOT
ATOM      1  C   UNL A   1      34.132  22.635  25.521  1.00  0.00     0.002 C 
ENDROOT
BRANCH   1   2
ATOM      2  C   UNL A   1      35.406  22.021  26.116  1.00  0.00     0.021 C 
BRANCH   2   3
ATOM      3  C   UNL A   1      36.633  22.931  26.097  1.00  0.00     0.116 C 
BRANCH   3   4
ATOM      4  N   UNL A   1      37.880  22.243  25.845  1.00  0.00    -0.352 N 
ATOM      5  O   UNL A   1      39.987  21.587  25.836  1.00  0.00    -0.269 OA
ATOM      6  C   UNL A   1      39.180  22.435  26.226  1.00  0.00     0.251 C 
ATOM      7  H   UNL A   1      37.769  21.456  25.264  1.00  0.00     0.163 HD
BRANCH   6   8
ATOM      8  C   UNL A   1      39.676  23.585  27.030  1.00  0.00     0.039 A 
ATOM      9  C   UNL A   1      40.849  23.603  27.785  1.00  0.00     0.014 A 
ATOM     10  C   UNL A   1      38.900  24.758  26.973  1.00  0.00     0.014 A 
ATOM     11  C   UNL A   1      41.214  24.742  28.503  1.00  0.00     0.010 A 
ATOM     12  C   UNL A   1      39.273  25.906  27.670  1.00  0.00     0.010 A 
ATOM     13  C   UNL A   1      40.427  25.893  28.450  1.00  0.00    -0.014 A 
BRANCH  13  14
ATOM     14  C   UNL A   1      40.928  27.098  29.116  1.00  0.00     0.031 A 
ATOM     15  C   UNL A   1      42.136  27.737  28.502  1.00  0.00     0.074 A 
ATOM     16  C   UNL A   1      40.272  27.739  30.102  1.00  0.00     0.049 A 
ATOM     17  N   UNL A   1      43.273  28.029  29.050  1.00  0.00    -0.248 NA
ATOM     18  C   UNL A   1      42.069  28.049  27.065  1.00  0.00     0.031 C 
ATOM     19  C   UNL A   1      38.922  27.474  30.603  1.00  0.00     0.029 A 
ATOM     20  N   UNL A   1      40.646  28.859  30.789  1.00  0.00    -0.354 N 
ATOM     21  C   UNL A   1      44.001  28.723  28.083  1.00  0.00     0.074 A 
ATOM     22  C   UNL A   1      43.258  28.613  26.853  1.00  0.00     0.031 C 
ATOM     23  C   UNL A   1      38.513  28.524  31.348  1.00  0.00     0.029 A 
ATOM     24  C   UNL A   1      39.610  29.470  31.478  1.00  0.00     0.049 A 
ATOM     25  H   UNL A   1      41.569  29.200  30.795  1.00  0.00     0.167 HD
ATOM     26  C   UNL A   1      45.089  29.490  28.375  1.00  0.00     0.037 A 
ATOM     27  C   UNL A   1      39.626  30.701  32.046  1.00  0.00     0.037 A 
ATOM     28  C   UNL A   1      45.652  29.178  29.658  1.00  0.00     0.049 A 
ATOM     29  C   UNL A   1      41.043  31.096  32.245  1.00  0.00     0.074 A 
ATOM     30  C   UNL A   1      46.191  28.044  30.234  1.00  0.00     0.029 A 
ATOM     31  N   UNL A   1      45.445  30.051  30.697  1.00  0.00    -0.354 N 
ATOM     32  N   UNL A   1      41.861  30.531  33.088  1.00  0.00    -0.248 NA
ATOM     33  C   UNL A   1      41.675  31.917  31.223  1.00  0.00     0.031 C 
ATOM     34  C   UNL A   1      45.818  28.109  31.608  1.00  0.00     0.029 A 
ATOM     35  C   UNL A   1      45.094  29.290  31.784  1.00  0.00     0.049 A 
ATOM     36  H   UNL A   1      45.533  31.032  30.668  1.00  0.00     0.167 HD
ATOM     37  C   UNL A   1      43.103  30.589  32.477  1.00  0.00     0.074 A 
ATOM     38  C   UNL A   1      42.947  31.552  31.394  1.00  0.00     0.031 C 
ATOM     39  C   UNL A   1      44.069  29.658  32.734  1.00  0.00     0.037 A 
BRANCH  26  40
ATOM     40  C   UNL A   1      45.482  30.722  27.596  1.00  0.00     0.058 A 
ATOM     41  C   UNL A   1      46.795  30.876  27.112  1.00  0.00     0.135 A 
ATOM     42  C   UNL A   1      44.669  31.878  27.536  1.00  0.00     0.135 A 
ATOM     43  F   UNL A   1      47.662  29.851  27.151  1.00  0.00    -0.206 F 
ATOM     44  C   UNL A   1      47.279  32.097  26.635  1.00  0.00     0.059 A 
ATOM     45  C   UNL A   1      45.113  33.089  27.017  1.00  0.00     0.059 A 
ATOM     46  F   UNL A   1      43.437  31.899  28.064  1.00  0.00    -0.206 F 
ATOM     47  C   UNL A   1      46.432  33.202  26.605  1.00  0.00     0.060 A 
BRANCH  47  48
ATOM     48  S   UNL A   1      47.076  34.803  26.085  1.00  0.00     0.124 S 
ATOM     49  O   UNL A   1      45.852  35.497  25.704  1.00  0.00    -0.237 OA
ATOM     50  O   UNL A   1      47.729  35.281  27.299  1.00  0.00    -0.237 OA
ATOM     51  O   UNL A   1      47.979  34.461  24.990  1.00  0.00    -0.744 OA
ENDBRANCH  47  48
ENDBRANCH  26  40
BRANCH  27  52
ATOM     52  C   UNL A   1      38.508  31.674  32.143  1.00  0.00     0.058 A 
ATOM     53  C   UNL A   1      38.137  32.469  31.045  1.00  0.00     0.135 A 
ATOM     54  C   UNL A   1      37.608  31.652  33.228  1.00  0.00     0.135 A 
ATOM     55  F   UNL A   1      38.919  32.526  29.957  1.00  0.00    -0.206 F 
ATOM     56  C   UNL A   1      36.925  33.167  31.008  1.00  0.00     0.059 A 
ATOM     57  C   UNL A   1      36.404  32.352  33.221  1.00  0.00     0.059 A 
ATOM     58  F   UNL A   1      37.826  30.868  34.294  1.00  0.00    -0.206 F 
ATOM     59  C   UNL A   1      36.057  33.088  32.096  1.00  0.00     0.060 A 
BRANCH  59  60
ATOM     60  S   UNL A   1      34.418  33.842  31.984  1.00  0.00     0.124 S 
ATOM     61  O   UNL A   1      33.678  33.103  33.002  1.00  0.00    -0.237 OA
ATOM     62  O   UNL A   1      34.700  35.240  32.289  1.00  0.00    -0.237 OA
ATOM     63  O   UNL A   1      34.017  33.577  30.604  1.00  0.00    -0.744 OA
ENDBRANCH  59  60
ENDBRANCH  27  52
BRANCH  39  64
ATOM     64  C   UNL A   1      43.897  28.760  33.931  1.00  0.00     0.058 A 
ATOM     65  C   UNL A   1      44.277  29.110  35.239  1.00  0.00     0.135 A 
ATOM     66  C   UNL A   1      43.184  27.562  33.772  1.00  0.00     0.135 A 
ATOM     67  F   UNL A   1      44.862  30.288  35.495  1.00  0.00    -0.206 F 
ATOM     68  C   UNL A   1      43.998  28.287  36.331  1.00  0.00     0.059 A 
ATOM     69  C   UNL A   1      42.865  26.741  34.852  1.00  0.00     0.059 A 
ATOM     70  F   UNL A   1      42.735  27.201  32.558  1.00  0.00    -0.206 F 
ATOM     71  C   UNL A   1      43.287  27.104  36.129  1.00  0.00     0.060 A 
BRANCH  71  72
ATOM     72  S   UNL A   1      42.839  26.094  37.557  1.00  0.00     0.124 S 
ATOM     73  O   UNL A   1      43.736  26.605  38.588  1.00  0.00    -0.237 OA
ATOM     74  O   UNL A   1      41.423  26.406  37.737  1.00  0.00    -0.237 OA
ATOM     75  O   UNL A   1      43.112  24.731  37.110  1.00  0.00    -0.744 OA
ENDBRANCH  71  72
ENDBRANCH  39  64
ENDBRANCH  13  14
ENDBRANCH   6   8
ENDBRANCH   3   4
ENDBRANCH   2   3
ENDBRANCH   1   2
BRANCH   1  76
ATOM     76  C   UNL A   1      33.644  22.042  24.192  1.00  0.00     0.002 C 
BRANCH  76  77
ATOM     77  C   UNL A   1      34.222  22.671  22.921  1.00  0.00     0.021 C 
BRANCH  77  78
ATOM     78  C   UNL A   1      34.017  24.173  22.798  1.00  0.00     0.116 C 
BRANCH  78  79
ATOM     79  N   UNL A   1      33.147  24.535  21.694  1.00  0.00    -0.351 N 
ATOM     80  C   UNL A   1      32.607  25.771  21.402  1.00  0.00     0.274 C 
ATOM     81  H   UNL A   1      32.912  23.806  21.076  1.00  0.00     0.163 HD
ATOM     82  O   UNL A   1      31.831  25.874  20.461  1.00  0.00    -0.267 OA
BRANCH  80  83
ATOM     83  C   UNL A   1      32.981  26.910  22.229  1.00  0.00     0.178 A 
ATOM     84  N   UNL A   1      33.712  27.961  21.734  1.00  0.00    -0.124 NA
ATOM     85  C   UNL A   1      32.630  27.173  23.547  1.00  0.00     0.108 A 
ATOM     86  N   UNL A   1      33.770  28.902  22.666  1.00  0.00    -0.061 NA
ATOM     87  N   UNL A   1      33.235  28.398  23.800  1.00  0.00    -0.212 N 
BRANCH  85  88
ATOM     88  C   UNL A   1      31.686  26.499  24.441  1.00  0.00     0.006 A 
ATOM     89  C   UNL A   1      30.311  26.622  24.263  1.00  0.00     0.030 A 
ATOM     90  C   UNL A   1      32.167  25.760  25.531  1.00  0.00     0.030 A 
ATOM     91  C   UNL A   1      29.479  26.004  25.183  1.00  0.00     0.111 A 
ATOM     92  C   UNL A   1      31.257  25.183  26.396  1.00  0.00     0.111 A 
ATOM     93  N   UNL A   1      29.926  25.304  26.246  1.00  0.00    -0.265 NA
ENDBRANCH  85  88
BRANCH  87  94
ATOM     94  C   UNL A   1      33.258  29.114  25.019  1.00  0.00     0.071 A 
ATOM     95  C   UNL A   1      32.166  29.907  25.376  1.00  0.00     0.029 A 
ATOM     96  C   UNL A   1      34.339  28.940  25.898  1.00  0.00     0.075 A 
ATOM     97  C   UNL A   1      32.119  30.446  26.661  1.00  0.00     0.006 A 
ATOM     98  C   UNL A   1      34.307  29.506  27.169  1.00  0.00     0.131 A 
ATOM     99  C   UNL A   1      33.177  30.235  27.552  1.00  0.00     0.047 A 
BRANCH  98 100
ATOM    100  O   UNL A   1      35.282  29.402  28.118  1.00  0.00    -0.406 OA
BRANCH 100 101
ATOM    101  C   UNL A   1      36.405  30.267  28.008  1.00  0.00     0.573 C 
ATOM    102  F   UNL A   1      36.026  31.532  27.738  1.00  0.00    -0.132 F 
ATOM    103  F   UNL A   1      37.129  30.256  29.151  1.00  0.00    -0.132 F 
ATOM    104  F   UNL A   1      37.200  29.832  27.009  1.00  0.00    -0.132 F 
ENDBRANCH 100 101
ENDBRANCH  98 100
ENDBRANCH  87  94
ENDBRANCH  80  83
ENDBRANCH  78  79
ENDBRANCH  77  78
ENDBRANCH  76  77
ENDBRANCH   1  76
TORSDOF 20
ENDMDL
MODEL 3
REMARK VINA RESULT:     -11.3      3.008      9.264
REMARK SMILES O=C(NCCCCCCNC(=O)c1nnn(-c2cccc(OC(F)(F)F)c2)c1-c1ccncc1)c1ccc(-c2c3nc(c(-c4c(F)cc(S(=O)(=O)[O-])cc4F)c4ccc([nH]4)c(-c4c(F)cc(S(=O)(=O)[O-])cc4F)c4nc(c(-c5c(F)cc(S(=O)(=O)[O-])cc5F)c5ccc2[nH]5)C=C4)C=C3)cc1
REMARK SMILES IDX 6 1 5 2 4 3 3 4 1 5 2 6 35 8 36 9 100 10 37 11 99 12 38 13
REMARK SMILES IDX 39 14 40 15 93 16 41 17 98 18 92 19 94 20 42 21 97 22 91 23
REMARK SMILES IDX 90 24 43 26 77 27 56 28 76 29 57 30 60 31 75 32 95 33 58 34
REMARK SMILES IDX 59 35 74 37 96 38 61 39 44 40 45 41 54 42 46 43 47 44 53 45
REMARK SMILES IDX 55 46 48 47 49 48 50 49 51 50 52 51 78 52 79 53 88 54 80 55
REMARK SMILES IDX 81 56 87 57 89 58 82 59 83 60 84 61 85 62 86 63 62 64 63 65
REMARK SMILES IDX 72 66 64 67 65 68 71 69 73 70 66 71 67 72 68 73 69 74 70 75
REMARK SMILES IDX 7 76 8 77 9 78 10 79 11 80 12 82 13 83 14 84 28 85 15 86
REMARK SMILES IDX 16 87 29 88 30 89 34 90 31 91 33 92 32 93 17 94 18 95 27 96
REMARK SMILES IDX 19 97 21 98 20 99 22 100 23 101 24 102 25 103 26 104
REMARK H PARENT 3 7 94 25 60 36 10 81
REMARK Flexibility Score: inf
ROOT
ATOM      1  C   UNL A   1      34.071  29.922  27.635  1.00  0.00     0.002 C 
ENDROOT
BRANCH   1   2
ATOM      2  C   UNL A   1      34.860  31.233  27.513  1.00  0.00     0.021 C 
BRANCH   2   3
ATOM      3  C   UNL A   1      34.173  32.459  28.112  1.00  0.00     0.116 C 
BRANCH   3   4
ATOM      4  N   UNL A   1      34.064  32.435  29.554  1.00  0.00    -0.352 N 
ATOM      5  O   UNL A   1      34.463  32.270  31.718  1.00  0.00    -0.269 OA
ATOM      6  C   UNL A   1      34.915  32.124  30.579  1.00  0.00     0.251 C 
ATOM      7  H   UNL A   1      33.172  32.704  29.872  1.00  0.00     0.163 HD
BRANCH   6   8
ATOM      8  C   UNL A   1      36.299  31.602  30.415  1.00  0.00     0.039 A 
ATOM      9  C   UNL A   1      37.435  32.373  30.166  1.00  0.00     0.014 A 
ATOM     10  C   UNL A   1      36.456  30.212  30.570  1.00  0.00     0.014 A 
ATOM     11  C   UNL A   1      38.686  31.772  30.028  1.00  0.00     0.010 A 
ATOM     12  C   UNL A   1      37.708  29.609  30.456  1.00  0.00     0.010 A 
ATOM     13  C   UNL A   1      38.825  30.390  30.169  1.00  0.00    -0.014 A 
BRANCH  13  14
ATOM     14  C   UNL A   1      40.179  29.831  30.146  1.00  0.00     0.031 A 
ATOM     15  C   UNL A   1      40.865  29.710  31.472  1.00  0.00     0.074 A 
ATOM     16  C   UNL A   1      40.742  29.272  29.058  1.00  0.00     0.049 A 
ATOM     17  N   UNL A   1      42.015  30.178  31.843  1.00  0.00    -0.248 NA
ATOM     18  C   UNL A   1      40.138  29.002  32.538  1.00  0.00     0.031 C 
ATOM     19  C   UNL A   1      40.111  28.984  27.768  1.00  0.00     0.029 A 
ATOM     20  N   UNL A   1      41.988  28.729  28.925  1.00  0.00    -0.354 N 
ATOM     21  C   UNL A   1      42.241  29.676  33.125  1.00  0.00     0.074 A 
ATOM     22  C   UNL A   1      41.012  29.050  33.542  1.00  0.00     0.031 C 
ATOM     23  C   UNL A   1      40.898  28.135  27.072  1.00  0.00     0.029 A 
ATOM     24  C   UNL A   1      42.135  27.923  27.806  1.00  0.00     0.049 A 
ATOM     25  H   UNL A   1      42.715  28.894  29.566  1.00  0.00     0.167 HD
ATOM     26  C   UNL A   1      43.471  29.654  33.712  1.00  0.00     0.037 A 
ATOM     27  C   UNL A   1      43.164  27.080  27.542  1.00  0.00     0.037 A 
ATOM     28  C   UNL A   1      44.394  30.557  33.085  1.00  0.00     0.049 A 
ATOM     29  C   UNL A   1      44.323  27.496  28.368  1.00  0.00     0.074 A 
ATOM     30  C   UNL A   1      44.428  31.921  32.871  1.00  0.00     0.029 A 
ATOM     31  N   UNL A   1      45.378  30.038  32.280  1.00  0.00    -0.354 N 
ATOM     32  N   UNL A   1      44.992  28.604  28.206  1.00  0.00    -0.248 NA
ATOM     33  C   UNL A   1      44.531  26.827  29.644  1.00  0.00     0.031 C 
ATOM     34  C   UNL A   1      45.069  32.087  31.609  1.00  0.00     0.029 A 
ATOM     35  C   UNL A   1      45.405  30.813  31.147  1.00  0.00     0.049 A 
ATOM     36  H   UNL A   1      45.952  29.263  32.477  1.00  0.00     0.167 HD
ATOM     37  C   UNL A   1      45.380  28.979  29.483  1.00  0.00     0.074 A 
ATOM     38  C   UNL A   1      45.171  27.794  30.305  1.00  0.00     0.031 C 
ATOM     39  C   UNL A   1      45.581  30.289  29.811  1.00  0.00     0.037 A 
BRANCH  26  40
ATOM     40  C   UNL A   1      43.913  28.600  34.698  1.00  0.00     0.058 A 
ATOM     41  C   UNL A   1      44.408  28.967  35.965  1.00  0.00     0.135 A 
ATOM     42  C   UNL A   1      44.104  27.248  34.335  1.00  0.00     0.135 A 
ATOM     43  F   UNL A   1      44.307  30.234  36.397  1.00  0.00    -0.206 F 
ATOM     44  C   UNL A   1      45.078  28.065  36.796  1.00  0.00     0.059 A 
ATOM     45  C   UNL A   1      44.721  26.320  35.167  1.00  0.00     0.059 A 
ATOM     46  F   UNL A   1      43.780  26.794  33.116  1.00  0.00    -0.206 F 
ATOM     47  C   UNL A   1      45.240  26.746  36.380  1.00  0.00     0.060 A 
BRANCH  47  48
ATOM     48  S   UNL A   1      46.189  25.602  37.402  1.00  0.00     0.124 S 
ATOM     49  O   UNL A   1      46.949  24.876  36.391  1.00  0.00    -0.237 OA
ATOM     50  O   UNL A   1      46.956  26.510  38.249  1.00  0.00    -0.237 OA
ATOM     51  O   UNL A   1      45.157  24.835  38.092  1.00  0.00    -0.744 OA
ENDBRANCH  47  48
ENDBRANCH  26  40
BRANCH  27  52
ATOM     52  C   UNL A   1      43.108  25.764  26.855  1.00  0.00     0.058 A 
ATOM     53  C   UNL A   1      43.541  25.616  25.526  1.00  0.00     0.135 A 
ATOM     54  C   UNL A   1      42.885  24.571  27.572  1.00  0.00     0.135 A 
ATOM     55  F   UNL A   1      43.807  26.698  24.778  1.00  0.00    -0.206 F 
ATOM     56  C   UNL A   1      43.778  24.361  24.955  1.00  0.00     0.059 A 
ATOM     57  C   UNL A   1      43.097  23.310  27.021  1.00  0.00     0.059 A 
ATOM     58  F   UNL A   1      42.543  24.595  28.869  1.00  0.00    -0.206 F 
ATOM     59  C   UNL A   1      43.569  23.213  25.718  1.00  0.00     0.060 A 
BRANCH  59  60
ATOM     60  S   UNL A   1      44.038  21.602  25.048  1.00  0.00     0.124 S 
ATOM     61  O   UNL A   1      45.256  21.308  25.798  1.00  0.00    -0.237 OA
ATOM     62  O   UNL A   1      42.876  20.782  25.374  1.00  0.00    -0.237 OA
ATOM     63  O   UNL A   1      44.230  21.868  23.625  1.00  0.00    -0.744 OA
ENDBRANCH  59  60
ENDBRANCH  27  52
BRANCH  39  64
ATOM     64  C   UNL A   1      45.704  31.297  28.697  1.00  0.00     0.058 A 
ATOM     65  C   UNL A   1      44.606  31.903  28.060  1.00  0.00     0.135 A 
ATOM     66  C   UNL A   1      46.980  31.778  28.367  1.00  0.00     0.135 A 
ATOM     67  F   UNL A   1      43.350  31.581  28.397  1.00  0.00    -0.206 F 
ATOM     68  C   UNL A   1      44.773  32.911  27.109  1.00  0.00     0.059 A 
ATOM     69  C   UNL A   1      47.168  32.806  27.445  1.00  0.00     0.059 A 
ATOM     70  F   UNL A   1      48.066  31.287  28.988  1.00  0.00    -0.206 F 
ATOM     71  C   UNL A   1      46.059  33.359  26.810  1.00  0.00     0.060 A 
BRANCH  71  72
ATOM     72  S   UNL A   1      46.263  34.733  25.656  1.00  0.00     0.124 S 
ATOM     73  O   UNL A   1      45.284  34.414  24.622  1.00  0.00    -0.237 OA
ATOM     74  O   UNL A   1      45.955  35.896  26.485  1.00  0.00    -0.237 OA
ATOM     75  O   UNL A   1      47.661  34.629  25.245  1.00  0.00    -0.744 OA
ENDBRANCH  71  72
ENDBRANCH  39  64
ENDBRANCH  13  14
ENDBRANCH   6   8
ENDBRANCH   3   4
ENDBRANCH   2   3
ENDBRANCH   1   2
BRANCH   1  76
ATOM     76  C   UNL A   1      33.363  29.431  26.364  1.00  0.00     0.002 C 
BRANCH  76  77
ATOM     77  C   UNL A   1      31.924  28.939  26.542  1.00  0.00     0.021 C 
BRANCH  77  78
ATOM     78  C   UNL A   1      31.792  27.513  27.055  1.00  0.00     0.116 C 
BRANCH  78  79
ATOM     79  N   UNL A   1      30.632  26.826  26.519  1.00  0.00    -0.351 N 
ATOM     80  C   UNL A   1      30.516  25.499  26.157  1.00  0.00     0.274 C 
ATOM     81  H   UNL A   1      29.825  27.376  26.399  1.00  0.00     0.163 HD
ATOM     82  O   UNL A   1      29.472  25.108  25.652  1.00  0.00    -0.267 OA
BRANCH  80  83
ATOM     83  C   UNL A   1      31.648  24.611  26.387  1.00  0.00     0.178 A 
ATOM     84  N   UNL A   1      31.696  23.755  27.459  1.00  0.00    -0.124 NA
ATOM     85  C   UNL A   1      32.768  24.414  25.590  1.00  0.00     0.108 A 
ATOM     86  N   UNL A   1      32.763  22.980  27.324  1.00  0.00    -0.061 NA
ATOM     87  N   UNL A   1      33.484  23.443  26.278  1.00  0.00    -0.212 N 
BRANCH  85  88
ATOM     88  C   UNL A   1      33.084  24.898  24.244  1.00  0.00     0.006 A 
ATOM     89  C   UNL A   1      33.561  26.188  24.033  1.00  0.00     0.030 A 
ATOM     90  C   UNL A   1      32.851  24.070  23.135  1.00  0.00     0.030 A 
ATOM     91  C   UNL A   1      33.782  26.595  22.728  1.00  0.00     0.111 A 
ATOM     92  C   UNL A   1      33.100  24.569  21.871  1.00  0.00     0.111 A 
ATOM     93  N   UNL A   1      33.547  25.818  21.651  1.00  0.00    -0.265 NA
ENDBRANCH  85  88
BRANCH  87  94
ATOM     94  C   UNL A   1      34.749  22.906  25.947  1.00  0.00     0.071 A 
ATOM     95  C   UNL A   1      34.856  21.565  25.574  1.00  0.00     0.029 A 
ATOM     96  C   UNL A   1      35.866  23.755  25.907  1.00  0.00     0.075 A 
ATOM     97  C   UNL A   1      36.068  21.105  25.063  1.00  0.00     0.006 A 
ATOM     98  C   UNL A   1      37.086  23.286  25.429  1.00  0.00     0.131 A 
ATOM     99  C   UNL A   1      37.170  21.964  24.982  1.00  0.00     0.047 A 
BRANCH  98 100
ATOM    100  O   UNL A   1      38.240  24.009  25.327  1.00  0.00    -0.406 OA
BRANCH 100 101
ATOM    101  C   UNL A   1      39.052  24.123  26.487  1.00  0.00     0.573 C 
ATOM    102  F   UNL A   1      39.900  25.167  26.392  1.00  0.00    -0.132 F 
ATOM    103  F   UNL A   1      38.287  24.275  27.593  1.00  0.00    -0.132 F 
ATOM    104  F   UNL A   1      39.774  22.993  26.633  1.00  0.00    -0.132 F 
ENDBRANCH 100 101
ENDBRANCH  98 100
ENDBRANCH  87  94
ENDBRANCH  80  83
ENDBRANCH  78  79
ENDBRANCH  77  78
ENDBRANCH  76  77
ENDBRANCH   1  76
TORSDOF 20
ENDMDL
