MODEL 1
REMARK VINA RESULT:     -10.5      0.000      0.000
REMARK SMILES CCc1cccc(-c2ccc([C@@H](C)C(=O)NCCCCCCNC(=O)c3ccc(-c4c5nc(c(-c6c(F)cc(S(=O)(=O)[O-])cc6F)c6ccc([nH]6)c(-c6c(F)cc(S(=O)(=O)[O-])cc6F)c6nc(c(-c7c(F)cc(S(=O)(=O)[O-])cc7F)c7ccc4[nH]7)C=C6)C=C5)cc3)cc2)c1
REMARK SMILES IDX 19 1 18 2 17 3 16 4 14 5 15 6 12 8 13 9 11 10 8 11 9 12
REMARK SMILES IDX 93 13 10 14 92 15 7 16 3 17 4 18 94 19 5 20 6 21 2 22 1 23
REMARK SMILES IDX 20 24 21 25 22 26 23 27 24 28 25 30 26 31 27 32 91 33 28 34
REMARK SMILES IDX 90 35 29 36 30 37 31 38 84 39 32 40 89 41 83 42 85 43 33 44
REMARK SMILES IDX 88 45 82 46 81 47 34 49 68 50 47 51 67 52 48 53 51 54 66 55
REMARK SMILES IDX 86 56 49 57 50 58 65 60 87 61 52 62 35 63 36 64 45 65 37 66
REMARK SMILES IDX 38 67 44 68 46 69 39 70 40 71 41 72 42 73 43 74 69 75 70 76
REMARK SMILES IDX 79 77 71 78 72 79 78 80 80 81 73 82 74 83 75 84 76 85 77 86
REMARK SMILES IDX 53 87 54 88 63 89 55 90 56 91 62 92 64 93 57 94 58 95 59 96
REMARK SMILES IDX 60 97 61 98
REMARK H PARENT 16 7 23 29 85 48 51 59
REMARK Flexibility Score: inf
ROOT
ATOM      1  C   UNL A   1      32.177  30.716  26.893  1.00  0.00     0.002 C 
ENDROOT
BRANCH   1   2
ATOM      2  C   UNL A   1      32.258  32.223  27.153  1.00  0.00     0.021 C 
BRANCH   2   3
ATOM      3  C   UNL A   1      33.630  32.686  27.647  1.00  0.00     0.116 C 
BRANCH   3   4
ATOM      4  N   UNL A   1      33.562  34.000  28.249  1.00  0.00    -0.356 N 
ATOM      5  C   UNL A   1      33.967  34.452  29.467  1.00  0.00     0.227 C 
ATOM      6  O   UNL A   1      33.679  35.624  29.741  1.00  0.00    -0.274 OA
ATOM      7  H   UNL A   1      33.151  34.687  27.677  1.00  0.00     0.163 HD
BRANCH   5   8
ATOM      8  C   UNL A   1      34.764  33.603  30.469  1.00  0.00     0.105 C 
ATOM      9  C   UNL A   1      34.168  33.585  31.876  1.00  0.00     0.023 C 
BRANCH   8  10
ATOM     10  C   UNL A   1      36.269  33.806  30.386  1.00  0.00    -0.036 A 
ATOM     11  C   UNL A   1      39.067  34.344  30.120  1.00  0.00    -0.018 A 
ATOM     12  C   UNL A   1      38.429  34.356  31.368  1.00  0.00     0.009 A 
ATOM     13  C   UNL A   1      38.275  34.014  29.009  1.00  0.00     0.009 A 
ATOM     14  C   UNL A   1      37.070  34.052  31.503  1.00  0.00     0.005 A 
ATOM     15  C   UNL A   1      36.900  33.774  29.135  1.00  0.00     0.005 A 
BRANCH  11  16
ATOM     16  C   UNL A   1      40.509  34.659  29.992  1.00  0.00    -0.018 A 
ATOM     17  C   UNL A   1      42.398  35.545  28.679  1.00  0.00    -0.048 A 
ATOM     18  C   UNL A   1      43.257  35.258  29.748  1.00  0.00     0.004 A 
ATOM     19  C   UNL A   1      41.032  35.251  28.822  1.00  0.00     0.012 A 
ATOM     20  C   UNL A   1      42.767  34.688  30.920  1.00  0.00     0.001 A 
ATOM     21  C   UNL A   1      41.411  34.384  31.034  1.00  0.00     0.009 A 
BRANCH  17  22
ATOM     22  C   UNL A   1      43.003  36.110  27.413  1.00  0.00     0.032 C 
ATOM     23  C   UNL A   1      42.763  35.332  26.126  1.00  0.00     0.009 C 
ENDBRANCH  17  22
ENDBRANCH  11  16
ENDBRANCH   8  10
ENDBRANCH   5   8
ENDBRANCH   3   4
ENDBRANCH   2   3
ENDBRANCH   1   2
BRANCH   1  24
ATOM     24  C   UNL A   1      33.460  30.091  26.327  1.00  0.00     0.002 C 
BRANCH  24  25
ATOM     25  C   UNL A   1      34.100  29.016  27.208  1.00  0.00     0.021 C 
BRANCH  25  26
ATOM     26  C   UNL A   1      35.453  29.414  27.789  1.00  0.00     0.116 C 
BRANCH  26  27
ATOM     27  N   UNL A   1      35.306  30.079  29.075  1.00  0.00    -0.352 N 
ATOM     28  C   UNL A   1      36.219  30.194  30.096  1.00  0.00     0.251 C 
ATOM     29  H   UNL A   1      34.433  30.504  29.236  1.00  0.00     0.163 HD
ATOM     30  O   UNL A   1      35.865  30.558  31.209  1.00  0.00    -0.269 OA
BRANCH  28  31
ATOM     31  C   UNL A   1      37.634  29.865  29.828  1.00  0.00     0.039 A 
ATOM     32  C   UNL A   1      38.421  29.317  30.843  1.00  0.00     0.014 A 
ATOM     33  C   UNL A   1      38.171  30.092  28.558  1.00  0.00     0.014 A 
ATOM     34  C   UNL A   1      39.738  28.945  30.568  1.00  0.00     0.010 A 
ATOM     35  C   UNL A   1      39.455  29.650  28.266  1.00  0.00     0.010 A 
ATOM     36  C   UNL A   1      40.256  29.080  29.269  1.00  0.00    -0.014 A 
BRANCH  36  37
ATOM     37  C   UNL A   1      41.641  28.676  28.925  1.00  0.00     0.031 A 
ATOM     38  C   UNL A   1      42.725  29.720  28.892  1.00  0.00     0.074 A 
ATOM     39  C   UNL A   1      41.903  27.407  28.549  1.00  0.00     0.049 A 
ATOM     40  N   UNL A   1      43.954  29.623  28.458  1.00  0.00    -0.248 NA
ATOM     41  C   UNL A   1      42.366  31.063  29.380  1.00  0.00     0.031 C 
ATOM     42  C   UNL A   1      40.929  26.313  28.518  1.00  0.00     0.029 A 
ATOM     43  N   UNL A   1      43.064  26.829  28.099  1.00  0.00    -0.354 N 
ATOM     44  C   UNL A   1      44.502  30.894  28.589  1.00  0.00     0.074 A 
ATOM     45  C   UNL A   1      43.462  31.755  29.105  1.00  0.00     0.031 C 
ATOM     46  C   UNL A   1      41.536  25.195  28.083  1.00  0.00     0.029 A 
ATOM     47  C   UNL A   1      42.926  25.503  27.759  1.00  0.00     0.049 A 
ATOM     48  H   UNL A   1      43.915  27.317  28.027  1.00  0.00     0.167 HD
ATOM     49  C   UNL A   1      45.764  31.299  28.319  1.00  0.00     0.037 A 
ATOM     50  C   UNL A   1      43.814  24.641  27.225  1.00  0.00     0.037 A 
ATOM     51  C   UNL A   1      46.803  30.423  27.850  1.00  0.00     0.049 A 
ATOM     52  C   UNL A   1      45.212  25.121  26.927  1.00  0.00     0.074 A 
ATOM     53  C   UNL A   1      48.133  30.720  27.610  1.00  0.00     0.029 A 
ATOM     54  N   UNL A   1      46.632  29.079  27.552  1.00  0.00    -0.354 N 
ATOM     55  N   UNL A   1      45.729  26.314  27.106  1.00  0.00    -0.248 NA
ATOM     56  C   UNL A   1      46.148  24.142  26.357  1.00  0.00     0.031 C 
ATOM     57  C   UNL A   1      48.754  29.569  27.118  1.00  0.00     0.029 A 
ATOM     58  C   UNL A   1      47.828  28.539  27.112  1.00  0.00     0.049 A 
ATOM     59  H   UNL A   1      45.786  28.583  27.640  1.00  0.00     0.167 HD
ATOM     60  C   UNL A   1      47.062  26.212  26.721  1.00  0.00     0.074 A 
ATOM     61  C   UNL A   1      47.270  24.846  26.292  1.00  0.00     0.031 C 
ATOM     62  C   UNL A   1      48.027  27.164  26.728  1.00  0.00     0.037 A 
BRANCH  49  63
ATOM     63  C   UNL A   1      46.102  32.750  28.523  1.00  0.00     0.058 A 
ATOM     64  C   UNL A   1      46.583  33.234  29.749  1.00  0.00     0.135 A 
ATOM     65  C   UNL A   1      46.008  33.656  27.453  1.00  0.00     0.135 A 
ATOM     66  F   UNL A   1      46.676  32.417  30.810  1.00  0.00    -0.206 F 
ATOM     67  C   UNL A   1      46.945  34.567  29.913  1.00  0.00     0.059 A 
ATOM     68  C   UNL A   1      46.392  34.987  27.585  1.00  0.00     0.059 A 
ATOM     69  F   UNL A   1      45.550  33.248  26.260  1.00  0.00    -0.206 F 
ATOM     70  C   UNL A   1      46.852  35.434  28.823  1.00  0.00     0.060 A 
BRANCH  70  71
ATOM     71  S   UNL A   1      47.362  37.152  29.045  1.00  0.00     0.124 S 
ATOM     72  O   UNL A   1      48.812  37.016  29.128  1.00  0.00    -0.237 OA
ATOM     73  O   UNL A   1      46.852  37.786  27.832  1.00  0.00    -0.237 OA
ATOM     74  O   UNL A   1      46.697  37.548  30.282  1.00  0.00    -0.744 OA
ENDBRANCH  70  71
ENDBRANCH  49  63
BRANCH  50  75
ATOM     75  C   UNL A   1      43.425  23.231  26.947  1.00  0.00     0.058 A 
ATOM     76  C   UNL A   1      43.266  22.308  27.992  1.00  0.00     0.135 A 
ATOM     77  C   UNL A   1      43.227  22.770  25.635  1.00  0.00     0.135 A 
ATOM     78  F   UNL A   1      43.448  22.698  29.263  1.00  0.00    -0.206 F 
ATOM     79  C   UNL A   1      42.959  20.974  27.749  1.00  0.00     0.059 A 
ATOM     80  C   UNL A   1      42.890  21.445  25.369  1.00  0.00     0.059 A 
ATOM     81  F   UNL A   1      43.346  23.612  24.599  1.00  0.00    -0.206 F 
ATOM     82  C   UNL A   1      42.777  20.551  26.432  1.00  0.00     0.060 A 
BRANCH  82  83
ATOM     83  S   UNL A   1      42.369  18.817  26.128  1.00  0.00     0.124 S 
ATOM     84  O   UNL A   1      42.653  18.217  27.427  1.00  0.00    -0.237 OA
ATOM     85  O   UNL A   1      40.960  18.895  25.753  1.00  0.00    -0.237 OA
ATOM     86  O   UNL A   1      43.277  18.445  25.047  1.00  0.00    -0.744 OA
ENDBRANCH  82  83
ENDBRANCH  50  75
BRANCH  62  87
ATOM     87  C   UNL A   1      49.422  26.757  26.343  1.00  0.00     0.058 A 
ATOM     88  C   UNL A   1      50.320  26.207  27.269  1.00  0.00     0.135 A 
ATOM     89  C   UNL A   1      49.823  26.826  24.997  1.00  0.00     0.135 A 
ATOM     90  F   UNL A   1      49.989  26.125  28.567  1.00  0.00    -0.206 F 
ATOM     91  C   UNL A   1      51.571  25.743  26.875  1.00  0.00     0.059 A 
ATOM     92  C   UNL A   1      51.057  26.342  24.578  1.00  0.00     0.059 A 
ATOM     93  F   UNL A   1      48.996  27.336  24.071  1.00  0.00    -0.206 F 
ATOM     94  C   UNL A   1      51.926  25.805  25.524  1.00  0.00     0.060 A 
BRANCH  94  95
ATOM     95  S   UNL A   1      53.521  25.129  25.017  1.00  0.00     0.124 S 
ATOM     96  O   UNL A   1      53.314  23.699  25.226  1.00  0.00    -0.237 OA
ATOM     97  O   UNL A   1      53.612  25.559  23.626  1.00  0.00    -0.237 OA
ATOM     98  O   UNL A   1      54.466  25.767  25.928  1.00  0.00    -0.744 OA
ENDBRANCH  94  95
ENDBRANCH  62  87
ENDBRANCH  36  37
ENDBRANCH  28  31
ENDBRANCH  26  27
ENDBRANCH  25  26
ENDBRANCH  24  25
ENDBRANCH   1  24
TORSDOF 19
ENDMDL
MODEL 2
REMARK VINA RESULT:     -10.4      5.515     12.226
REMARK SMILES CCc1cccc(-c2ccc([C@@H](C)C(=O)NCCCCCCNC(=O)c3ccc(-c4c5nc(c(-c6c(F)cc(S(=O)(=O)[O-])cc6F)c6ccc([nH]6)c(-c6c(F)cc(S(=O)(=O)[O-])cc6F)c6nc(c(-c7c(F)cc(S(=O)(=O)[O-])cc7F)c7ccc4[nH]7)C=C6)C=C5)cc3)cc2)c1
REMARK SMILES IDX 19 1 18 2 17 3 16 4 14 5 15 6 12 8 13 9 11 10 8 11 9 12
REMARK SMILES IDX 93 13 10 14 92 15 7 16 3 17 4 18 94 19 5 20 6 21 2 22 1 23
REMARK SMILES IDX 20 24 21 25 22 26 23 27 24 28 25 30 26 31 27 32 91 33 28 34
REMARK SMILES IDX 90 35 29 36 30 37 31 38 84 39 32 40 89 41 83 42 85 43 33 44
REMARK SMILES IDX 88 45 82 46 81 47 34 49 68 50 47 51 67 52 48 53 51 54 66 55
REMARK SMILES IDX 86 56 49 57 50 58 65 60 87 61 52 62 35 63 36 64 45 65 37 66
REMARK SMILES IDX 38 67 44 68 46 69 39 70 40 71 41 72 42 73 43 74 69 75 70 76
REMARK SMILES IDX 79 77 71 78 72 79 78 80 80 81 73 82 74 83 75 84 76 85 77 86
REMARK SMILES IDX 53 87 54 88 63 89 55 90 56 91 62 92 64 93 57 94 58 95 59 96
REMARK SMILES IDX 60 97 61 98
REMARK H PARENT 16 7 23 29 85 48 51 59
REMARK Flexibility Score: inf
ROOT
ATOM      1  C   UNL A   1      34.196  25.727  25.286  1.00  0.00     0.002 C 
ENDROOT
BRANCH   1   2
ATOM      2  C   UNL A   1      33.850  26.854  26.263  1.00  0.00     0.021 C 
BRANCH   2   3
ATOM      3  C   UNL A   1      32.426  27.389  26.100  1.00  0.00     0.116 C 
BRANCH   3   4
ATOM      4  N   UNL A   1      31.449  26.476  26.655  1.00  0.00    -0.356 N 
ATOM      5  C   UNL A   1      30.662  25.535  26.066  1.00  0.00     0.227 C 
ATOM      6  O   UNL A   1      29.840  24.971  26.798  1.00  0.00    -0.274 OA
ATOM      7  H   UNL A   1      31.335  26.549  27.630  1.00  0.00     0.163 HD
BRANCH   5   8
ATOM      8  C   UNL A   1      30.770  25.140  24.585  1.00  0.00     0.105 C 
ATOM      9  C   UNL A   1      29.599  25.623  23.729  1.00  0.00     0.023 C 
BRANCH   8  10
ATOM     10  C   UNL A   1      31.207  23.700  24.364  1.00  0.00    -0.036 A 
ATOM     11  C   UNL A   1      32.203  21.059  23.897  1.00  0.00    -0.018 A 
ATOM     12  C   UNL A   1      31.771  21.470  25.165  1.00  0.00     0.009 A 
ATOM     13  C   UNL A   1      32.085  21.992  22.856  1.00  0.00     0.009 A 
ATOM     14  C   UNL A   1      31.245  22.747  25.384  1.00  0.00     0.005 A 
ATOM     15  C   UNL A   1      31.620  23.294  23.088  1.00  0.00     0.005 A 
BRANCH  11  16
ATOM     16  C   UNL A   1      32.750  19.699  23.676  1.00  0.00    -0.018 A 
ATOM     17  C   UNL A   1      34.320  17.899  24.283  1.00  0.00    -0.048 A 
ATOM     18  C   UNL A   1      33.793  17.111  23.252  1.00  0.00     0.004 A 
ATOM     19  C   UNL A   1      33.782  19.180  24.487  1.00  0.00     0.012 A 
ATOM     20  C   UNL A   1      32.764  17.590  22.446  1.00  0.00     0.001 A 
ATOM     21  C   UNL A   1      32.259  18.874  22.650  1.00  0.00     0.009 A 
BRANCH  17  22
ATOM     22  C   UNL A   1      35.474  17.341  25.086  1.00  0.00     0.032 C 
ATOM     23  C   UNL A   1      35.464  15.843  25.361  1.00  0.00     0.009 C 
ENDBRANCH  17  22
ENDBRANCH  11  16
ENDBRANCH   8  10
ENDBRANCH   5   8
ENDBRANCH   3   4
ENDBRANCH   2   3
ENDBRANCH   1   2
BRANCH   1  24
ATOM     24  C   UNL A   1      34.426  24.357  25.939  1.00  0.00     0.002 C 
BRANCH  24  25
ATOM     25  C   UNL A   1      35.330  23.407  25.150  1.00  0.00     0.021 C 
BRANCH  25  26
ATOM     26  C   UNL A   1      36.783  23.863  25.059  1.00  0.00     0.116 C 
BRANCH  26  27
ATOM     27  N   UNL A   1      37.701  22.792  25.421  1.00  0.00    -0.352 N 
ATOM     28  C   UNL A   1      38.915  22.876  26.059  1.00  0.00     0.251 C 
ATOM     29  H   UNL A   1      37.412  21.884  25.173  1.00  0.00     0.163 HD
ATOM     30  O   UNL A   1      39.682  21.923  26.064  1.00  0.00    -0.269 OA
BRANCH  28  31
ATOM     31  C   UNL A   1      39.280  24.139  26.733  1.00  0.00     0.039 A 
ATOM     32  C   UNL A   1      38.868  24.363  28.049  1.00  0.00     0.014 A 
ATOM     33  C   UNL A   1      40.042  25.093  26.055  1.00  0.00     0.014 A 
ATOM     34  C   UNL A   1      39.271  25.527  28.707  1.00  0.00     0.010 A 
ATOM     35  C   UNL A   1      40.506  26.212  26.736  1.00  0.00     0.010 A 
ATOM     36  C   UNL A   1      40.118  26.446  28.065  1.00  0.00    -0.014 A 
BRANCH  36  37
ATOM     37  C   UNL A   1      40.591  27.684  28.733  1.00  0.00     0.031 A 
ATOM     38  C   UNL A   1      41.968  27.713  29.338  1.00  0.00     0.074 A 
ATOM     39  C   UNL A   1      39.756  28.733  28.884  1.00  0.00     0.049 A 
ATOM     40  N   UNL A   1      42.516  28.617  30.107  1.00  0.00    -0.248 NA
ATOM     41  C   UNL A   1      42.834  26.550  29.070  1.00  0.00     0.031 C 
ATOM     42  C   UNL A   1      38.390  28.813  28.363  1.00  0.00     0.029 A 
ATOM     43  N   UNL A   1      39.930  29.926  29.539  1.00  0.00    -0.354 N 
ATOM     44  C   UNL A   1      43.771  28.120  30.439  1.00  0.00     0.074 A 
ATOM     45  C   UNL A   1      43.890  26.817  29.824  1.00  0.00     0.031 C 
ATOM     46  C   UNL A   1      37.854  29.995  28.709  1.00  0.00     0.029 A 
ATOM     47  C   UNL A   1      38.818  30.737  29.517  1.00  0.00     0.049 A 
ATOM     48  H   UNL A   1      40.771  30.179  29.983  1.00  0.00     0.167 HD
ATOM     49  C   UNL A   1      44.741  28.707  31.178  1.00  0.00     0.037 A 
ATOM     50  C   UNL A   1      38.595  31.931  30.101  1.00  0.00     0.037 A 
ATOM     51  C   UNL A   1      44.628  30.022  31.748  1.00  0.00     0.049 A 
ATOM     52  C   UNL A   1      39.691  32.559  30.925  1.00  0.00     0.074 A 
ATOM     53  C   UNL A   1      45.579  30.735  32.456  1.00  0.00     0.029 A 
ATOM     54  N   UNL A   1      43.499  30.824  31.672  1.00  0.00    -0.354 N 
ATOM     55  N   UNL A   1      40.891  32.098  31.187  1.00  0.00    -0.248 NA
ATOM     56  C   UNL A   1      39.405  33.867  31.532  1.00  0.00     0.031 C 
ATOM     57  C   UNL A   1      45.008  31.946  32.854  1.00  0.00     0.029 A 
ATOM     58  C   UNL A   1      43.724  32.016  32.338  1.00  0.00     0.049 A 
ATOM     59  H   UNL A   1      42.662  30.582  31.213  1.00  0.00     0.167 HD
ATOM     60  C   UNL A   1      41.519  33.083  31.943  1.00  0.00     0.074 A 
ATOM     61  C   UNL A   1      40.565  34.160  32.103  1.00  0.00     0.031 C 
ATOM     62  C   UNL A   1      42.776  33.096  32.452  1.00  0.00     0.037 A 
BRANCH  49  63
ATOM     63  C   UNL A   1      46.012  27.940  31.417  1.00  0.00     0.058 A 
ATOM     64  C   UNL A   1      47.121  28.057  30.565  1.00  0.00     0.135 A 
ATOM     65  C   UNL A   1      46.146  27.128  32.556  1.00  0.00     0.135 A 
ATOM     66  F   UNL A   1      47.042  28.805  29.453  1.00  0.00    -0.206 F 
ATOM     67  C   UNL A   1      48.311  27.387  30.824  1.00  0.00     0.059 A 
ATOM     68  C   UNL A   1      47.336  26.471  32.851  1.00  0.00     0.059 A 
ATOM     69  F   UNL A   1      45.115  26.976  33.403  1.00  0.00    -0.206 F 
ATOM     70  C   UNL A   1      48.411  26.601  31.973  1.00  0.00     0.060 A 
BRANCH  70  71
ATOM     71  S   UNL A   1      49.976  25.768  32.312  1.00  0.00     0.124 S 
ATOM     72  O   UNL A   1      49.730  25.215  33.640  1.00  0.00    -0.237 OA
ATOM     73  O   UNL A   1      50.054  24.797  31.225  1.00  0.00    -0.237 OA
ATOM     74  O   UNL A   1      50.957  26.848  32.254  1.00  0.00    -0.744 OA
ENDBRANCH  70  71
ENDBRANCH  49  63
BRANCH  50  75
ATOM     75  C   UNL A   1      37.291  32.627  29.923  1.00  0.00     0.058 A 
ATOM     76  C   UNL A   1      37.131  33.619  28.943  1.00  0.00     0.135 A 
ATOM     77  C   UNL A   1      36.186  32.336  30.740  1.00  0.00     0.135 A 
ATOM     78  F   UNL A   1      38.158  33.938  28.141  1.00  0.00    -0.206 F 
ATOM     79  C   UNL A   1      35.940  34.321  28.800  1.00  0.00     0.059 A 
ATOM     80  C   UNL A   1      34.973  33.004  30.596  1.00  0.00     0.059 A 
ATOM     81  F   UNL A   1      36.275  31.383  31.680  1.00  0.00    -0.206 F 
ATOM     82  C   UNL A   1      34.866  34.008  29.635  1.00  0.00     0.060 A 
BRANCH  82  83
ATOM     83  S   UNL A   1      33.319  34.919  29.434  1.00  0.00     0.124 S 
ATOM     84  O   UNL A   1      32.744  34.818  30.770  1.00  0.00    -0.237 OA
ATOM     85  O   UNL A   1      33.792  36.242  29.038  1.00  0.00    -0.237 OA
ATOM     86  O   UNL A   1      32.625  34.172  28.389  1.00  0.00    -0.744 OA
ENDBRANCH  82  83
ENDBRANCH  50  75
BRANCH  62  87
ATOM     87  C   UNL A   1      43.237  34.339  33.160  1.00  0.00     0.058 A 
ATOM     88  C   UNL A   1      43.778  35.432  32.469  1.00  0.00     0.135 A 
ATOM     89  C   UNL A   1      43.034  34.470  34.545  1.00  0.00     0.135 A 
ATOM     90  F   UNL A   1      43.999  35.357  31.148  1.00  0.00    -0.206 F 
ATOM     91  C   UNL A   1      44.107  36.613  33.127  1.00  0.00     0.059 A 
ATOM     92  C   UNL A   1      43.328  35.651  35.217  1.00  0.00     0.059 A 
ATOM     93  F   UNL A   1      42.511  33.455  35.250  1.00  0.00    -0.206 F 
ATOM     94  C   UNL A   1      43.867  36.717  34.500  1.00  0.00     0.060 A 
BRANCH  94  95
ATOM     95  S   UNL A   1      44.226  38.281  35.326  1.00  0.00     0.124 S 
ATOM     96  O   UNL A   1      45.683  38.323  35.255  1.00  0.00    -0.237 OA
ATOM     97  O   UNL A   1      43.523  39.245  34.487  1.00  0.00    -0.237 OA
ATOM     98  O   UNL A   1      43.668  38.097  36.662  1.00  0.00    -0.744 OA
ENDBRANCH  94  95
ENDBRANCH  62  87
ENDBRANCH  36  37
ENDBRANCH  28  31
ENDBRANCH  26  27
ENDBRANCH  25  26
ENDBRANCH  24  25
ENDBRANCH   1  24
TORSDOF 19
ENDMDL
MODEL 3
REMARK VINA RESULT:     -10.1      6.422     12.890
REMARK SMILES CCc1cccc(-c2ccc([C@@H](C)C(=O)NCCCCCCNC(=O)c3ccc(-c4c5nc(c(-c6c(F)cc(S(=O)(=O)[O-])cc6F)c6ccc([nH]6)c(-c6c(F)cc(S(=O)(=O)[O-])cc6F)c6nc(c(-c7c(F)cc(S(=O)(=O)[O-])cc7F)c7ccc4[nH]7)C=C6)C=C5)cc3)cc2)c1
REMARK SMILES IDX 19 1 18 2 17 3 16 4 14 5 15 6 12 8 13 9 11 10 8 11 9 12
REMARK SMILES IDX 93 13 10 14 92 15 7 16 3 17 4 18 94 19 5 20 6 21 2 22 1 23
REMARK SMILES IDX 20 24 21 25 22 26 23 27 24 28 25 30 26 31 27 32 91 33 28 34
REMARK SMILES IDX 90 35 29 36 30 37 31 38 84 39 32 40 89 41 83 42 85 43 33 44
REMARK SMILES IDX 88 45 82 46 81 47 34 49 68 50 47 51 67 52 48 53 51 54 66 55
REMARK SMILES IDX 86 56 49 57 50 58 65 60 87 61 52 62 35 63 36 64 45 65 37 66
REMARK SMILES IDX 38 67 44 68 46 69 39 70 40 71 41 72 42 73 43 74 69 75 70 76
REMARK SMILES IDX 79 77 71 78 72 79 78 80 80 81 73 82 74 83 75 84 76 85 77 86
REMARK SMILES IDX 53 87 54 88 63 89 55 90 56 91 62 92 64 93 57 94 58 95 59 96
REMARK SMILES IDX 60 97 61 98
REMARK H PARENT 16 7 23 29 85 48 51 59
REMARK Flexibility Score: inf
ROOT
ATOM      1  C   UNL A   1      37.966  21.755  25.411  1.00  0.00     0.002 C 
ENDROOT
BRANCH   1   2
ATOM      2  C   UNL A   1      37.073  21.096  24.355  1.00  0.00     0.021 C 
BRANCH   2   3
ATOM      3  C   UNL A   1      36.035  20.139  24.944  1.00  0.00     0.116 C 
BRANCH   3   4
ATOM      4  N   UNL A   1      34.695  20.484  24.521  1.00  0.00    -0.356 N 
ATOM      5  C   UNL A   1      33.754  21.287  25.087  1.00  0.00     0.227 C 
ATOM      6  O   UNL A   1      32.646  21.308  24.536  1.00  0.00    -0.274 OA
ATOM      7  H   UNL A   1      34.416  20.064  23.677  1.00  0.00     0.163 HD
BRANCH   5   8
ATOM      8  C   UNL A   1      34.012  22.161  26.325  1.00  0.00     0.105 C 
ATOM      9  C   UNL A   1      33.578  21.515  27.640  1.00  0.00     0.023 C 
BRANCH   8  10
ATOM     10  C   UNL A   1      33.621  23.619  26.139  1.00  0.00    -0.036 A 
ATOM     11  C   UNL A   1      32.891  26.381  25.982  1.00  0.00    -0.018 A 
ATOM     12  C   UNL A   1      34.083  25.901  25.422  1.00  0.00     0.009 A 
ATOM     13  C   UNL A   1      32.051  25.434  26.588  1.00  0.00     0.009 A 
ATOM     14  C   UNL A   1      34.420  24.544  25.463  1.00  0.00     0.005 A 
ATOM     15  C   UNL A   1      32.419  24.085  26.687  1.00  0.00     0.005 A 
BRANCH  11  16
ATOM     16  C   UNL A   1      32.541  27.820  25.925  1.00  0.00    -0.018 A 
ATOM     17  C   UNL A   1      32.854  30.132  26.719  1.00  0.00    -0.048 A 
ATOM     18  C   UNL A   1      31.872  30.560  25.817  1.00  0.00     0.004 A 
ATOM     19  C   UNL A   1      33.183  28.767  26.752  1.00  0.00     0.012 A 
ATOM     20  C   UNL A   1      31.233  29.652  24.978  1.00  0.00     0.001 A 
ATOM     21  C   UNL A   1      31.558  28.297  25.041  1.00  0.00     0.009 A 
BRANCH  17  22
ATOM     22  C   UNL A   1      33.469  31.161  27.642  1.00  0.00     0.032 C 
ATOM     23  C   UNL A   1      34.990  31.209  27.708  1.00  0.00     0.009 C 
ENDBRANCH  17  22
ENDBRANCH  11  16
ENDBRANCH   8  10
ENDBRANCH   5   8
ENDBRANCH   3   4
ENDBRANCH   2   3
ENDBRANCH   1   2
BRANCH   1  24
ATOM     24  C   UNL A   1      37.459  23.108  25.928  1.00  0.00     0.002 C 
BRANCH  24  25
ATOM     25  C   UNL A   1      38.554  24.104  26.320  1.00  0.00     0.021 C 
BRANCH  25  26
ATOM     26  C   UNL A   1      39.797  23.456  26.920  1.00  0.00     0.116 C 
BRANCH  26  27
ATOM     27  N   UNL A   1      40.992  23.789  26.158  1.00  0.00    -0.352 N 
ATOM     28  C   UNL A   1      41.712  24.960  26.150  1.00  0.00     0.251 C 
ATOM     29  H   UNL A   1      41.331  23.078  25.567  1.00  0.00     0.163 HD
ATOM     30  O   UNL A   1      42.536  25.177  25.274  1.00  0.00    -0.269 OA
BRANCH  28  31
ATOM     31  C   UNL A   1      41.467  25.953  27.216  1.00  0.00     0.039 A 
ATOM     32  C   UNL A   1      40.704  25.597  28.330  1.00  0.00     0.014 A 
ATOM     33  C   UNL A   1      42.010  27.236  27.107  1.00  0.00     0.014 A 
ATOM     34  C   UNL A   1      40.531  26.516  29.367  1.00  0.00     0.010 A 
ATOM     35  C   UNL A   1      41.902  28.120  28.173  1.00  0.00     0.010 A 
ATOM     36  C   UNL A   1      41.154  27.774  29.310  1.00  0.00    -0.014 A 
BRANCH  36  37
ATOM     37  C   UNL A   1      41.017  28.773  30.399  1.00  0.00     0.031 A 
ATOM     38  C   UNL A   1      41.900  28.662  31.613  1.00  0.00     0.074 A 
ATOM     39  C   UNL A   1      40.046  29.707  30.344  1.00  0.00     0.049 A 
ATOM     40  N   UNL A   1      41.837  29.314  32.744  1.00  0.00    -0.248 NA
ATOM     41  C   UNL A   1      42.975  27.655  31.561  1.00  0.00     0.031 C 
ATOM     42  C   UNL A   1      39.114  29.898  29.230  1.00  0.00     0.029 A 
ATOM     43  N   UNL A   1      39.668  30.659  31.258  1.00  0.00    -0.354 N 
ATOM     44  C   UNL A   1      42.838  28.777  33.545  1.00  0.00     0.074 A 
ATOM     45  C   UNL A   1      43.467  27.718  32.789  1.00  0.00     0.031 C 
ATOM     46  C   UNL A   1      38.280  30.910  29.522  1.00  0.00     0.029 A 
ATOM     47  C   UNL A   1      38.583  31.408  30.861  1.00  0.00     0.049 A 
ATOM     48  H   UNL A   1      40.128  30.793  32.117  1.00  0.00     0.167 HD
ATOM     49  C   UNL A   1      43.208  29.148  34.793  1.00  0.00     0.037 A 
ATOM     50  C   UNL A   1      37.900  32.370  31.511  1.00  0.00     0.037 A 
ATOM     51  C   UNL A   1      42.604  30.233  35.518  1.00  0.00     0.049 A 
ATOM     52  C   UNL A   1      38.329  32.758  32.904  1.00  0.00     0.074 A 
ATOM     53  C   UNL A   1      42.951  30.732  36.761  1.00  0.00     0.029 A 
ATOM     54  N   UNL A   1      41.534  30.989  35.066  1.00  0.00    -0.354 N 
ATOM     55  N   UNL A   1      39.311  32.275  33.627  1.00  0.00    -0.248 NA
ATOM     56  C   UNL A   1      37.561  33.820  33.569  1.00  0.00     0.031 C 
ATOM     57  C   UNL A   1      42.056  31.756  37.084  1.00  0.00     0.029 A 
ATOM     58  C   UNL A   1      41.194  31.937  36.015  1.00  0.00     0.049 A 
ATOM     59  H   UNL A   1      41.082  30.870  34.199  1.00  0.00     0.167 HD
ATOM     60  C   UNL A   1      39.310  33.010  34.808  1.00  0.00     0.074 A 
ATOM     61  C   UNL A   1      38.226  33.964  34.707  1.00  0.00     0.031 C 
ATOM     62  C   UNL A   1      40.137  32.908  35.878  1.00  0.00     0.037 A 
BRANCH  49  63
ATOM     63  C   UNL A   1      44.316  28.381  35.461  1.00  0.00     0.058 A 
ATOM     64  C   UNL A   1      44.063  27.242  36.242  1.00  0.00     0.135 A 
ATOM     65  C   UNL A   1      45.656  28.751  35.259  1.00  0.00     0.135 A 
ATOM     66  F   UNL A   1      42.801  26.853  36.483  1.00  0.00    -0.206 F 
ATOM     67  C   UNL A   1      45.097  26.507  36.811  1.00  0.00     0.059 A 
ATOM     68  C   UNL A   1      46.708  28.014  35.794  1.00  0.00     0.059 A 
ATOM     69  F   UNL A   1      45.955  29.834  34.525  1.00  0.00    -0.206 F 
ATOM     70  C   UNL A   1      46.417  26.897  36.576  1.00  0.00     0.060 A 
BRANCH  70  71
ATOM     71  S   UNL A   1      47.746  25.909  37.292  1.00  0.00     0.124 S 
ATOM     72  O   UNL A   1      47.904  26.537  38.600  1.00  0.00    -0.237 OA
ATOM     73  O   UNL A   1      47.169  24.568  37.297  1.00  0.00    -0.237 OA
ATOM     74  O   UNL A   1      48.856  26.106  36.364  1.00  0.00    -0.744 OA
ENDBRANCH  70  71
ENDBRANCH  49  63
BRANCH  50  75
ATOM     75  C   UNL A   1      36.746  33.050  30.860  1.00  0.00     0.058 A 
ATOM     76  C   UNL A   1      36.950  34.022  29.868  1.00  0.00     0.135 A 
ATOM     77  C   UNL A   1      35.422  32.762  31.227  1.00  0.00     0.135 A 
ATOM     78  F   UNL A   1      38.197  34.336  29.485  1.00  0.00    -0.206 F 
ATOM     79  C   UNL A   1      35.889  34.710  29.289  1.00  0.00     0.059 A 
ATOM     80  C   UNL A   1      34.342  33.416  30.640  1.00  0.00     0.059 A 
ATOM     81  F   UNL A   1      35.167  31.827  32.155  1.00  0.00    -0.206 F 
ATOM     82  C   UNL A   1      34.587  34.401  29.685  1.00  0.00     0.060 A 
BRANCH  82  83
ATOM     83  S   UNL A   1      33.216  35.293  28.919  1.00  0.00     0.124 S 
ATOM     84  O   UNL A   1      32.544  34.225  28.188  1.00  0.00    -0.237 OA
ATOM     85  O   UNL A   1      32.505  35.818  30.081  1.00  0.00    -0.237 OA
ATOM     86  O   UNL A   1      33.886  36.296  28.098  1.00  0.00    -0.744 OA
ENDBRANCH  82  83
ENDBRANCH  50  75
BRANCH  62  87
ATOM     87  C   UNL A   1      39.971  33.900  36.995  1.00  0.00     0.058 A 
ATOM     88  C   UNL A   1      40.476  35.205  36.914  1.00  0.00     0.135 A 
ATOM     89  C   UNL A   1      39.200  33.561  38.121  1.00  0.00     0.135 A 
ATOM     90  F   UNL A   1      41.225  35.578  35.864  1.00  0.00    -0.206 F 
ATOM     91  C   UNL A   1      40.227  36.141  37.913  1.00  0.00     0.059 A 
ATOM     92  C   UNL A   1      38.915  34.489  39.116  1.00  0.00     0.059 A 
ATOM     93  F   UNL A   1      38.686  32.327  38.241  1.00  0.00    -0.206 F 
ATOM     94  C   UNL A   1      39.435  35.776  39.005  1.00  0.00     0.060 A 
BRANCH  94  95
ATOM     95  S   UNL A   1      39.057  37.022  40.255  1.00  0.00     0.124 S 
ATOM     96  O   UNL A   1      40.355  37.198  40.898  1.00  0.00    -0.237 OA
ATOM     97  O   UNL A   1      38.595  38.144  39.445  1.00  0.00    -0.237 OA
ATOM     98  O   UNL A   1      38.031  36.384  41.073  1.00  0.00    -0.744 OA
ENDBRANCH  94  95
ENDBRANCH  62  87
ENDBRANCH  36  37
ENDBRANCH  28  31
ENDBRANCH  26  27
ENDBRANCH  25  26
ENDBRANCH  24  25
ENDBRANCH   1  24
TORSDOF 19
ENDMDL
