MODEL 1
REMARK VINA RESULT:     -12.4      0.000      0.000
REMARK SMILES CC(=O)N[C@@H](CS[C@@H]1CC(=O)N(c2cccc3ccccc23)C1=O)C(=O)NCCCCCCNC(=O)c1ccc(-c2c3nc(c(-c4c(F)cc(S(=O)(=O)[O-])cc4F)c4ccc([nH]4)c(-c4c(F)cc(S(=O)(=O)[O-])cc4F)c4nc(c(-c5c(F)cc(S(=O)(=O)[O-])cc5F)c5ccc2[nH]5)C=C4)C=C3)cc1
REMARK SMILES IDX 30 1 29 2 28 3 27 4 25 5 26 6 5 8 4 9 1 10 2 11 3 12 6 14
REMARK SMILES IDX 7 15 8 16 9 17 23 18 10 19 12 20 24 21 11 22 13 23 14 24
REMARK SMILES IDX 22 25 15 26 17 27 21 28 16 29 18 30 20 31 19 32 31 33 32 34
REMARK SMILES IDX 33 35 34 36 35 37 36 39 37 40 38 41 102 42 39 43 101 44
REMARK SMILES IDX 40 45 41 46 42 47 95 48 43 49 100 50 94 51 96 52 44 53 99 54
REMARK SMILES IDX 93 55 92 56 45 58 79 59 58 60 78 61 59 62 62 63 77 64 97 65
REMARK SMILES IDX 60 66 61 67 76 69 98 70 63 71 46 72 47 73 56 74 48 75 49 76
REMARK SMILES IDX 55 77 57 78 50 79 51 80 52 81 53 82 54 83 80 84 81 85 90 86
REMARK SMILES IDX 82 87 83 88 89 89 91 90 84 91 85 92 86 93 87 94 88 95 64 96
REMARK SMILES IDX 65 97 74 98 66 99 67 100 73 101 75 102 68 103 69 104 70 105
REMARK SMILES IDX 71 106 72 107
REMARK H PARENT 27 7 4 13 34 38 96 57 62 68
REMARK Flexibility Score: inf
ROOT
ATOM      1  C   UNL A   1      33.056  30.475  27.200  1.00  0.00     0.002 C 
ENDROOT
BRANCH   1   2
ATOM      2  C   UNL A   1      32.845  29.983  25.764  1.00  0.00     0.021 C 
BRANCH   2   3
ATOM      3  C   UNL A   1      31.414  29.557  25.400  1.00  0.00     0.116 C 
BRANCH   3   4
ATOM      4  N   UNL A   1      31.096  29.744  23.994  1.00  0.00    -0.354 N 
ATOM      5  C   UNL A   1      30.859  28.943  22.928  1.00  0.00     0.243 C 
ATOM      6  O   UNL A   1      30.536  29.571  21.904  1.00  0.00    -0.273 OA
ATOM      7  H   UNL A   1      31.039  30.698  23.756  1.00  0.00     0.163 HD
BRANCH   5   8
ATOM      8  C   UNL A   1      30.891  27.386  22.850  1.00  0.00     0.181 C 
BRANCH   8   9
ATOM      9  N   UNL A   1      32.292  26.946  22.761  1.00  0.00    -0.344 N 
ATOM     10  C   UNL A   1      32.173  25.690  20.649  1.00  0.00     0.114 C 
ATOM     11  C   UNL A   1      32.915  26.123  21.878  1.00  0.00     0.217 C 
ATOM     12  O   UNL A   1      34.065  25.748  22.097  1.00  0.00    -0.275 OA
ATOM     13  H   UNL A   1      32.878  27.310  23.463  1.00  0.00     0.164 HD
ENDBRANCH   8   9
BRANCH   8  14
ATOM     14  C   UNL A   1      30.113  26.456  23.784  1.00  0.00     0.105 C 
BRANCH  14  15
ATOM     15  S   UNL A   1      30.748  25.839  25.382  1.00  0.00    -0.145 SA
BRANCH  15  16
ATOM     16  C   UNL A   1      30.529  24.029  25.394  1.00  0.00     0.146 C 
ATOM     17  C   UNL A   1      30.733  23.573  26.833  1.00  0.00     0.125 C 
ATOM     18  C   UNL A   1      31.604  23.257  24.649  1.00  0.00     0.247 C 
ATOM     19  C   UNL A   1      32.064  22.882  26.828  1.00  0.00     0.235 C 
ATOM     20  N   UNL A   1      32.480  22.686  25.529  1.00  0.00    -0.249 N 
ATOM     21  O   UNL A   1      31.595  23.126  23.430  1.00  0.00    -0.273 OA
ATOM     22  O   UNL A   1      32.640  22.579  27.860  1.00  0.00    -0.274 OA
BRANCH  20  23
ATOM     23  C   UNL A   1      33.650  21.911  25.209  1.00  0.00     0.060 A 
ATOM     24  C   UNL A   1      33.424  20.557  24.878  1.00  0.00     0.027 A 
ATOM     25  C   UNL A   1      35.013  22.377  25.314  1.00  0.00     0.006 A 
ATOM     26  C   UNL A   1      34.465  19.649  24.734  1.00  0.00     0.003 A 
ATOM     27  C   UNL A   1      36.054  21.402  25.242  1.00  0.00    -0.016 A 
ATOM     28  C   UNL A   1      35.460  23.705  25.552  1.00  0.00     0.011 A 
ATOM     29  C   UNL A   1      35.766  20.065  24.953  1.00  0.00     0.009 A 
ATOM     30  C   UNL A   1      37.396  21.744  25.482  1.00  0.00     0.009 A 
ATOM     31  C   UNL A   1      36.807  24.042  25.751  1.00  0.00     0.001 A 
ATOM     32  C   UNL A   1      37.774  23.055  25.745  1.00  0.00     0.001 A 
ENDBRANCH  20  23
ENDBRANCH  15  16
ENDBRANCH  14  15
ENDBRANCH   8  14
ENDBRANCH   5   8
ENDBRANCH   3   4
ENDBRANCH   2   3
ENDBRANCH   1   2
BRANCH   1  33
ATOM     33  C   UNL A   1      34.520  30.783  27.542  1.00  0.00     0.002 C 
BRANCH  33  34
ATOM     34  C   UNL A   1      34.816  32.172  28.129  1.00  0.00     0.021 C 
BRANCH  34  35
ATOM     35  C   UNL A   1      35.955  32.262  29.143  1.00  0.00     0.116 C 
BRANCH  35  36
ATOM     36  N   UNL A   1      35.773  31.397  30.297  1.00  0.00    -0.352 N 
ATOM     37  C   UNL A   1      36.595  30.437  30.834  1.00  0.00     0.251 C 
ATOM     38  H   UNL A   1      34.920  31.521  30.772  1.00  0.00     0.163 HD
ATOM     39  O   UNL A   1      36.189  29.748  31.767  1.00  0.00    -0.269 OA
BRANCH  37  40
ATOM     40  C   UNL A   1      37.950  30.192  30.285  1.00  0.00     0.039 A 
ATOM     41  C   UNL A   1      39.013  30.037  31.181  1.00  0.00     0.014 A 
ATOM     42  C   UNL A   1      38.193  30.152  28.908  1.00  0.00     0.014 A 
ATOM     43  C   UNL A   1      40.298  29.765  30.702  1.00  0.00     0.010 A 
ATOM     44  C   UNL A   1      39.469  29.832  28.432  1.00  0.00     0.010 A 
ATOM     45  C   UNL A   1      40.532  29.625  29.324  1.00  0.00    -0.014 A 
BRANCH  45  46
ATOM     46  C   UNL A   1      41.873  29.209  28.828  1.00  0.00     0.031 A 
ATOM     47  C   UNL A   1      43.011  30.189  28.742  1.00  0.00     0.074 A 
ATOM     48  C   UNL A   1      42.056  27.936  28.422  1.00  0.00     0.049 A 
ATOM     49  N   UNL A   1      44.250  29.983  28.372  1.00  0.00    -0.248 NA
ATOM     50  C   UNL A   1      42.717  31.584  29.102  1.00  0.00     0.031 C 
ATOM     51  C   UNL A   1      41.019  26.903  28.392  1.00  0.00     0.029 A 
ATOM     52  N   UNL A   1      43.178  27.294  27.958  1.00  0.00    -0.354 N 
ATOM     53  C   UNL A   1      44.883  31.217  28.450  1.00  0.00     0.074 A 
ATOM     54  C   UNL A   1      43.878  32.176  28.861  1.00  0.00     0.031 C 
ATOM     55  C   UNL A   1      41.557  25.752  27.959  1.00  0.00     0.029 A 
ATOM     56  C   UNL A   1      42.971  25.966  27.663  1.00  0.00     0.049 A 
ATOM     57  H   UNL A   1      44.047  27.742  27.846  1.00  0.00     0.167 HD
ATOM     58  C   UNL A   1      46.184  31.521  28.221  1.00  0.00     0.037 A 
ATOM     59  C   UNL A   1      43.824  25.023  27.218  1.00  0.00     0.037 A 
ATOM     60  C   UNL A   1      47.187  30.564  27.826  1.00  0.00     0.049 A 
ATOM     61  C   UNL A   1      45.270  25.376  27.004  1.00  0.00     0.074 A 
ATOM     62  C   UNL A   1      48.542  30.767  27.625  1.00  0.00     0.029 A 
ATOM     63  N   UNL A   1      46.946  29.222  27.568  1.00  0.00    -0.354 N 
ATOM     64  N   UNL A   1      45.867  26.533  27.161  1.00  0.00    -0.248 NA
ATOM     65  C   UNL A   1      46.161  24.292  26.569  1.00  0.00     0.031 C 
ATOM     66  C   UNL A   1      49.114  29.556  27.216  1.00  0.00     0.029 A 
ATOM     67  C   UNL A   1      48.122  28.590  27.198  1.00  0.00     0.049 A 
ATOM     68  H   UNL A   1      46.067  28.784  27.637  1.00  0.00     0.167 HD
ATOM     69  C   UNL A   1      47.207  26.311  26.865  1.00  0.00     0.074 A 
ATOM     70  C   UNL A   1      47.335  24.906  26.534  1.00  0.00     0.031 C 
ATOM     71  C   UNL A   1      48.238  27.191  26.871  1.00  0.00     0.037 A 
BRANCH  58  72
ATOM     72  C   UNL A   1      46.604  32.953  28.404  1.00  0.00     0.058 A 
ATOM     73  C   UNL A   1      47.074  33.426  29.641  1.00  0.00     0.135 A 
ATOM     74  C   UNL A   1      46.569  33.856  27.329  1.00  0.00     0.135 A 
ATOM     75  F   UNL A   1      47.118  32.608  30.704  1.00  0.00    -0.206 F 
ATOM     76  C   UNL A   1      47.464  34.751  29.812  1.00  0.00     0.059 A 
ATOM     77  C   UNL A   1      46.977  35.179  27.472  1.00  0.00     0.059 A 
ATOM     78  F   UNL A   1      46.131  33.455  26.124  1.00  0.00    -0.206 F 
ATOM     79  C   UNL A   1      47.407  35.621  28.723  1.00  0.00     0.060 A 
BRANCH  79  80
ATOM     80  S   UNL A   1      47.911  37.338  28.961  1.00  0.00     0.124 S 
ATOM     81  O   UNL A   1      48.964  37.474  27.959  1.00  0.00    -0.237 OA
ATOM     82  O   UNL A   1      46.678  38.070  28.686  1.00  0.00    -0.237 OA
ATOM     83  O   UNL A   1      48.358  37.371  30.350  1.00  0.00    -0.744 OA
ENDBRANCH  79  80
ENDBRANCH  58  72
BRANCH  59  84
ATOM     84  C   UNL A   1      43.338  23.638  26.988  1.00  0.00     0.058 A 
ATOM     85  C   UNL A   1      43.140  23.151  25.688  1.00  0.00     0.135 A 
ATOM     86  C   UNL A   1      43.082  22.770  28.061  1.00  0.00     0.135 A 
ATOM     87  F   UNL A   1      43.367  23.947  24.633  1.00  0.00    -0.206 F 
ATOM     88  C   UNL A   1      42.691  21.855  25.457  1.00  0.00     0.059 A 
ATOM     89  C   UNL A   1      42.651  21.464  27.855  1.00  0.00     0.059 A 
ATOM     90  F   UNL A   1      43.272  23.185  29.323  1.00  0.00    -0.206 F 
ATOM     91  C   UNL A   1      42.450  21.018  26.548  1.00  0.00     0.060 A 
BRANCH  91  92
ATOM     92  S   UNL A   1      41.921  19.319  26.239  1.00  0.00     0.124 S 
ATOM     93  O   UNL A   1      40.477  19.478  26.119  1.00  0.00    -0.237 OA
ATOM     94  O   UNL A   1      42.633  18.991  25.008  1.00  0.00    -0.237 OA
ATOM     95  O   UNL A   1      42.383  18.606  27.427  1.00  0.00    -0.744 OA
ENDBRANCH  91  92
ENDBRANCH  59  84
BRANCH  71  96
ATOM     96  C   UNL A   1      49.601  26.654  26.532  1.00  0.00     0.058 A 
ATOM     97  C   UNL A   1      50.072  26.625  25.211  1.00  0.00     0.135 A 
ATOM     98  C   UNL A   1      50.453  26.185  27.544  1.00  0.00     0.135 A 
ATOM     99  F   UNL A   1      49.294  27.056  24.206  1.00  0.00    -0.206 F 
ATOM    100  C   UNL A   1      51.332  26.120  24.900  1.00  0.00     0.059 A 
ATOM    101  C   UNL A   1      51.724  25.697  27.259  1.00  0.00     0.059 A 
ATOM    102  F   UNL A   1      50.054  26.199  28.826  1.00  0.00    -0.206 F 
ATOM    103  C   UNL A   1      52.149  25.654  25.931  1.00  0.00     0.060 A 
BRANCH 103 104
ATOM    104  S   UNL A   1      53.787  25.012  25.521  1.00  0.00     0.124 S 
ATOM    105  O   UNL A   1      54.549  25.376  26.711  1.00  0.00    -0.237 OA
ATOM    106  O   UNL A   1      53.532  23.585  25.343  1.00  0.00    -0.237 OA
ATOM    107  O   UNL A   1      54.138  25.734  24.302  1.00  0.00    -0.744 OA
ENDBRANCH 103 104
ENDBRANCH  71  96
ENDBRANCH  45  46
ENDBRANCH  37  40
ENDBRANCH  35  36
ENDBRANCH  34  35
ENDBRANCH  33  34
ENDBRANCH   1  33
TORSDOF 21
ENDMDL
MODEL 2
REMARK VINA RESULT:     -12.1      0.620      7.816
REMARK SMILES CC(=O)N[C@@H](CS[C@@H]1CC(=O)N(c2cccc3ccccc23)C1=O)C(=O)NCCCCCCNC(=O)c1ccc(-c2c3nc(c(-c4c(F)cc(S(=O)(=O)[O-])cc4F)c4ccc([nH]4)c(-c4c(F)cc(S(=O)(=O)[O-])cc4F)c4nc(c(-c5c(F)cc(S(=O)(=O)[O-])cc5F)c5ccc2[nH]5)C=C4)C=C3)cc1
REMARK SMILES IDX 30 1 29 2 28 3 27 4 25 5 26 6 5 8 4 9 1 10 2 11 3 12 6 14
REMARK SMILES IDX 7 15 8 16 9 17 23 18 10 19 12 20 24 21 11 22 13 23 14 24
REMARK SMILES IDX 22 25 15 26 17 27 21 28 16 29 18 30 20 31 19 32 31 33 32 34
REMARK SMILES IDX 33 35 34 36 35 37 36 39 37 40 38 41 102 42 39 43 101 44
REMARK SMILES IDX 40 45 41 46 42 47 95 48 43 49 100 50 94 51 96 52 44 53 99 54
REMARK SMILES IDX 93 55 92 56 45 58 79 59 58 60 78 61 59 62 62 63 77 64 97 65
REMARK SMILES IDX 60 66 61 67 76 69 98 70 63 71 46 72 47 73 56 74 48 75 49 76
REMARK SMILES IDX 55 77 57 78 50 79 51 80 52 81 53 82 54 83 80 84 81 85 90 86
REMARK SMILES IDX 82 87 83 88 89 89 91 90 84 91 85 92 86 93 87 94 88 95 64 96
REMARK SMILES IDX 65 97 74 98 66 99 67 100 73 101 75 102 68 103 69 104 70 105
REMARK SMILES IDX 71 106 72 107
REMARK H PARENT 27 7 4 13 34 38 96 57 62 68
REMARK Flexibility Score: inf
ROOT
ATOM      1  C   UNL A   1      32.295  30.556  26.768  1.00  0.00     0.002 C 
ENDROOT
BRANCH   1   2
ATOM      2  C   UNL A   1      31.880  29.402  25.849  1.00  0.00     0.021 C 
BRANCH   2   3
ATOM      3  C   UNL A   1      32.611  29.318  24.499  1.00  0.00     0.116 C 
BRANCH   3   4
ATOM      4  N   UNL A   1      31.716  29.361  23.355  1.00  0.00    -0.354 N 
ATOM      5  C   UNL A   1      30.990  28.465  22.646  1.00  0.00     0.243 C 
ATOM      6  O   UNL A   1      30.282  28.991  21.769  1.00  0.00    -0.273 OA
ATOM      7  H   UNL A   1      31.611  30.276  23.007  1.00  0.00     0.163 HD
BRANCH   5   8
ATOM      8  C   UNL A   1      30.901  26.919  22.826  1.00  0.00     0.181 C 
BRANCH   8   9
ATOM      9  N   UNL A   1      32.265  26.373  22.911  1.00  0.00    -0.344 N 
ATOM     10  C   UNL A   1      32.522  25.601  20.590  1.00  0.00     0.114 C 
ATOM     11  C   UNL A   1      33.013  25.695  22.004  1.00  0.00     0.217 C 
ATOM     12  O   UNL A   1      34.071  25.173  22.350  1.00  0.00    -0.275 OA
ATOM     13  H   UNL A   1      32.710  26.525  23.776  1.00  0.00     0.164 HD
ENDBRANCH   8   9
BRANCH   8  14
ATOM     14  C   UNL A   1      29.996  26.216  23.840  1.00  0.00     0.105 C 
BRANCH  14  15
ATOM     15  S   UNL A   1      30.554  25.619  25.474  1.00  0.00    -0.145 SA
BRANCH  15  16
ATOM     16  C   UNL A   1      30.427  23.800  25.463  1.00  0.00     0.146 C 
ATOM     17  C   UNL A   1      30.655  23.337  26.896  1.00  0.00     0.125 C 
ATOM     18  C   UNL A   1      31.539  23.093  24.707  1.00  0.00     0.247 C 
ATOM     19  C   UNL A   1      32.019  22.714  26.881  1.00  0.00     0.235 C 
ATOM     20  N   UNL A   1      32.444  22.556  25.580  1.00  0.00    -0.249 N 
ATOM     21  O   UNL A   1      31.536  22.977  23.487  1.00  0.00    -0.273 OA
ATOM     22  O   UNL A   1      32.611  22.427  27.909  1.00  0.00    -0.274 OA
BRANCH  20  23
ATOM     23  C   UNL A   1      33.651  21.845  25.250  1.00  0.00     0.060 A 
ATOM     24  C   UNL A   1      33.498  20.477  24.936  1.00  0.00     0.027 A 
ATOM     25  C   UNL A   1      34.987  22.389  25.329  1.00  0.00     0.006 A 
ATOM     26  C   UNL A   1      34.586  19.629  24.785  1.00  0.00     0.003 A 
ATOM     27  C   UNL A   1      36.080  21.475  25.251  1.00  0.00    -0.016 A 
ATOM     28  C   UNL A   1      35.361  23.743  25.546  1.00  0.00     0.011 A 
ATOM     29  C   UNL A   1      35.865  20.120  24.980  1.00  0.00     0.009 A 
ATOM     30  C   UNL A   1      37.404  21.895  25.466  1.00  0.00     0.009 A 
ATOM     31  C   UNL A   1      36.689  24.159  25.721  1.00  0.00     0.001 A 
ATOM     32  C   UNL A   1      37.711  23.228  25.710  1.00  0.00     0.001 A 
ENDBRANCH  20  23
ENDBRANCH  15  16
ENDBRANCH  14  15
ENDBRANCH   8  14
ENDBRANCH   5   8
ENDBRANCH   3   4
ENDBRANCH   2   3
ENDBRANCH   1   2
BRANCH   1  33
ATOM     33  C   UNL A   1      33.747  30.469  27.256  1.00  0.00     0.002 C 
BRANCH  33  34
ATOM     34  C   UNL A   1      34.429  31.791  27.642  1.00  0.00     0.021 C 
BRANCH  34  35
ATOM     35  C   UNL A   1      35.736  31.689  28.425  1.00  0.00     0.116 C 
BRANCH  35  36
ATOM     36  N   UNL A   1      35.594  31.015  29.706  1.00  0.00    -0.352 N 
ATOM     37  C   UNL A   1      36.477  30.232  30.407  1.00  0.00     0.251 C 
ATOM     38  H   UNL A   1      34.720  31.142  30.141  1.00  0.00     0.163 HD
ATOM     39  O   UNL A   1      36.103  29.675  31.437  1.00  0.00    -0.269 OA
BRANCH  37  40
ATOM     40  C   UNL A   1      37.862  30.017  29.926  1.00  0.00     0.039 A 
ATOM     41  C   UNL A   1      38.901  30.035  30.862  1.00  0.00     0.014 A 
ATOM     42  C   UNL A   1      38.154  29.837  28.570  1.00  0.00     0.014 A 
ATOM     43  C   UNL A   1      40.217  29.797  30.452  1.00  0.00     0.010 A 
ATOM     44  C   UNL A   1      39.463  29.551  28.168  1.00  0.00     0.010 A 
ATOM     45  C   UNL A   1      40.506  29.518  29.106  1.00  0.00    -0.014 A 
BRANCH  45  46
ATOM     46  C   UNL A   1      41.886  29.138  28.697  1.00  0.00     0.031 A 
ATOM     47  C   UNL A   1      42.212  27.735  28.263  1.00  0.00     0.074 A 
ATOM     48  C   UNL A   1      42.864  30.065  28.747  1.00  0.00     0.049 A 
ATOM     49  N   UNL A   1      43.351  27.246  27.839  1.00  0.00    -0.248 NA
ATOM     50  C   UNL A   1      41.124  26.747  28.331  1.00  0.00     0.031 C 
ATOM     51  C   UNL A   1      42.696  31.443  29.211  1.00  0.00     0.029 A 
ATOM     52  N   UNL A   1      44.192  29.989  28.404  1.00  0.00    -0.354 N 
ATOM     53  C   UNL A   1      43.120  25.899  27.591  1.00  0.00     0.074 A 
ATOM     54  C   UNL A   1      41.743  25.636  27.956  1.00  0.00     0.031 C 
ATOM     55  C   UNL A   1      43.867  32.090  29.100  1.00  0.00     0.029 A 
ATOM     56  C   UNL A   1      44.874  31.172  28.574  1.00  0.00     0.049 A 
ATOM     57  H   UNL A   1      44.615  29.167  28.068  1.00  0.00     0.167 HD
ATOM     58  C   UNL A   1      43.970  24.970  27.087  1.00  0.00     0.037 A 
ATOM     59  C   UNL A   1      46.160  31.487  28.326  1.00  0.00     0.037 A 
ATOM     60  C   UNL A   1      45.336  25.234  26.711  1.00  0.00     0.049 A 
ATOM     61  C   UNL A   1      47.074  30.450  27.735  1.00  0.00     0.074 A 
ATOM     62  C   UNL A   1      46.256  24.371  26.141  1.00  0.00     0.029 A 
ATOM     63  N   UNL A   1      45.982  26.452  26.870  1.00  0.00    -0.354 N 
ATOM     64  N   UNL A   1      46.815  29.200  27.433  1.00  0.00    -0.248 NA
ATOM     65  C   UNL A   1      48.450  30.869  27.437  1.00  0.00     0.031 C 
ATOM     66  C   UNL A   1      47.466  25.058  25.982  1.00  0.00     0.029 A 
ATOM     67  C   UNL A   1      47.289  26.359  26.420  1.00  0.00     0.049 A 
ATOM     68  H   UNL A   1      45.570  27.263  27.247  1.00  0.00     0.167 HD
ATOM     69  C   UNL A   1      47.988  28.691  26.888  1.00  0.00     0.074 A 
ATOM     70  C   UNL A   1      48.953  29.772  26.890  1.00  0.00     0.031 C 
ATOM     71  C   UNL A   1      48.242  27.442  26.426  1.00  0.00     0.037 A 
BRANCH  58  72
ATOM     72  C   UNL A   1      43.441  23.575  26.903  1.00  0.00     0.058 A 
ATOM     73  C   UNL A   1      43.271  22.705  27.994  1.00  0.00     0.135 A 
ATOM     74  C   UNL A   1      43.066  23.110  25.632  1.00  0.00     0.135 A 
ATOM     75  F   UNL A   1      43.623  23.096  29.229  1.00  0.00    -0.206 F 
ATOM     76  C   UNL A   1      42.781  21.414  27.826  1.00  0.00     0.059 A 
ATOM     77  C   UNL A   1      42.551  21.830  25.444  1.00  0.00     0.059 A 
ATOM     78  F   UNL A   1      43.203  23.901  24.555  1.00  0.00    -0.206 F 
ATOM     79  C   UNL A   1      42.428  20.984  26.546  1.00  0.00     0.060 A 
BRANCH  79  80
ATOM     80  S   UNL A   1      41.798  19.304  26.342  1.00  0.00     0.124 S 
ATOM     81  O   UNL A   1      42.516  18.868  25.149  1.00  0.00    -0.237 OA
ATOM     82  O   UNL A   1      42.198  18.664  27.592  1.00  0.00    -0.237 OA
ATOM     83  O   UNL A   1      40.361  19.500  26.175  1.00  0.00    -0.744 OA
ENDBRANCH  79  80
ENDBRANCH  58  72
BRANCH  59  84
ATOM     84  C   UNL A   1      46.647  32.865  28.592  1.00  0.00     0.058 A 
ATOM     85  C   UNL A   1      47.258  33.188  29.812  1.00  0.00     0.135 A 
ATOM     86  C   UNL A   1      46.528  33.877  27.628  1.00  0.00     0.135 A 
ATOM     87  F   UNL A   1      47.388  32.253  30.765  1.00  0.00    -0.206 F 
ATOM     88  C   UNL A   1      47.724  34.473  30.075  1.00  0.00     0.059 A 
ATOM     89  C   UNL A   1      47.005  35.164  27.860  1.00  0.00     0.059 A 
ATOM     90  F   UNL A   1      45.965  33.613  26.439  1.00  0.00    -0.206 F 
ATOM     91  C   UNL A   1      47.593  35.454  29.091  1.00  0.00     0.060 A 
BRANCH  91  92
ATOM     92  S   UNL A   1      48.251  37.104  29.417  1.00  0.00     0.124 S 
ATOM     93  O   UNL A   1      47.921  37.801  28.179  1.00  0.00    -0.237 OA
ATOM     94  O   UNL A   1      47.498  37.511  30.599  1.00  0.00    -0.237 OA
ATOM     95  O   UNL A   1      49.672  36.857  29.645  1.00  0.00    -0.744 OA
ENDBRANCH  91  92
ENDBRANCH  59  84
BRANCH  71  96
ATOM     96  C   UNL A   1      49.610  27.184  25.860  1.00  0.00     0.058 A 
ATOM     97  C   UNL A   1      49.862  27.264  24.482  1.00  0.00     0.135 A 
ATOM     98  C   UNL A   1      50.685  26.876  26.708  1.00  0.00     0.135 A 
ATOM     99  F   UNL A   1      48.866  27.549  23.628  1.00  0.00    -0.206 F 
ATOM    100  C   UNL A   1      51.129  27.018  23.960  1.00  0.00     0.059 A 
ATOM    101  C   UNL A   1      51.964  26.648  26.210  1.00  0.00     0.059 A 
ATOM    102  F   UNL A   1      50.499  26.797  28.035  1.00  0.00    -0.206 F 
ATOM    103  C   UNL A   1      52.173  26.705  24.832  1.00  0.00     0.060 A 
BRANCH 103 104
ATOM    104  S   UNL A   1      53.816  26.399  24.149  1.00  0.00     0.124 S 
ATOM    105  O   UNL A   1      54.097  25.058  24.650  1.00  0.00    -0.237 OA
ATOM    106  O   UNL A   1      53.585  26.503  22.711  1.00  0.00    -0.237 OA
ATOM    107  O   UNL A   1      54.626  27.469  24.724  1.00  0.00    -0.744 OA
ENDBRANCH 103 104
ENDBRANCH  71  96
ENDBRANCH  45  46
ENDBRANCH  37  40
ENDBRANCH  35  36
ENDBRANCH  34  35
ENDBRANCH  33  34
ENDBRANCH   1  33
TORSDOF 21
ENDMDL
MODEL 3
REMARK VINA RESULT:     -11.1      1.554      2.407
REMARK SMILES CC(=O)N[C@@H](CS[C@@H]1CC(=O)N(c2cccc3ccccc23)C1=O)C(=O)NCCCCCCNC(=O)c1ccc(-c2c3nc(c(-c4c(F)cc(S(=O)(=O)[O-])cc4F)c4ccc([nH]4)c(-c4c(F)cc(S(=O)(=O)[O-])cc4F)c4nc(c(-c5c(F)cc(S(=O)(=O)[O-])cc5F)c5ccc2[nH]5)C=C4)C=C3)cc1
REMARK SMILES IDX 30 1 29 2 28 3 27 4 25 5 26 6 5 8 4 9 1 10 2 11 3 12 6 14
REMARK SMILES IDX 7 15 8 16 9 17 23 18 10 19 12 20 24 21 11 22 13 23 14 24
REMARK SMILES IDX 22 25 15 26 17 27 21 28 16 29 18 30 20 31 19 32 31 33 32 34
REMARK SMILES IDX 33 35 34 36 35 37 36 39 37 40 38 41 102 42 39 43 101 44
REMARK SMILES IDX 40 45 41 46 42 47 95 48 43 49 100 50 94 51 96 52 44 53 99 54
REMARK SMILES IDX 93 55 92 56 45 58 79 59 58 60 78 61 59 62 62 63 77 64 97 65
REMARK SMILES IDX 60 66 61 67 76 69 98 70 63 71 46 72 47 73 56 74 48 75 49 76
REMARK SMILES IDX 55 77 57 78 50 79 51 80 52 81 53 82 54 83 80 84 81 85 90 86
REMARK SMILES IDX 82 87 83 88 89 89 91 90 84 91 85 92 86 93 87 94 88 95 64 96
REMARK SMILES IDX 65 97 74 98 66 99 67 100 73 101 75 102 68 103 69 104 70 105
REMARK SMILES IDX 71 106 72 107
REMARK H PARENT 27 7 4 13 34 38 96 57 62 68
REMARK Flexibility Score: inf
ROOT
ATOM      1  C   UNL A   1      35.348  29.720  27.859  1.00  0.00     0.002 C 
ENDROOT
BRANCH   1   2
ATOM      2  C   UNL A   1      34.249  30.604  27.260  1.00  0.00     0.021 C 
BRANCH   2   3
ATOM      3  C   UNL A   1      32.835  30.002  27.241  1.00  0.00     0.116 C 
BRANCH   3   4
ATOM      4  N   UNL A   1      31.883  30.791  26.477  1.00  0.00    -0.354 N 
ATOM      5  C   UNL A   1      31.132  30.613  25.365  1.00  0.00     0.243 C 
ATOM      6  O   UNL A   1      30.375  31.569  25.124  1.00  0.00    -0.273 OA
ATOM      7  H   UNL A   1      31.749  31.684  26.870  1.00  0.00     0.163 HD
BRANCH   5   8
ATOM      8  C   UNL A   1      31.069  29.376  24.417  1.00  0.00     0.181 C 
BRANCH   8   9
ATOM      9  N   UNL A   1      30.629  29.823  23.085  1.00  0.00    -0.344 N 
ATOM     10  C   UNL A   1      28.391  28.804  23.051  1.00  0.00     0.114 C 
ATOM     11  C   UNL A   1      29.509  29.540  22.373  1.00  0.00     0.217 C 
ATOM     12  O   UNL A   1      29.427  29.884  21.196  1.00  0.00    -0.275 OA
ATOM     13  H   UNL A   1      31.257  30.432  22.633  1.00  0.00     0.164 HD
ENDBRANCH   8   9
BRANCH   8  14
ATOM     14  C   UNL A   1      32.183  28.337  24.274  1.00  0.00     0.105 C 
BRANCH  14  15
ATOM     15  S   UNL A   1      32.790  27.695  22.675  1.00  0.00    -0.145 SA
BRANCH  15  16
ATOM     16  C   UNL A   1      31.820  26.201  22.283  1.00  0.00     0.146 C 
ATOM     17  C   UNL A   1      30.911  25.944  23.477  1.00  0.00     0.125 C 
ATOM     18  C   UNL A   1      32.634  24.921  22.206  1.00  0.00     0.247 C 
ATOM     19  C   UNL A   1      31.501  24.741  24.152  1.00  0.00     0.235 C 
ATOM     20  N   UNL A   1      32.453  24.171  23.335  1.00  0.00    -0.249 N 
ATOM     21  O   UNL A   1      33.282  24.611  21.213  1.00  0.00    -0.273 OA
ATOM     22  O   UNL A   1      31.150  24.385  25.265  1.00  0.00    -0.274 OA
BRANCH  20  23
ATOM     23  C   UNL A   1      33.081  22.915  23.652  1.00  0.00     0.060 A 
ATOM     24  C   UNL A   1      32.269  21.767  23.525  1.00  0.00     0.027 A 
ATOM     25  C   UNL A   1      34.413  22.761  24.189  1.00  0.00     0.006 A 
ATOM     26  C   UNL A   1      32.679  20.520  23.975  1.00  0.00     0.003 A 
ATOM     27  C   UNL A   1      34.771  21.484  24.717  1.00  0.00    -0.016 A 
ATOM     28  C   UNL A   1      35.416  23.760  24.323  1.00  0.00     0.011 A 
ATOM     29  C   UNL A   1      33.907  20.391  24.600  1.00  0.00     0.009 A 
ATOM     30  C   UNL A   1      35.988  21.284  25.391  1.00  0.00     0.009 A 
ATOM     31  C   UNL A   1      36.644  23.540  24.964  1.00  0.00     0.001 A 
ATOM     32  C   UNL A   1      36.919  22.307  25.525  1.00  0.00     0.001 A 
ENDBRANCH  20  23
ENDBRANCH  15  16
ENDBRANCH  14  15
ENDBRANCH   8  14
ENDBRANCH   5   8
ENDBRANCH   3   4
ENDBRANCH   2   3
ENDBRANCH   1   2
BRANCH   1  33
ATOM     33  C   UNL A   1      36.557  30.504  28.385  1.00  0.00     0.002 C 
BRANCH  33  34
ATOM     34  C   UNL A   1      36.391  31.204  29.743  1.00  0.00     0.021 C 
BRANCH  34  35
ATOM     35  C   UNL A   1      36.374  30.309  30.982  1.00  0.00     0.116 C 
BRANCH  35  36
ATOM     36  N   UNL A   1      36.650  31.023  32.217  1.00  0.00    -0.352 N 
ATOM     37  C   UNL A   1      37.843  31.336  32.821  1.00  0.00     0.251 C 
ATOM     38  H   UNL A   1      35.851  31.333  32.700  1.00  0.00     0.163 HD
ATOM     39  O   UNL A   1      37.837  31.867  33.930  1.00  0.00    -0.269 OA
BRANCH  37  40
ATOM     40  C   UNL A   1      39.138  31.014  32.176  1.00  0.00     0.039 A 
ATOM     41  C   UNL A   1      40.014  30.148  32.840  1.00  0.00     0.014 A 
ATOM     42  C   UNL A   1      39.516  31.579  30.954  1.00  0.00     0.014 A 
ATOM     43  C   UNL A   1      41.228  29.790  32.245  1.00  0.00     0.010 A 
ATOM     44  C   UNL A   1      40.708  31.182  30.338  1.00  0.00     0.010 A 
ATOM     45  C   UNL A   1      41.571  30.276  30.972  1.00  0.00    -0.014 A 
BRANCH  45  46
ATOM     46  C   UNL A   1      42.801  29.791  30.289  1.00  0.00     0.031 A 
ATOM     47  C   UNL A   1      44.034  30.648  30.202  1.00  0.00     0.074 A 
ATOM     48  C   UNL A   1      42.795  28.571  29.714  1.00  0.00     0.049 A 
ATOM     49  N   UNL A   1      45.201  30.364  29.679  1.00  0.00    -0.248 NA
ATOM     50  C   UNL A   1      43.941  32.007  30.758  1.00  0.00     0.031 C 
ATOM     51  C   UNL A   1      41.645  27.666  29.670  1.00  0.00     0.029 A 
ATOM     52  N   UNL A   1      43.785  27.882  29.058  1.00  0.00    -0.354 N 
ATOM     53  C   UNL A   1      45.980  31.504  29.839  1.00  0.00     0.074 A 
ATOM     54  C   UNL A   1      45.138  32.500  30.468  1.00  0.00     0.031 C 
ATOM     55  C   UNL A   1      42.001  26.533  29.045  1.00  0.00     0.029 A 
ATOM     56  C   UNL A   1      43.397  26.634  28.628  1.00  0.00     0.049 A 
ATOM     57  H   UNL A   1      44.687  28.247  28.909  1.00  0.00     0.167 HD
ATOM     58  C   UNL A   1      47.281  31.697  29.511  1.00  0.00     0.037 A 
ATOM     59  C   UNL A   1      44.088  25.675  27.983  1.00  0.00     0.037 A 
ATOM     60  C   UNL A   1      48.123  30.701  28.897  1.00  0.00     0.049 A 
ATOM     61  C   UNL A   1      45.539  25.899  27.660  1.00  0.00     0.074 A 
ATOM     62  C   UNL A   1      49.468  30.785  28.579  1.00  0.00     0.029 A 
ATOM     63  N   UNL A   1      47.702  29.438  28.506  1.00  0.00    -0.354 N 
ATOM     64  N   UNL A   1      46.281  26.955  27.892  1.00  0.00    -0.248 NA
ATOM     65  C   UNL A   1      46.252  24.794  27.004  1.00  0.00     0.031 C 
ATOM     66  C   UNL A   1      49.853  29.586  27.968  1.00  0.00     0.029 A 
ATOM     67  C   UNL A   1      48.757  28.740  27.938  1.00  0.00     0.049 A 
ATOM     68  H   UNL A   1      46.788  29.090  28.614  1.00  0.00     0.167 HD
ATOM     69  C   UNL A   1      47.552  26.635  27.430  1.00  0.00     0.074 A 
ATOM     70  C   UNL A   1      47.482  25.281  26.919  1.00  0.00     0.031 C 
ATOM     71  C   UNL A   1      48.676  27.393  27.432  1.00  0.00     0.037 A 
BRANCH  58  72
ATOM     72  C   UNL A   1      47.882  33.040  29.821  1.00  0.00     0.058 A 
ATOM     73  C   UNL A   1      47.851  34.089  28.886  1.00  0.00     0.135 A 
ATOM     74  C   UNL A   1      48.464  33.296  31.072  1.00  0.00     0.135 A 
ATOM     75  F   UNL A   1      47.315  33.895  27.671  1.00  0.00    -0.206 F 
ATOM     76  C   UNL A   1      48.405  35.333  29.170  1.00  0.00     0.059 A 
ATOM     77  C   UNL A   1      49.003  34.541  31.387  1.00  0.00     0.059 A 
ATOM     78  F   UNL A   1      48.517  32.330  32.004  1.00  0.00    -0.206 F 
ATOM     79  C   UNL A   1      48.983  35.548  30.422  1.00  0.00     0.060 A 
BRANCH  79  80
ATOM     80  S   UNL A   1      49.703  37.166  30.776  1.00  0.00     0.124 S 
ATOM     81  O   UNL A   1      50.745  37.249  29.757  1.00  0.00    -0.237 OA
ATOM     82  O   UNL A   1      48.566  38.063  30.592  1.00  0.00    -0.237 OA
ATOM     83  O   UNL A   1      50.175  37.033  32.150  1.00  0.00    -0.744 OA
ENDBRANCH  79  80
ENDBRANCH  58  72
BRANCH  59  84
ATOM     84  C   UNL A   1      43.423  24.391  27.640  1.00  0.00     0.058 A 
ATOM     85  C   UNL A   1      42.901  24.171  26.357  1.00  0.00     0.135 A 
ATOM     86  C   UNL A   1      43.314  23.355  28.579  1.00  0.00     0.135 A 
ATOM     87  F   UNL A   1      42.978  25.136  25.428  1.00  0.00    -0.206 F 
ATOM     88  C   UNL A   1      42.281  22.973  26.019  1.00  0.00     0.059 A 
ATOM     89  C   UNL A   1      42.716  22.140  28.259  1.00  0.00     0.059 A 
ATOM     90  F   UNL A   1      43.813  23.511  29.816  1.00  0.00    -0.206 F 
ATOM     91  C   UNL A   1      42.194  21.962  26.977  1.00  0.00     0.060 A 
BRANCH  91  92
ATOM     92  S   UNL A   1      41.438  20.389  26.515  1.00  0.00     0.124 S 
ATOM     93  O   UNL A   1      41.563  19.628  27.752  1.00  0.00    -0.237 OA
ATOM     94  O   UNL A   1      40.084  20.791  26.147  1.00  0.00    -0.237 OA
ATOM     95  O   UNL A   1      42.269  19.933  25.405  1.00  0.00    -0.744 OA
ENDBRANCH  91  92
ENDBRANCH  59  84
BRANCH  71  96
ATOM     96  C   UNL A   1      49.929  26.765  26.888  1.00  0.00     0.058 A 
ATOM     97  C   UNL A   1      50.236  26.806  25.519  1.00  0.00     0.135 A 
ATOM     98  C   UNL A   1      50.843  26.137  27.747  1.00  0.00     0.135 A 
ATOM     99  F   UNL A   1      49.392  27.389  24.654  1.00  0.00    -0.206 F 
ATOM    100  C   UNL A   1      51.394  26.218  25.016  1.00  0.00     0.059 A 
ATOM    101  C   UNL A   1      52.016  25.562  27.270  1.00  0.00     0.059 A 
ATOM    102  F   UNL A   1      50.601  26.079  29.067  1.00  0.00    -0.206 F 
ATOM    103  C   UNL A   1      52.275  25.593  25.900  1.00  0.00     0.060 A 
BRANCH 103 104
ATOM    104  S   UNL A   1      53.781  24.843  25.243  1.00  0.00     0.124 S 
ATOM    105  O   UNL A   1      53.996  25.630  24.034  1.00  0.00    -0.237 OA
ATOM    106  O   UNL A   1      54.740  25.063  26.322  1.00  0.00    -0.237 OA
ATOM    107  O   UNL A   1      53.399  23.450  25.028  1.00  0.00    -0.744 OA
ENDBRANCH 103 104
ENDBRANCH  71  96
ENDBRANCH  45  46
ENDBRANCH  37  40
ENDBRANCH  35  36
ENDBRANCH  34  35
ENDBRANCH  33  34
ENDBRANCH   1  33
TORSDOF 21
ENDMDL
