MODEL 1
REMARK VINA RESULT:     -12.1      0.000      0.000
REMARK SMILES O=C(NCCCCCCNC(=O)c1ccc(-c2c3nc(c(-c4c(F)cc(S(=O)(=O)[O-])cc4F)c4ccc([nH]4)c(-c4c(F)cc(S(=O)(=O)[O-])cc4F)c4nc(c(-c5c(F)cc(S(=O)(=O)[O-])cc5F)c5ccc2[nH]5)C=C4)C=C3)cc1)c1ccc(N[C@H]2OC[C@@H](O)[C@@H](O)[C@H]2O)cc1
REMARK SMILES IDX 6 1 5 2 4 3 3 4 1 5 2 6 79 8 80 9 94 10 81 11 93 12 82 13
REMARK SMILES IDX 83 14 84 16 85 17 91 18 86 19 89 20 87 21 92 22 90 24 88 26
REMARK SMILES IDX 7 28 8 29 9 30 10 31 11 32 12 34 13 35 14 36 78 37 15 38
REMARK SMILES IDX 77 39 16 40 17 41 18 42 71 43 19 44 76 45 70 46 72 47 20 48
REMARK SMILES IDX 75 49 69 50 68 51 21 53 55 54 34 55 54 56 35 57 38 58 53 59
REMARK SMILES IDX 73 60 36 61 37 62 52 64 74 65 39 66 22 67 23 68 32 69 24 70
REMARK SMILES IDX 25 71 31 72 33 73 26 74 27 75 28 76 29 77 30 78 56 79 57 80
REMARK SMILES IDX 66 81 58 82 59 83 65 84 67 85 60 86 61 87 62 88 63 89 64 90
REMARK SMILES IDX 40 91 41 92 50 93 42 94 43 95 49 96 51 97 44 98 45 99 46 100
REMARK SMILES IDX 47 101 48 102
REMARK H PARENT 3 7 83 15 92 23 90 25 88 27 10 33 72 52 38 63
REMARK Flexibility Score: inf
ROOT
ATOM      1  C   UNL A   1      37.563  21.169  25.311  1.00  0.00     0.002 C 
ENDROOT
BRANCH   1   2
ATOM      2  C   UNL A   1      36.146  21.470  24.815  1.00  0.00     0.021 C 
BRANCH   2   3
ATOM      3  C   UNL A   1      35.054  21.365  25.876  1.00  0.00     0.116 C 
BRANCH   3   4
ATOM      4  N   UNL A   1      34.172  20.231  25.646  1.00  0.00    -0.352 N 
ATOM      5  O   UNL A   1      32.208  19.198  25.202  1.00  0.00    -0.269 OA
ATOM      6  C   UNL A   1      32.882  20.225  25.178  1.00  0.00     0.251 C 
ATOM      7  H   UNL A   1      34.553  19.346  25.856  1.00  0.00     0.163 HD
BRANCH   6   8
ATOM      8  C   UNL A   1      32.298  21.477  24.659  1.00  0.00     0.039 A 
ATOM      9  C   UNL A   1      32.494  21.851  23.331  1.00  0.00     0.016 A 
ATOM     10  C   UNL A   1      31.546  22.285  25.508  1.00  0.00     0.016 A 
ATOM     11  C   UNL A   1      32.017  23.083  22.882  1.00  0.00     0.026 A 
ATOM     12  C   UNL A   1      31.059  23.510  25.040  1.00  0.00     0.026 A 
ATOM     13  C   UNL A   1      31.322  23.951  23.732  1.00  0.00     0.036 A 
BRANCH  13  14
ATOM     14  N   UNL A   1      30.817  25.178  23.328  1.00  0.00    -0.358 N 
ATOM     15  H   UNL A   1      29.972  25.190  22.823  1.00  0.00     0.163 HD
BRANCH  14  16
ATOM     16  C   UNL A   1      31.469  26.451  23.610  1.00  0.00     0.244 C 
ATOM     17  O   UNL A   1      32.884  26.275  23.509  1.00  0.00    -0.353 OA
ATOM     18  C   UNL A   1      31.036  27.471  22.529  1.00  0.00     0.195 C 
ATOM     19  C   UNL A   1      33.615  27.466  23.824  1.00  0.00     0.197 C 
ATOM     20  C   UNL A   1      31.778  28.793  22.757  1.00  0.00     0.178 C 
ATOM     21  C   UNL A   1      33.298  28.577  22.822  1.00  0.00     0.171 C 
BRANCH  18  22
ATOM     22  O   UNL A   1      31.373  26.948  21.217  1.00  0.00    -0.386 OA
ATOM     23  H   UNL A   1      32.027  27.529  20.796  1.00  0.00     0.211 HD
ENDBRANCH  18  22
BRANCH  20  24
ATOM     24  O   UNL A   1      31.459  29.715  21.712  1.00  0.00    -0.387 OA
ATOM     25  H   UNL A   1      30.628  29.449  21.288  1.00  0.00     0.211 HD
ENDBRANCH  20  24
BRANCH  21  26
ATOM     26  O   UNL A   1      33.797  28.213  21.525  1.00  0.00    -0.388 OA
ATOM     27  H   UNL A   1      33.420  27.359  21.261  1.00  0.00     0.211 HD
ENDBRANCH  21  26
ENDBRANCH  14  16
ENDBRANCH  13  14
ENDBRANCH   6   8
ENDBRANCH   3   4
ENDBRANCH   2   3
ENDBRANCH   1   2
BRANCH   1  28
ATOM     28  C   UNL A   1      38.334  22.366  25.876  1.00  0.00     0.002 C 
BRANCH  28  29
ATOM     29  C   UNL A   1      39.680  22.038  26.528  1.00  0.00     0.021 C 
BRANCH  29  30
ATOM     30  C   UNL A   1      40.454  23.238  27.064  1.00  0.00     0.116 C 
BRANCH  30  31
ATOM     31  N   UNL A   1      41.329  23.829  26.065  1.00  0.00    -0.352 N 
ATOM     32  C   UNL A   1      41.780  25.122  25.955  1.00  0.00     0.251 C 
ATOM     33  H   UNL A   1      41.645  23.212  25.366  1.00  0.00     0.163 HD
ATOM     34  O   UNL A   1      42.391  25.470  24.949  1.00  0.00    -0.269 OA
BRANCH  32  35
ATOM     35  C   UNL A   1      41.508  26.099  27.033  1.00  0.00     0.039 A 
ATOM     36  C   UNL A   1      40.481  25.831  27.943  1.00  0.00     0.014 A 
ATOM     37  C   UNL A   1      42.251  27.278  27.144  1.00  0.00     0.014 A 
ATOM     38  C   UNL A   1      40.241  26.713  28.999  1.00  0.00     0.010 A 
ATOM     39  C   UNL A   1      42.055  28.122  28.236  1.00  0.00     0.010 A 
ATOM     40  C   UNL A   1      41.049  27.849  29.174  1.00  0.00    -0.014 A 
BRANCH  40  41
ATOM     41  C   UNL A   1      40.859  28.758  30.336  1.00  0.00     0.031 A 
ATOM     42  C   UNL A   1      41.710  28.604  31.567  1.00  0.00     0.074 A 
ATOM     43  C   UNL A   1      39.876  29.679  30.307  1.00  0.00     0.049 A 
ATOM     44  N   UNL A   1      41.651  29.256  32.699  1.00  0.00    -0.248 NA
ATOM     45  C   UNL A   1      42.746  27.560  31.532  1.00  0.00     0.031 C 
ATOM     46  C   UNL A   1      38.955  29.898  29.189  1.00  0.00     0.029 A 
ATOM     47  N   UNL A   1      39.479  30.598  31.246  1.00  0.00    -0.354 N 
ATOM     48  C   UNL A   1      42.623  28.692  33.516  1.00  0.00     0.074 A 
ATOM     49  C   UNL A   1      43.228  27.614  32.765  1.00  0.00     0.031 C 
ATOM     50  C   UNL A   1      38.120  30.904  29.498  1.00  0.00     0.029 A 
ATOM     51  C   UNL A   1      38.417  31.375  30.846  1.00  0.00     0.049 A 
ATOM     52  H   UNL A   1      39.914  30.691  32.125  1.00  0.00     0.167 HD
ATOM     53  C   UNL A   1      42.991  29.051  34.769  1.00  0.00     0.037 A 
ATOM     54  C   UNL A   1      37.757  32.356  31.493  1.00  0.00     0.037 A 
ATOM     55  C   UNL A   1      42.407  30.146  35.500  1.00  0.00     0.049 A 
ATOM     56  C   UNL A   1      38.186  32.739  32.882  1.00  0.00     0.074 A 
ATOM     57  C   UNL A   1      42.761  30.637  36.744  1.00  0.00     0.029 A 
ATOM     58  N   UNL A   1      41.342  30.918  35.056  1.00  0.00    -0.354 N 
ATOM     59  N   UNL A   1      39.153  32.239  33.613  1.00  0.00    -0.248 NA
ATOM     60  C   UNL A   1      37.436  33.822  33.534  1.00  0.00     0.031 C 
ATOM     61  C   UNL A   1      41.884  31.676  37.072  1.00  0.00     0.029 A 
ATOM     62  C   UNL A   1      41.011  31.864  36.012  1.00  0.00     0.049 A 
ATOM     63  H   UNL A   1      40.889  30.809  34.188  1.00  0.00     0.167 HD
ATOM     64  C   UNL A   1      39.148  32.965  34.800  1.00  0.00     0.074 A 
ATOM     65  C   UNL A   1      38.085  33.942  34.685  1.00  0.00     0.031 C 
ATOM     66  C   UNL A   1      39.953  32.835  35.884  1.00  0.00     0.037 A 
BRANCH  53  67
ATOM     67  C   UNL A   1      44.075  28.247  35.433  1.00  0.00     0.058 A 
ATOM     68  C   UNL A   1      45.433  28.571  35.288  1.00  0.00     0.135 A 
ATOM     69  C   UNL A   1      43.749  27.149  36.247  1.00  0.00     0.135 A 
ATOM     70  F   UNL A   1      45.802  29.603  34.512  1.00  0.00    -0.206 F 
ATOM     71  C   UNL A   1      46.431  27.814  35.893  1.00  0.00     0.059 A 
ATOM     72  C   UNL A   1      44.730  26.395  36.885  1.00  0.00     0.059 A 
ATOM     73  F   UNL A   1      42.466  26.794  36.424  1.00  0.00    -0.206 F 
ATOM     74  C   UNL A   1      46.070  26.724  36.687  1.00  0.00     0.060 A 
BRANCH  74  75
ATOM     75  S   UNL A   1      47.377  25.744  37.454  1.00  0.00     0.124 S 
ATOM     76  O   UNL A   1      47.217  26.099  38.861  1.00  0.00    -0.237 OA
ATOM     77  O   UNL A   1      46.999  24.382  37.097  1.00  0.00    -0.237 OA
ATOM     78  O   UNL A   1      48.593  26.241  36.816  1.00  0.00    -0.744 OA
ENDBRANCH  74  75
ENDBRANCH  53  67
BRANCH  54  79
ATOM     79  C   UNL A   1      36.639  33.065  30.817  1.00  0.00     0.058 A 
ATOM     80  C   UNL A   1      35.309  32.834  31.197  1.00  0.00     0.135 A 
ATOM     81  C   UNL A   1      36.875  34.002  29.799  1.00  0.00     0.135 A 
ATOM     82  F   UNL A   1      35.033  31.942  32.161  1.00  0.00    -0.206 F 
ATOM     83  C   UNL A   1      34.251  33.499  30.587  1.00  0.00     0.059 A 
ATOM     84  C   UNL A   1      35.835  34.697  29.189  1.00  0.00     0.059 A 
ATOM     85  F   UNL A   1      38.132  34.271  29.409  1.00  0.00    -0.206 F 
ATOM     86  C   UNL A   1      34.525  34.432  29.586  1.00  0.00     0.060 A 
BRANCH  86  87
ATOM     87  S   UNL A   1      33.148  35.335  28.842  1.00  0.00     0.124 S 
ATOM     88  O   UNL A   1      33.845  36.409  28.146  1.00  0.00    -0.237 OA
ATOM     89  O   UNL A   1      32.535  34.315  27.997  1.00  0.00    -0.237 OA
ATOM     90  O   UNL A   1      32.353  35.741  29.997  1.00  0.00    -0.744 OA
ENDBRANCH  86  87
ENDBRANCH  54  79
BRANCH  66  91
ATOM     91  C   UNL A   1      39.739  33.792  37.022  1.00  0.00     0.058 A 
ATOM     92  C   UNL A   1      38.927  33.466  38.119  1.00  0.00     0.135 A 
ATOM     93  C   UNL A   1      40.397  35.033  37.040  1.00  0.00     0.135 A 
ATOM     94  F   UNL A   1      38.270  32.296  38.148  1.00  0.00    -0.206 F 
ATOM     95  C   UNL A   1      38.757  34.344  39.185  1.00  0.00     0.059 A 
ATOM     96  C   UNL A   1      40.263  35.915  38.107  1.00  0.00     0.059 A 
ATOM     97  F   UNL A   1      41.193  35.390  36.020  1.00  0.00    -0.206 F 
ATOM     98  C   UNL A   1      39.432  35.567  39.170  1.00  0.00     0.060 A 
BRANCH  98  99
ATOM     99  S   UNL A   1      39.233  36.682  40.576  1.00  0.00     0.124 S 
ATOM    100  O   UNL A   1      38.690  37.873  39.930  1.00  0.00    -0.237 OA
ATOM    101  O   UNL A   1      38.308  35.947  41.432  1.00  0.00    -0.237 OA
ATOM    102  O   UNL A   1      40.589  36.815  41.098  1.00  0.00    -0.744 OA
ENDBRANCH  98  99
ENDBRANCH  66  91
ENDBRANCH  40  41
ENDBRANCH  32  35
ENDBRANCH  30  31
ENDBRANCH  29  30
ENDBRANCH  28  29
ENDBRANCH   1  28
TORSDOF 21
ENDMDL
MODEL 2
REMARK VINA RESULT:     -11.9      6.444     12.278
REMARK SMILES O=C(NCCCCCCNC(=O)c1ccc(-c2c3nc(c(-c4c(F)cc(S(=O)(=O)[O-])cc4F)c4ccc([nH]4)c(-c4c(F)cc(S(=O)(=O)[O-])cc4F)c4nc(c(-c5c(F)cc(S(=O)(=O)[O-])cc5F)c5ccc2[nH]5)C=C4)C=C3)cc1)c1ccc(N[C@H]2OC[C@@H](O)[C@@H](O)[C@H]2O)cc1
REMARK SMILES IDX 6 1 5 2 4 3 3 4 1 5 2 6 79 8 80 9 94 10 81 11 93 12 82 13
REMARK SMILES IDX 83 14 84 16 85 17 91 18 86 19 89 20 87 21 92 22 90 24 88 26
REMARK SMILES IDX 7 28 8 29 9 30 10 31 11 32 12 34 13 35 14 36 78 37 15 38
REMARK SMILES IDX 77 39 16 40 17 41 18 42 71 43 19 44 76 45 70 46 72 47 20 48
REMARK SMILES IDX 75 49 69 50 68 51 21 53 55 54 34 55 54 56 35 57 38 58 53 59
REMARK SMILES IDX 73 60 36 61 37 62 52 64 74 65 39 66 22 67 23 68 32 69 24 70
REMARK SMILES IDX 25 71 31 72 33 73 26 74 27 75 28 76 29 77 30 78 56 79 57 80
REMARK SMILES IDX 66 81 58 82 59 83 65 84 67 85 60 86 61 87 62 88 63 89 64 90
REMARK SMILES IDX 40 91 41 92 50 93 42 94 43 95 49 96 51 97 44 98 45 99 46 100
REMARK SMILES IDX 47 101 48 102
REMARK H PARENT 3 7 83 15 92 23 90 25 88 27 10 33 72 52 38 63
REMARK Flexibility Score: inf
ROOT
ATOM      1  C   UNL A   1      32.252  28.270  26.856  1.00  0.00     0.002 C 
ENDROOT
BRANCH   1   2
ATOM      2  C   UNL A   1      32.061  27.732  25.436  1.00  0.00     0.021 C 
BRANCH   2   3
ATOM      3  C   UNL A   1      33.126  26.743  24.971  1.00  0.00     0.116 C 
BRANCH   3   4
ATOM      4  N   UNL A   1      33.237  26.696  23.521  1.00  0.00    -0.352 N 
ATOM      5  O   UNL A   1      33.638  25.739  21.510  1.00  0.00    -0.269 OA
ATOM      6  C   UNL A   1      33.385  25.603  22.704  1.00  0.00     0.251 C 
ATOM      7  H   UNL A   1      33.201  27.568  23.063  1.00  0.00     0.163 HD
BRANCH   6   8
ATOM      8  C   UNL A   1      33.256  24.251  23.280  1.00  0.00     0.039 A 
ATOM      9  C   UNL A   1      32.007  23.640  23.378  1.00  0.00     0.016 A 
ATOM     10  C   UNL A   1      34.395  23.585  23.725  1.00  0.00     0.016 A 
ATOM     11  C   UNL A   1      31.890  22.402  24.012  1.00  0.00     0.026 A 
ATOM     12  C   UNL A   1      34.266  22.337  24.344  1.00  0.00     0.026 A 
ATOM     13  C   UNL A   1      33.007  21.742  24.537  1.00  0.00     0.036 A 
BRANCH  13  14
ATOM     14  N   UNL A   1      32.943  20.506  25.162  1.00  0.00    -0.358 N 
ATOM     15  H   UNL A   1      32.622  20.471  26.091  1.00  0.00     0.163 HD
BRANCH  14  16
ATOM     16  C   UNL A   1      33.325  19.255  24.517  1.00  0.00     0.244 C 
ATOM     17  O   UNL A   1      34.684  18.962  24.853  1.00  0.00    -0.353 OA
ATOM     18  C   UNL A   1      32.437  18.122  25.085  1.00  0.00     0.195 C 
ATOM     19  C   UNL A   1      35.168  17.772  24.218  1.00  0.00     0.197 C 
ATOM     20  C   UNL A   1      32.881  16.783  24.485  1.00  0.00     0.178 C 
ATOM     21  C   UNL A   1      34.385  16.548  24.695  1.00  0.00     0.171 C 
BRANCH  18  22
ATOM     22  O   UNL A   1      32.587  18.076  26.529  1.00  0.00    -0.386 OA
ATOM     23  H   UNL A   1      33.376  17.558  26.756  1.00  0.00     0.211 HD
ENDBRANCH  18  22
BRANCH  20  24
ATOM     24  O   UNL A   1      32.132  15.716  25.071  1.00  0.00    -0.387 OA
ATOM     25  H   UNL A   1      32.352  15.646  26.013  1.00  0.00     0.211 HD
ENDBRANCH  20  24
BRANCH  21  26
ATOM     26  O   UNL A   1      34.655  16.316  26.087  1.00  0.00    -0.388 OA
ATOM     27  H   UNL A   1      35.353  16.920  26.386  1.00  0.00     0.211 HD
ENDBRANCH  21  26
ENDBRANCH  14  16
ENDBRANCH  13  14
ENDBRANCH   6   8
ENDBRANCH   3   4
ENDBRANCH   2   3
ENDBRANCH   1   2
BRANCH   1  28
ATOM     28  C   UNL A   1      33.699  28.558  27.266  1.00  0.00     0.002 C 
BRANCH  28  29
ATOM     29  C   UNL A   1      34.141  30.020  27.156  1.00  0.00     0.021 C 
BRANCH  29  30
ATOM     30  C   UNL A   1      35.471  30.351  27.824  1.00  0.00     0.116 C 
BRANCH  30  31
ATOM     31  N   UNL A   1      35.368  30.420  29.272  1.00  0.00    -0.352 N 
ATOM     32  C   UNL A   1      36.316  30.150  30.228  1.00  0.00     0.251 C 
ATOM     33  H   UNL A   1      34.490  30.701  29.617  1.00  0.00     0.163 HD
ATOM     34  O   UNL A   1      35.994  30.115  31.412  1.00  0.00    -0.269 OA
BRANCH  32  35
ATOM     35  C   UNL A   1      37.716  29.878  29.832  1.00  0.00     0.039 A 
ATOM     36  C   UNL A   1      38.650  29.573  30.827  1.00  0.00     0.014 A 
ATOM     37  C   UNL A   1      38.113  29.932  28.493  1.00  0.00     0.014 A 
ATOM     38  C   UNL A   1      39.965  29.260  30.472  1.00  0.00     0.010 A 
ATOM     39  C   UNL A   1      39.406  29.554  28.136  1.00  0.00     0.010 A 
ATOM     40  C   UNL A   1      40.346  29.215  29.121  1.00  0.00    -0.014 A 
BRANCH  40  41
ATOM     41  C   UNL A   1      41.719  28.810  28.720  1.00  0.00     0.031 A 
ATOM     42  C   UNL A   1      42.824  29.829  28.658  1.00  0.00     0.074 A 
ATOM     43  C   UNL A   1      41.955  27.537  28.348  1.00  0.00     0.049 A 
ATOM     44  N   UNL A   1      44.065  29.680  28.272  1.00  0.00    -0.248 NA
ATOM     45  C   UNL A   1      42.482  31.204  29.057  1.00  0.00     0.031 C 
ATOM     46  C   UNL A   1      40.957  26.464  28.322  1.00  0.00     0.029 A 
ATOM     47  N   UNL A   1      43.105  26.928  27.910  1.00  0.00    -0.354 N 
ATOM     48  C   UNL A   1      44.645  30.939  28.361  1.00  0.00     0.074 A 
ATOM     49  C   UNL A   1      43.609  31.850  28.796  1.00  0.00     0.031 C 
ATOM     50  C   UNL A   1      41.545  25.326  27.918  1.00  0.00     0.029 A 
ATOM     51  C   UNL A   1      42.948  25.593  27.618  1.00  0.00     0.049 A 
ATOM     52  H   UNL A   1      43.962  27.403  27.815  1.00  0.00     0.167 HD
ATOM     53  C   UNL A   1      45.929  31.300  28.121  1.00  0.00     0.037 A 
ATOM     54  C   UNL A   1      43.834  24.687  27.158  1.00  0.00     0.037 A 
ATOM     55  C   UNL A   1      46.964  30.383  27.720  1.00  0.00     0.049 A 
ATOM     56  C   UNL A   1      45.254  25.111  26.903  1.00  0.00     0.074 A 
ATOM     57  C   UNL A   1      48.311  30.637  27.526  1.00  0.00     0.029 A 
ATOM     58  N   UNL A   1      46.769  29.036  27.447  1.00  0.00    -0.354 N 
ATOM     59  N   UNL A   1      45.801  26.293  27.058  1.00  0.00    -0.248 NA
ATOM     60  C   UNL A   1      46.177  24.078  26.413  1.00  0.00     0.031 C 
ATOM     61  C   UNL A   1      48.922  29.455  27.092  1.00  0.00     0.029 A 
ATOM     62  C   UNL A   1      47.964  28.453  27.061  1.00  0.00     0.049 A 
ATOM     63  H   UNL A   1      45.907  28.565  27.516  1.00  0.00     0.167 HD
ATOM     64  C   UNL A   1      47.140  26.139  26.712  1.00  0.00     0.074 A 
ATOM     65  C   UNL A   1      47.319  24.749  26.347  1.00  0.00     0.031 C 
ATOM     66  C   UNL A   1      48.131  27.066  26.703  1.00  0.00     0.037 A 
BRANCH  53  67
ATOM     67  C   UNL A   1      46.285  32.753  28.282  1.00  0.00     0.058 A 
ATOM     68  C   UNL A   1      46.720  33.279  29.509  1.00  0.00     0.135 A 
ATOM     69  C   UNL A   1      46.212  33.629  27.186  1.00  0.00     0.135 A 
ATOM     70  F   UNL A   1      46.797  32.489  30.593  1.00  0.00    -0.206 F 
ATOM     71  C   UNL A   1      47.033  34.626  29.654  1.00  0.00     0.059 A 
ATOM     72  C   UNL A   1      46.547  34.975  27.302  1.00  0.00     0.059 A 
ATOM     73  F   UNL A   1      45.804  33.181  25.987  1.00  0.00    -0.206 F 
ATOM     74  C   UNL A   1      46.940  35.468  28.545  1.00  0.00     0.060 A 
BRANCH  74  75
ATOM     75  S   UNL A   1      47.337  37.217  28.752  1.00  0.00     0.124 S 
ATOM     76  O   UNL A   1      46.211  37.852  28.073  1.00  0.00    -0.237 OA
ATOM     77  O   UNL A   1      47.365  37.363  30.203  1.00  0.00    -0.237 OA
ATOM     78  O   UNL A   1      48.628  37.353  28.087  1.00  0.00    -0.744 OA
ENDBRANCH  74  75
ENDBRANCH  53  67
BRANCH  54  79
ATOM     79  C   UNL A   1      43.407  23.280  26.942  1.00  0.00     0.058 A 
ATOM     80  C   UNL A   1      43.220  22.779  25.645  1.00  0.00     0.135 A 
ATOM     81  C   UNL A   1      43.201  22.403  28.018  1.00  0.00     0.135 A 
ATOM     82  F   UNL A   1      43.398  23.581  24.584  1.00  0.00    -0.206 F 
ATOM     83  C   UNL A   1      42.836  21.462  25.421  1.00  0.00     0.059 A 
ATOM     84  C   UNL A   1      42.839  21.075  27.819  1.00  0.00     0.059 A 
ATOM     85  F   UNL A   1      43.382  22.829  29.278  1.00  0.00    -0.206 F 
ATOM     86  C   UNL A   1      42.651  20.615  26.516  1.00  0.00     0.060 A 
BRANCH  86  87
ATOM     87  S   UNL A   1      42.211  18.889  26.213  1.00  0.00     0.124 S 
ATOM     88  O   UNL A   1      42.412  18.300  27.531  1.00  0.00    -0.237 OA
ATOM     89  O   UNL A   1      40.826  19.000  25.765  1.00  0.00    -0.237 OA
ATOM     90  O   UNL A   1      43.162  18.479  25.185  1.00  0.00    -0.744 OA
ENDBRANCH  86  87
ENDBRANCH  54  79
BRANCH  66  91
ATOM     91  C   UNL A   1      49.507  26.603  26.315  1.00  0.00     0.058 A 
ATOM     92  C   UNL A   1      50.006  26.779  25.015  1.00  0.00     0.135 A 
ATOM     93  C   UNL A   1      50.357  26.022  27.270  1.00  0.00     0.135 A 
ATOM     94  F   UNL A   1      49.232  27.322  24.062  1.00  0.00    -0.206 F 
ATOM     95  C   UNL A   1      51.292  26.375  24.670  1.00  0.00     0.059 A 
ATOM     96  C   UNL A   1      51.655  25.636  26.954  1.00  0.00     0.059 A 
ATOM     97  F   UNL A   1      49.932  25.840  28.531  1.00  0.00    -0.206 F 
ATOM     98  C   UNL A   1      52.110  25.807  25.648  1.00  0.00     0.060 A 
BRANCH  98  99
ATOM     99  S   UNL A   1      53.790  25.321  25.198  1.00  0.00     0.124 S 
ATOM    100  O   UNL A   1      54.568  25.927  26.273  1.00  0.00    -0.237 OA
ATOM    101  O   UNL A   1      53.711  23.864  25.216  1.00  0.00    -0.237 OA
ATOM    102  O   UNL A   1      53.972  25.915  23.878  1.00  0.00    -0.744 OA
ENDBRANCH  98  99
ENDBRANCH  66  91
ENDBRANCH  40  41
ENDBRANCH  32  35
ENDBRANCH  30  31
ENDBRANCH  29  30
ENDBRANCH  28  29
ENDBRANCH   1  28
TORSDOF 21
ENDMDL
MODEL 3
REMARK VINA RESULT:     -11.8      3.353      5.369
REMARK SMILES O=C(NCCCCCCNC(=O)c1ccc(-c2c3nc(c(-c4c(F)cc(S(=O)(=O)[O-])cc4F)c4ccc([nH]4)c(-c4c(F)cc(S(=O)(=O)[O-])cc4F)c4nc(c(-c5c(F)cc(S(=O)(=O)[O-])cc5F)c5ccc2[nH]5)C=C4)C=C3)cc1)c1ccc(N[C@H]2OC[C@@H](O)[C@@H](O)[C@H]2O)cc1
REMARK SMILES IDX 6 1 5 2 4 3 3 4 1 5 2 6 79 8 80 9 94 10 81 11 93 12 82 13
REMARK SMILES IDX 83 14 84 16 85 17 91 18 86 19 89 20 87 21 92 22 90 24 88 26
REMARK SMILES IDX 7 28 8 29 9 30 10 31 11 32 12 34 13 35 14 36 78 37 15 38
REMARK SMILES IDX 77 39 16 40 17 41 18 42 71 43 19 44 76 45 70 46 72 47 20 48
REMARK SMILES IDX 75 49 69 50 68 51 21 53 55 54 34 55 54 56 35 57 38 58 53 59
REMARK SMILES IDX 73 60 36 61 37 62 52 64 74 65 39 66 22 67 23 68 32 69 24 70
REMARK SMILES IDX 25 71 31 72 33 73 26 74 27 75 28 76 29 77 30 78 56 79 57 80
REMARK SMILES IDX 66 81 58 82 59 83 65 84 67 85 60 86 61 87 62 88 63 89 64 90
REMARK SMILES IDX 40 91 41 92 50 93 42 94 43 95 49 96 51 97 44 98 45 99 46 100
REMARK SMILES IDX 47 101 48 102
REMARK H PARENT 3 7 83 15 92 23 90 25 88 27 10 33 72 52 38 63
REMARK Flexibility Score: inf
ROOT
ATOM      1  C   UNL A   1      34.440  25.623  25.076  1.00  0.00     0.002 C 
ENDROOT
BRANCH   1   2
ATOM      2  C   UNL A   1      33.201  26.026  25.880  1.00  0.00     0.021 C 
BRANCH   2   3
ATOM      3  C   UNL A   1      31.866  25.659  25.238  1.00  0.00     0.116 C 
BRANCH   3   4
ATOM      4  N   UNL A   1      30.876  25.250  26.223  1.00  0.00    -0.352 N 
ATOM      5  O   UNL A   1      29.629  23.784  27.412  1.00  0.00    -0.269 OA
ATOM      6  C   UNL A   1      30.615  23.994  26.710  1.00  0.00     0.251 C 
ATOM      7  H   UNL A   1      30.318  25.974  26.590  1.00  0.00     0.163 HD
BRANCH   6   8
ATOM      8  C   UNL A   1      31.523  22.883  26.365  1.00  0.00     0.039 A 
ATOM      9  C   UNL A   1      32.558  22.524  27.225  1.00  0.00     0.016 A 
ATOM     10  C   UNL A   1      31.337  22.193  25.170  1.00  0.00     0.016 A 
ATOM     11  C   UNL A   1      33.466  21.536  26.840  1.00  0.00     0.026 A 
ATOM     12  C   UNL A   1      32.245  21.193  24.803  1.00  0.00     0.026 A 
ATOM     13  C   UNL A   1      33.350  20.876  25.612  1.00  0.00     0.036 A 
BRANCH  13  14
ATOM     14  N   UNL A   1      34.218  19.879  25.192  1.00  0.00    -0.358 N 
ATOM     15  H   UNL A   1      35.172  19.968  25.416  1.00  0.00     0.163 HD
BRANCH  14  16
ATOM     16  C   UNL A   1      33.795  18.707  24.436  1.00  0.00     0.244 C 
ATOM     17  O   UNL A   1      34.933  17.874  24.203  1.00  0.00    -0.353 OA
ATOM     18  C   UNL A   1      32.786  17.908  25.298  1.00  0.00     0.195 C 
ATOM     19  C   UNL A   1      34.623  16.717  23.417  1.00  0.00     0.197 C 
ATOM     20  C   UNL A   1      32.393  16.625  24.557  1.00  0.00     0.178 C 
ATOM     21  C   UNL A   1      33.633  15.812  24.152  1.00  0.00     0.171 C 
BRANCH  18  22
ATOM     22  O   UNL A   1      33.408  17.564  26.564  1.00  0.00    -0.386 OA
ATOM     23  H   UNL A   1      33.989  18.288  26.846  1.00  0.00     0.211 HD
ENDBRANCH  18  22
BRANCH  20  24
ATOM     24  O   UNL A   1      31.535  15.832  25.380  1.00  0.00    -0.387 OA
ATOM     25  H   UNL A   1      31.095  15.160  24.836  1.00  0.00     0.211 HD
ENDBRANCH  20  24
BRANCH  21  26
ATOM     26  O   UNL A   1      34.261  15.261  25.321  1.00  0.00    -0.388 OA
ATOM     27  H   UNL A   1      33.897  14.380  25.499  1.00  0.00     0.211 HD
ENDBRANCH  21  26
ENDBRANCH  14  16
ENDBRANCH  13  14
ENDBRANCH   6   8
ENDBRANCH   3   4
ENDBRANCH   2   3
ENDBRANCH   1   2
BRANCH   1  28
ATOM     28  C   UNL A   1      34.326  24.307  24.299  1.00  0.00     0.002 C 
BRANCH  28  29
ATOM     29  C   UNL A   1      35.562  23.406  24.338  1.00  0.00     0.021 C 
BRANCH  29  30
ATOM     30  C   UNL A   1      36.718  23.920  25.190  1.00  0.00     0.116 C 
BRANCH  30  31
ATOM     31  N   UNL A   1      37.746  22.915  25.403  1.00  0.00    -0.352 N 
ATOM     32  C   UNL A   1      38.960  23.029  26.035  1.00  0.00     0.251 C 
ATOM     33  H   UNL A   1      37.541  22.022  25.043  1.00  0.00     0.163 HD
ATOM     34  O   UNL A   1      39.765  22.103  25.980  1.00  0.00    -0.269 OA
BRANCH  32  35
ATOM     35  C   UNL A   1      39.310  24.272  26.758  1.00  0.00     0.039 A 
ATOM     36  C   UNL A   1      38.855  24.439  28.069  1.00  0.00     0.014 A 
ATOM     37  C   UNL A   1      40.073  25.272  26.149  1.00  0.00     0.014 A 
ATOM     38  C   UNL A   1      39.217  25.580  28.789  1.00  0.00     0.010 A 
ATOM     39  C   UNL A   1      40.489  26.377  26.890  1.00  0.00     0.010 A 
ATOM     40  C   UNL A   1      40.066  26.543  28.217  1.00  0.00    -0.014 A 
BRANCH  40  41
ATOM     41  C   UNL A   1      40.525  27.725  28.994  1.00  0.00     0.031 A 
ATOM     42  C   UNL A   1      41.879  27.723  29.650  1.00  0.00     0.074 A 
ATOM     43  C   UNL A   1      39.695  28.774  29.163  1.00  0.00     0.049 A 
ATOM     44  N   UNL A   1      42.426  28.630  30.418  1.00  0.00    -0.248 NA
ATOM     45  C   UNL A   1      42.717  26.532  29.439  1.00  0.00     0.031 C 
ATOM     46  C   UNL A   1      38.341  28.878  28.614  1.00  0.00     0.029 A 
ATOM     47  N   UNL A   1      39.863  29.949  29.852  1.00  0.00    -0.354 N 
ATOM     48  C   UNL A   1      43.659  28.114  30.797  1.00  0.00     0.074 A 
ATOM     49  C   UNL A   1      43.761  26.795  30.211  1.00  0.00     0.031 C 
ATOM     50  C   UNL A   1      37.814  30.062  28.966  1.00  0.00     0.029 A 
ATOM     51  C   UNL A   1      38.773  30.785  29.796  1.00  0.00     0.049 A 
ATOM     52  H   UNL A   1      40.688  30.171  30.342  1.00  0.00     0.167 HD
ATOM     53  C   UNL A   1      44.626  28.694  31.548  1.00  0.00     0.037 A 
ATOM     54  C   UNL A   1      38.567  31.995  30.351  1.00  0.00     0.037 A 
ATOM     55  C   UNL A   1      44.533  30.020  32.101  1.00  0.00     0.049 A 
ATOM     56  C   UNL A   1      39.657  32.619  31.178  1.00  0.00     0.074 A 
ATOM     57  C   UNL A   1      45.488  30.725  32.812  1.00  0.00     0.029 A 
ATOM     58  N   UNL A   1      43.417  30.840  32.011  1.00  0.00    -0.354 N 
ATOM     59  N   UNL A   1      40.844  32.145  31.470  1.00  0.00    -0.248 NA
ATOM     60  C   UNL A   1      39.380  33.945  31.749  1.00  0.00     0.031 C 
ATOM     61  C   UNL A   1      44.936  31.953  33.191  1.00  0.00     0.029 A 
ATOM     62  C   UNL A   1      43.651  32.033  32.675  1.00  0.00     0.049 A 
ATOM     63  H   UNL A   1      42.582  30.608  31.545  1.00  0.00     0.167 HD
ATOM     64  C   UNL A   1      41.468  33.125  32.234  1.00  0.00     0.074 A 
ATOM     65  C   UNL A   1      40.528  34.221  32.353  1.00  0.00     0.031 C 
ATOM     66  C   UNL A   1      42.708  33.119  32.783  1.00  0.00     0.037 A 
BRANCH  53  67
ATOM     67  C   UNL A   1      45.870  27.892  31.820  1.00  0.00     0.058 A 
ATOM     68  C   UNL A   1      46.043  27.174  33.015  1.00  0.00     0.135 A 
ATOM     69  C   UNL A   1      46.894  27.820  30.861  1.00  0.00     0.135 A 
ATOM     70  F   UNL A   1      45.101  27.217  33.971  1.00  0.00    -0.206 F 
ATOM     71  C   UNL A   1      47.202  26.447  33.266  1.00  0.00     0.059 A 
ATOM     72  C   UNL A   1      48.049  27.075  31.080  1.00  0.00     0.059 A 
ATOM     73  F   UNL A   1      46.782  28.484  29.700  1.00  0.00    -0.206 F 
ATOM     74  C   UNL A   1      48.202  26.406  32.293  1.00  0.00     0.060 A 
BRANCH  74  75
ATOM     75  S   UNL A   1      49.705  25.469  32.639  1.00  0.00     0.124 S 
ATOM     76  O   UNL A   1      49.174  24.340  33.399  1.00  0.00    -0.237 OA
ATOM     77  O   UNL A   1      50.196  25.157  31.302  1.00  0.00    -0.237 OA
ATOM     78  O   UNL A   1      50.523  26.407  33.401  1.00  0.00    -0.744 OA
ENDBRANCH  74  75
ENDBRANCH  53  67
BRANCH  54  79
ATOM     79  C   UNL A   1      37.285  32.709  30.114  1.00  0.00     0.058 A 
ATOM     80  C   UNL A   1      36.178  32.490  30.946  1.00  0.00     0.135 A 
ATOM     81  C   UNL A   1      37.147  33.639  29.071  1.00  0.00     0.135 A 
ATOM     82  F   UNL A   1      36.259  31.606  31.952  1.00  0.00    -0.206 F 
ATOM     83  C   UNL A   1      34.975  33.159  30.750  1.00  0.00     0.059 A 
ATOM     84  C   UNL A   1      35.961  34.338  28.869  1.00  0.00     0.059 A 
ATOM     85  F   UNL A   1      38.182  33.896  28.257  1.00  0.00    -0.206 F 
ATOM     86  C   UNL A   1      34.878  34.085  29.709  1.00  0.00     0.060 A 
BRANCH  86  87
ATOM     87  S   UNL A   1      33.331  34.995  29.500  1.00  0.00     0.124 S 
ATOM     88  O   UNL A   1      32.771  34.932  30.845  1.00  0.00    -0.237 OA
ATOM     89  O   UNL A   1      33.802  36.305  29.063  1.00  0.00    -0.237 OA
ATOM     90  O   UNL A   1      32.624  34.221  28.484  1.00  0.00    -0.744 OA
ENDBRANCH  86  87
ENDBRANCH  54  79
BRANCH  66  91
ATOM     91  C   UNL A   1      43.136  34.346  33.538  1.00  0.00     0.058 A 
ATOM     92  C   UNL A   1      43.673  35.466  32.885  1.00  0.00     0.135 A 
ATOM     93  C   UNL A   1      42.960  34.421  34.929  1.00  0.00     0.135 A 
ATOM     94  F   UNL A   1      43.869  35.443  31.557  1.00  0.00    -0.206 F 
ATOM     95  C   UNL A   1      44.039  36.610  33.586  1.00  0.00     0.059 A 
ATOM     96  C   UNL A   1      43.294  35.564  35.648  1.00  0.00     0.059 A 
ATOM     97  F   UNL A   1      42.442  33.381  35.602  1.00  0.00    -0.206 F 
ATOM     98  C   UNL A   1      43.843  36.651  34.968  1.00  0.00     0.060 A 
BRANCH  98  99
ATOM     99  S   UNL A   1      44.288  38.154  35.863  1.00  0.00     0.124 S 
ATOM    100  O   UNL A   1      43.784  39.189  34.966  1.00  0.00    -0.237 OA
ATOM    101  O   UNL A   1      43.563  37.998  37.120  1.00  0.00    -0.237 OA
ATOM    102  O   UNL A   1      45.740  38.068  35.970  1.00  0.00    -0.744 OA
ENDBRANCH  98  99
ENDBRANCH  66  91
ENDBRANCH  40  41
ENDBRANCH  32  35
ENDBRANCH  30  31
ENDBRANCH  29  30
ENDBRANCH  28  29
ENDBRANCH   1  28
TORSDOF 21
ENDMDL
