MODEL 1
REMARK VINA RESULT:      -9.7      0.000      0.000
REMARK SMILES C#CCNC(=O)C[N@@H+](CC(=O)NCCCCCCNC(=O)c1ccc(-c2c3nc(c(-c4c(F)cc(S(=O)(=O)[O-])cc4F)c4ccc([nH]4)c(-c4c(F)cc(S(=O)(=O)[O-])cc4F)c4nc(c(-c5c(F)cc(S(=O)(=O)[O-])cc5F)c5ccc2[nH]5)C=C4)C=C3)cc1)C(C)(C)C
REMARK SMILES IDX 14 1 13 2 12 3 10 4 11 5 9 7 8 8 7 10 5 11 4 12 6 14 3 15
REMARK SMILES IDX 2 16 1 17 88 18 89 19 90 20 91 21 15 22 16 23 17 24 18 25
REMARK SMILES IDX 19 26 20 27 21 29 22 30 23 31 87 32 24 33 86 34 25 35 26 36
REMARK SMILES IDX 27 37 80 38 28 39 85 40 79 41 81 42 29 43 84 44 78 45 77 46
REMARK SMILES IDX 30 48 64 49 43 50 63 51 44 52 47 53 62 54 82 55 45 56 46 57
REMARK SMILES IDX 61 59 83 60 48 61 31 62 32 63 41 64 33 65 34 66 40 67 42 68
REMARK SMILES IDX 35 69 36 70 37 71 38 72 39 73 65 74 66 75 75 76 67 77 68 78
REMARK SMILES IDX 74 79 76 80 69 81 70 82 71 83 72 84 73 85 49 86 50 87 59 88
REMARK SMILES IDX 51 89 52 90 58 91 60 92 53 93 54 94 55 95 56 96 57 97
REMARK H PARENT 12 6 8 9 4 13 19 28 81 47 47 58
REMARK Flexibility Score: inf
ROOT
ATOM      1  C   UNL A   1      34.775  30.274  27.939  1.00  0.00     0.021 C 
ENDROOT
BRANCH   1   2
ATOM      2  C   UNL A   1      33.614  29.672  27.144  1.00  0.00     0.116 C 
BRANCH   2   3
ATOM      3  N   UNL A   1      33.892  28.302  26.756  1.00  0.00    -0.351 N 
ATOM      4  C   UNL A   1      33.085  27.332  26.237  1.00  0.00     0.275 C 
ATOM      5  O   UNL A   1      33.637  26.279  25.895  1.00  0.00    -0.269 OA
ATOM      6  H   UNL A   1      34.826  28.024  26.890  1.00  0.00     0.163 HD
BRANCH   4   7
ATOM      7  C   UNL A   1      31.580  27.536  26.016  1.00  0.00     0.364 C 
BRANCH   7   8
ATOM      8  N   UNL A   1      31.027  27.204  24.671  1.00  0.00    -0.315 N 
ATOM      9  H   UNL A   1      31.823  26.873  24.126  1.00  0.00     0.349 HD
BRANCH   8  10
ATOM     10  C   UNL A   1      30.536  28.411  23.983  1.00  0.00     0.364 C 
BRANCH  10  11
ATOM     11  C   UNL A   1      31.469  29.063  22.970  1.00  0.00     0.275 C 
ATOM     12  N   UNL A   1      30.969  29.721  21.892  1.00  0.00    -0.340 N 
ATOM     13  H   UNL A   1      31.625  29.967  21.201  1.00  0.00     0.164 HD
ATOM     14  O   UNL A   1      32.691  28.898  23.041  1.00  0.00    -0.268 OA
BRANCH  12  15
ATOM     15  C   UNL A   1      29.610  30.106  21.629  1.00  0.00     0.206 C 
BRANCH  15  16
ATOM     16  C   UNL A   1      29.153  30.982  22.785  1.00  0.00    -0.085 C 
ATOM     17  C   UNL A   1      28.762  31.733  23.776  1.00  0.00     0.006 C 
ENDBRANCH  15  16
ENDBRANCH  12  15
ENDBRANCH  10  11
ENDBRANCH   8  10
BRANCH   8  18
ATOM     18  C   UNL A   1      30.193  25.970  24.554  1.00  0.00     0.090 C 
ATOM     19  C   UNL A   1      30.838  24.824  23.742  1.00  0.00     0.078 C 
ATOM     20  C   UNL A   1      29.871  25.383  25.952  1.00  0.00     0.078 C 
ATOM     21  C   UNL A   1      28.820  26.304  23.923  1.00  0.00     0.078 C 
ENDBRANCH   8  18
ENDBRANCH   7   8
ENDBRANCH   4   7
ENDBRANCH   2   3
ENDBRANCH   1   2
BRANCH   1  22
ATOM     22  C   UNL A   1      35.148  31.712  27.583  1.00  0.00     0.002 C 
BRANCH  22  23
ATOM     23  C   UNL A   1      35.058  32.724  28.726  1.00  0.00     0.002 C 
BRANCH  23  24
ATOM     24  C   UNL A   1      36.354  33.466  29.072  1.00  0.00     0.021 C 
BRANCH  24  25
ATOM     25  C   UNL A   1      36.954  33.162  30.445  1.00  0.00     0.116 C 
BRANCH  25  26
ATOM     26  N   UNL A   1      36.321  32.023  31.087  1.00  0.00    -0.352 N 
ATOM     27  C   UNL A   1      36.698  30.706  31.127  1.00  0.00     0.251 C 
ATOM     28  H   UNL A   1      35.489  32.232  31.571  1.00  0.00     0.163 HD
ATOM     29  O   UNL A   1      35.914  29.868  31.566  1.00  0.00    -0.269 OA
BRANCH  27  30
ATOM     30  C   UNL A   1      38.028  30.281  30.633  1.00  0.00     0.039 A 
ATOM     31  C   UNL A   1      38.239  30.222  29.254  1.00  0.00     0.014 A 
ATOM     32  C   UNL A   1      39.043  29.892  31.512  1.00  0.00     0.014 A 
ATOM     33  C   UNL A   1      39.481  29.821  28.756  1.00  0.00     0.010 A 
ATOM     34  C   UNL A   1      40.301  29.547  31.015  1.00  0.00     0.010 A 
ATOM     35  C   UNL A   1      40.531  29.501  29.632  1.00  0.00    -0.014 A 
BRANCH  35  36
ATOM     36  C   UNL A   1      41.867  29.118  29.106  1.00  0.00     0.031 A 
ATOM     37  C   UNL A   1      42.969  30.140  29.004  1.00  0.00     0.074 A 
ATOM     38  C   UNL A   1      42.076  27.856  28.681  1.00  0.00     0.049 A 
ATOM     39  N   UNL A   1      44.189  29.994  28.555  1.00  0.00    -0.248 NA
ATOM     40  C   UNL A   1      42.653  31.510  29.442  1.00  0.00     0.031 C 
ATOM     41  C   UNL A   1      41.069  26.791  28.669  1.00  0.00     0.029 A 
ATOM     42  N   UNL A   1      43.198  27.254  28.171  1.00  0.00    -0.354 N 
ATOM     43  C   UNL A   1      44.780  31.250  28.640  1.00  0.00     0.074 A 
ATOM     44  C   UNL A   1      43.773  32.156  29.146  1.00  0.00     0.031 C 
ATOM     45  C   UNL A   1      41.626  25.665  28.193  1.00  0.00     0.029 A 
ATOM     46  C   UNL A   1      43.017  25.931  27.845  1.00  0.00     0.049 A 
ATOM     47  H   UNL A   1      44.054  27.727  28.050  1.00  0.00     0.167 HD
ATOM     48  C   UNL A   1      46.051  31.610  28.342  1.00  0.00     0.037 A 
ATOM     49  C   UNL A   1      43.875  25.033  27.325  1.00  0.00     0.037 A 
ATOM     50  C   UNL A   1      47.064  30.696  27.879  1.00  0.00     0.049 A 
ATOM     51  C   UNL A   1      45.296  25.448  27.051  1.00  0.00     0.074 A 
ATOM     52  C   UNL A   1      48.401  30.950  27.624  1.00  0.00     0.029 A 
ATOM     53  N   UNL A   1      46.855  29.353  27.607  1.00  0.00    -0.354 N 
ATOM     54  N   UNL A   1      45.856  26.623  27.211  1.00  0.00    -0.248 NA
ATOM     55  C   UNL A   1      46.206  24.412  26.542  1.00  0.00     0.031 C 
ATOM     56  C   UNL A   1      48.993  29.768  27.168  1.00  0.00     0.029 A 
ATOM     57  C   UNL A   1      48.034  28.768  27.176  1.00  0.00     0.049 A 
ATOM     58  H   UNL A   1      45.995  28.884  27.707  1.00  0.00     0.167 HD
ATOM     59  C   UNL A   1      47.188  26.462  26.846  1.00  0.00     0.074 A 
ATOM     60  C   UNL A   1      47.353  25.072  26.473  1.00  0.00     0.031 C 
ATOM     61  C   UNL A   1      48.183  27.381  26.818  1.00  0.00     0.037 A 
BRANCH  48  62
ATOM     62  C   UNL A   1      46.437  33.051  28.524  1.00  0.00     0.058 A 
ATOM     63  C   UNL A   1      46.363  33.971  27.466  1.00  0.00     0.135 A 
ATOM     64  C   UNL A   1      46.813  33.537  29.787  1.00  0.00     0.135 A 
ATOM     65  F   UNL A   1      46.023  33.558  26.234  1.00  0.00    -0.206 F 
ATOM     66  C   UNL A   1      46.658  35.317  27.650  1.00  0.00     0.059 A 
ATOM     67  C   UNL A   1      47.092  34.883  30.000  1.00  0.00     0.059 A 
ATOM     68  F   UNL A   1      46.903  32.699  30.833  1.00  0.00    -0.206 F 
ATOM     69  C   UNL A   1      47.018  35.765  28.922  1.00  0.00     0.060 A 
BRANCH  69  70
ATOM     70  S   UNL A   1      47.357  37.524  29.154  1.00  0.00     0.124 S 
ATOM     71  O   UNL A   1      46.892  37.732  30.522  1.00  0.00    -0.237 OA
ATOM     72  O   UNL A   1      48.802  37.593  28.958  1.00  0.00    -0.237 OA
ATOM     73  O   UNL A   1      46.556  38.164  28.115  1.00  0.00    -0.744 OA
ENDBRANCH  69  70
ENDBRANCH  48  62
BRANCH  49  74
ATOM     74  C   UNL A   1      43.427  23.643  27.045  1.00  0.00     0.058 A 
ATOM     75  C   UNL A   1      43.364  22.685  28.068  1.00  0.00     0.135 A 
ATOM     76  C   UNL A   1      43.070  23.242  25.749  1.00  0.00     0.135 A 
ATOM     77  F   UNL A   1      43.700  23.020  29.323  1.00  0.00    -0.206 F 
ATOM     78  C   UNL A   1      42.992  21.369  27.810  1.00  0.00     0.059 A 
ATOM     79  C   UNL A   1      42.671  21.938  25.472  1.00  0.00     0.059 A 
ATOM     80  F   UNL A   1      43.094  24.127  24.741  1.00  0.00    -0.206 F 
ATOM     81  C   UNL A   1      42.652  21.004  26.507  1.00  0.00     0.060 A 
BRANCH  81  82
ATOM     82  S   UNL A   1      42.149  19.301  26.180  1.00  0.00     0.124 S 
ATOM     83  O   UNL A   1      42.559  18.634  27.410  1.00  0.00    -0.237 OA
ATOM     84  O   UNL A   1      40.709  19.437  25.976  1.00  0.00    -0.237 OA
ATOM     85  O   UNL A   1      42.912  18.952  24.985  1.00  0.00    -0.744 OA
ENDBRANCH  81  82
ENDBRANCH  49  74
BRANCH  61  86
ATOM     86  C   UNL A   1      49.545  26.903  26.401  1.00  0.00     0.058 A 
ATOM     87  C   UNL A   1      50.521  26.547  27.345  1.00  0.00     0.135 A 
ATOM     88  C   UNL A   1      49.870  26.779  25.040  1.00  0.00     0.135 A 
ATOM     89  F   UNL A   1      50.261  26.653  28.658  1.00  0.00    -0.206 F 
ATOM     90  C   UNL A   1      51.784  26.117  26.955  1.00  0.00     0.059 A 
ATOM     91  C   UNL A   1      51.118  26.327  24.628  1.00  0.00     0.059 A 
ATOM     92  F   UNL A   1      48.968  27.094  24.098  1.00  0.00    -0.206 F 
ATOM     93  C   UNL A   1      52.076  26.015  25.593  1.00  0.00     0.060 A 
BRANCH  93  94
ATOM     94  S   UNL A   1      53.716  25.450  25.095  1.00  0.00     0.124 S 
ATOM     95  O   UNL A   1      54.060  26.422  24.063  1.00  0.00    -0.237 OA
ATOM     96  O   UNL A   1      54.476  25.549  26.337  1.00  0.00    -0.237 OA
ATOM     97  O   UNL A   1      53.476  24.089  24.623  1.00  0.00    -0.744 OA
ENDBRANCH  93  94
ENDBRANCH  61  86
ENDBRANCH  35  36
ENDBRANCH  27  30
ENDBRANCH  25  26
ENDBRANCH  24  25
ENDBRANCH  23  24
ENDBRANCH  22  23
ENDBRANCH   1  22
TORSDOF 22
ENDMDL
MODEL 2
REMARK VINA RESULT:      -9.1      1.244      8.580
REMARK SMILES C#CCNC(=O)C[N@@H+](CC(=O)NCCCCCCNC(=O)c1ccc(-c2c3nc(c(-c4c(F)cc(S(=O)(=O)[O-])cc4F)c4ccc([nH]4)c(-c4c(F)cc(S(=O)(=O)[O-])cc4F)c4nc(c(-c5c(F)cc(S(=O)(=O)[O-])cc5F)c5ccc2[nH]5)C=C4)C=C3)cc1)C(C)(C)C
REMARK SMILES IDX 14 1 13 2 12 3 10 4 11 5 9 7 8 8 7 10 5 11 4 12 6 14 3 15
REMARK SMILES IDX 2 16 1 17 88 18 89 19 90 20 91 21 15 22 16 23 17 24 18 25
REMARK SMILES IDX 19 26 20 27 21 29 22 30 23 31 87 32 24 33 86 34 25 35 26 36
REMARK SMILES IDX 27 37 80 38 28 39 85 40 79 41 81 42 29 43 84 44 78 45 77 46
REMARK SMILES IDX 30 48 64 49 43 50 63 51 44 52 47 53 62 54 82 55 45 56 46 57
REMARK SMILES IDX 61 59 83 60 48 61 31 62 32 63 41 64 33 65 34 66 40 67 42 68
REMARK SMILES IDX 35 69 36 70 37 71 38 72 39 73 65 74 66 75 75 76 67 77 68 78
REMARK SMILES IDX 74 79 76 80 69 81 70 82 71 83 72 84 73 85 49 86 50 87 59 88
REMARK SMILES IDX 51 89 52 90 58 91 60 92 53 93 54 94 55 95 56 96 57 97
REMARK H PARENT 12 6 8 9 4 13 19 28 81 47 47 58
REMARK Flexibility Score: inf
ROOT
ATOM      1  C   UNL A   1      35.176  29.858  28.089  1.00  0.00     0.021 C 
ENDROOT
BRANCH   1   2
ATOM      2  C   UNL A   1      34.133  29.328  27.103  1.00  0.00     0.116 C 
BRANCH   2   3
ATOM      3  N   UNL A   1      33.074  30.295  26.882  1.00  0.00    -0.351 N 
ATOM      4  C   UNL A   1      32.093  30.356  25.935  1.00  0.00     0.275 C 
ATOM      5  O   UNL A   1      31.251  31.252  26.068  1.00  0.00    -0.269 OA
ATOM      6  H   UNL A   1      33.060  31.038  27.528  1.00  0.00     0.163 HD
BRANCH   4   7
ATOM      7  C   UNL A   1      31.978  29.336  24.794  1.00  0.00     0.364 C 
BRANCH   7   8
ATOM      8  N   UNL A   1      30.655  28.681  24.581  1.00  0.00    -0.315 N 
ATOM      9  H   UNL A   1      30.034  29.093  25.278  1.00  0.00     0.349 HD
BRANCH   8  10
ATOM     10  C   UNL A   1      30.715  27.242  24.889  1.00  0.00     0.364 C 
BRANCH  10  11
ATOM     11  C   UNL A   1      31.708  26.799  25.956  1.00  0.00     0.275 C 
ATOM     12  N   UNL A   1      32.888  26.223  25.608  1.00  0.00    -0.340 N 
ATOM     13  H   UNL A   1      33.396  25.813  26.344  1.00  0.00     0.164 HD
ATOM     14  O   UNL A   1      31.407  26.840  27.152  1.00  0.00    -0.268 OA
BRANCH  12  15
ATOM     15  C   UNL A   1      33.491  26.132  24.306  1.00  0.00     0.206 C 
BRANCH  15  16
ATOM     16  C   UNL A   1      34.385  24.903  24.304  1.00  0.00    -0.085 C 
ATOM     17  C   UNL A   1      35.152  23.849  24.302  1.00  0.00     0.006 C 
ENDBRANCH  15  16
ENDBRANCH  12  15
ENDBRANCH  10  11
ENDBRANCH   8  10
BRANCH   8  18
ATOM     18  C   UNL A   1      29.874  29.085  23.373  1.00  0.00     0.090 C 
ATOM     19  C   UNL A   1      29.191  30.469  23.473  1.00  0.00     0.078 C 
ATOM     20  C   UNL A   1      30.780  29.139  22.117  1.00  0.00     0.078 C 
ATOM     21  C   UNL A   1      28.790  28.027  23.053  1.00  0.00     0.078 C 
ENDBRANCH   8  18
ENDBRANCH   7   8
ENDBRANCH   4   7
ENDBRANCH   2   3
ENDBRANCH   1   2
BRANCH   1  22
ATOM     22  C   UNL A   1      35.914  31.125  27.659  1.00  0.00     0.002 C 
BRANCH  22  23
ATOM     23  C   UNL A   1      35.730  32.342  28.565  1.00  0.00     0.002 C 
BRANCH  23  24
ATOM     24  C   UNL A   1      37.010  33.079  28.973  1.00  0.00     0.021 C 
BRANCH  24  25
ATOM     25  C   UNL A   1      37.329  33.092  30.468  1.00  0.00     0.116 C 
BRANCH  25  26
ATOM     26  N   UNL A   1      36.755  31.956  31.168  1.00  0.00    -0.352 N 
ATOM     27  C   UNL A   1      37.181  30.655  31.244  1.00  0.00     0.251 C 
ATOM     28  H   UNL A   1      35.929  32.153  31.667  1.00  0.00     0.163 HD
ATOM     29  O   UNL A   1      36.439  29.807  31.735  1.00  0.00    -0.269 OA
BRANCH  27  30
ATOM     30  C   UNL A   1      38.511  30.261  30.729  1.00  0.00     0.039 A 
ATOM     31  C   UNL A   1      38.698  30.195  29.346  1.00  0.00     0.014 A 
ATOM     32  C   UNL A   1      39.552  29.905  31.592  1.00  0.00     0.014 A 
ATOM     33  C   UNL A   1      39.941  29.820  28.829  1.00  0.00     0.010 A 
ATOM     34  C   UNL A   1      40.809  29.588  31.075  1.00  0.00     0.010 A 
ATOM     35  C   UNL A   1      41.015  29.536  29.687  1.00  0.00    -0.014 A 
BRANCH  35  36
ATOM     36  C   UNL A   1      42.350  29.182  29.139  1.00  0.00     0.031 A 
ATOM     37  C   UNL A   1      42.615  27.798  28.609  1.00  0.00     0.074 A 
ATOM     38  C   UNL A   1      43.338  30.099  29.157  1.00  0.00     0.049 A 
ATOM     39  N   UNL A   1      43.719  27.303  28.111  1.00  0.00    -0.248 NA
ATOM     40  C   UNL A   1      41.503  26.835  28.667  1.00  0.00     0.031 C 
ATOM     41  C   UNL A   1      43.224  31.455  29.702  1.00  0.00     0.029 A 
ATOM     42  N   UNL A   1      44.634  30.031  28.712  1.00  0.00    -0.354 N 
ATOM     43  C   UNL A   1      43.443  25.974  27.811  1.00  0.00     0.074 A 
ATOM     44  C   UNL A   1      42.077  25.726  28.220  1.00  0.00     0.031 C 
ATOM     45  C   UNL A   1      44.395  32.092  29.544  1.00  0.00     0.029 A 
ATOM     46  C   UNL A   1      45.349  31.190  28.908  1.00  0.00     0.049 A 
ATOM     47  H   UNL A   1      45.017  29.227  28.291  1.00  0.00     0.167 HD
ATOM     48  C   UNL A   1      44.246  25.051  27.231  1.00  0.00     0.037 A 
ATOM     49  C   UNL A   1      46.627  31.490  28.610  1.00  0.00     0.037 A 
ATOM     50  C   UNL A   1      45.591  25.314  26.785  1.00  0.00     0.049 A 
ATOM     51  C   UNL A   1      47.481  30.462  27.919  1.00  0.00     0.074 A 
ATOM     52  C   UNL A   1      46.457  24.466  26.116  1.00  0.00     0.029 A 
ATOM     53  N   UNL A   1      46.262  26.515  26.958  1.00  0.00    -0.354 N 
ATOM     54  N   UNL A   1      47.175  29.233  27.574  1.00  0.00    -0.248 NA
ATOM     55  C   UNL A   1      48.848  30.864  27.560  1.00  0.00     0.031 C 
ATOM     56  C   UNL A   1      47.663  25.143  25.911  1.00  0.00     0.029 A 
ATOM     57  C   UNL A   1      47.535  26.426  26.419  1.00  0.00     0.049 A 
ATOM     58  H   UNL A   1      45.889  27.312  27.397  1.00  0.00     0.167 HD
ATOM     59  C   UNL A   1      48.302  28.725  26.939  1.00  0.00     0.074 A 
ATOM     60  C   UNL A   1      49.290  29.784  26.931  1.00  0.00     0.031 C 
ATOM     61  C   UNL A   1      48.503  27.493  26.412  1.00  0.00     0.037 A 
BRANCH  48  62
ATOM     62  C   UNL A   1      43.694  23.669  27.019  1.00  0.00     0.058 A 
ATOM     63  C   UNL A   1      43.488  22.788  28.093  1.00  0.00     0.135 A 
ATOM     64  C   UNL A   1      43.297  23.246  25.740  1.00  0.00     0.135 A 
ATOM     65  F   UNL A   1      43.863  23.136  29.334  1.00  0.00    -0.206 F 
ATOM     66  C   UNL A   1      42.917  21.534  27.905  1.00  0.00     0.059 A 
ATOM     67  C   UNL A   1      42.704  22.004  25.532  1.00  0.00     0.059 A 
ATOM     68  F   UNL A   1      43.474  24.049  24.679  1.00  0.00    -0.206 F 
ATOM     69  C   UNL A   1      42.525  21.152  26.621  1.00  0.00     0.060 A 
BRANCH  69  70
ATOM     70  S   UNL A   1      41.747  19.537  26.401  1.00  0.00     0.124 S 
ATOM     71  O   UNL A   1      40.337  19.902  26.310  1.00  0.00    -0.237 OA
ATOM     72  O   UNL A   1      42.359  19.060  25.165  1.00  0.00    -0.237 OA
ATOM     73  O   UNL A   1      42.130  18.809  27.607  1.00  0.00    -0.744 OA
ENDBRANCH  69  70
ENDBRANCH  48  62
BRANCH  49  74
ATOM     74  C   UNL A   1      47.178  32.831  28.941  1.00  0.00     0.058 A 
ATOM     75  C   UNL A   1      47.826  33.064  30.163  1.00  0.00     0.135 A 
ATOM     76  C   UNL A   1      47.052  33.907  28.051  1.00  0.00     0.135 A 
ATOM     77  F   UNL A   1      47.967  32.066  31.049  1.00  0.00    -0.206 F 
ATOM     78  C   UNL A   1      48.303  34.325  30.505  1.00  0.00     0.059 A 
ATOM     79  C   UNL A   1      47.543  35.172  28.360  1.00  0.00     0.059 A 
ATOM     80  F   UNL A   1      46.459  33.730  26.860  1.00  0.00    -0.206 F 
ATOM     81  C   UNL A   1      48.152  35.375  29.598  1.00  0.00     0.060 A 
BRANCH  81  82
ATOM     82  S   UNL A   1      48.793  37.006  30.036  1.00  0.00     0.124 S 
ATOM     83  O   UNL A   1      48.010  37.871  29.163  1.00  0.00    -0.237 OA
ATOM     84  O   UNL A   1      48.484  37.087  31.461  1.00  0.00    -0.237 OA
ATOM     85  O   UNL A   1      50.214  36.901  29.717  1.00  0.00    -0.744 OA
ENDBRANCH  81  82
ENDBRANCH  49  74
BRANCH  61  86
ATOM     86  C   UNL A   1      49.829  27.237  25.754  1.00  0.00     0.058 A 
ATOM     87  C   UNL A   1      50.025  27.458  24.382  1.00  0.00     0.135 A 
ATOM     88  C   UNL A   1      50.923  26.786  26.511  1.00  0.00     0.135 A 
ATOM     89  F   UNL A   1      49.010  27.885  23.615  1.00  0.00    -0.206 F 
ATOM     90  C   UNL A   1      51.251  27.208  23.776  1.00  0.00     0.059 A 
ATOM     91  C   UNL A   1      52.164  26.554  25.929  1.00  0.00     0.059 A 
ATOM     92  F   UNL A   1      50.791  26.571  27.829  1.00  0.00    -0.206 F 
ATOM     93  C   UNL A   1      52.314  26.751  24.557  1.00  0.00     0.060 A 
BRANCH  93  94
ATOM     94  S   UNL A   1      53.904  26.435  23.763  1.00  0.00     0.124 S 
ATOM     95  O   UNL A   1      53.495  26.149  22.392  1.00  0.00    -0.237 OA
ATOM     96  O   UNL A   1      54.614  27.694  23.963  1.00  0.00    -0.237 OA
ATOM     97  O   UNL A   1      54.436  25.299  24.510  1.00  0.00    -0.744 OA
ENDBRANCH  93  94
ENDBRANCH  61  86
ENDBRANCH  35  36
ENDBRANCH  27  30
ENDBRANCH  25  26
ENDBRANCH  24  25
ENDBRANCH  23  24
ENDBRANCH  22  23
ENDBRANCH   1  22
TORSDOF 22
ENDMDL
MODEL 3
REMARK VINA RESULT:      -8.9      2.507      8.826
REMARK SMILES C#CCNC(=O)C[N@@H+](CC(=O)NCCCCCCNC(=O)c1ccc(-c2c3nc(c(-c4c(F)cc(S(=O)(=O)[O-])cc4F)c4ccc([nH]4)c(-c4c(F)cc(S(=O)(=O)[O-])cc4F)c4nc(c(-c5c(F)cc(S(=O)(=O)[O-])cc5F)c5ccc2[nH]5)C=C4)C=C3)cc1)C(C)(C)C
REMARK SMILES IDX 14 1 13 2 12 3 10 4 11 5 9 7 8 8 7 10 5 11 4 12 6 14 3 15
REMARK SMILES IDX 2 16 1 17 88 18 89 19 90 20 91 21 15 22 16 23 17 24 18 25
REMARK SMILES IDX 19 26 20 27 21 29 22 30 23 31 87 32 24 33 86 34 25 35 26 36
REMARK SMILES IDX 27 37 80 38 28 39 85 40 79 41 81 42 29 43 84 44 78 45 77 46
REMARK SMILES IDX 30 48 64 49 43 50 63 51 44 52 47 53 62 54 82 55 45 56 46 57
REMARK SMILES IDX 61 59 83 60 48 61 31 62 32 63 41 64 33 65 34 66 40 67 42 68
REMARK SMILES IDX 35 69 36 70 37 71 38 72 39 73 65 74 66 75 75 76 67 77 68 78
REMARK SMILES IDX 74 79 76 80 69 81 70 82 71 83 72 84 73 85 49 86 50 87 59 88
REMARK SMILES IDX 51 89 52 90 58 91 60 92 53 93 54 94 55 95 56 96 57 97
REMARK H PARENT 12 6 8 9 4 13 19 28 81 47 47 58
REMARK Flexibility Score: inf
ROOT
ATOM      1  C   UNL A   1      36.327  23.101  24.619  1.00  0.00     0.021 C 
ENDROOT
BRANCH   1   2
ATOM      2  C   UNL A   1      35.008  22.840  23.886  1.00  0.00     0.116 C 
BRANCH   2   3
ATOM      3  N   UNL A   1      34.673  23.933  22.994  1.00  0.00    -0.351 N 
ATOM      4  C   UNL A   1      33.921  25.055  23.188  1.00  0.00     0.275 C 
ATOM      5  O   UNL A   1      33.905  25.877  22.263  1.00  0.00    -0.269 OA
ATOM      6  H   UNL A   1      35.055  23.853  22.091  1.00  0.00     0.163 HD
BRANCH   4   7
ATOM      7  C   UNL A   1      33.178  25.338  24.501  1.00  0.00     0.364 C 
BRANCH   7   8
ATOM      8  N   UNL A   1      31.878  26.065  24.418  1.00  0.00    -0.315 N 
ATOM      9  H   UNL A   1      31.769  26.313  23.434  1.00  0.00     0.349 HD
BRANCH   8  10
ATOM     10  C   UNL A   1      31.931  27.339  25.156  1.00  0.00     0.364 C 
BRANCH  10  11
ATOM     11  C   UNL A   1      32.841  28.428  24.601  1.00  0.00     0.275 C 
ATOM     12  N   UNL A   1      32.665  28.901  23.341  1.00  0.00    -0.340 N 
ATOM     13  H   UNL A   1      33.387  29.475  22.996  1.00  0.00     0.164 HD
ATOM     14  O   UNL A   1      33.829  28.808  25.237  1.00  0.00    -0.268 OA
BRANCH  12  15
ATOM     15  C   UNL A   1      31.564  28.677  22.445  1.00  0.00     0.206 C 
BRANCH  15  16
ATOM     16  C   UNL A   1      30.380  29.471  22.972  1.00  0.00    -0.085 C 
ATOM     17  C   UNL A   1      29.364  30.152  23.424  1.00  0.00     0.006 C 
ENDBRANCH  15  16
ENDBRANCH  12  15
ENDBRANCH  10  11
ENDBRANCH   8  10
BRANCH   8  18
ATOM     18  C   UNL A   1      30.628  25.257  24.547  1.00  0.00     0.090 C 
ATOM     19  C   UNL A   1      30.660  23.889  23.827  1.00  0.00     0.078 C 
ATOM     20  C   UNL A   1      30.310  24.957  26.034  1.00  0.00     0.078 C 
ATOM     21  C   UNL A   1      29.411  26.058  24.021  1.00  0.00     0.078 C 
ENDBRANCH   8  18
ENDBRANCH   7   8
ENDBRANCH   4   7
ENDBRANCH   2   3
ENDBRANCH   1   2
BRANCH   1  22
ATOM     22  C   UNL A   1      36.873  21.934  25.439  1.00  0.00     0.002 C 
BRANCH  22  23
ATOM     23  C   UNL A   1      38.395  21.788  25.455  1.00  0.00     0.002 C 
BRANCH  23  24
ATOM     24  C   UNL A   1      38.936  20.356  25.379  1.00  0.00     0.021 C 
BRANCH  24  25
ATOM     25  C   UNL A   1      39.827  19.914  26.540  1.00  0.00     0.116 C 
BRANCH  25  26
ATOM     26  N   UNL A   1      40.959  19.119  26.098  1.00  0.00    -0.352 N 
ATOM     27  C   UNL A   1      42.245  19.493  25.805  1.00  0.00     0.251 C 
ATOM     28  H   UNL A   1      40.773  18.158  25.993  1.00  0.00     0.163 HD
ATOM     29  O   UNL A   1      42.998  18.689  25.262  1.00  0.00    -0.269 OA
BRANCH  27  30
ATOM     30  C   UNL A   1      42.729  20.856  26.121  1.00  0.00     0.039 A 
ATOM     31  C   UNL A   1      43.106  21.691  25.066  1.00  0.00     0.014 A 
ATOM     32  C   UNL A   1      42.865  21.296  27.441  1.00  0.00     0.014 A 
ATOM     33  C   UNL A   1      43.572  22.982  25.332  1.00  0.00     0.010 A 
ATOM     34  C   UNL A   1      43.274  22.604  27.703  1.00  0.00     0.010 A 
ATOM     35  C   UNL A   1      43.639  23.458  26.651  1.00  0.00    -0.014 A 
BRANCH  35  36
ATOM     36  C   UNL A   1      44.090  24.846  26.933  1.00  0.00     0.031 A 
ATOM     37  C   UNL A   1      45.538  25.226  26.767  1.00  0.00     0.074 A 
ATOM     38  C   UNL A   1      43.200  25.755  27.378  1.00  0.00     0.049 A 
ATOM     39  N   UNL A   1      46.117  26.379  26.983  1.00  0.00    -0.248 NA
ATOM     40  C   UNL A   1      46.461  24.168  26.324  1.00  0.00     0.031 C 
ATOM     41  C   UNL A   1      41.782  25.493  27.640  1.00  0.00     0.029 A 
ATOM     42  N   UNL A   1      43.354  27.081  27.697  1.00  0.00    -0.354 N 
ATOM     43  C   UNL A   1      47.468  26.184  26.719  1.00  0.00     0.074 A 
ATOM     44  C   UNL A   1      47.631  24.791  26.365  1.00  0.00     0.031 C 
ATOM     45  C   UNL A   1      41.196  26.624  28.062  1.00  0.00     0.029 A 
ATOM     46  C   UNL A   1      42.195  27.686  28.124  1.00  0.00     0.049 A 
ATOM     47  H   UNL A   1      44.214  27.554  27.627  1.00  0.00     0.167 HD
ATOM     48  C   UNL A   1      48.477  27.087  26.749  1.00  0.00     0.037 A 
ATOM     49  C   UNL A   1      41.964  28.952  28.519  1.00  0.00     0.037 A 
ATOM     50  C   UNL A   1      48.304  28.484  27.060  1.00  0.00     0.049 A 
ATOM     51  C   UNL A   1      43.092  29.946  28.494  1.00  0.00     0.074 A 
ATOM     52  C   UNL A   1      49.252  29.493  27.042  1.00  0.00     0.029 A 
ATOM     53  N   UNL A   1      47.105  29.068  27.440  1.00  0.00    -0.354 N 
ATOM     54  N   UNL A   1      44.349  29.759  28.167  1.00  0.00    -0.248 NA
ATOM     55  C   UNL A   1      42.771  31.329  28.877  1.00  0.00     0.031 C 
ATOM     56  C   UNL A   1      48.633  30.683  27.440  1.00  0.00     0.029 A 
ATOM     57  C   UNL A   1      47.291  30.422  27.670  1.00  0.00     0.049 A 
ATOM     58  H   UNL A   1      46.249  28.592  27.531  1.00  0.00     0.167 HD
ATOM     59  C   UNL A   1      44.961  31.002  28.280  1.00  0.00     0.074 A 
ATOM     60  C   UNL A   1      43.934  31.937  28.690  1.00  0.00     0.031 C 
ATOM     61  C   UNL A   1      46.256  31.339  28.068  1.00  0.00     0.037 A 
BRANCH  48  62
ATOM     62  C   UNL A   1      49.862  26.608  26.419  1.00  0.00     0.058 A 
ATOM     63  C   UNL A   1      50.714  26.087  27.406  1.00  0.00     0.135 A 
ATOM     64  C   UNL A   1      50.318  26.600  25.090  1.00  0.00     0.135 A 
ATOM     65  F   UNL A   1      50.335  26.085  28.693  1.00  0.00    -0.206 F 
ATOM     66  C   UNL A   1      51.972  25.584  27.089  1.00  0.00     0.059 A 
ATOM     67  C   UNL A   1      51.564  26.082  24.747  1.00  0.00     0.059 A 
ATOM     68  F   UNL A   1      49.544  27.090  24.108  1.00  0.00    -0.206 F 
ATOM     69  C   UNL A   1      52.386  25.583  25.756  1.00  0.00     0.060 A 
BRANCH  69  70
ATOM     70  S   UNL A   1      54.005  24.888  25.357  1.00  0.00     0.124 S 
ATOM     71  O   UNL A   1      54.703  25.025  26.631  1.00  0.00    -0.237 OA
ATOM     72  O   UNL A   1      53.672  23.524  24.961  1.00  0.00    -0.237 OA
ATOM     73  O   UNL A   1      54.488  25.749  24.282  1.00  0.00    -0.744 OA
ENDBRANCH  69  70
ENDBRANCH  48  62
BRANCH  49  74
ATOM     74  C   UNL A   1      40.603  29.364  28.955  1.00  0.00     0.058 A 
ATOM     75  C   UNL A   1      40.310  29.575  30.310  1.00  0.00     0.135 A 
ATOM     76  C   UNL A   1      39.566  29.537  28.027  1.00  0.00     0.135 A 
ATOM     77  F   UNL A   1      41.269  29.418  31.236  1.00  0.00    -0.206 F 
ATOM     78  C   UNL A   1      39.029  29.914  30.735  1.00  0.00     0.059 A 
ATOM     79  C   UNL A   1      38.282  29.900  28.424  1.00  0.00     0.059 A 
ATOM     80  F   UNL A   1      39.800  29.367  26.716  1.00  0.00    -0.206 F 
ATOM     81  C   UNL A   1      38.021  30.069  29.783  1.00  0.00     0.060 A 
BRANCH  81  82
ATOM     82  S   UNL A   1      36.364  30.530  30.336  1.00  0.00     0.124 S 
ATOM     83  O   UNL A   1      35.566  30.223  29.156  1.00  0.00    -0.237 OA
ATOM     84  O   UNL A   1      36.167  29.655  31.488  1.00  0.00    -0.237 OA
ATOM     85  O   UNL A   1      36.503  31.948  30.655  1.00  0.00    -0.744 OA
ENDBRANCH  81  82
ENDBRANCH  49  74
BRANCH  61  86
ATOM     86  C   UNL A   1      46.625  32.786  28.243  1.00  0.00     0.058 A 
ATOM     87  C   UNL A   1      46.513  33.706  27.190  1.00  0.00     0.135 A 
ATOM     88  C   UNL A   1      47.075  33.259  29.487  1.00  0.00     0.135 A 
ATOM     89  F   UNL A   1      46.091  33.302  25.982  1.00  0.00    -0.206 F 
ATOM     90  C   UNL A   1      46.867  35.041  27.354  1.00  0.00     0.059 A 
ATOM     91  C   UNL A   1      47.410  34.594  29.679  1.00  0.00     0.059 A 
ATOM     92  F   UNL A   1      47.188  32.421  30.529  1.00  0.00    -0.206 F 
ATOM     93  C   UNL A   1      47.320  35.475  28.601  1.00  0.00     0.060 A 
BRANCH  93  94
ATOM     94  S   UNL A   1      47.772  37.211  28.806  1.00  0.00     0.124 S 
ATOM     95  O   UNL A   1      49.227  37.145  28.733  1.00  0.00    -0.237 OA
ATOM     96  O   UNL A   1      47.108  37.846  27.673  1.00  0.00    -0.237 OA
ATOM     97  O   UNL A   1      47.222  37.551  30.116  1.00  0.00    -0.744 OA
ENDBRANCH  93  94
ENDBRANCH  61  86
ENDBRANCH  35  36
ENDBRANCH  27  30
ENDBRANCH  25  26
ENDBRANCH  24  25
ENDBRANCH  23  24
ENDBRANCH  22  23
ENDBRANCH   1  22
TORSDOF 22
ENDMDL
