MODEL 1
REMARK VINA RESULT:     -11.7      0.000      0.000
REMARK SMILES CC[C@H](C)[C@H](NS(=O)(=O)c1ccc(C)cc1)C(=O)NCCCCCCNC(=O)c1ccc(-c2c3nc(c(-c4c(F)cc(S(=O)(=O)[O-])cc4F)c4ccc([nH]4)c(-c4c(F)cc(S(=O)(=O)[O-])cc4F)c4nc(c(-c5c(F)cc(S(=O)(=O)[O-])cc5F)c5ccc2[nH]5)C=C4)C=C3)cc1
REMARK SMILES IDX 22 1 21 2 20 3 19 4 17 5 18 6 5 8 3 9 4 10 2 11 1 12 6 13
REMARK SMILES IDX 7 15 8 16 9 17 10 18 11 19 16 20 12 21 15 22 13 23 14 24
REMARK SMILES IDX 23 25 24 26 25 27 26 28 27 29 28 31 29 32 30 33 94 34 31 35
REMARK SMILES IDX 93 36 32 37 33 38 34 39 87 40 35 41 92 42 86 43 88 44 36 45
REMARK SMILES IDX 91 46 85 47 84 48 37 50 71 51 50 52 70 53 51 54 54 55 69 56
REMARK SMILES IDX 89 57 52 58 53 59 68 61 90 62 55 63 38 64 39 65 48 66 40 67
REMARK SMILES IDX 41 68 47 69 49 70 42 71 43 72 44 73 45 74 46 75 72 76 73 77
REMARK SMILES IDX 82 78 74 79 75 80 81 81 83 82 76 83 77 84 78 85 79 86 80 87
REMARK SMILES IDX 56 88 57 89 66 90 58 91 59 92 65 93 67 94 60 95 61 96 62 97
REMARK SMILES IDX 63 98 64 99
REMARK H PARENT 19 7 6 14 26 30 88 49 54 60
REMARK Flexibility Score: inf
ROOT
ATOM      1  C   UNL A   1      33.226  28.888  23.693  1.00  0.00     0.002 C 
ENDROOT
BRANCH   1   2
ATOM      2  C   UNL A   1      33.811  27.508  24.005  1.00  0.00     0.021 C 
BRANCH   2   3
ATOM      3  C   UNL A   1      34.085  26.650  22.764  1.00  0.00     0.116 C 
BRANCH   3   4
ATOM      4  N   UNL A   1      33.007  26.779  21.825  1.00  0.00    -0.355 N 
ATOM      5  C   UNL A   1      31.834  26.108  21.765  1.00  0.00     0.238 C 
ATOM      6  O   UNL A   1      31.106  26.378  20.798  1.00  0.00    -0.273 OA
ATOM      7  H   UNL A   1      33.141  27.454  21.121  1.00  0.00     0.163 HD
BRANCH   5   8
ATOM      8  C   UNL A   1      31.322  25.176  22.871  1.00  0.00     0.161 C 
BRANCH   8   9
ATOM      9  C   UNL A   1      30.675  25.867  24.127  1.00  0.00     0.013 C 
ATOM     10  C   UNL A   1      29.355  26.564  23.880  1.00  0.00     0.010 C 
BRANCH   9  11
ATOM     11  C   UNL A   1      30.498  25.001  25.402  1.00  0.00     0.002 C 
ATOM     12  C   UNL A   1      31.565  25.290  26.447  1.00  0.00     0.004 C 
ENDBRANCH   9  11
ENDBRANCH   8   9
BRANCH   8  13
ATOM     13  N   UNL A   1      31.729  23.748  23.027  1.00  0.00    -0.198 NA
ATOM     14  H   UNL A   1      30.896  23.237  22.736  1.00  0.00     0.142 HD
BRANCH  13  15
ATOM     15  S   UNL A   1      32.981  22.816  22.407  1.00  0.00     0.241 S 
ATOM     16  O   UNL A   1      32.475  21.458  22.507  1.00  0.00    -0.207 OA
ATOM     17  O   UNL A   1      33.408  23.329  21.138  1.00  0.00    -0.207 OA
BRANCH  15  18
ATOM     18  C   UNL A   1      34.325  22.919  23.568  1.00  0.00     0.082 A 
ATOM     19  C   UNL A   1      35.650  22.764  23.146  1.00  0.00     0.022 A 
ATOM     20  C   UNL A   1      34.048  23.217  24.907  1.00  0.00     0.022 A 
ATOM     21  C   UNL A   1      36.695  23.110  24.014  1.00  0.00     0.005 A 
ATOM     22  C   UNL A   1      35.095  23.547  25.772  1.00  0.00     0.005 A 
ATOM     23  C   UNL A   1      36.418  23.570  25.309  1.00  0.00    -0.051 A 
ATOM     24  C   UNL A   1      37.511  24.101  26.191  1.00  0.00     0.044 C 
ENDBRANCH  15  18
ENDBRANCH  13  15
ENDBRANCH   8  13
ENDBRANCH   5   8
ENDBRANCH   3   4
ENDBRANCH   2   3
ENDBRANCH   1   2
BRANCH   1  25
ATOM     25  C   UNL A   1      32.590  29.617  24.888  1.00  0.00     0.002 C 
BRANCH  25  26
ATOM     26  C   UNL A   1      32.466  28.802  26.174  1.00  0.00     0.021 C 
BRANCH  26  27
ATOM     27  C   UNL A   1      32.859  29.564  27.424  1.00  0.00     0.116 C 
BRANCH  27  28
ATOM     28  N   UNL A   1      33.604  30.780  27.143  1.00  0.00    -0.352 N 
ATOM     29  C   UNL A   1      34.638  31.261  27.936  1.00  0.00     0.251 C 
ATOM     30  H   UNL A   1      33.359  31.296  26.342  1.00  0.00     0.163 HD
ATOM     31  O   UNL A   1      34.770  32.435  28.250  1.00  0.00    -0.269 OA
BRANCH  29  32
ATOM     32  C   UNL A   1      35.689  30.274  28.254  1.00  0.00     0.039 A 
ATOM     33  C   UNL A   1      35.737  29.759  29.557  1.00  0.00     0.014 A 
ATOM     34  C   UNL A   1      36.766  30.153  27.385  1.00  0.00     0.014 A 
ATOM     35  C   UNL A   1      36.949  29.312  30.060  1.00  0.00     0.010 A 
ATOM     36  C   UNL A   1      37.987  29.865  27.922  1.00  0.00     0.010 A 
ATOM     37  C   UNL A   1      38.073  29.477  29.264  1.00  0.00    -0.014 A 
BRANCH  37  38
ATOM     38  C   UNL A   1      39.427  29.179  29.663  1.00  0.00     0.031 A 
ATOM     39  C   UNL A   1      39.966  27.887  29.210  1.00  0.00     0.074 A 
ATOM     40  C   UNL A   1      40.165  30.212  30.118  1.00  0.00     0.049 A 
ATOM     41  N   UNL A   1      41.077  27.384  29.602  1.00  0.00    -0.248 NA
ATOM     42  C   UNL A   1      39.249  27.018  28.276  1.00  0.00     0.031 C 
ATOM     43  C   UNL A   1      41.613  30.355  30.150  1.00  0.00     0.029 A 
ATOM     44  N   UNL A   1      39.696  31.319  30.832  1.00  0.00    -0.354 N 
ATOM     45  C   UNL A   1      41.385  26.347  28.743  1.00  0.00     0.074 A 
ATOM     46  C   UNL A   1      40.163  26.074  28.036  1.00  0.00     0.031 C 
ATOM     47  C   UNL A   1      41.936  31.286  31.067  1.00  0.00     0.029 A 
ATOM     48  C   UNL A   1      40.705  31.646  31.757  1.00  0.00     0.049 A 
ATOM     49  H   UNL A   1      38.833  31.778  30.711  1.00  0.00     0.167 HD
ATOM     50  C   UNL A   1      42.696  25.985  28.641  1.00  0.00     0.037 A 
ATOM     51  C   UNL A   1      40.478  31.428  33.089  1.00  0.00     0.037 A 
ATOM     52  C   UNL A   1      43.466  26.712  29.655  1.00  0.00     0.049 A 
ATOM     53  C   UNL A   1      41.366  30.334  33.643  1.00  0.00     0.074 A 
ATOM     54  C   UNL A   1      44.233  27.863  29.595  1.00  0.00     0.029 A 
ATOM     55  N   UNL A   1      43.181  26.493  30.998  1.00  0.00    -0.354 N 
ATOM     56  N   UNL A   1      41.868  29.363  32.929  1.00  0.00    -0.248 NA
ATOM     57  C   UNL A   1      41.830  30.304  35.027  1.00  0.00     0.031 C 
ATOM     58  C   UNL A   1      44.321  28.390  30.912  1.00  0.00     0.029 A 
ATOM     59  C   UNL A   1      43.630  27.548  31.768  1.00  0.00     0.049 A 
ATOM     60  H   UNL A   1      42.722  25.696  31.351  1.00  0.00     0.167 HD
ATOM     61  C   UNL A   1      42.718  28.611  33.702  1.00  0.00     0.074 A 
ATOM     62  C   UNL A   1      42.656  29.243  35.008  1.00  0.00     0.031 C 
ATOM     63  C   UNL A   1      43.427  27.549  33.210  1.00  0.00     0.037 A 
BRANCH  50  64
ATOM     64  C   UNL A   1      43.350  25.216  27.505  1.00  0.00     0.058 A 
ATOM     65  C   UNL A   1      43.782  23.886  27.728  1.00  0.00     0.135 A 
ATOM     66  C   UNL A   1      43.656  25.710  26.220  1.00  0.00     0.135 A 
ATOM     67  F   UNL A   1      43.531  23.251  28.881  1.00  0.00    -0.206 F 
ATOM     68  C   UNL A   1      44.499  23.141  26.789  1.00  0.00     0.059 A 
ATOM     69  C   UNL A   1      44.376  24.985  25.264  1.00  0.00     0.059 A 
ATOM     70  F   UNL A   1      43.265  26.915  25.803  1.00  0.00    -0.206 F 
ATOM     71  C   UNL A   1      44.805  23.703  25.560  1.00  0.00     0.060 A 
BRANCH  71  72
ATOM     72  S   UNL A   1      45.730  22.729  24.362  1.00  0.00     0.124 S 
ATOM     73  O   UNL A   1      44.677  22.278  23.459  1.00  0.00    -0.237 OA
ATOM     74  O   UNL A   1      46.657  23.715  23.817  1.00  0.00    -0.237 OA
ATOM     75  O   UNL A   1      46.344  21.682  25.174  1.00  0.00    -0.744 OA
ENDBRANCH  71  72
ENDBRANCH  50  64
BRANCH  51  76
ATOM     76  C   UNL A   1      39.057  31.720  33.466  1.00  0.00     0.058 A 
ATOM     77  C   UNL A   1      38.710  33.080  33.623  1.00  0.00     0.135 A 
ATOM     78  C   UNL A   1      38.015  30.828  33.169  1.00  0.00     0.135 A 
ATOM     79  F   UNL A   1      39.658  33.979  33.939  1.00  0.00    -0.206 F 
ATOM     80  C   UNL A   1      37.444  33.562  33.298  1.00  0.00     0.059 A 
ATOM     81  C   UNL A   1      36.729  31.290  32.859  1.00  0.00     0.059 A 
ATOM     82  F   UNL A   1      38.266  29.519  33.024  1.00  0.00    -0.206 F 
ATOM     83  C   UNL A   1      36.481  32.665  32.844  1.00  0.00     0.060 A 
BRANCH  83  84
ATOM     84  S   UNL A   1      34.983  33.345  32.084  1.00  0.00     0.124 S 
ATOM     85  O   UNL A   1      34.250  33.834  33.246  1.00  0.00    -0.237 OA
ATOM     86  O   UNL A   1      35.525  34.377  31.196  1.00  0.00    -0.237 OA
ATOM     87  O   UNL A   1      34.395  32.194  31.411  1.00  0.00    -0.744 OA
ENDBRANCH  83  84
ENDBRANCH  51  76
BRANCH  63  88
ATOM     88  C   UNL A   1      44.094  26.464  34.034  1.00  0.00     0.058 A 
ATOM     89  C   UNL A   1      43.397  25.466  34.735  1.00  0.00     0.135 A 
ATOM     90  C   UNL A   1      45.507  26.308  34.017  1.00  0.00     0.135 A 
ATOM     91  F   UNL A   1      42.060  25.397  34.720  1.00  0.00    -0.206 F 
ATOM     92  C   UNL A   1      44.047  24.459  35.449  1.00  0.00     0.059 A 
ATOM     93  C   UNL A   1      46.169  25.264  34.655  1.00  0.00     0.059 A 
ATOM     94  F   UNL A   1      46.309  27.158  33.362  1.00  0.00    -0.206 F 
ATOM     95  C   UNL A   1      45.433  24.369  35.408  1.00  0.00     0.060 A 
BRANCH  95  96
ATOM     96  S   UNL A   1      46.263  23.063  36.324  1.00  0.00     0.124 S 
ATOM     97  O   UNL A   1      46.292  23.631  37.668  1.00  0.00    -0.237 OA
ATOM     98  O   UNL A   1      45.367  21.925  36.138  1.00  0.00    -0.237 OA
ATOM     99  O   UNL A   1      47.555  22.949  35.657  1.00  0.00    -0.744 OA
ENDBRANCH  95  96
ENDBRANCH  63  88
ENDBRANCH  37  38
ENDBRANCH  29  32
ENDBRANCH  27  28
ENDBRANCH  26  27
ENDBRANCH  25  26
ENDBRANCH   1  25
TORSDOF 21
ENDMDL
MODEL 2
REMARK VINA RESULT:     -11.4      1.432      2.875
REMARK SMILES CC[C@H](C)[C@H](NS(=O)(=O)c1ccc(C)cc1)C(=O)NCCCCCCNC(=O)c1ccc(-c2c3nc(c(-c4c(F)cc(S(=O)(=O)[O-])cc4F)c4ccc([nH]4)c(-c4c(F)cc(S(=O)(=O)[O-])cc4F)c4nc(c(-c5c(F)cc(S(=O)(=O)[O-])cc5F)c5ccc2[nH]5)C=C4)C=C3)cc1
REMARK SMILES IDX 22 1 21 2 20 3 19 4 17 5 18 6 5 8 3 9 4 10 2 11 1 12 6 13
REMARK SMILES IDX 7 15 8 16 9 17 10 18 11 19 16 20 12 21 15 22 13 23 14 24
REMARK SMILES IDX 23 25 24 26 25 27 26 28 27 29 28 31 29 32 30 33 94 34 31 35
REMARK SMILES IDX 93 36 32 37 33 38 34 39 87 40 35 41 92 42 86 43 88 44 36 45
REMARK SMILES IDX 91 46 85 47 84 48 37 50 71 51 50 52 70 53 51 54 54 55 69 56
REMARK SMILES IDX 89 57 52 58 53 59 68 61 90 62 55 63 38 64 39 65 48 66 40 67
REMARK SMILES IDX 41 68 47 69 49 70 42 71 43 72 44 73 45 74 46 75 72 76 73 77
REMARK SMILES IDX 82 78 74 79 75 80 81 81 83 82 76 83 77 84 78 85 79 86 80 87
REMARK SMILES IDX 56 88 57 89 66 90 58 91 59 92 65 93 67 94 60 95 61 96 62 97
REMARK SMILES IDX 63 98 64 99
REMARK H PARENT 19 7 6 14 26 30 88 49 54 60
REMARK Flexibility Score: inf
ROOT
ATOM      1  C   UNL A   1      31.644  27.733  26.606  1.00  0.00     0.002 C 
ENDROOT
BRANCH   1   2
ATOM      2  C   UNL A   1      30.821  26.451  26.453  1.00  0.00     0.021 C 
BRANCH   2   3
ATOM      3  C   UNL A   1      31.658  25.167  26.454  1.00  0.00     0.116 C 
BRANCH   3   4
ATOM      4  N   UNL A   1      30.804  24.019  26.578  1.00  0.00    -0.355 N 
ATOM      5  C   UNL A   1      30.893  22.812  25.973  1.00  0.00     0.238 C 
ATOM      6  O   UNL A   1      29.973  22.017  26.216  1.00  0.00    -0.273 OA
ATOM      7  H   UNL A   1      30.044  24.125  27.194  1.00  0.00     0.163 HD
BRANCH   5   8
ATOM      8  C   UNL A   1      32.104  22.352  25.151  1.00  0.00     0.161 C 
BRANCH   8   9
ATOM      9  C   UNL A   1      32.541  20.851  25.325  1.00  0.00     0.013 C 
ATOM     10  C   UNL A   1      32.435  19.993  24.084  1.00  0.00     0.010 C 
BRANCH   9  11
ATOM     11  C   UNL A   1      33.939  20.585  25.941  1.00  0.00     0.002 C 
ATOM     12  C   UNL A   1      34.984  20.270  24.881  1.00  0.00     0.004 C 
ENDBRANCH   9  11
ENDBRANCH   8   9
BRANCH   8  13
ATOM     13  N   UNL A   1      33.103  23.272  24.531  1.00  0.00    -0.198 NA
ATOM     14  H   UNL A   1      33.995  22.892  24.848  1.00  0.00     0.142 HD
BRANCH  13  15
ATOM     15  S   UNL A   1      33.433  23.747  22.955  1.00  0.00     0.241 S 
ATOM     16  O   UNL A   1      34.863  24.007  22.970  1.00  0.00    -0.207 OA
ATOM     17  O   UNL A   1      32.887  22.805  22.021  1.00  0.00    -0.207 OA
BRANCH  15  18
ATOM     18  C   UNL A   1      32.656  25.330  22.719  1.00  0.00     0.082 A 
ATOM     19  C   UNL A   1      31.263  25.460  22.773  1.00  0.00     0.022 A 
ATOM     20  C   UNL A   1      33.457  26.462  22.534  1.00  0.00     0.022 A 
ATOM     21  C   UNL A   1      30.694  26.739  22.852  1.00  0.00     0.005 A 
ATOM     22  C   UNL A   1      32.882  27.734  22.599  1.00  0.00     0.005 A 
ATOM     23  C   UNL A   1      31.508  27.880  22.835  1.00  0.00    -0.051 A 
ATOM     24  C   UNL A   1      30.932  29.244  23.084  1.00  0.00     0.044 C 
ENDBRANCH  15  18
ENDBRANCH  13  15
ENDBRANCH   8  13
ENDBRANCH   5   8
ENDBRANCH   3   4
ENDBRANCH   2   3
ENDBRANCH   1   2
BRANCH   1  25
ATOM     25  C   UNL A   1      33.134  27.604  26.248  1.00  0.00     0.002 C 
BRANCH  25  26
ATOM     26  C   UNL A   1      33.914  28.915  26.171  1.00  0.00     0.021 C 
BRANCH  26  27
ATOM     27  C   UNL A   1      33.415  29.984  27.123  1.00  0.00     0.116 C 
BRANCH  27  28
ATOM     28  N   UNL A   1      34.247  31.175  27.136  1.00  0.00    -0.352 N 
ATOM     29  C   UNL A   1      35.199  31.450  28.110  1.00  0.00     0.251 C 
ATOM     30  H   UNL A   1      34.130  31.827  26.410  1.00  0.00     0.163 HD
ATOM     31  O   UNL A   1      35.348  32.547  28.629  1.00  0.00    -0.269 OA
BRANCH  29  32
ATOM     32  C   UNL A   1      36.152  30.355  28.377  1.00  0.00     0.039 A 
ATOM     33  C   UNL A   1      36.233  29.856  29.684  1.00  0.00     0.014 A 
ATOM     34  C   UNL A   1      37.144  30.101  27.439  1.00  0.00     0.014 A 
ATOM     35  C   UNL A   1      37.420  29.281  30.113  1.00  0.00     0.010 A 
ATOM     36  C   UNL A   1      38.360  29.684  27.897  1.00  0.00     0.010 A 
ATOM     37  C   UNL A   1      38.496  29.307  29.238  1.00  0.00    -0.014 A 
BRANCH  37  38
ATOM     38  C   UNL A   1      39.833  28.863  29.550  1.00  0.00     0.031 A 
ATOM     39  C   UNL A   1      40.176  27.495  29.131  1.00  0.00     0.074 A 
ATOM     40  C   UNL A   1      40.724  29.817  29.889  1.00  0.00     0.049 A 
ATOM     41  N   UNL A   1      41.246  26.877  29.465  1.00  0.00    -0.248 NA
ATOM     42  C   UNL A   1      39.286  26.679  28.304  1.00  0.00     0.031 C 
ATOM     43  C   UNL A   1      42.177  29.781  29.804  1.00  0.00     0.029 A 
ATOM     44  N   UNL A   1      40.450  31.006  30.573  1.00  0.00    -0.354 N 
ATOM     45  C   UNL A   1      41.357  25.772  28.645  1.00  0.00     0.074 A 
ATOM     46  C   UNL A   1      40.058  25.619  28.049  1.00  0.00     0.031 C 
ATOM     47  C   UNL A   1      42.682  30.707  30.640  1.00  0.00     0.029 A 
ATOM     48  C   UNL A   1      41.563  31.248  31.400  1.00  0.00     0.049 A 
ATOM     49  H   UNL A   1      39.642  31.562  30.493  1.00  0.00     0.167 HD
ATOM     50  C   UNL A   1      42.603  25.246  28.465  1.00  0.00     0.037 A 
ATOM     51  C   UNL A   1      41.422  31.122  32.756  1.00  0.00     0.037 A 
ATOM     52  C   UNL A   1      43.534  25.919  29.376  1.00  0.00     0.049 A 
ATOM     53  C   UNL A   1      42.216  29.954  33.302  1.00  0.00     0.074 A 
ATOM     54  C   UNL A   1      44.426  26.962  29.194  1.00  0.00     0.029 A 
ATOM     55  N   UNL A   1      43.336  25.799  30.747  1.00  0.00    -0.354 N 
ATOM     56  N   UNL A   1      42.538  28.895  32.607  1.00  0.00    -0.248 NA
ATOM     57  C   UNL A   1      42.784  29.931  34.646  1.00  0.00     0.031 C 
ATOM     58  C   UNL A   1      44.684  27.535  30.468  1.00  0.00     0.029 A 
ATOM     59  C   UNL A   1      43.970  26.825  31.420  1.00  0.00     0.049 A 
ATOM     60  H   UNL A   1      42.816  25.082  31.178  1.00  0.00     0.167 HD
ATOM     61  C   UNL A   1      43.352  28.081  33.355  1.00  0.00     0.074 A 
ATOM     62  C   UNL A   1      43.473  28.776  34.624  1.00  0.00     0.031 C 
ATOM     63  C   UNL A   1      43.886  26.918  32.871  1.00  0.00     0.037 A 
BRANCH  50  64
ATOM     64  C   UNL A   1      43.066  24.350  27.328  1.00  0.00     0.058 A 
ATOM     65  C   UNL A   1      43.772  23.160  27.628  1.00  0.00     0.135 A 
ATOM     66  C   UNL A   1      42.933  24.605  25.947  1.00  0.00     0.135 A 
ATOM     67  F   UNL A   1      43.948  22.748  28.891  1.00  0.00    -0.206 F 
ATOM     68  C   UNL A   1      44.341  22.336  26.654  1.00  0.00     0.059 A 
ATOM     69  C   UNL A   1      43.497  23.797  24.953  1.00  0.00     0.059 A 
ATOM     70  F   UNL A   1      42.237  25.639  25.472  1.00  0.00    -0.206 F 
ATOM     71  C   UNL A   1      44.210  22.668  25.315  1.00  0.00     0.060 A 
BRANCH  71  72
ATOM     72  S   UNL A   1      44.951  21.595  24.075  1.00  0.00     0.124 S 
ATOM     73  O   UNL A   1      44.458  22.181  22.833  1.00  0.00    -0.237 OA
ATOM     74  O   UNL A   1      46.376  21.762  24.337  1.00  0.00    -0.237 OA
ATOM     75  O   UNL A   1      44.411  20.276  24.398  1.00  0.00    -0.744 OA
ENDBRANCH  71  72
ENDBRANCH  50  64
BRANCH  51  76
ATOM     76  C   UNL A   1      40.082  31.604  33.222  1.00  0.00     0.058 A 
ATOM     77  C   UNL A   1      39.895  33.003  33.276  1.00  0.00     0.135 A 
ATOM     78  C   UNL A   1      38.928  30.813  33.101  1.00  0.00     0.135 A 
ATOM     79  F   UNL A   1      40.958  33.813  33.423  1.00  0.00    -0.206 F 
ATOM     80  C   UNL A   1      38.663  33.596  33.015  1.00  0.00     0.059 A 
ATOM     81  C   UNL A   1      37.675  31.390  32.859  1.00  0.00     0.059 A 
ATOM     82  F   UNL A   1      39.026  29.477  33.062  1.00  0.00    -0.206 F 
ATOM     83  C   UNL A   1      37.572  32.778  32.732  1.00  0.00     0.060 A 
BRANCH  83  84
ATOM     84  S   UNL A   1      36.088  33.555  32.039  1.00  0.00     0.124 S 
ATOM     85  O   UNL A   1      35.734  34.512  33.082  1.00  0.00    -0.237 OA
ATOM     86  O   UNL A   1      36.594  34.133  30.792  1.00  0.00    -0.237 OA
ATOM     87  O   UNL A   1      35.168  32.436  31.878  1.00  0.00    -0.744 OA
ENDBRANCH  83  84
ENDBRANCH  51  76
BRANCH  63  88
ATOM     88  C   UNL A   1      44.485  25.799  33.702  1.00  0.00     0.058 A 
ATOM     89  C   UNL A   1      45.858  25.510  33.760  1.00  0.00     0.135 A 
ATOM     90  C   UNL A   1      43.678  25.057  34.607  1.00  0.00     0.135 A 
ATOM     91  F   UNL A   1      46.760  26.225  33.075  1.00  0.00    -0.206 F 
ATOM     92  C   UNL A   1      46.378  24.498  34.569  1.00  0.00     0.059 A 
ATOM     93  C   UNL A   1      44.187  24.101  35.479  1.00  0.00     0.059 A 
ATOM     94  F   UNL A   1      42.354  25.242  34.695  1.00  0.00    -0.206 F 
ATOM     95  C   UNL A   1      45.534  23.795  35.420  1.00  0.00     0.060 A 
BRANCH  95  96
ATOM     96  S   UNL A   1      46.211  22.497  36.465  1.00  0.00     0.124 S 
ATOM     97  O   UNL A   1      45.444  21.340  36.016  1.00  0.00    -0.237 OA
ATOM     98  O   UNL A   1      47.625  22.499  36.099  1.00  0.00    -0.237 OA
ATOM     99  O   UNL A   1      45.921  22.963  37.817  1.00  0.00    -0.744 OA
ENDBRANCH  95  96
ENDBRANCH  63  88
ENDBRANCH  37  38
ENDBRANCH  29  32
ENDBRANCH  27  28
ENDBRANCH  26  27
ENDBRANCH  25  26
ENDBRANCH   1  25
TORSDOF 21
ENDMDL
MODEL 3
REMARK VINA RESULT:     -11.4      1.468      2.110
REMARK SMILES CC[C@H](C)[C@H](NS(=O)(=O)c1ccc(C)cc1)C(=O)NCCCCCCNC(=O)c1ccc(-c2c3nc(c(-c4c(F)cc(S(=O)(=O)[O-])cc4F)c4ccc([nH]4)c(-c4c(F)cc(S(=O)(=O)[O-])cc4F)c4nc(c(-c5c(F)cc(S(=O)(=O)[O-])cc5F)c5ccc2[nH]5)C=C4)C=C3)cc1
REMARK SMILES IDX 22 1 21 2 20 3 19 4 17 5 18 6 5 8 3 9 4 10 2 11 1 12 6 13
REMARK SMILES IDX 7 15 8 16 9 17 10 18 11 19 16 20 12 21 15 22 13 23 14 24
REMARK SMILES IDX 23 25 24 26 25 27 26 28 27 29 28 31 29 32 30 33 94 34 31 35
REMARK SMILES IDX 93 36 32 37 33 38 34 39 87 40 35 41 92 42 86 43 88 44 36 45
REMARK SMILES IDX 91 46 85 47 84 48 37 50 71 51 50 52 70 53 51 54 54 55 69 56
REMARK SMILES IDX 89 57 52 58 53 59 68 61 90 62 55 63 38 64 39 65 48 66 40 67
REMARK SMILES IDX 41 68 47 69 49 70 42 71 43 72 44 73 45 74 46 75 72 76 73 77
REMARK SMILES IDX 82 78 74 79 75 80 81 81 83 82 76 83 77 84 78 85 79 86 80 87
REMARK SMILES IDX 56 88 57 89 66 90 58 91 59 92 65 93 67 94 60 95 61 96 62 97
REMARK SMILES IDX 63 98 64 99
REMARK H PARENT 19 7 6 14 26 30 88 49 54 60
REMARK Flexibility Score: inf
ROOT
ATOM      1  C   UNL A   1      31.746  28.649  24.642  1.00  0.00     0.002 C 
ENDROOT
BRANCH   1   2
ATOM      2  C   UNL A   1      30.843  27.464  24.999  1.00  0.00     0.021 C 
BRANCH   2   3
ATOM      3  C   UNL A   1      31.105  26.875  26.389  1.00  0.00     0.116 C 
BRANCH   3   4
ATOM      4  N   UNL A   1      30.610  25.529  26.458  1.00  0.00    -0.355 N 
ATOM      5  C   UNL A   1      31.174  24.381  26.017  1.00  0.00     0.238 C 
ATOM      6  O   UNL A   1      30.490  23.356  26.150  1.00  0.00    -0.273 OA
ATOM      7  H   UNL A   1      29.731  25.426  26.890  1.00  0.00     0.163 HD
BRANCH   5   8
ATOM      8  C   UNL A   1      32.620  24.274  25.514  1.00  0.00     0.161 C 
BRANCH   8   9
ATOM      9  C   UNL A   1      32.858  24.583  23.990  1.00  0.00     0.013 C 
ATOM     10  C   UNL A   1      34.302  24.769  23.581  1.00  0.00     0.010 C 
BRANCH   9  11
ATOM     11  C   UNL A   1      32.217  23.616  22.961  1.00  0.00     0.002 C 
ATOM     12  C   UNL A   1      33.220  23.127  21.928  1.00  0.00     0.004 C 
ENDBRANCH   9  11
ENDBRANCH   8   9
BRANCH   8  13
ATOM     13  N   UNL A   1      33.710  23.545  26.228  1.00  0.00    -0.198 NA
ATOM     14  H   UNL A   1      33.393  23.547  27.197  1.00  0.00     0.142 HD
BRANCH  13  15
ATOM     15  S   UNL A   1      34.403  22.025  26.059  1.00  0.00     0.241 S 
ATOM     16  O   UNL A   1      34.227  21.424  27.371  1.00  0.00    -0.207 OA
ATOM     17  O   UNL A   1      33.889  21.364  24.895  1.00  0.00    -0.207 OA
BRANCH  15  18
ATOM     18  C   UNL A   1      36.155  22.274  25.871  1.00  0.00     0.082 A 
ATOM     19  C   UNL A   1      36.736  23.516  26.148  1.00  0.00     0.022 A 
ATOM     20  C   UNL A   1      36.961  21.192  25.498  1.00  0.00     0.022 A 
ATOM     21  C   UNL A   1      38.130  23.617  26.251  1.00  0.00     0.005 A 
ATOM     22  C   UNL A   1      38.351  21.303  25.589  1.00  0.00     0.005 A 
ATOM     23  C   UNL A   1      38.940  22.492  26.040  1.00  0.00    -0.051 A 
ATOM     24  C   UNL A   1      40.417  22.541  26.308  1.00  0.00     0.044 C 
ENDBRANCH  15  18
ENDBRANCH  13  15
ENDBRANCH   8  13
ENDBRANCH   5   8
ENDBRANCH   3   4
ENDBRANCH   2   3
ENDBRANCH   1   2
BRANCH   1  25
ATOM     25  C   UNL A   1      31.422  29.964  25.370  1.00  0.00     0.002 C 
BRANCH  25  26
ATOM     26  C   UNL A   1      31.993  30.101  26.780  1.00  0.00     0.021 C 
BRANCH  26  27
ATOM     27  C   UNL A   1      33.496  29.922  26.854  1.00  0.00     0.116 C 
BRANCH  27  28
ATOM     28  N   UNL A   1      34.210  31.165  27.097  1.00  0.00    -0.352 N 
ATOM     29  C   UNL A   1      35.014  31.399  28.205  1.00  0.00     0.251 C 
ATOM     30  H   UNL A   1      34.117  31.887  26.435  1.00  0.00     0.163 HD
ATOM     31  O   UNL A   1      35.002  32.436  28.852  1.00  0.00    -0.269 OA
BRANCH  29  32
ATOM     32  C   UNL A   1      36.026  30.358  28.471  1.00  0.00     0.039 A 
ATOM     33  C   UNL A   1      36.031  29.750  29.734  1.00  0.00     0.014 A 
ATOM     34  C   UNL A   1      37.116  30.263  27.615  1.00  0.00     0.014 A 
ATOM     35  C   UNL A   1      37.218  29.229  30.226  1.00  0.00     0.010 A 
ATOM     36  C   UNL A   1      38.316  29.898  28.151  1.00  0.00     0.010 A 
ATOM     37  C   UNL A   1      38.363  29.413  29.463  1.00  0.00    -0.014 A 
BRANCH  37  38
ATOM     38  C   UNL A   1      39.699  29.043  29.864  1.00  0.00     0.031 A 
ATOM     39  C   UNL A   1      40.197  27.759  29.347  1.00  0.00     0.074 A 
ATOM     40  C   UNL A   1      40.466  30.021  30.386  1.00  0.00     0.049 A 
ATOM     41  N   UNL A   1      41.282  27.194  29.725  1.00  0.00    -0.248 NA
ATOM     42  C   UNL A   1      39.465  26.971  28.356  1.00  0.00     0.031 C 
ATOM     43  C   UNL A   1      41.918  30.108  30.447  1.00  0.00     0.029 A 
ATOM     44  N   UNL A   1      40.026  31.104  31.155  1.00  0.00    -0.354 N 
ATOM     45  C   UNL A   1      41.567  26.196  28.814  1.00  0.00     0.074 A 
ATOM     46  C   UNL A   1      40.347  26.008  28.077  1.00  0.00     0.031 C 
ATOM     47  C   UNL A   1      42.260  30.974  31.419  1.00  0.00     0.029 A 
ATOM     48  C   UNL A   1      41.031  31.341  32.111  1.00  0.00     0.049 A 
ATOM     49  H   UNL A   1      39.183  31.601  31.048  1.00  0.00     0.167 HD
ATOM     50  C   UNL A   1      42.865  25.791  28.711  1.00  0.00     0.037 A 
ATOM     51  C   UNL A   1      40.776  31.058  33.426  1.00  0.00     0.037 A 
ATOM     52  C   UNL A   1      43.644  26.432  29.775  1.00  0.00     0.049 A 
ATOM     53  C   UNL A   1      41.614  29.903  33.930  1.00  0.00     0.074 A 
ATOM     54  C   UNL A   1      44.454  27.555  29.790  1.00  0.00     0.029 A 
ATOM     55  N   UNL A   1      43.330  26.149  31.099  1.00  0.00    -0.354 N 
ATOM     56  N   UNL A   1      42.092  28.954  33.169  1.00  0.00    -0.248 NA
ATOM     57  C   UNL A   1      42.054  29.779  35.317  1.00  0.00     0.031 C 
ATOM     58  C   UNL A   1      44.540  28.004  31.136  1.00  0.00     0.029 A 
ATOM     59  C   UNL A   1      43.805  27.142  31.934  1.00  0.00     0.049 A 
ATOM     60  H   UNL A   1      42.837  25.351  31.401  1.00  0.00     0.167 HD
ATOM     61  C   UNL A   1      42.900  28.129  33.911  1.00  0.00     0.074 A 
ATOM     62  C   UNL A   1      42.841  28.690  35.249  1.00  0.00     0.031 C 
ATOM     63  C   UNL A   1      43.578  27.071  33.371  1.00  0.00     0.037 A 
BRANCH  50  64
ATOM     64  C   UNL A   1      43.509  25.063  27.543  1.00  0.00     0.058 A 
ATOM     65  C   UNL A   1      43.612  23.651  27.580  1.00  0.00     0.135 A 
ATOM     66  C   UNL A   1      44.106  25.651  26.409  1.00  0.00     0.135 A 
ATOM     67  F   UNL A   1      43.060  22.932  28.567  1.00  0.00    -0.206 F 
ATOM     68  C   UNL A   1      44.292  22.903  26.616  1.00  0.00     0.059 A 
ATOM     69  C   UNL A   1      44.795  24.924  25.431  1.00  0.00     0.059 A 
ATOM     70  F   UNL A   1      44.045  26.961  26.165  1.00  0.00    -0.206 F 
ATOM     71  C   UNL A   1      44.894  23.548  25.548  1.00  0.00     0.060 A 
BRANCH  71  72
ATOM     72  S   UNL A   1      45.766  22.569  24.316  1.00  0.00     0.124 S 
ATOM     73  O   UNL A   1      44.675  22.120  23.457  1.00  0.00    -0.237 OA
ATOM     74  O   UNL A   1      46.673  23.550  23.731  1.00  0.00    -0.237 OA
ATOM     75  O   UNL A   1      46.409  21.521  25.105  1.00  0.00    -0.744 OA
ENDBRANCH  71  72
ENDBRANCH  50  64
BRANCH  51  76
ATOM     76  C   UNL A   1      39.360  31.381  33.798  1.00  0.00     0.058 A 
ATOM     77  C   UNL A   1      39.063  32.741  34.038  1.00  0.00     0.135 A 
ATOM     78  C   UNL A   1      38.289  30.552  33.426  1.00  0.00     0.135 A 
ATOM     79  F   UNL A   1      40.039  33.579  34.427  1.00  0.00    -0.206 F 
ATOM     80  C   UNL A   1      37.823  33.294  33.725  1.00  0.00     0.059 A 
ATOM     81  C   UNL A   1      37.029  31.085  33.128  1.00  0.00     0.059 A 
ATOM     82  F   UNL A   1      38.493  29.246  33.200  1.00  0.00    -0.206 F 
ATOM     83  C   UNL A   1      36.835  32.467  33.198  1.00  0.00     0.060 A 
BRANCH  83  84
ATOM     84  S   UNL A   1      35.378  33.254  32.460  1.00  0.00     0.124 S 
ATOM     85  O   UNL A   1      35.980  34.112  31.446  1.00  0.00    -0.237 OA
ATOM     86  O   UNL A   1      34.627  32.103  31.952  1.00  0.00    -0.237 OA
ATOM     87  O   UNL A   1      34.765  33.948  33.585  1.00  0.00    -0.744 OA
ENDBRANCH  83  84
ENDBRANCH  51  76
BRANCH  63  88
ATOM     88  C   UNL A   1      44.193  25.918  34.142  1.00  0.00     0.058 A 
ATOM     89  C   UNL A   1      43.448  24.931  34.808  1.00  0.00     0.135 A 
ATOM     90  C   UNL A   1      45.594  25.686  34.103  1.00  0.00     0.135 A 
ATOM     91  F   UNL A   1      42.109  24.934  34.804  1.00  0.00    -0.206 F 
ATOM     92  C   UNL A   1      44.047  23.860  35.473  1.00  0.00     0.059 A 
ATOM     93  C   UNL A   1      46.204  24.582  34.691  1.00  0.00     0.059 A 
ATOM     94  F   UNL A   1      46.436  26.519  33.476  1.00  0.00    -0.206 F 
ATOM     95  C   UNL A   1      45.426  23.697  35.414  1.00  0.00     0.060 A 
BRANCH  95  96
ATOM     96  S   UNL A   1      46.192  22.311  36.266  1.00  0.00     0.124 S 
ATOM     97  O   UNL A   1      45.332  21.209  35.847  1.00  0.00    -0.237 OA
ATOM     98  O   UNL A   1      47.543  22.305  35.711  1.00  0.00    -0.237 OA
ATOM     99  O   UNL A   1      46.102  22.685  37.673  1.00  0.00    -0.744 OA
ENDBRANCH  95  96
ENDBRANCH  63  88
ENDBRANCH  37  38
ENDBRANCH  29  32
ENDBRANCH  27  28
ENDBRANCH  26  27
ENDBRANCH  25  26
ENDBRANCH   1  25
TORSDOF 21
ENDMDL
