MODEL 1
REMARK VINA RESULT:     -13.3      0.000      0.000
REMARK SMILES C[N@@H+]1CCN(C(=O)c2ccc3[nH]c4c(c3c2)CSCC4)C[C@H]1C(=O)NCCCCCCNC(=O)c1ccc(-c2c3nc(c(-c4c(F)cc(S(=O)(=O)[O-])cc4F)c4ccc([nH]4)c(-c4c(F)cc(S(=O)(=O)[O-])cc4F)c4nc(c(-c5c(F)cc(S(=O)(=O)[O-])cc5F)c5ccc2[nH]5)C=C4)C=C3)cc1
REMARK SMILES IDX 29 1 28 2 27 3 26 4 25 5 23 6 24 7 22 9 1 10 2 11 3 12 4 14
REMARK SMILES IDX 21 15 5 16 6 17 7 18 8 19 9 20 16 21 10 22 15 23 11 24 14 25
REMARK SMILES IDX 12 26 13 27 17 28 20 30 18 31 19 32 30 33 31 34 32 35 33 36
REMARK SMILES IDX 34 38 35 39 36 40 100 41 37 42 99 43 38 44 39 45 40 46 93 47
REMARK SMILES IDX 41 48 98 49 92 50 94 51 42 52 97 53 91 54 90 55 43 57 77 58
REMARK SMILES IDX 56 59 76 60 57 61 60 62 75 63 95 64 58 65 59 66 74 68 96 69
REMARK SMILES IDX 61 70 44 71 45 72 54 73 46 74 47 75 53 76 55 77 48 78 49 79
REMARK SMILES IDX 50 80 51 81 52 82 78 83 79 84 88 85 80 86 81 87 87 88 89 89
REMARK SMILES IDX 82 90 83 91 84 92 85 93 86 94 62 95 63 96 72 97 64 98 65 99
REMARK SMILES IDX 71 100 73 101 66 102 67 103 68 104 69 105 70 106
REMARK H PARENT 25 8 2 13 12 29 32 37 94 56 60 67
REMARK Flexibility Score: inf
ROOT
ATOM      1  C   UNL A   1      33.492  27.758  26.471  1.00  0.00     0.002 C 
ENDROOT
BRANCH   1   2
ATOM      2  C   UNL A   1      32.472  26.722  25.992  1.00  0.00     0.002 C 
BRANCH   2   3
ATOM      3  C   UNL A   1      31.093  26.808  26.654  1.00  0.00     0.021 C 
BRANCH   3   4
ATOM      4  C   UNL A   1      30.027  25.936  25.999  1.00  0.00     0.116 C 
BRANCH   4   5
ATOM      5  N   UNL A   1      29.777  24.731  26.770  1.00  0.00    -0.351 N 
ATOM      6  C   UNL A   1      30.466  23.555  26.784  1.00  0.00     0.280 C 
ATOM      7  O   UNL A   1      30.018  22.622  27.459  1.00  0.00    -0.268 OA
ATOM      8  H   UNL A   1      28.997  24.768  27.368  1.00  0.00     0.163 HD
BRANCH   6   9
ATOM      9  C   UNL A   1      31.787  23.394  26.017  1.00  0.00     0.293 C 
ATOM     10  C   UNL A   1      32.844  22.050  27.768  1.00  0.00     0.333 C 
ATOM     11  N   UNL A   1      32.490  22.114  26.348  1.00  0.00    -0.324 N 
ATOM     12  C   UNL A   1      33.707  21.999  25.514  1.00  0.00     0.284 C 
ATOM     13  H   UNL A   1      31.860  21.336  26.152  1.00  0.00     0.348 HD
ATOM     14  C   UNL A   1      33.421  22.130  24.006  1.00  0.00     0.181 C 
ATOM     15  C   UNL A   1      31.494  23.573  24.512  1.00  0.00     0.195 C 
ATOM     16  N   UNL A   1      32.690  23.357  23.688  1.00  0.00    -0.326 N 
BRANCH  16  17
ATOM     17  C   UNL A   1      32.973  24.017  22.495  1.00  0.00     0.254 C 
ATOM     18  O   UNL A   1      33.418  23.450  21.499  1.00  0.00    -0.269 OA
BRANCH  17  19
ATOM     19  C   UNL A   1      32.707  25.469  22.402  1.00  0.00     0.040 A 
ATOM     20  C   UNL A   1      33.734  26.361  22.086  1.00  0.00     0.016 A 
ATOM     21  C   UNL A   1      31.397  25.918  22.622  1.00  0.00     0.024 A 
ATOM     22  C   UNL A   1      33.502  27.739  22.068  1.00  0.00     0.027 A 
ATOM     23  C   UNL A   1      31.136  27.301  22.578  1.00  0.00     0.004 A 
ATOM     24  C   UNL A   1      32.195  28.176  22.323  1.00  0.00     0.046 A 
ATOM     25  C   UNL A   1      29.954  28.092  22.730  1.00  0.00    -0.009 A 
ATOM     26  N   UNL A   1      31.687  29.455  22.380  1.00  0.00    -0.358 N 
ATOM     27  C   UNL A   1      30.337  29.410  22.574  1.00  0.00     0.021 A 
ATOM     28  C   UNL A   1      28.563  27.600  22.971  1.00  0.00     0.107 C 
ATOM     29  H   UNL A   1      32.219  30.279  22.292  1.00  0.00     0.166 HD
ATOM     30  C   UNL A   1      29.458  30.611  22.614  1.00  0.00     0.065 C 
ATOM     31  S   UNL A   1      27.294  28.906  23.128  1.00  0.00    -0.157 SA
ATOM     32  C   UNL A   1      28.049  30.245  22.139  1.00  0.00     0.076 C 
ENDBRANCH  17  19
ENDBRANCH  16  17
ENDBRANCH   6   9
ENDBRANCH   4   5
ENDBRANCH   3   4
ENDBRANCH   2   3
ENDBRANCH   1   2
BRANCH   1  33
ATOM     33  C   UNL A   1      32.905  28.995  27.158  1.00  0.00     0.021 C 
BRANCH  33  34
ATOM     34  C   UNL A   1      33.593  30.314  26.804  1.00  0.00     0.116 C 
BRANCH  34  35
ATOM     35  N   UNL A   1      33.750  31.221  27.921  1.00  0.00    -0.352 N 
ATOM     36  C   UNL A   1      34.794  31.583  28.728  1.00  0.00     0.251 C 
ATOM     37  H   UNL A   1      32.913  31.685  28.154  1.00  0.00     0.163 HD
ATOM     38  O   UNL A   1      34.579  32.528  29.494  1.00  0.00    -0.269 OA
BRANCH  36  39
ATOM     39  C   UNL A   1      36.115  30.896  28.787  1.00  0.00     0.039 A 
ATOM     40  C   UNL A   1      36.313  29.517  28.774  1.00  0.00     0.014 A 
ATOM     41  C   UNL A   1      37.242  31.731  28.919  1.00  0.00     0.014 A 
ATOM     42  C   UNL A   1      37.580  28.985  28.987  1.00  0.00     0.010 A 
ATOM     43  C   UNL A   1      38.518  31.205  29.106  1.00  0.00     0.010 A 
ATOM     44  C   UNL A   1      38.680  29.827  29.180  1.00  0.00    -0.014 A 
BRANCH  44  45
ATOM     45  C   UNL A   1      39.990  29.197  29.323  1.00  0.00     0.031 A 
ATOM     46  C   UNL A   1      40.480  29.099  30.726  1.00  0.00     0.074 A 
ATOM     47  C   UNL A   1      40.706  28.668  28.312  1.00  0.00     0.049 A 
ATOM     48  N   UNL A   1      41.490  29.708  31.255  1.00  0.00    -0.248 NA
ATOM     49  C   UNL A   1      39.672  28.334  31.687  1.00  0.00     0.031 C 
ATOM     50  C   UNL A   1      40.290  28.444  26.928  1.00  0.00     0.029 A 
ATOM     51  N   UNL A   1      41.962  28.134  28.348  1.00  0.00    -0.354 N 
ATOM     52  C   UNL A   1      41.571  29.253  32.569  1.00  0.00     0.074 A 
ATOM     53  C   UNL A   1      40.349  28.535  32.819  1.00  0.00     0.031 C 
ATOM     54  C   UNL A   1      41.188  27.636  26.320  1.00  0.00     0.029 A 
ATOM     55  C   UNL A   1      42.300  27.388  27.225  1.00  0.00     0.049 A 
ATOM     56  H   UNL A   1      42.576  28.266  29.106  1.00  0.00     0.167 HD
ATOM     57  C   UNL A   1      42.727  29.341  33.285  1.00  0.00     0.037 A 
ATOM     58  C   UNL A   1      43.385  26.584  27.074  1.00  0.00     0.037 A 
ATOM     59  C   UNL A   1      43.636  30.292  32.696  1.00  0.00     0.049 A 
ATOM     60  C   UNL A   1      44.416  27.053  28.039  1.00  0.00     0.074 A 
ATOM     61  C   UNL A   1      43.569  31.640  32.401  1.00  0.00     0.029 A 
ATOM     62  N   UNL A   1      44.712  29.810  31.990  1.00  0.00    -0.354 N 
ATOM     63  N   UNL A   1      45.031  28.201  27.946  1.00  0.00    -0.248 NA
ATOM     64  C   UNL A   1      44.454  26.435  29.355  1.00  0.00     0.031 C 
ATOM     65  C   UNL A   1      44.278  31.785  31.175  1.00  0.00     0.029 A 
ATOM     66  C   UNL A   1      44.782  30.531  30.826  1.00  0.00     0.049 A 
ATOM     67  H   UNL A   1      45.318  29.086  32.267  1.00  0.00     0.167 HD
ATOM     68  C   UNL A   1      45.150  28.647  29.254  1.00  0.00     0.074 A 
ATOM     69  C   UNL A   1      44.867  27.476  30.081  1.00  0.00     0.031 C 
ATOM     70  C   UNL A   1      45.195  29.979  29.554  1.00  0.00     0.037 A 
BRANCH  57  71
ATOM     71  C   UNL A   1      43.181  28.332  34.315  1.00  0.00     0.058 A 
ATOM     72  C   UNL A   1      43.491  28.768  35.622  1.00  0.00     0.135 A 
ATOM     73  C   UNL A   1      43.606  27.023  33.997  1.00  0.00     0.135 A 
ATOM     74  F   UNL A   1      43.129  29.992  36.039  1.00  0.00    -0.206 F 
ATOM     75  C   UNL A   1      44.251  28.004  36.506  1.00  0.00     0.059 A 
ATOM     76  C   UNL A   1      44.319  26.223  34.884  1.00  0.00     0.059 A 
ATOM     77  F   UNL A   1      43.441  26.490  32.782  1.00  0.00    -0.206 F 
ATOM     78  C   UNL A   1      44.680  26.740  36.117  1.00  0.00     0.060 A 
BRANCH  78  79
ATOM     79  S   UNL A   1      45.774  25.805  37.199  1.00  0.00     0.124 S 
ATOM     80  O   UNL A   1      46.976  26.630  37.178  1.00  0.00    -0.237 OA
ATOM     81  O   UNL A   1      45.024  25.796  38.450  1.00  0.00    -0.237 OA
ATOM     82  O   UNL A   1      45.883  24.511  36.530  1.00  0.00    -0.744 OA
ENDBRANCH  78  79
ENDBRANCH  57  71
BRANCH  58  83
ATOM     83  C   UNL A   1      43.465  25.273  26.368  1.00  0.00     0.058 A 
ATOM     84  C   UNL A   1      44.344  25.071  25.287  1.00  0.00     0.135 A 
ATOM     85  C   UNL A   1      42.877  24.108  26.903  1.00  0.00     0.135 A 
ATOM     86  F   UNL A   1      44.974  26.113  24.724  1.00  0.00    -0.206 F 
ATOM     87  C   UNL A   1      44.653  23.794  24.799  1.00  0.00     0.059 A 
ATOM     88  C   UNL A   1      43.156  22.829  26.425  1.00  0.00     0.059 A 
ATOM     89  F   UNL A   1      42.075  24.162  27.976  1.00  0.00    -0.206 F 
ATOM     90  C   UNL A   1      44.066  22.675  25.389  1.00  0.00     0.060 A 
BRANCH  90  91
ATOM     91  S   UNL A   1      44.581  21.017  24.880  1.00  0.00     0.124 S 
ATOM     92  O   UNL A   1      44.621  21.145  23.428  1.00  0.00    -0.237 OA
ATOM     93  O   UNL A   1      45.872  20.879  25.546  1.00  0.00    -0.237 OA
ATOM     94  O   UNL A   1      43.521  20.157  25.400  1.00  0.00    -0.744 OA
ENDBRANCH  90  91
ENDBRANCH  58  83
BRANCH  70  95
ATOM     95  C   UNL A   1      45.418  30.975  28.445  1.00  0.00     0.058 A 
ATOM     96  C   UNL A   1      44.406  31.444  27.590  1.00  0.00     0.135 A 
ATOM     97  C   UNL A   1      46.656  31.635  28.394  1.00  0.00     0.135 A 
ATOM     98  F   UNL A   1      43.166  30.937  27.641  1.00  0.00    -0.206 F 
ATOM     99  C   UNL A   1      44.621  32.510  26.715  1.00  0.00     0.059 A 
ATOM    100  C   UNL A   1      46.882  32.722  27.554  1.00  0.00     0.059 A 
ATOM    101  F   UNL A   1      47.647  31.271  29.226  1.00  0.00    -0.206 F 
ATOM    102  C   UNL A   1      45.859  33.154  26.715  1.00  0.00     0.060 A 
BRANCH 102 103
ATOM    103  S   UNL A   1      46.081  34.617  25.679  1.00  0.00     0.124 S 
ATOM    104  O   UNL A   1      45.694  35.695  26.581  1.00  0.00    -0.237 OA
ATOM    105  O   UNL A   1      47.498  34.550  25.341  1.00  0.00    -0.237 OA
ATOM    106  O   UNL A   1      45.167  34.383  24.560  1.00  0.00    -0.744 OA
ENDBRANCH 102 103
ENDBRANCH  70  95
ENDBRANCH  44  45
ENDBRANCH  36  39
ENDBRANCH  34  35
ENDBRANCH  33  34
ENDBRANCH   1  33
TORSDOF 18
ENDMDL
MODEL 2
REMARK VINA RESULT:     -13.2      2.655      8.792
REMARK SMILES C[N@@H+]1CCN(C(=O)c2ccc3[nH]c4c(c3c2)CSCC4)C[C@H]1C(=O)NCCCCCCNC(=O)c1ccc(-c2c3nc(c(-c4c(F)cc(S(=O)(=O)[O-])cc4F)c4ccc([nH]4)c(-c4c(F)cc(S(=O)(=O)[O-])cc4F)c4nc(c(-c5c(F)cc(S(=O)(=O)[O-])cc5F)c5ccc2[nH]5)C=C4)C=C3)cc1
REMARK SMILES IDX 29 1 28 2 27 3 26 4 25 5 23 6 24 7 22 9 1 10 2 11 3 12 4 14
REMARK SMILES IDX 21 15 5 16 6 17 7 18 8 19 9 20 16 21 10 22 15 23 11 24 14 25
REMARK SMILES IDX 12 26 13 27 17 28 20 30 18 31 19 32 30 33 31 34 32 35 33 36
REMARK SMILES IDX 34 38 35 39 36 40 100 41 37 42 99 43 38 44 39 45 40 46 93 47
REMARK SMILES IDX 41 48 98 49 92 50 94 51 42 52 97 53 91 54 90 55 43 57 77 58
REMARK SMILES IDX 56 59 76 60 57 61 60 62 75 63 95 64 58 65 59 66 74 68 96 69
REMARK SMILES IDX 61 70 44 71 45 72 54 73 46 74 47 75 53 76 55 77 48 78 49 79
REMARK SMILES IDX 50 80 51 81 52 82 78 83 79 84 88 85 80 86 81 87 87 88 89 89
REMARK SMILES IDX 82 90 83 91 84 92 85 93 86 94 62 95 63 96 72 97 64 98 65 99
REMARK SMILES IDX 71 100 73 101 66 102 67 103 68 104 69 105 70 106
REMARK H PARENT 25 8 2 13 12 29 32 37 94 56 60 67
REMARK Flexibility Score: inf
ROOT
ATOM      1  C   UNL A   1      39.361  22.426  26.407  1.00  0.00     0.002 C 
ENDROOT
BRANCH   1   2
ATOM      2  C   UNL A   1      38.737  21.223  25.694  1.00  0.00     0.002 C 
BRANCH   2   3
ATOM      3  C   UNL A   1      37.506  21.537  24.839  1.00  0.00     0.021 C 
BRANCH   3   4
ATOM      4  C   UNL A   1      36.318  20.614  25.088  1.00  0.00     0.116 C 
BRANCH   4   5
ATOM      5  N   UNL A   1      35.461  21.121  26.145  1.00  0.00    -0.351 N 
ATOM      6  C   UNL A   1      34.360  21.921  26.057  1.00  0.00     0.280 C 
ATOM      7  O   UNL A   1      33.831  22.305  27.105  1.00  0.00    -0.268 OA
ATOM      8  H   UNL A   1      35.711  20.850  27.057  1.00  0.00     0.163 HD
BRANCH   6   9
ATOM      9  C   UNL A   1      33.761  22.308  24.697  1.00  0.00     0.293 C 
ATOM     10  C   UNL A   1      32.658  20.148  24.370  1.00  0.00     0.333 C 
ATOM     11  N   UNL A   1      32.472  21.600  24.416  1.00  0.00    -0.324 N 
ATOM     12  C   UNL A   1      31.922  22.084  23.130  1.00  0.00     0.284 C 
ATOM     13  H   UNL A   1      31.818  21.803  25.172  1.00  0.00     0.348 HD
ATOM     14  C   UNL A   1      31.766  23.616  23.078  1.00  0.00     0.181 C 
ATOM     15  C   UNL A   1      33.652  23.847  24.640  1.00  0.00     0.195 C 
ATOM     16  N   UNL A   1      33.013  24.308  23.401  1.00  0.00    -0.326 N 
BRANCH  16  17
ATOM     17  C   UNL A   1      33.314  25.495  22.737  1.00  0.00     0.254 C 
ATOM     18  O   UNL A   1      33.893  25.534  21.653  1.00  0.00    -0.269 OA
BRANCH  17  19
ATOM     19  C   UNL A   1      32.901  26.778  23.345  1.00  0.00     0.040 A 
ATOM     20  C   UNL A   1      33.698  27.395  24.313  1.00  0.00     0.016 A 
ATOM     21  C   UNL A   1      31.703  27.361  22.912  1.00  0.00     0.024 A 
ATOM     22  C   UNL A   1      33.275  28.570  24.941  1.00  0.00     0.027 A 
ATOM     23  C   UNL A   1      31.275  28.562  23.511  1.00  0.00     0.004 A 
ATOM     24  C   UNL A   1      32.059  29.124  24.522  1.00  0.00     0.046 A 
ATOM     25  C   UNL A   1      30.150  29.423  23.313  1.00  0.00    -0.009 A 
ATOM     26  N   UNL A   1      31.403  30.252  24.964  1.00  0.00    -0.358 N 
ATOM     27  C   UNL A   1      30.284  30.464  24.212  1.00  0.00     0.021 A 
ATOM     28  C   UNL A   1      29.055  29.262  22.307  1.00  0.00     0.107 C 
ATOM     29  H   UNL A   1      31.698  30.820  25.712  1.00  0.00     0.166 HD
ATOM     30  C   UNL A   1      29.379  31.634  24.372  1.00  0.00     0.065 C 
ATOM     31  S   UNL A   1      27.766  30.556  22.350  1.00  0.00    -0.157 SA
ATOM     32  C   UNL A   1      28.707  31.963  23.036  1.00  0.00     0.076 C 
ENDBRANCH  17  19
ENDBRANCH  16  17
ENDBRANCH   6   9
ENDBRANCH   4   5
ENDBRANCH   3   4
ENDBRANCH   2   3
ENDBRANCH   1   2
BRANCH   1  33
ATOM     33  C   UNL A   1      40.494  22.098  27.386  1.00  0.00     0.021 C 
BRANCH  33  34
ATOM     34  C   UNL A   1      41.617  21.238  26.805  1.00  0.00     0.116 C 
BRANCH  34  35
ATOM     35  N   UNL A   1      42.295  21.830  25.671  1.00  0.00    -0.352 N 
ATOM     36  C   UNL A   1      42.743  23.086  25.366  1.00  0.00     0.251 C 
ATOM     37  H   UNL A   1      42.475  21.179  24.955  1.00  0.00     0.163 HD
ATOM     38  O   UNL A   1      43.431  23.177  24.345  1.00  0.00    -0.269 OA
BRANCH  36  39
ATOM     39  C   UNL A   1      42.416  24.324  26.127  1.00  0.00     0.039 A 
ATOM     40  C   UNL A   1      41.533  25.321  25.715  1.00  0.00     0.014 A 
ATOM     41  C   UNL A   1      43.110  24.509  27.339  1.00  0.00     0.014 A 
ATOM     42  C   UNL A   1      41.421  26.505  26.434  1.00  0.00     0.010 A 
ATOM     43  C   UNL A   1      42.982  25.682  28.079  1.00  0.00     0.010 A 
ATOM     44  C   UNL A   1      42.165  26.699  27.602  1.00  0.00    -0.014 A 
BRANCH  44  45
ATOM     45  C   UNL A   1      41.938  27.937  28.344  1.00  0.00     0.031 A 
ATOM     46  C   UNL A   1      43.071  28.902  28.297  1.00  0.00     0.074 A 
ATOM     47  C   UNL A   1      40.793  28.259  28.976  1.00  0.00     0.049 A 
ATOM     48  N   UNL A   1      43.832  29.278  29.272  1.00  0.00    -0.248 NA
ATOM     49  C   UNL A   1      43.489  29.412  26.983  1.00  0.00     0.031 C 
ATOM     50  C   UNL A   1      39.505  27.568  28.924  1.00  0.00     0.029 A 
ATOM     51  N   UNL A   1      40.527  29.352  29.750  1.00  0.00    -0.354 N 
ATOM     52  C   UNL A   1      44.704  30.224  28.741  1.00  0.00     0.074 A 
ATOM     53  C   UNL A   1      44.549  30.153  27.312  1.00  0.00     0.031 C 
ATOM     54  C   UNL A   1      38.552  28.366  29.457  1.00  0.00     0.029 A 
ATOM     55  C   UNL A   1      39.177  29.564  29.997  1.00  0.00     0.049 A 
ATOM     56  H   UNL A   1      41.233  29.940  30.103  1.00  0.00     0.167 HD
ATOM     57  C   UNL A   1      45.346  31.128  29.534  1.00  0.00     0.037 A 
ATOM     58  C   UNL A   1      38.611  30.667  30.554  1.00  0.00     0.037 A 
ATOM     59  C   UNL A   1      45.340  30.711  30.914  1.00  0.00     0.049 A 
ATOM     60  C   UNL A   1      39.667  31.344  31.354  1.00  0.00     0.074 A 
ATOM     61  C   UNL A   1      45.805  29.599  31.590  1.00  0.00     0.029 A 
ATOM     62  N   UNL A   1      44.475  31.337  31.778  1.00  0.00    -0.354 N 
ATOM     63  N   UNL A   1      40.189  30.845  32.441  1.00  0.00    -0.248 NA
ATOM     64  C   UNL A   1      40.454  32.383  30.707  1.00  0.00     0.031 C 
ATOM     65  C   UNL A   1      44.835  29.350  32.601  1.00  0.00     0.029 A 
ATOM     66  C   UNL A   1      43.869  30.355  32.519  1.00  0.00     0.049 A 
ATOM     67  H   UNL A   1      44.320  32.306  31.852  1.00  0.00     0.167 HD
ATOM     68  C   UNL A   1      41.534  31.181  32.375  1.00  0.00     0.074 A 
ATOM     69  C   UNL A   1      41.618  32.208  31.339  1.00  0.00     0.031 C 
ATOM     70  C   UNL A   1      42.494  30.407  32.964  1.00  0.00     0.037 A 
BRANCH  57  71
ATOM     71  C   UNL A   1      45.679  32.546  29.127  1.00  0.00     0.058 A 
ATOM     72  C   UNL A   1      44.649  33.391  28.658  1.00  0.00     0.135 A 
ATOM     73  C   UNL A   1      46.993  33.008  28.897  1.00  0.00     0.135 A 
ATOM     74  F   UNL A   1      43.359  33.058  28.828  1.00  0.00    -0.206 F 
ATOM     75  C   UNL A   1      44.907  34.551  27.930  1.00  0.00     0.059 A 
ATOM     76  C   UNL A   1      47.271  34.191  28.220  1.00  0.00     0.059 A 
ATOM     77  F   UNL A   1      48.074  32.293  29.228  1.00  0.00    -0.206 F 
ATOM     78  C   UNL A   1      46.224  34.930  27.697  1.00  0.00     0.060 A 
BRANCH  78  79
ATOM     79  S   UNL A   1      46.563  36.351  26.643  1.00  0.00     0.124 S 
ATOM     80  O   UNL A   1      45.305  37.083  26.731  1.00  0.00    -0.237 OA
ATOM     81  O   UNL A   1      47.705  36.958  27.315  1.00  0.00    -0.237 OA
ATOM     82  O   UNL A   1      46.853  35.745  25.346  1.00  0.00    -0.744 OA
ENDBRANCH  78  79
ENDBRANCH  57  71
BRANCH  58  83
ATOM     83  C   UNL A   1      37.317  31.315  30.196  1.00  0.00     0.058 A 
ATOM     84  C   UNL A   1      36.570  32.042  31.142  1.00  0.00     0.135 A 
ATOM     85  C   UNL A   1      36.911  31.463  28.853  1.00  0.00     0.135 A 
ATOM     86  F   UNL A   1      36.893  31.989  32.444  1.00  0.00    -0.206 F 
ATOM     87  C   UNL A   1      35.519  32.895  30.776  1.00  0.00     0.059 A 
ATOM     88  C   UNL A   1      35.859  32.293  28.466  1.00  0.00     0.059 A 
ATOM     89  F   UNL A   1      37.583  30.876  27.853  1.00  0.00    -0.206 F 
ATOM     90  C   UNL A   1      35.184  33.027  29.429  1.00  0.00     0.060 A 
BRANCH  90  91
ATOM     91  S   UNL A   1      33.943  34.245  28.928  1.00  0.00     0.124 S 
ATOM     92  O   UNL A   1      33.191  33.514  27.916  1.00  0.00    -0.237 OA
ATOM     93  O   UNL A   1      33.244  34.504  30.182  1.00  0.00    -0.237 OA
ATOM     94  O   UNL A   1      34.744  35.359  28.425  1.00  0.00    -0.744 OA
ENDBRANCH  90  91
ENDBRANCH  58  83
BRANCH  70  95
ATOM     95  C   UNL A   1      42.079  29.343  33.947  1.00  0.00     0.058 A 
ATOM     96  C   UNL A   1      41.743  28.026  33.590  1.00  0.00     0.135 A 
ATOM     97  C   UNL A   1      42.240  29.614  35.316  1.00  0.00     0.135 A 
ATOM     98  F   UNL A   1      41.665  27.656  32.304  1.00  0.00    -0.206 F 
ATOM     99  C   UNL A   1      41.561  27.029  34.550  1.00  0.00     0.059 A 
ATOM    100  C   UNL A   1      42.098  28.628  36.288  1.00  0.00     0.059 A 
ATOM    101  F   UNL A   1      42.615  30.841  35.718  1.00  0.00    -0.206 F 
ATOM    102  C   UNL A   1      41.757  27.336  35.897  1.00  0.00     0.060 A 
BRANCH 102 103
ATOM    103  S   UNL A   1      41.655  26.009  37.118  1.00  0.00     0.124 S 
ATOM    104  O   UNL A   1      41.847  24.819  36.297  1.00  0.00    -0.237 OA
ATOM    105  O   UNL A   1      42.746  26.335  38.029  1.00  0.00    -0.237 OA
ATOM    106  O   UNL A   1      40.313  26.167  37.680  1.00  0.00    -0.744 OA
ENDBRANCH 102 103
ENDBRANCH  70  95
ENDBRANCH  44  45
ENDBRANCH  36  39
ENDBRANCH  34  35
ENDBRANCH  33  34
ENDBRANCH   1  33
TORSDOF 18
ENDMDL
MODEL 3
REMARK VINA RESULT:     -13.2      2.625      8.675
REMARK SMILES C[N@@H+]1CCN(C(=O)c2ccc3[nH]c4c(c3c2)CSCC4)C[C@H]1C(=O)NCCCCCCNC(=O)c1ccc(-c2c3nc(c(-c4c(F)cc(S(=O)(=O)[O-])cc4F)c4ccc([nH]4)c(-c4c(F)cc(S(=O)(=O)[O-])cc4F)c4nc(c(-c5c(F)cc(S(=O)(=O)[O-])cc5F)c5ccc2[nH]5)C=C4)C=C3)cc1
REMARK SMILES IDX 29 1 28 2 27 3 26 4 25 5 23 6 24 7 22 9 1 10 2 11 3 12 4 14
REMARK SMILES IDX 21 15 5 16 6 17 7 18 8 19 9 20 16 21 10 22 15 23 11 24 14 25
REMARK SMILES IDX 12 26 13 27 17 28 20 30 18 31 19 32 30 33 31 34 32 35 33 36
REMARK SMILES IDX 34 38 35 39 36 40 100 41 37 42 99 43 38 44 39 45 40 46 93 47
REMARK SMILES IDX 41 48 98 49 92 50 94 51 42 52 97 53 91 54 90 55 43 57 77 58
REMARK SMILES IDX 56 59 76 60 57 61 60 62 75 63 95 64 58 65 59 66 74 68 96 69
REMARK SMILES IDX 61 70 44 71 45 72 54 73 46 74 47 75 53 76 55 77 48 78 49 79
REMARK SMILES IDX 50 80 51 81 52 82 78 83 79 84 88 85 80 86 81 87 87 88 89 89
REMARK SMILES IDX 82 90 83 91 84 92 85 93 86 94 62 95 63 96 72 97 64 98 65 99
REMARK SMILES IDX 71 100 73 101 66 102 67 103 68 104 69 105 70 106
REMARK H PARENT 25 8 2 13 12 29 32 37 94 56 60 67
REMARK Flexibility Score: inf
ROOT
ATOM      1  C   UNL A   1      35.473  21.184  25.209  1.00  0.00     0.002 C 
ENDROOT
BRANCH   1   2
ATOM      2  C   UNL A   1      35.212  22.008  26.473  1.00  0.00     0.002 C 
BRANCH   2   3
ATOM      3  C   UNL A   1      34.034  21.533  27.330  1.00  0.00     0.021 C 
BRANCH   3   4
ATOM      4  C   UNL A   1      33.175  22.660  27.895  1.00  0.00     0.116 C 
BRANCH   4   5
ATOM      5  N   UNL A   1      31.789  22.531  27.482  1.00  0.00    -0.351 N 
ATOM      6  C   UNL A   1      31.241  22.658  26.240  1.00  0.00     0.280 C 
ATOM      7  O   UNL A   1      30.012  22.593  26.134  1.00  0.00    -0.268 OA
ATOM      8  H   UNL A   1      31.153  22.322  28.202  1.00  0.00     0.163 HD
BRANCH   6   9
ATOM      9  C   UNL A   1      32.120  22.837  24.993  1.00  0.00     0.293 C 
ATOM     10  C   UNL A   1      32.224  20.442  24.504  1.00  0.00     0.333 C 
ATOM     11  N   UNL A   1      31.894  21.767  23.972  1.00  0.00    -0.324 N 
ATOM     12  C   UNL A   1      32.716  22.054  22.776  1.00  0.00     0.284 C 
ATOM     13  H   UNL A   1      30.905  21.760  23.721  1.00  0.00     0.348 HD
ATOM     14  C   UNL A   1      32.475  23.464  22.202  1.00  0.00     0.181 C 
ATOM     15  C   UNL A   1      31.904  24.268  24.455  1.00  0.00     0.195 C 
ATOM     16  N   UNL A   1      32.647  24.507  23.211  1.00  0.00    -0.326 N 
BRANCH  16  17
ATOM     17  C   UNL A   1      33.200  25.727  22.829  1.00  0.00     0.254 C 
ATOM     18  O   UNL A   1      34.114  25.827  22.013  1.00  0.00    -0.269 OA
BRANCH  17  19
ATOM     19  C   UNL A   1      32.652  26.972  23.409  1.00  0.00     0.040 A 
ATOM     20  C   UNL A   1      33.172  27.493  24.596  1.00  0.00     0.016 A 
ATOM     21  C   UNL A   1      31.612  27.619  22.726  1.00  0.00     0.024 A 
ATOM     22  C   UNL A   1      32.609  28.629  25.183  1.00  0.00     0.027 A 
ATOM     23  C   UNL A   1      31.051  28.783  23.287  1.00  0.00     0.004 A 
ATOM     24  C   UNL A   1      31.548  29.246  24.508  1.00  0.00     0.046 A 
ATOM     25  C   UNL A   1      30.024  29.687  22.872  1.00  0.00    -0.009 A 
ATOM     26  N   UNL A   1      30.807  30.355  24.852  1.00  0.00    -0.358 N 
ATOM     27  C   UNL A   1      29.926  30.654  23.854  1.00  0.00     0.021 A 
ATOM     28  C   UNL A   1      29.229  29.632  21.607  1.00  0.00     0.107 C 
ATOM     29  H   UNL A   1      30.901  30.858  25.694  1.00  0.00     0.166 HD
ATOM     30  C   UNL A   1      29.019  31.834  23.866  1.00  0.00     0.065 C 
ATOM     31  S   UNL A   1      27.982  30.954  21.415  1.00  0.00    -0.157 SA
ATOM     32  C   UNL A   1      28.722  32.280  22.431  1.00  0.00     0.076 C 
ENDBRANCH  17  19
ENDBRANCH  16  17
ENDBRANCH   6   9
ENDBRANCH   4   5
ENDBRANCH   3   4
ENDBRANCH   2   3
ENDBRANCH   1   2
BRANCH   1  33
ATOM     33  C   UNL A   1      36.948  20.947  24.868  1.00  0.00     0.021 C 
BRANCH  33  34
ATOM     34  C   UNL A   1      37.903  22.041  25.350  1.00  0.00     0.116 C 
BRANCH  34  35
ATOM     35  N   UNL A   1      39.270  21.601  25.529  1.00  0.00    -0.352 N 
ATOM     36  C   UNL A   1      40.341  22.054  26.249  1.00  0.00     0.251 C 
ATOM     37  H   UNL A   1      39.476  20.788  25.014  1.00  0.00     0.163 HD
ATOM     38  O   UNL A   1      41.324  21.307  26.276  1.00  0.00    -0.269 OA
BRANCH  36  39
ATOM     39  C   UNL A   1      40.421  23.375  26.934  1.00  0.00     0.039 A 
ATOM     40  C   UNL A   1      39.547  24.443  26.741  1.00  0.00     0.014 A 
ATOM     41  C   UNL A   1      41.513  23.555  27.806  1.00  0.00     0.014 A 
ATOM     42  C   UNL A   1      39.808  25.680  27.319  1.00  0.00     0.010 A 
ATOM     43  C   UNL A   1      41.765  24.784  28.411  1.00  0.00     0.010 A 
ATOM     44  C   UNL A   1      40.931  25.861  28.133  1.00  0.00    -0.014 A 
BRANCH  44  45
ATOM     45  C   UNL A   1      41.098  27.167  28.766  1.00  0.00     0.031 A 
ATOM     46  C   UNL A   1      42.212  27.985  28.211  1.00  0.00     0.074 A 
ATOM     47  C   UNL A   1      40.297  27.668  29.725  1.00  0.00     0.049 A 
ATOM     48  N   UNL A   1      43.307  28.336  28.802  1.00  0.00    -0.248 NA
ATOM     49  C   UNL A   1      42.160  28.345  26.786  1.00  0.00     0.031 C 
ATOM     50  C   UNL A   1      39.026  27.133  30.214  1.00  0.00     0.029 A 
ATOM     51  N   UNL A   1      40.427  28.837  30.418  1.00  0.00    -0.354 N 
ATOM     52  C   UNL A   1      44.000  29.131  27.894  1.00  0.00     0.074 A 
ATOM     53  C   UNL A   1      43.326  28.976  26.631  1.00  0.00     0.031 C 
ATOM     54  C   UNL A   1      38.406  28.075  30.960  1.00  0.00     0.029 A 
ATOM     55  C   UNL A   1      39.285  29.225  31.106  1.00  0.00     0.049 A 
ATOM     56  H   UNL A   1      41.260  29.361  30.428  1.00  0.00     0.167 HD
ATOM     57  C   UNL A   1      44.962  30.006  28.300  1.00  0.00     0.037 A 
ATOM     58  C   UNL A   1      39.059  30.425  31.703  1.00  0.00     0.037 A 
ATOM     59  C   UNL A   1      45.428  29.693  29.628  1.00  0.00     0.049 A 
ATOM     60  C   UNL A   1      40.387  31.027  31.993  1.00  0.00     0.074 A 
ATOM     61  C   UNL A   1      46.012  28.585  30.211  1.00  0.00     0.029 A 
ATOM     62  N   UNL A   1      44.997  30.478  30.669  1.00  0.00    -0.354 N 
ATOM     63  N   UNL A   1      41.228  30.549  32.870  1.00  0.00    -0.248 NA
ATOM     64  C   UNL A   1      40.968  31.916  30.998  1.00  0.00     0.031 C 
ATOM     65  C   UNL A   1      45.464  28.527  31.523  1.00  0.00     0.029 A 
ATOM     66  C   UNL A   1      44.624  29.632  31.681  1.00  0.00     0.049 A 
ATOM     67  H   UNL A   1      44.963  31.462  30.687  1.00  0.00     0.167 HD
ATOM     68  C   UNL A   1      42.478  30.716  32.291  1.00  0.00     0.074 A 
ATOM     69  C   UNL A   1      42.263  31.650  31.187  1.00  0.00     0.031 C 
ATOM     70  C   UNL A   1      43.518  29.878  32.580  1.00  0.00     0.037 A 
BRANCH  57  71
ATOM     71  C   UNL A   1      45.242  31.342  27.648  1.00  0.00     0.058 A 
ATOM     72  C   UNL A   1      46.523  31.593  27.109  1.00  0.00     0.135 A 
ATOM     73  C   UNL A   1      44.413  32.475  27.794  1.00  0.00     0.135 A 
ATOM     74  F   UNL A   1      47.395  30.590  26.917  1.00  0.00    -0.206 F 
ATOM     75  C   UNL A   1      46.980  32.882  26.834  1.00  0.00     0.059 A 
ATOM     76  C   UNL A   1      44.830  33.763  27.474  1.00  0.00     0.059 A 
ATOM     77  F   UNL A   1      43.197  32.410  28.345  1.00  0.00    -0.206 F 
ATOM     78  C   UNL A   1      46.131  33.963  27.042  1.00  0.00     0.060 A 
BRANCH  78  79
ATOM     79  S   UNL A   1      46.758  35.636  26.818  1.00  0.00     0.124 S 
ATOM     80  O   UNL A   1      47.621  35.780  27.985  1.00  0.00    -0.237 OA
ATOM     81  O   UNL A   1      47.435  35.533  25.530  1.00  0.00    -0.237 OA
ATOM     82  O   UNL A   1      45.547  36.452  26.822  1.00  0.00    -0.744 OA
ENDBRANCH  78  79
ENDBRANCH  57  71
BRANCH  58  83
ATOM     83  C   UNL A   1      37.783  31.195  31.763  1.00  0.00     0.058 A 
ATOM     84  C   UNL A   1      37.181  31.532  32.990  1.00  0.00     0.135 A 
ATOM     85  C   UNL A   1      37.262  31.850  30.626  1.00  0.00     0.135 A 
ATOM     86  F   UNL A   1      37.623  30.983  34.132  1.00  0.00    -0.206 F 
ATOM     87  C   UNL A   1      36.161  32.488  33.090  1.00  0.00     0.059 A 
ATOM     88  C   UNL A   1      36.237  32.793  30.698  1.00  0.00     0.059 A 
ATOM     89  F   UNL A   1      37.794  31.665  29.411  1.00  0.00    -0.206 F 
ATOM     90  C   UNL A   1      35.708  33.127  31.936  1.00  0.00     0.060 A 
BRANCH  90  91
ATOM     91  S   UNL A   1      34.512  34.478  32.070  1.00  0.00     0.124 S 
ATOM     92  O   UNL A   1      33.422  33.846  32.805  1.00  0.00    -0.237 OA
ATOM     93  O   UNL A   1      35.271  35.489  32.797  1.00  0.00    -0.237 OA
ATOM     94  O   UNL A   1      34.215  34.808  30.678  1.00  0.00    -0.744 OA
ENDBRANCH  90  91
ENDBRANCH  58  83
BRANCH  70  95
ATOM     95  C   UNL A   1      43.404  28.945  33.757  1.00  0.00     0.058 A 
ATOM     96  C   UNL A   1      43.637  29.323  35.090  1.00  0.00     0.135 A 
ATOM     97  C   UNL A   1      42.826  27.683  33.542  1.00  0.00     0.135 A 
ATOM     98  F   UNL A   1      44.094  30.547  35.392  1.00  0.00    -0.206 F 
ATOM     99  C   UNL A   1      43.325  28.480  36.158  1.00  0.00     0.059 A 
ATOM    100  C   UNL A   1      42.475  26.840  34.592  1.00  0.00     0.059 A 
ATOM    101  F   UNL A   1      42.526  27.285  32.293  1.00  0.00    -0.206 F 
ATOM    102  C   UNL A   1      42.728  27.245  35.900  1.00  0.00     0.060 A 
BRANCH 102 103
ATOM    103  S   UNL A   1      42.203  26.223  37.293  1.00  0.00     0.124 S 
ATOM    104  O   UNL A   1      40.845  26.697  37.529  1.00  0.00    -0.237 OA
ATOM    105  O   UNL A   1      42.318  24.873  36.753  1.00  0.00    -0.237 OA
ATOM    106  O   UNL A   1      43.170  26.553  38.340  1.00  0.00    -0.744 OA
ENDBRANCH 102 103
ENDBRANCH  70  95
ENDBRANCH  44  45
ENDBRANCH  36  39
ENDBRANCH  34  35
ENDBRANCH  33  34
ENDBRANCH   1  33
TORSDOF 18
ENDMDL
