MODEL 1
REMARK VINA RESULT:     -12.2      0.000      0.000
REMARK SMILES COc1ccc(S(=O)(=O)N2CCC[C@H](C(=O)N3CCC[C@H](C(=O)NCCCCCCNC(=O)c4ccc(-c5c6nc(c(-c7c(F)cc(S(=O)(=O)[O-])cc7F)c7ccc([nH]7)c(-c7c(F)cc(S(=O)(=O)[O-])cc7F)c7nc(c(-c8c(F)cc(S(=O)(=O)[O-])cc8F)c8ccc5[nH]8)C=C7)C=C6)cc4)C3)C2)cc1
REMARK SMILES IDX 26 1 25 2 24 3 22 4 23 5 21 7 17 8 18 9 100 10 19 11 20 12
REMARK SMILES IDX 15 13 16 14 14 15 10 16 11 17 101 18 12 19 13 20 7 21 8 22
REMARK SMILES IDX 9 23 6 24 3 25 4 26 103 27 5 28 102 29 2 30 1 31 27 32 28 33
REMARK SMILES IDX 29 34 30 35 31 36 32 37 33 39 34 40 35 41 99 42 36 43 98 44
REMARK SMILES IDX 37 45 38 46 39 47 92 48 40 49 97 50 91 51 93 52 41 53 96 54
REMARK SMILES IDX 90 55 89 56 42 58 76 59 55 60 75 61 56 62 59 63 74 64 94 65
REMARK SMILES IDX 57 66 58 67 73 69 95 70 60 71 43 72 44 73 53 74 45 75 46 76
REMARK SMILES IDX 52 77 54 78 47 79 48 80 49 81 50 82 51 83 77 84 78 85 87 86
REMARK SMILES IDX 79 87 80 88 86 89 88 90 81 91 82 92 83 93 84 94 85 95 61 96
REMARK SMILES IDX 62 97 71 98 63 99 64 100 70 101 72 102 65 103 66 104 67 105
REMARK SMILES IDX 68 106 69 107
REMARK H PARENT 24 6 31 38 93 57 59 68
REMARK Flexibility Score: inf
ROOT
ATOM      1  C   UNL A   1      38.071  23.354  26.215  1.00  0.00     0.021 C 
ENDROOT
BRANCH   1   2
ATOM      2  C   UNL A   1      36.655  23.658  25.738  1.00  0.00     0.116 C 
BRANCH   2   3
ATOM      3  N   UNL A   1      35.630  23.093  26.584  1.00  0.00    -0.356 N 
ATOM      4  C   UNL A   1      34.833  22.013  26.388  1.00  0.00     0.224 C 
ATOM      5  O   UNL A   1      34.161  21.640  27.358  1.00  0.00    -0.275 OA
ATOM      6  H   UNL A   1      35.487  23.565  27.435  1.00  0.00     0.163 HD
BRANCH   4   7
ATOM      7  C   UNL A   1      34.729  21.244  25.066  1.00  0.00     0.098 C 
ATOM      8  N   UNL A   1      33.047  22.088  23.408  1.00  0.00    -0.342 N 
ATOM      9  C   UNL A   1      32.424  20.775  23.281  1.00  0.00     0.119 C 
ATOM     10  C   UNL A   1      34.431  22.115  23.845  1.00  0.00     0.133 C 
ATOM     11  C   UNL A   1      32.552  19.926  24.540  1.00  0.00     0.022 C 
ATOM     12  C   UNL A   1      33.965  19.915  25.121  1.00  0.00     0.017 C 
BRANCH   8  13
ATOM     13  C   UNL A   1      32.261  23.210  23.258  1.00  0.00     0.227 C 
ATOM     14  O   UNL A   1      32.654  24.163  22.575  1.00  0.00    -0.275 OA
BRANCH  13  15
ATOM     15  C   UNL A   1      31.013  23.410  24.122  1.00  0.00     0.094 C 
ATOM     16  N   UNL A   1      31.335  25.817  24.542  1.00  0.00    -0.197 NA
ATOM     17  C   UNL A   1      31.690  25.633  25.958  1.00  0.00     0.102 C 
ATOM     18  C   UNL A   1      30.496  24.817  23.855  1.00  0.00     0.116 C 
ATOM     19  C   UNL A   1      31.552  24.219  26.513  1.00  0.00     0.018 C 
ATOM     20  C   UNL A   1      30.982  23.131  25.613  1.00  0.00     0.016 C 
BRANCH  16  21
ATOM     21  S   UNL A   1      31.266  27.422  23.974  1.00  0.00     0.243 S 
ATOM     22  O   UNL A   1      29.911  27.894  24.117  1.00  0.00    -0.207 OA
ATOM     23  O   UNL A   1      31.943  27.437  22.690  1.00  0.00    -0.207 OA
BRANCH  21  24
ATOM     24  C   UNL A   1      32.280  28.389  25.077  1.00  0.00     0.082 A 
ATOM     25  C   UNL A   1      33.915  29.684  26.943  1.00  0.00     0.118 A 
ATOM     26  C   UNL A   1      34.439  28.681  26.125  1.00  0.00     0.048 A 
ATOM     27  C   UNL A   1      32.589  30.082  26.779  1.00  0.00     0.048 A 
ATOM     28  C   UNL A   1      33.624  28.024  25.198  1.00  0.00     0.025 A 
ATOM     29  C   UNL A   1      31.771  29.433  25.852  1.00  0.00     0.025 A 
BRANCH  25  30
ATOM     30  O   UNL A   1      34.779  30.221  27.856  1.00  0.00    -0.497 OA
ATOM     31  C   UNL A   1      34.883  31.641  27.827  1.00  0.00     0.278 C 
ENDBRANCH  25  30
ENDBRANCH  21  24
ENDBRANCH  16  21
ENDBRANCH  13  15
ENDBRANCH   8  13
ENDBRANCH   4   7
ENDBRANCH   2   3
ENDBRANCH   1   2
BRANCH   1  32
ATOM     32  C   UNL A   1      38.599  21.985  25.781  1.00  0.00     0.002 C 
BRANCH  32  33
ATOM     33  C   UNL A   1      39.998  21.616  26.292  1.00  0.00     0.002 C 
BRANCH  33  34
ATOM     34  C   UNL A   1      40.452  22.300  27.585  1.00  0.00     0.021 C 
BRANCH  34  35
ATOM     35  C   UNL A   1      41.636  23.254  27.455  1.00  0.00     0.116 C 
BRANCH  35  36
ATOM     36  N   UNL A   1      41.567  24.070  26.253  1.00  0.00    -0.352 N 
ATOM     37  C   UNL A   1      41.277  25.401  26.101  1.00  0.00     0.251 C 
ATOM     38  H   UNL A   1      41.758  23.588  25.417  1.00  0.00     0.163 HD
ATOM     39  O   UNL A   1      41.118  25.857  24.971  1.00  0.00    -0.269 OA
BRANCH  37  40
ATOM     40  C   UNL A   1      41.139  26.286  27.278  1.00  0.00     0.039 A 
ATOM     41  C   UNL A   1      42.084  27.299  27.466  1.00  0.00     0.014 A 
ATOM     42  C   UNL A   1      40.121  26.098  28.218  1.00  0.00     0.014 A 
ATOM     43  C   UNL A   1      41.981  28.154  28.567  1.00  0.00     0.010 A 
ATOM     44  C   UNL A   1      39.985  26.985  29.284  1.00  0.00     0.010 A 
ATOM     45  C   UNL A   1      40.917  28.017  29.472  1.00  0.00    -0.014 A 
BRANCH  45  46
ATOM     46  C   UNL A   1      40.769  28.942  30.624  1.00  0.00     0.031 A 
ATOM     47  C   UNL A   1      41.634  28.775  31.843  1.00  0.00     0.074 A 
ATOM     48  C   UNL A   1      39.815  29.891  30.597  1.00  0.00     0.049 A 
ATOM     49  N   UNL A   1      41.609  29.436  32.972  1.00  0.00    -0.248 NA
ATOM     50  C   UNL A   1      42.647  27.708  31.795  1.00  0.00     0.031 C 
ATOM     51  C   UNL A   1      38.883  30.120  29.490  1.00  0.00     0.029 A 
ATOM     52  N   UNL A   1      39.460  30.833  31.530  1.00  0.00    -0.354 N 
ATOM     53  C   UNL A   1      42.583  28.855  33.774  1.00  0.00     0.074 A 
ATOM     54  C   UNL A   1      43.155  27.762  33.017  1.00  0.00     0.031 C 
ATOM     55  C   UNL A   1      38.072  31.143  29.803  1.00  0.00     0.029 A 
ATOM     56  C   UNL A   1      38.405  31.625  31.140  1.00  0.00     0.049 A 
ATOM     57  H   UNL A   1      39.918  30.932  32.395  1.00  0.00     0.167 HD
ATOM     58  C   UNL A   1      42.977  29.210  35.021  1.00  0.00     0.037 A 
ATOM     59  C   UNL A   1      37.774  32.622  31.791  1.00  0.00     0.037 A 
ATOM     60  C   UNL A   1      42.423  30.316  35.757  1.00  0.00     0.049 A 
ATOM     61  C   UNL A   1      38.243  33.014  33.164  1.00  0.00     0.074 A 
ATOM     62  C   UNL A   1      42.793  30.794  37.002  1.00  0.00     0.029 A 
ATOM     63  N   UNL A   1      41.380  31.117  35.316  1.00  0.00    -0.354 N 
ATOM     64  N   UNL A   1      39.206  32.490  33.886  1.00  0.00    -0.248 NA
ATOM     65  C   UNL A   1      37.550  34.137  33.808  1.00  0.00     0.031 C 
ATOM     66  C   UNL A   1      41.954  31.868  37.325  1.00  0.00     0.029 A 
ATOM     67  C   UNL A   1      41.084  32.080  36.267  1.00  0.00     0.049 A 
ATOM     68  H   UNL A   1      40.918  31.017  34.452  1.00  0.00     0.167 HD
ATOM     69  C   UNL A   1      39.246  33.232  35.060  1.00  0.00     0.074 A 
ATOM     70  C   UNL A   1      38.218  34.248  34.948  1.00  0.00     0.031 C 
ATOM     71  C   UNL A   1      40.061  33.086  36.135  1.00  0.00     0.037 A 
BRANCH  58  72
ATOM     72  C   UNL A   1      44.063  28.389  35.662  1.00  0.00     0.058 A 
ATOM     73  C   UNL A   1      45.421  28.674  35.449  1.00  0.00     0.135 A 
ATOM     74  C   UNL A   1      43.743  27.311  36.502  1.00  0.00     0.135 A 
ATOM     75  F   UNL A   1      45.783  29.685  34.645  1.00  0.00    -0.206 F 
ATOM     76  C   UNL A   1      46.425  27.895  36.017  1.00  0.00     0.059 A 
ATOM     77  C   UNL A   1      44.731  26.534  37.101  1.00  0.00     0.059 A 
ATOM     78  F   UNL A   1      42.460  26.997  36.742  1.00  0.00    -0.206 F 
ATOM     79  C   UNL A   1      46.069  26.822  36.835  1.00  0.00     0.060 A 
BRANCH  79  80
ATOM     80  S   UNL A   1      47.380  25.806  37.549  1.00  0.00     0.124 S 
ATOM     81  O   UNL A   1      48.557  26.630  37.294  1.00  0.00    -0.237 OA
ATOM     82  O   UNL A   1      46.972  25.702  38.948  1.00  0.00    -0.237 OA
ATOM     83  O   UNL A   1      47.302  24.565  36.784  1.00  0.00    -0.744 OA
ENDBRANCH  79  80
ENDBRANCH  58  72
BRANCH  59  84
ATOM     84  C   UNL A   1      36.651  33.335  31.130  1.00  0.00     0.058 A 
ATOM     85  C   UNL A   1      36.888  34.218  30.067  1.00  0.00     0.135 A 
ATOM     86  C   UNL A   1      35.320  33.117  31.517  1.00  0.00     0.135 A 
ATOM     87  F   UNL A   1      38.145  34.461  29.666  1.00  0.00    -0.206 F 
ATOM     88  C   UNL A   1      35.846  34.866  29.413  1.00  0.00     0.059 A 
ATOM     89  C   UNL A   1      34.259  33.737  30.865  1.00  0.00     0.059 A 
ATOM     90  F   UNL A   1      35.042  32.269  32.520  1.00  0.00    -0.206 F 
ATOM     91  C   UNL A   1      34.533  34.615  29.816  1.00  0.00     0.060 A 
BRANCH  91  92
ATOM     92  S   UNL A   1      33.183  35.405  28.912  1.00  0.00     0.124 S 
ATOM     93  O   UNL A   1      32.623  34.278  28.175  1.00  0.00    -0.237 OA
ATOM     94  O   UNL A   1      32.356  35.936  29.992  1.00  0.00    -0.237 OA
ATOM     95  O   UNL A   1      33.864  36.413  28.105  1.00  0.00    -0.744 OA
ENDBRANCH  91  92
ENDBRANCH  59  84
BRANCH  71  96
ATOM     96  C   UNL A   1      39.891  34.061  37.265  1.00  0.00     0.058 A 
ATOM     97  C   UNL A   1      40.580  35.282  37.290  1.00  0.00     0.135 A 
ATOM     98  C   UNL A   1      38.991  33.789  38.308  1.00  0.00     0.135 A 
ATOM     99  F   UNL A   1      41.456  35.585  36.319  1.00  0.00    -0.206 F 
ATOM    100  C   UNL A   1      40.395  36.198  38.322  1.00  0.00     0.059 A 
ATOM    101  C   UNL A   1      38.776  34.699  39.338  1.00  0.00     0.059 A 
ATOM    102  F   UNL A   1      38.302  32.638  38.325  1.00  0.00    -0.206 F 
ATOM    103  C   UNL A   1      39.491  35.897  39.342  1.00  0.00     0.060 A 
BRANCH 103 104
ATOM    104  S   UNL A   1      39.230  37.106  40.658  1.00  0.00     0.124 S 
ATOM    105  O   UNL A   1      40.579  37.623  40.852  1.00  0.00    -0.237 OA
ATOM    106  O   UNL A   1      38.278  38.032  40.051  1.00  0.00    -0.237 OA
ATOM    107  O   UNL A   1      38.699  36.303  41.755  1.00  0.00    -0.744 OA
ENDBRANCH 103 104
ENDBRANCH  71  96
ENDBRANCH  45  46
ENDBRANCH  37  40
ENDBRANCH  35  36
ENDBRANCH  34  35
ENDBRANCH  33  34
ENDBRANCH  32  33
ENDBRANCH   1  32
TORSDOF 21
ENDMDL
MODEL 2
REMARK VINA RESULT:     -11.8      6.161     12.015
REMARK SMILES COc1ccc(S(=O)(=O)N2CCC[C@H](C(=O)N3CCC[C@H](C(=O)NCCCCCCNC(=O)c4ccc(-c5c6nc(c(-c7c(F)cc(S(=O)(=O)[O-])cc7F)c7ccc([nH]7)c(-c7c(F)cc(S(=O)(=O)[O-])cc7F)c7nc(c(-c8c(F)cc(S(=O)(=O)[O-])cc8F)c8ccc5[nH]8)C=C7)C=C6)cc4)C3)C2)cc1
REMARK SMILES IDX 26 1 25 2 24 3 22 4 23 5 21 7 17 8 18 9 100 10 19 11 20 12
REMARK SMILES IDX 15 13 16 14 14 15 10 16 11 17 101 18 12 19 13 20 7 21 8 22
REMARK SMILES IDX 9 23 6 24 3 25 4 26 103 27 5 28 102 29 2 30 1 31 27 32 28 33
REMARK SMILES IDX 29 34 30 35 31 36 32 37 33 39 34 40 35 41 99 42 36 43 98 44
REMARK SMILES IDX 37 45 38 46 39 47 92 48 40 49 97 50 91 51 93 52 41 53 96 54
REMARK SMILES IDX 90 55 89 56 42 58 76 59 55 60 75 61 56 62 59 63 74 64 94 65
REMARK SMILES IDX 57 66 58 67 73 69 95 70 60 71 43 72 44 73 53 74 45 75 46 76
REMARK SMILES IDX 52 77 54 78 47 79 48 80 49 81 50 82 51 83 77 84 78 85 87 86
REMARK SMILES IDX 79 87 80 88 86 89 88 90 81 91 82 92 83 93 84 94 85 95 61 96
REMARK SMILES IDX 62 97 71 98 63 99 64 100 70 101 72 102 65 103 66 104 67 105
REMARK SMILES IDX 68 106 69 107
REMARK H PARENT 24 6 31 38 93 57 59 68
REMARK Flexibility Score: inf
ROOT
ATOM      1  C   UNL A   1      32.317  28.690  27.489  1.00  0.00     0.021 C 
ENDROOT
BRANCH   1   2
ATOM      2  C   UNL A   1      32.317  27.456  26.592  1.00  0.00     0.116 C 
BRANCH   2   3
ATOM      3  N   UNL A   1      31.172  26.599  26.793  1.00  0.00    -0.356 N 
ATOM      4  C   UNL A   1      30.567  25.735  25.941  1.00  0.00     0.224 C 
ATOM      5  O   UNL A   1      29.710  24.988  26.429  1.00  0.00    -0.275 OA
ATOM      6  H   UNL A   1      30.766  26.652  27.689  1.00  0.00     0.163 HD
BRANCH   4   7
ATOM      7  C   UNL A   1      30.888  25.630  24.445  1.00  0.00     0.098 C 
ATOM      8  N   UNL A   1      33.254  25.050  23.845  1.00  0.00    -0.342 N 
ATOM      9  C   UNL A   1      33.375  26.204  22.960  1.00  0.00     0.119 C 
ATOM     10  C   UNL A   1      31.913  24.551  24.089  1.00  0.00     0.133 C 
ATOM     11  C   UNL A   1      32.489  27.373  23.373  1.00  0.00     0.022 C 
ATOM     12  C   UNL A   1      31.056  26.960  23.701  1.00  0.00     0.017 C 
BRANCH   8  13
ATOM     13  C   UNL A   1      34.378  24.605  24.508  1.00  0.00     0.227 C 
ATOM     14  O   UNL A   1      34.819  25.230  25.479  1.00  0.00    -0.275 OA
BRANCH  13  15
ATOM     15  C   UNL A   1      35.241  23.488  23.917  1.00  0.00     0.094 C 
ATOM     16  N   UNL A   1      33.724  21.627  24.473  1.00  0.00    -0.197 NA
ATOM     17  C   UNL A   1      34.601  21.083  25.523  1.00  0.00     0.102 C 
ATOM     18  C   UNL A   1      34.297  22.424  23.373  1.00  0.00     0.116 C 
ATOM     19  C   UNL A   1      35.972  21.736  25.666  1.00  0.00     0.018 C 
ATOM     20  C   UNL A   1      36.373  22.823  24.677  1.00  0.00     0.016 C 
BRANCH  16  21
ATOM     21  S   UNL A   1      32.291  20.763  24.154  1.00  0.00     0.243 S 
ATOM     22  O   UNL A   1      31.897  21.029  22.792  1.00  0.00    -0.207 OA
ATOM     23  O   UNL A   1      31.395  21.022  25.267  1.00  0.00    -0.207 OA
BRANCH  21  24
ATOM     24  C   UNL A   1      32.713  19.034  24.252  1.00  0.00     0.082 A 
ATOM     25  C   UNL A   1      33.536  16.383  24.605  1.00  0.00     0.118 A 
ATOM     26  C   UNL A   1      32.858  17.050  25.626  1.00  0.00     0.048 A 
ATOM     27  C   UNL A   1      33.744  17.023  23.384  1.00  0.00     0.048 A 
ATOM     28  C   UNL A   1      32.453  18.378  25.459  1.00  0.00     0.025 A 
ATOM     29  C   UNL A   1      33.337  18.348  23.209  1.00  0.00     0.025 A 
BRANCH  25  30
ATOM     30  O   UNL A   1      33.941  15.109  24.891  1.00  0.00    -0.497 OA
ATOM     31  C   UNL A   1      33.007  14.330  25.631  1.00  0.00     0.278 C 
ENDBRANCH  25  30
ENDBRANCH  21  24
ENDBRANCH  16  21
ENDBRANCH  13  15
ENDBRANCH   8  13
ENDBRANCH   4   7
ENDBRANCH   2   3
ENDBRANCH   1   2
BRANCH   1  32
ATOM     32  C   UNL A   1      33.130  29.864  26.941  1.00  0.00     0.002 C 
BRANCH  32  33
ATOM     33  C   UNL A   1      34.415  30.203  27.708  1.00  0.00     0.002 C 
BRANCH  33  34
ATOM     34  C   UNL A   1      34.822  31.680  27.734  1.00  0.00     0.021 C 
BRANCH  34  35
ATOM     35  C   UNL A   1      35.890  32.059  28.755  1.00  0.00     0.116 C 
BRANCH  35  36
ATOM     36  N   UNL A   1      35.661  31.450  30.056  1.00  0.00    -0.352 N 
ATOM     37  C   UNL A   1      36.421  30.553  30.760  1.00  0.00     0.251 C 
ATOM     38  H   UNL A   1      34.827  31.726  30.500  1.00  0.00     0.163 HD
ATOM     39  O   UNL A   1      35.961  30.043  31.779  1.00  0.00    -0.269 OA
BRANCH  37  40
ATOM     40  C   UNL A   1      37.777  30.181  30.299  1.00  0.00     0.039 A 
ATOM     41  C   UNL A   1      38.785  30.016  31.254  1.00  0.00     0.014 A 
ATOM     42  C   UNL A   1      38.073  30.042  28.940  1.00  0.00     0.014 A 
ATOM     43  C   UNL A   1      40.076  29.664  30.852  1.00  0.00     0.010 A 
ATOM     44  C   UNL A   1      39.346  29.635  28.543  1.00  0.00     0.010 A 
ATOM     45  C   UNL A   1      40.361  29.448  29.495  1.00  0.00    -0.014 A 
BRANCH  45  46
ATOM     46  C   UNL A   1      41.716  29.033  29.053  1.00  0.00     0.031 A 
ATOM     47  C   UNL A   1      42.830  30.041  28.984  1.00  0.00     0.074 A 
ATOM     48  C   UNL A   1      41.927  27.763  28.657  1.00  0.00     0.049 A 
ATOM     49  N   UNL A   1      44.059  29.888  28.562  1.00  0.00    -0.248 NA
ATOM     50  C   UNL A   1      42.513  31.408  29.428  1.00  0.00     0.031 C 
ATOM     51  C   UNL A   1      40.913  26.706  28.634  1.00  0.00     0.029 A 
ATOM     52  N   UNL A   1      43.059  27.148  28.185  1.00  0.00    -0.354 N 
ATOM     53  C   UNL A   1      44.655  31.138  28.668  1.00  0.00     0.074 A 
ATOM     54  C   UNL A   1      43.641  32.049  29.158  1.00  0.00     0.031 C 
ATOM     55  C   UNL A   1      41.472  25.572  28.184  1.00  0.00     0.029 A 
ATOM     56  C   UNL A   1      42.872  25.825  27.859  1.00  0.00     0.049 A 
ATOM     57  H   UNL A   1      43.922  27.610  28.089  1.00  0.00     0.167 HD
ATOM     58  C   UNL A   1      45.934  31.493  28.398  1.00  0.00     0.037 A 
ATOM     59  C   UNL A   1      43.732  24.921  27.351  1.00  0.00     0.037 A 
ATOM     60  C   UNL A   1      46.944  30.577  27.937  1.00  0.00     0.049 A 
ATOM     61  C   UNL A   1      45.153  25.330  27.081  1.00  0.00     0.074 A 
ATOM     62  C   UNL A   1      48.284  30.823  27.691  1.00  0.00     0.029 A 
ATOM     63  N   UNL A   1      46.727  29.237  27.652  1.00  0.00    -0.354 N 
ATOM     64  N   UNL A   1      45.716  26.504  27.242  1.00  0.00    -0.248 NA
ATOM     65  C   UNL A   1      46.058  24.292  26.571  1.00  0.00     0.031 C 
ATOM     66  C   UNL A   1      48.870  29.638  27.230  1.00  0.00     0.029 A 
ATOM     67  C   UNL A   1      47.903  28.645  27.223  1.00  0.00     0.049 A 
ATOM     68  H   UNL A   1      45.862  28.774  27.744  1.00  0.00     0.167 HD
ATOM     69  C   UNL A   1      47.045  26.342  26.871  1.00  0.00     0.074 A 
ATOM     70  C   UNL A   1      47.205  24.953  26.488  1.00  0.00     0.031 C 
ATOM     71  C   UNL A   1      48.043  27.260  26.850  1.00  0.00     0.037 A 
BRANCH  58  72
ATOM     72  C   UNL A   1      46.307  32.936  28.598  1.00  0.00     0.058 A 
ATOM     73  C   UNL A   1      46.203  33.873  27.558  1.00  0.00     0.135 A 
ATOM     74  C   UNL A   1      46.768  33.389  29.845  1.00  0.00     0.135 A 
ATOM     75  F   UNL A   1      45.780  33.491  26.343  1.00  0.00    -0.206 F 
ATOM     76  C   UNL A   1      46.579  35.201  27.735  1.00  0.00     0.059 A 
ATOM     77  C   UNL A   1      47.126  34.719  30.051  1.00  0.00     0.059 A 
ATOM     78  F   UNL A   1      46.885  32.537  30.875  1.00  0.00    -0.206 F 
ATOM     79  C   UNL A   1      47.047  35.613  28.983  1.00  0.00     0.060 A 
BRANCH  79  80
ATOM     80  S   UNL A   1      47.552  37.334  29.195  1.00  0.00     0.124 S 
ATOM     81  O   UNL A   1      47.268  37.547  30.611  1.00  0.00    -0.237 OA
ATOM     82  O   UNL A   1      48.966  37.295  28.832  1.00  0.00    -0.237 OA
ATOM     83  O   UNL A   1      46.689  38.057  28.265  1.00  0.00    -0.744 OA
ENDBRANCH  79  80
ENDBRANCH  58  72
BRANCH  59  84
ATOM     84  C   UNL A   1      43.271  23.532  27.097  1.00  0.00     0.058 A 
ATOM     85  C   UNL A   1      42.934  23.113  25.803  1.00  0.00     0.135 A 
ATOM     86  C   UNL A   1      43.200  22.586  28.131  1.00  0.00     0.135 A 
ATOM     87  F   UNL A   1      42.982  23.984  24.783  1.00  0.00    -0.206 F 
ATOM     88  C   UNL A   1      42.536  21.807  25.540  1.00  0.00     0.059 A 
ATOM     89  C   UNL A   1      42.824  21.267  27.891  1.00  0.00     0.059 A 
ATOM     90  F   UNL A   1      43.527  22.936  29.385  1.00  0.00    -0.206 F 
ATOM     91  C   UNL A   1      42.490  20.889  26.591  1.00  0.00     0.060 A 
BRANCH  91  92
ATOM     92  S   UNL A   1      42.042  19.176  26.228  1.00  0.00     0.124 S 
ATOM     93  O   UNL A   1      42.183  18.551  27.538  1.00  0.00    -0.237 OA
ATOM     94  O   UNL A   1      40.676  19.313  25.729  1.00  0.00    -0.237 OA
ATOM     95  O   UNL A   1      43.027  18.777  25.227  1.00  0.00    -0.744 OA
ENDBRANCH  91  92
ENDBRANCH  59  84
BRANCH  71  96
ATOM     96  C   UNL A   1      49.404  26.787  26.422  1.00  0.00     0.058 A 
ATOM     97  C   UNL A   1      50.280  26.160  27.319  1.00  0.00     0.135 A 
ATOM     98  C   UNL A   1      49.813  26.920  25.085  1.00  0.00     0.135 A 
ATOM     99  F   UNL A   1      49.937  26.016  28.610  1.00  0.00    -0.206 F 
ATOM    100  C   UNL A   1      51.526  25.694  26.911  1.00  0.00     0.059 A 
ATOM    101  C   UNL A   1      51.046  26.443  24.651  1.00  0.00     0.059 A 
ATOM    102  F   UNL A   1      49.007  27.506  24.185  1.00  0.00    -0.206 F 
ATOM    103  C   UNL A   1      51.900  25.840  25.574  1.00  0.00     0.060 A 
BRANCH 103 104
ATOM    104  S   UNL A   1      53.503  25.199  25.044  1.00  0.00     0.124 S 
ATOM    105  O   UNL A   1      53.530  25.601  23.642  1.00  0.00    -0.237 OA
ATOM    106  O   UNL A   1      54.431  25.904  25.924  1.00  0.00    -0.237 OA
ATOM    107  O   UNL A   1      53.390  23.764  25.286  1.00  0.00    -0.744 OA
ENDBRANCH 103 104
ENDBRANCH  71  96
ENDBRANCH  45  46
ENDBRANCH  37  40
ENDBRANCH  35  36
ENDBRANCH  34  35
ENDBRANCH  33  34
ENDBRANCH  32  33
ENDBRANCH   1  32
TORSDOF 21
ENDMDL
MODEL 3
REMARK VINA RESULT:     -11.8      0.524      7.727
REMARK SMILES COc1ccc(S(=O)(=O)N2CCC[C@H](C(=O)N3CCC[C@H](C(=O)NCCCCCCNC(=O)c4ccc(-c5c6nc(c(-c7c(F)cc(S(=O)(=O)[O-])cc7F)c7ccc([nH]7)c(-c7c(F)cc(S(=O)(=O)[O-])cc7F)c7nc(c(-c8c(F)cc(S(=O)(=O)[O-])cc8F)c8ccc5[nH]8)C=C7)C=C6)cc4)C3)C2)cc1
REMARK SMILES IDX 26 1 25 2 24 3 22 4 23 5 21 7 17 8 18 9 100 10 19 11 20 12
REMARK SMILES IDX 15 13 16 14 14 15 10 16 11 17 101 18 12 19 13 20 7 21 8 22
REMARK SMILES IDX 9 23 6 24 3 25 4 26 103 27 5 28 102 29 2 30 1 31 27 32 28 33
REMARK SMILES IDX 29 34 30 35 31 36 32 37 33 39 34 40 35 41 99 42 36 43 98 44
REMARK SMILES IDX 37 45 38 46 39 47 92 48 40 49 97 50 91 51 93 52 41 53 96 54
REMARK SMILES IDX 90 55 89 56 42 58 76 59 55 60 75 61 56 62 59 63 74 64 94 65
REMARK SMILES IDX 57 66 58 67 73 69 95 70 60 71 43 72 44 73 53 74 45 75 46 76
REMARK SMILES IDX 52 77 54 78 47 79 48 80 49 81 50 82 51 83 77 84 78 85 87 86
REMARK SMILES IDX 79 87 80 88 86 89 88 90 81 91 82 92 83 93 84 94 85 95 61 96
REMARK SMILES IDX 62 97 71 98 63 99 64 100 70 101 72 102 65 103 66 104 67 105
REMARK SMILES IDX 68 106 69 107
REMARK H PARENT 24 6 31 38 93 57 59 68
REMARK Flexibility Score: inf
ROOT
ATOM      1  C   UNL A   1      38.128  23.276  26.303  1.00  0.00     0.021 C 
ENDROOT
BRANCH   1   2
ATOM      2  C   UNL A   1      36.719  23.636  25.843  1.00  0.00     0.116 C 
BRANCH   2   3
ATOM      3  N   UNL A   1      35.682  23.065  26.668  1.00  0.00    -0.356 N 
ATOM      4  C   UNL A   1      34.856  22.014  26.432  1.00  0.00     0.224 C 
ATOM      5  O   UNL A   1      34.177  21.620  27.388  1.00  0.00    -0.275 OA
ATOM      6  H   UNL A   1      35.552  23.506  27.538  1.00  0.00     0.163 HD
BRANCH   4   7
ATOM      7  C   UNL A   1      34.731  21.302  25.080  1.00  0.00     0.098 C 
ATOM      8  N   UNL A   1      33.111  22.290  23.439  1.00  0.00    -0.342 N 
ATOM      9  C   UNL A   1      32.426  21.014  23.256  1.00  0.00     0.119 C 
ATOM     10  C   UNL A   1      34.490  22.232  23.890  1.00  0.00     0.133 C 
ATOM     11  C   UNL A   1      32.499  20.113  24.482  1.00  0.00     0.022 C 
ATOM     12  C   UNL A   1      33.902  20.011  25.077  1.00  0.00     0.017 C 
BRANCH   8  13
ATOM     13  C   UNL A   1      32.382  23.454  23.325  1.00  0.00     0.227 C 
ATOM     14  O   UNL A   1      32.833  24.414  22.690  1.00  0.00    -0.275 OA
BRANCH  13  15
ATOM     15  C   UNL A   1      31.130  23.677  24.176  1.00  0.00     0.094 C 
ATOM     16  N   UNL A   1      31.401  26.110  24.457  1.00  0.00    -0.197 NA
ATOM     17  C   UNL A   1      31.758  26.015  25.881  1.00  0.00     0.102 C 
ATOM     18  C   UNL A   1      30.584  25.055  23.829  1.00  0.00     0.116 C 
ATOM     19  C   UNL A   1      31.649  24.633  26.516  1.00  0.00     0.018 C 
ATOM     20  C   UNL A   1      31.103  23.483  25.681  1.00  0.00     0.016 C 
BRANCH  16  21
ATOM     21  S   UNL A   1      31.300  27.678  23.798  1.00  0.00     0.243 S 
ATOM     22  O   UNL A   1      29.909  28.056  23.742  1.00  0.00    -0.207 OA
ATOM     23  O   UNL A   1      32.135  27.684  22.611  1.00  0.00    -0.207 OA
BRANCH  21  24
ATOM     24  C   UNL A   1      32.094  28.766  24.966  1.00  0.00     0.082 A 
ATOM     25  C   UNL A   1      33.395  30.259  26.943  1.00  0.00     0.118 A 
ATOM     26  C   UNL A   1      34.098  29.305  26.206  1.00  0.00     0.048 A 
ATOM     27  C   UNL A   1      32.057  30.510  26.644  1.00  0.00     0.048 A 
ATOM     28  C   UNL A   1      33.451  28.549  25.224  1.00  0.00     0.025 A 
ATOM     29  C   UNL A   1      31.406  29.762  25.661  1.00  0.00     0.025 A 
BRANCH  25  30
ATOM     30  O   UNL A   1      34.105  30.901  27.920  1.00  0.00    -0.497 OA
ATOM     31  C   UNL A   1      35.519  30.873  27.755  1.00  0.00     0.278 C 
ENDBRANCH  25  30
ENDBRANCH  21  24
ENDBRANCH  16  21
ENDBRANCH  13  15
ENDBRANCH   8  13
ENDBRANCH   4   7
ENDBRANCH   2   3
ENDBRANCH   1   2
BRANCH   1  32
ATOM     32  C   UNL A   1      38.633  21.929  25.783  1.00  0.00     0.002 C 
BRANCH  32  33
ATOM     33  C   UNL A   1      40.005  21.483  26.304  1.00  0.00     0.002 C 
BRANCH  33  34
ATOM     34  C   UNL A   1      40.526  22.205  27.551  1.00  0.00     0.021 C 
BRANCH  34  35
ATOM     35  C   UNL A   1      41.797  23.028  27.364  1.00  0.00     0.116 C 
BRANCH  35  36
ATOM     36  N   UNL A   1      41.732  23.899  26.201  1.00  0.00    -0.352 N 
ATOM     37  C   UNL A   1      41.438  25.234  26.109  1.00  0.00     0.251 C 
ATOM     38  H   UNL A   1      41.931  23.458  25.344  1.00  0.00     0.163 HD
ATOM     39  O   UNL A   1      41.284  25.742  25.001  1.00  0.00    -0.269 OA
BRANCH  37  40
ATOM     40  C   UNL A   1      41.288  26.063  27.326  1.00  0.00     0.039 A 
ATOM     41  C   UNL A   1      42.250  27.042  27.589  1.00  0.00     0.014 A 
ATOM     42  C   UNL A   1      40.241  25.852  28.228  1.00  0.00     0.014 A 
ATOM     43  C   UNL A   1      42.138  27.842  28.729  1.00  0.00     0.010 A 
ATOM     44  C   UNL A   1      40.097  26.688  29.334  1.00  0.00     0.010 A 
ATOM     45  C   UNL A   1      41.047  27.687  29.599  1.00  0.00    -0.014 A 
BRANCH  45  46
ATOM     46  C   UNL A   1      40.888  28.556  30.792  1.00  0.00     0.031 A 
ATOM     47  C   UNL A   1      39.828  29.621  30.815  1.00  0.00     0.074 A 
ATOM     48  C   UNL A   1      41.738  28.425  31.828  1.00  0.00     0.049 A 
ATOM     49  N   UNL A   1      39.578  30.520  31.732  1.00  0.00    -0.248 NA
ATOM     50  C   UNL A   1      38.946  29.703  29.639  1.00  0.00     0.031 C 
ATOM     51  C   UNL A   1      42.837  27.459  31.901  1.00  0.00     0.029 A 
ATOM     52  N   UNL A   1      41.822  29.114  33.011  1.00  0.00    -0.354 N 
ATOM     53  C   UNL A   1      38.528  31.285  31.239  1.00  0.00     0.074 A 
ATOM     54  C   UNL A   1      38.213  30.770  29.923  1.00  0.00     0.031 C 
ATOM     55  C   UNL A   1      43.476  27.609  33.073  1.00  0.00     0.029 A 
ATOM     56  C   UNL A   1      42.853  28.697  33.820  1.00  0.00     0.049 A 
ATOM     57  H   UNL A   1      41.201  29.837  33.258  1.00  0.00     0.167 HD
ATOM     58  C   UNL A   1      37.874  32.311  31.834  1.00  0.00     0.037 A 
ATOM     59  C   UNL A   1      43.254  29.146  35.025  1.00  0.00     0.037 A 
ATOM     60  C   UNL A   1      38.175  32.801  33.154  1.00  0.00     0.049 A 
ATOM     61  C   UNL A   1      42.500  30.271  35.678  1.00  0.00     0.074 A 
ATOM     62  C   UNL A   1      37.534  33.796  33.871  1.00  0.00     0.029 A 
ATOM     63  N   UNL A   1      39.204  32.331  33.958  1.00  0.00    -0.354 N 
ATOM     64  N   UNL A   1      41.471  30.946  35.221  1.00  0.00    -0.248 NA
ATOM     65  C   UNL A   1      42.952  30.690  37.011  1.00  0.00     0.031 C 
ATOM     66  C   UNL A   1      38.193  33.947  35.097  1.00  0.00     0.029 A 
ATOM     67  C   UNL A   1      39.223  33.022  35.158  1.00  0.00     0.049 A 
ATOM     68  H   UNL A   1      39.828  31.610  33.711  1.00  0.00     0.167 HD
ATOM     69  C   UNL A   1      41.142  31.856  36.219  1.00  0.00     0.074 A 
ATOM     70  C   UNL A   1      42.073  31.637  37.308  1.00  0.00     0.031 C 
ATOM     71  C   UNL A   1      40.156  32.787  36.232  1.00  0.00     0.037 A 
BRANCH  58  72
ATOM     72  C   UNL A   1      36.768  32.970  31.056  1.00  0.00     0.058 A 
ATOM     73  C   UNL A   1      37.039  33.886  30.027  1.00  0.00     0.135 A 
ATOM     74  C   UNL A   1      35.424  32.677  31.337  1.00  0.00     0.135 A 
ATOM     75  F   UNL A   1      38.306  34.211  29.726  1.00  0.00    -0.206 F 
ATOM     76  C   UNL A   1      36.015  34.519  29.329  1.00  0.00     0.059 A 
ATOM     77  C   UNL A   1      34.384  33.280  30.634  1.00  0.00     0.059 A 
ATOM     78  F   UNL A   1      35.109  31.807  32.309  1.00  0.00    -0.206 F 
ATOM     79  C   UNL A   1      34.690  34.215  29.646  1.00  0.00     0.060 A 
BRANCH  79  80
ATOM     80  S   UNL A   1      33.370  35.058  28.748  1.00  0.00     0.124 S 
ATOM     81  O   UNL A   1      32.807  33.963  27.964  1.00  0.00    -0.237 OA
ATOM     82  O   UNL A   1      32.525  35.562  29.827  1.00  0.00    -0.237 OA
ATOM     83  O   UNL A   1      34.078  36.079  27.983  1.00  0.00    -0.744 OA
ENDBRANCH  79  80
ENDBRANCH  58  72
BRANCH  59  84
ATOM     84  C   UNL A   1      44.411  28.504  35.701  1.00  0.00     0.058 A 
ATOM     85  C   UNL A   1      45.719  28.949  35.462  1.00  0.00     0.135 A 
ATOM     86  C   UNL A   1      44.231  27.465  36.626  1.00  0.00     0.135 A 
ATOM     87  F   UNL A   1      45.940  29.936  34.581  1.00  0.00    -0.206 F 
ATOM     88  C   UNL A   1      46.810  28.384  36.113  1.00  0.00     0.059 A 
ATOM     89  C   UNL A   1      45.304  26.897  37.306  1.00  0.00     0.059 A 
ATOM     90  F   UNL A   1      42.996  27.015  36.899  1.00  0.00    -0.206 F 
ATOM     91  C   UNL A   1      46.592  27.361  37.038  1.00  0.00     0.060 A 
BRANCH  91  92
ATOM     92  S   UNL A   1      48.009  26.684  37.932  1.00  0.00     0.124 S 
ATOM     93  O   UNL A   1      47.431  26.425  39.245  1.00  0.00    -0.237 OA
ATOM     94  O   UNL A   1      48.341  25.505  37.137  1.00  0.00    -0.237 OA
ATOM     95  O   UNL A   1      48.989  27.764  37.874  1.00  0.00    -0.744 OA
ENDBRANCH  91  92
ENDBRANCH  59  84
BRANCH  71  96
ATOM     96  C   UNL A   1      40.017  33.625  37.471  1.00  0.00     0.058 A 
ATOM     97  C   UNL A   1      40.739  34.815  37.638  1.00  0.00     0.135 A 
ATOM     98  C   UNL A   1      39.113  33.255  38.481  1.00  0.00     0.135 A 
ATOM     99  F   UNL A   1      41.621  35.208  36.704  1.00  0.00    -0.206 F 
ATOM    100  C   UNL A   1      40.584  35.606  38.772  1.00  0.00     0.059 A 
ATOM    101  C   UNL A   1      38.927  34.041  39.614  1.00  0.00     0.059 A 
ATOM    102  F   UNL A   1      38.393  32.129  38.365  1.00  0.00    -0.206 F 
ATOM    103  C   UNL A   1      39.675  35.210  39.755  1.00  0.00     0.060 A 
BRANCH 103 104
ATOM    104  S   UNL A   1      39.452  36.260  41.207  1.00  0.00     0.124 S 
ATOM    105  O   UNL A   1      39.792  37.574  40.673  1.00  0.00    -0.237 OA
ATOM    106  O   UNL A   1      38.043  36.054  41.533  1.00  0.00    -0.237 OA
ATOM    107  O   UNL A   1      40.397  35.708  42.172  1.00  0.00    -0.744 OA
ENDBRANCH 103 104
ENDBRANCH  71  96
ENDBRANCH  45  46
ENDBRANCH  37  40
ENDBRANCH  35  36
ENDBRANCH  34  35
ENDBRANCH  33  34
ENDBRANCH  32  33
ENDBRANCH   1  32
TORSDOF 21
ENDMDL
