MODEL 1
REMARK VINA RESULT:     -11.8      0.000      0.000
REMARK SMILES Cc1ccc(Cl)c(Nc2ccccc2C(=O)N[C@@H](C)C(=O)NCCCCCCNC(=O)c2ccc(-c3c4nc(c(-c5c(F)cc(S(=O)(=O)[O-])cc5F)c5ccc([nH]5)c(-c5c(F)cc(S(=O)(=O)[O-])cc5F)c5nc(c(-c6c(F)cc(S(=O)(=O)[O-])cc6F)c6ccc3[nH]6)C=C5)C=C4)cc2)c1Cl
REMARK SMILES IDX 25 1 24 2 23 3 22 4 20 5 21 6 18 8 19 9 17 10 15 11 16 12
REMARK SMILES IDX 14 14 9 15 10 16 11 17 13 18 12 19 8 20 7 22 1 23 2 24 3 25
REMARK SMILES IDX 98 26 4 27 99 28 5 29 6 30 26 31 27 32 28 33 29 34 30 35
REMARK SMILES IDX 31 37 32 38 33 39 97 40 34 41 96 42 35 43 36 44 37 45 90 46
REMARK SMILES IDX 38 47 95 48 89 49 91 50 39 51 94 52 88 53 87 54 40 56 74 57
REMARK SMILES IDX 53 58 73 59 54 60 57 61 72 62 92 63 55 64 56 65 71 67 93 68
REMARK SMILES IDX 58 69 41 70 42 71 51 72 43 73 44 74 50 75 52 76 45 77 46 78
REMARK SMILES IDX 47 79 48 80 49 81 75 82 76 83 85 84 77 85 78 86 84 87 86 88
REMARK SMILES IDX 79 89 80 90 81 91 82 92 83 93 59 94 60 95 69 96 61 97 62 98
REMARK SMILES IDX 68 99 70 100 63 101 64 102 65 103 66 104 67 105
REMARK H PARENT 22 7 17 13 8 21 29 36 91 55 57 66
REMARK Flexibility Score: inf
ROOT
ATOM      1  C   UNL A   1      39.789  22.542  26.875  1.00  0.00     0.002 C 
ENDROOT
BRANCH   1   2
ATOM      2  C   UNL A   1      39.429  21.398  25.918  1.00  0.00     0.021 C 
BRANCH   2   3
ATOM      3  C   UNL A   1      38.080  21.538  25.200  1.00  0.00     0.116 C 
BRANCH   3   4
ATOM      4  N   UNL A   1      37.742  22.915  24.909  1.00  0.00    -0.354 N 
ATOM      5  C   UNL A   1      36.658  23.102  24.104  1.00  0.00     0.242 C 
ATOM      6  O   UNL A   1      36.834  23.014  22.890  1.00  0.00    -0.273 OA
ATOM      7  H   UNL A   1      38.263  23.670  25.270  1.00  0.00     0.163 HD
BRANCH   5   8
ATOM      8  C   UNL A   1      35.279  23.365  24.747  1.00  0.00     0.168 C 
ATOM      9  C   UNL A   1      35.113  22.883  26.181  1.00  0.00     0.041 C 
BRANCH   8  10
ATOM     10  N   UNL A   1      34.352  22.729  23.829  1.00  0.00    -0.340 N 
ATOM     11  C   UNL A   1      33.092  23.178  23.495  1.00  0.00     0.254 C 
ATOM     12  O   UNL A   1      32.770  23.060  22.308  1.00  0.00    -0.269 OA
ATOM     13  H   UNL A   1      34.653  21.894  23.402  1.00  0.00     0.164 HD
BRANCH  11  14
ATOM     14  C   UNL A   1      32.027  23.495  24.501  1.00  0.00     0.063 A 
ATOM     15  C   UNL A   1      31.411  24.715  24.856  1.00  0.00     0.051 A 
ATOM     16  C   UNL A   1      30.529  24.714  25.966  1.00  0.00     0.027 A 
ATOM     17  C   UNL A   1      30.190  23.549  26.653  1.00  0.00     0.002 A 
ATOM     18  C   UNL A   1      31.644  22.322  25.202  1.00  0.00     0.016 A 
ATOM     19  C   UNL A   1      30.730  22.342  26.252  1.00  0.00     0.001 A 
BRANCH  15  20
ATOM     20  N   UNL A   1      31.466  25.955  24.186  1.00  0.00    -0.352 N 
ATOM     21  H   UNL A   1      31.192  25.892  23.243  1.00  0.00     0.167 HD
BRANCH  20  22
ATOM     22  C   UNL A   1      31.829  27.274  24.569  1.00  0.00     0.077 A 
ATOM     23  C   UNL A   1      33.972  29.207  27.090  1.00  0.00     0.046 C 
ATOM     24  C   UNL A   1      33.008  28.913  25.970  1.00  0.00    -0.030 A 
ATOM     25  C   UNL A   1      32.108  29.915  25.574  1.00  0.00     0.006 A 
ATOM     26  C   UNL A   1      32.907  27.614  25.413  1.00  0.00     0.069 A 
ATOM     27  C   UNL A   1      31.106  29.632  24.655  1.00  0.00     0.023 A 
ATOM     28  Cl  UNL A   1      34.181  26.482  25.751  1.00  0.00    -0.082 Cl
ATOM     29  C   UNL A   1      30.961  28.328  24.178  1.00  0.00     0.066 A 
ATOM     30  Cl  UNL A   1      29.613  28.018  23.126  1.00  0.00    -0.082 Cl
ENDBRANCH  20  22
ENDBRANCH  15  20
ENDBRANCH  11  14
ENDBRANCH   8  10
ENDBRANCH   5   8
ENDBRANCH   3   4
ENDBRANCH   2   3
ENDBRANCH   1   2
BRANCH   1  31
ATOM     31  C   UNL A   1      40.786  22.186  27.981  1.00  0.00     0.002 C 
BRANCH  31  32
ATOM     32  C   UNL A   1      42.241  22.064  27.531  1.00  0.00     0.021 C 
BRANCH  32  33
ATOM     33  C   UNL A   1      43.002  23.379  27.490  1.00  0.00     0.116 C 
BRANCH  33  34
ATOM     34  N   UNL A   1      42.767  24.105  26.260  1.00  0.00    -0.352 N 
ATOM     35  C   UNL A   1      42.200  25.349  26.114  1.00  0.00     0.251 C 
ATOM     36  H   UNL A   1      43.045  23.655  25.430  1.00  0.00     0.163 HD
ATOM     37  O   UNL A   1      41.877  25.757  25.009  1.00  0.00    -0.269 OA
BRANCH  35  38
ATOM     38  C   UNL A   1      41.958  26.168  27.324  1.00  0.00     0.039 A 
ATOM     39  C   UNL A   1      42.826  27.221  27.609  1.00  0.00     0.014 A 
ATOM     40  C   UNL A   1      40.856  25.917  28.149  1.00  0.00     0.014 A 
ATOM     41  C   UNL A   1      42.569  28.047  28.705  1.00  0.00     0.010 A 
ATOM     42  C   UNL A   1      40.551  26.795  29.185  1.00  0.00     0.010 A 
ATOM     43  C   UNL A   1      41.417  27.857  29.488  1.00  0.00    -0.014 A 
BRANCH  43  44
ATOM     44  C   UNL A   1      41.127  28.743  30.645  1.00  0.00     0.031 A 
ATOM     45  C   UNL A   1      41.932  28.615  31.911  1.00  0.00     0.074 A 
ATOM     46  C   UNL A   1      40.124  29.640  30.567  1.00  0.00     0.049 A 
ATOM     47  N   UNL A   1      41.826  29.288  33.028  1.00  0.00    -0.248 NA
ATOM     48  C   UNL A   1      42.976  27.578  31.936  1.00  0.00     0.031 C 
ATOM     49  C   UNL A   1      39.238  29.822  29.414  1.00  0.00     0.029 A 
ATOM     50  N   UNL A   1      39.678  30.569  31.475  1.00  0.00    -0.354 N 
ATOM     51  C   UNL A   1      42.780  28.752  33.886  1.00  0.00     0.074 A 
ATOM     52  C   UNL A   1      43.410  27.654  33.185  1.00  0.00     0.031 C 
ATOM     53  C   UNL A   1      38.379  30.821  29.671  1.00  0.00     0.029 A 
ATOM     54  C   UNL A   1      38.624  31.326  31.019  1.00  0.00     0.049 A 
ATOM     55  H   UNL A   1      40.074  30.680  32.369  1.00  0.00     0.167 HD
ATOM     56  C   UNL A   1      43.121  29.153  35.134  1.00  0.00     0.037 A 
ATOM     57  C   UNL A   1      37.933  32.315  31.619  1.00  0.00     0.037 A 
ATOM     58  C   UNL A   1      42.504  30.261  35.815  1.00  0.00     0.049 A 
ATOM     59  C   UNL A   1      38.328  32.743  33.007  1.00  0.00     0.074 A 
ATOM     60  C   UNL A   1      42.813  30.786  37.057  1.00  0.00     0.029 A 
ATOM     61  N   UNL A   1      41.447  31.010  35.317  1.00  0.00    -0.354 N 
ATOM     62  N   UNL A   1      39.281  32.272  33.776  1.00  0.00    -0.248 NA
ATOM     63  C   UNL A   1      37.560  33.843  33.607  1.00  0.00     0.031 C 
ATOM     64  C   UNL A   1      41.910  31.817  37.334  1.00  0.00     0.029 A 
ATOM     65  C   UNL A   1      41.077  31.977  36.237  1.00  0.00     0.049 A 
ATOM     66  H   UNL A   1      41.024  30.875  34.438  1.00  0.00     0.167 HD
ATOM     67  C   UNL A   1      39.247  33.037  34.937  1.00  0.00     0.074 A 
ATOM     68  C   UNL A   1      38.188  34.009  34.763  1.00  0.00     0.031 C 
ATOM     69  C   UNL A   1      40.023  32.943  36.047  1.00  0.00     0.037 A 
BRANCH  56  70
ATOM     70  C   UNL A   1      44.212  28.393  35.840  1.00  0.00     0.058 A 
ATOM     71  C   UNL A   1      45.567  28.739  35.698  1.00  0.00     0.135 A 
ATOM     72  C   UNL A   1      43.899  27.327  36.698  1.00  0.00     0.135 A 
ATOM     73  F   UNL A   1      45.927  29.740  34.878  1.00  0.00    -0.206 F 
ATOM     74  C   UNL A   1      46.571  28.036  36.354  1.00  0.00     0.059 A 
ATOM     75  C   UNL A   1      44.885  26.631  37.391  1.00  0.00     0.059 A 
ATOM     76  F   UNL A   1      42.621  26.952  36.872  1.00  0.00    -0.206 F 
ATOM     77  C   UNL A   1      46.220  26.984  37.200  1.00  0.00     0.060 A 
BRANCH  77  78
ATOM     78  S   UNL A   1      47.537  26.089  38.053  1.00  0.00     0.124 S 
ATOM     79  O   UNL A   1      46.967  25.939  39.389  1.00  0.00    -0.237 OA
ATOM     80  O   UNL A   1      47.639  24.864  37.268  1.00  0.00    -0.237 OA
ATOM     81  O   UNL A   1      48.679  26.991  37.956  1.00  0.00    -0.744 OA
ENDBRANCH  77  78
ENDBRANCH  56  70
BRANCH  57  82
ATOM     82  C   UNL A   1      36.812  32.982  30.901  1.00  0.00     0.058 A 
ATOM     83  C   UNL A   1      35.480  32.602  31.125  1.00  0.00     0.135 A 
ATOM     84  C   UNL A   1      37.049  34.022  29.988  1.00  0.00     0.135 A 
ATOM     85  F   UNL A   1      35.200  31.610  31.984  1.00  0.00    -0.206 F 
ATOM     86  C   UNL A   1      34.425  33.214  30.456  1.00  0.00     0.059 A 
ATOM     87  C   UNL A   1      36.009  34.668  29.329  1.00  0.00     0.059 A 
ATOM     88  F   UNL A   1      38.303  34.436  29.752  1.00  0.00    -0.206 F 
ATOM     89  C   UNL A   1      34.699  34.250  29.561  1.00  0.00     0.060 A 
BRANCH  89  90
ATOM     90  S   UNL A   1      33.319  35.071  28.735  1.00  0.00     0.124 S 
ATOM     91  O   UNL A   1      32.565  35.592  29.870  1.00  0.00    -0.237 OA
ATOM     92  O   UNL A   1      34.003  36.064  27.911  1.00  0.00    -0.237 OA
ATOM     93  O   UNL A   1      32.679  33.988  27.995  1.00  0.00    -0.744 OA
ENDBRANCH  89  90
ENDBRANCH  57  82
BRANCH  69  94
ATOM     94  C   UNL A   1      39.783  33.941  37.146  1.00  0.00     0.058 A 
ATOM     95  C   UNL A   1      38.934  33.664  38.229  1.00  0.00     0.135 A 
ATOM     96  C   UNL A   1      40.453  35.177  37.139  1.00  0.00     0.135 A 
ATOM     97  F   UNL A   1      38.266  32.501  38.283  1.00  0.00    -0.206 F 
ATOM     98  C   UNL A   1      38.734  34.586  39.251  1.00  0.00     0.059 A 
ATOM     99  C   UNL A   1      40.294  36.101  38.167  1.00  0.00     0.059 A 
ATOM    100  F   UNL A   1      41.287  35.488  36.134  1.00  0.00    -0.206 F 
ATOM    101  C   UNL A   1      39.421  35.802  39.211  1.00  0.00     0.060 A 
BRANCH 101 102
ATOM    102  S   UNL A   1      39.172  36.978  40.558  1.00  0.00     0.124 S 
ATOM    103  O   UNL A   1      40.530  37.462  40.780  1.00  0.00    -0.237 OA
ATOM    104  O   UNL A   1      38.245  37.938  39.968  1.00  0.00    -0.237 OA
ATOM    105  O   UNL A   1      38.616  36.156  41.629  1.00  0.00    -0.744 OA
ENDBRANCH 101 102
ENDBRANCH  69  94
ENDBRANCH  43  44
ENDBRANCH  35  38
ENDBRANCH  33  34
ENDBRANCH  32  33
ENDBRANCH  31  32
ENDBRANCH   1  31
TORSDOF 20
ENDMDL
MODEL 2
REMARK VINA RESULT:     -11.7      1.595      2.440
REMARK SMILES Cc1ccc(Cl)c(Nc2ccccc2C(=O)N[C@@H](C)C(=O)NCCCCCCNC(=O)c2ccc(-c3c4nc(c(-c5c(F)cc(S(=O)(=O)[O-])cc5F)c5ccc([nH]5)c(-c5c(F)cc(S(=O)(=O)[O-])cc5F)c5nc(c(-c6c(F)cc(S(=O)(=O)[O-])cc6F)c6ccc3[nH]6)C=C5)C=C4)cc2)c1Cl
REMARK SMILES IDX 25 1 24 2 23 3 22 4 20 5 21 6 18 8 19 9 17 10 15 11 16 12
REMARK SMILES IDX 14 14 9 15 10 16 11 17 13 18 12 19 8 20 7 22 1 23 2 24 3 25
REMARK SMILES IDX 98 26 4 27 99 28 5 29 6 30 26 31 27 32 28 33 29 34 30 35
REMARK SMILES IDX 31 37 32 38 33 39 97 40 34 41 96 42 35 43 36 44 37 45 90 46
REMARK SMILES IDX 38 47 95 48 89 49 91 50 39 51 94 52 88 53 87 54 40 56 74 57
REMARK SMILES IDX 53 58 73 59 54 60 57 61 72 62 92 63 55 64 56 65 71 67 93 68
REMARK SMILES IDX 58 69 41 70 42 71 51 72 43 73 44 74 50 75 52 76 45 77 46 78
REMARK SMILES IDX 47 79 48 80 49 81 75 82 76 83 85 84 77 85 78 86 84 87 86 88
REMARK SMILES IDX 79 89 80 90 81 91 82 92 83 93 59 94 60 95 69 96 61 97 62 98
REMARK SMILES IDX 68 99 70 100 63 101 64 102 65 103 66 104 67 105
REMARK H PARENT 22 7 17 13 8 21 29 36 91 55 57 66
REMARK Flexibility Score: inf
ROOT
ATOM      1  C   UNL A   1      41.602  22.012  28.004  1.00  0.00     0.002 C 
ENDROOT
BRANCH   1   2
ATOM      2  C   UNL A   1      41.111  22.436  26.614  1.00  0.00     0.021 C 
BRANCH   2   3
ATOM      3  C   UNL A   1      39.898  21.663  26.079  1.00  0.00     0.116 C 
BRANCH   3   4
ATOM      4  N   UNL A   1      38.645  22.149  26.614  1.00  0.00    -0.354 N 
ATOM      5  C   UNL A   1      37.891  22.905  25.766  1.00  0.00     0.242 C 
ATOM      6  O   UNL A   1      38.175  24.098  25.668  1.00  0.00    -0.273 OA
ATOM      7  H   UNL A   1      38.354  21.948  27.534  1.00  0.00     0.163 HD
BRANCH   5   8
ATOM      8  C   UNL A   1      36.768  22.228  24.950  1.00  0.00     0.168 C 
ATOM      9  C   UNL A   1      36.577  22.742  23.531  1.00  0.00     0.041 C 
BRANCH   8  10
ATOM     10  N   UNL A   1      35.591  22.411  25.779  1.00  0.00    -0.340 N 
ATOM     11  C   UNL A   1      34.732  21.423  26.212  1.00  0.00     0.254 C 
ATOM     12  O   UNL A   1      34.324  21.529  27.373  1.00  0.00    -0.269 OA
ATOM     13  H   UNL A   1      35.386  23.332  26.062  1.00  0.00     0.164 HD
BRANCH  11  14
ATOM     14  C   UNL A   1      34.053  20.451  25.296  1.00  0.00     0.063 A 
ATOM     15  C   UNL A   1      32.748  20.431  24.757  1.00  0.00     0.051 A 
ATOM     16  C   UNL A   1      32.350  19.281  24.028  1.00  0.00     0.027 A 
ATOM     17  C   UNL A   1      33.220  18.226  23.758  1.00  0.00     0.002 A 
ATOM     18  C   UNL A   1      34.924  19.375  24.983  1.00  0.00     0.016 A 
ATOM     19  C   UNL A   1      34.522  18.285  24.215  1.00  0.00     0.001 A 
BRANCH  15  20
ATOM     20  N   UNL A   1      31.785  21.460  24.750  1.00  0.00    -0.352 N 
ATOM     21  H   UNL A   1      30.863  21.121  24.815  1.00  0.00     0.167 HD
BRANCH  20  22
ATOM     22  C   UNL A   1      31.847  22.877  24.670  1.00  0.00     0.077 A 
ATOM     23  C   UNL A   1      33.823  25.727  23.038  1.00  0.00     0.046 C 
ATOM     24  C   UNL A   1      32.814  24.997  23.887  1.00  0.00    -0.030 A 
ATOM     25  C   UNL A   1      32.211  25.678  24.955  1.00  0.00     0.006 A 
ATOM     26  C   UNL A   1      32.574  23.611  23.710  1.00  0.00     0.069 A 
ATOM     27  C   UNL A   1      31.397  24.997  25.850  1.00  0.00     0.023 A 
ATOM     28  Cl  UNL A   1      33.146  22.867  22.247  1.00  0.00    -0.082 Cl
ATOM     29  C   UNL A   1      31.236  23.616  25.717  1.00  0.00     0.066 A 
ATOM     30  Cl  UNL A   1      30.303  22.809  26.942  1.00  0.00    -0.082 Cl
ENDBRANCH  20  22
ENDBRANCH  15  20
ENDBRANCH  11  14
ENDBRANCH   8  10
ENDBRANCH   5   8
ENDBRANCH   3   4
ENDBRANCH   2   3
ENDBRANCH   1   2
BRANCH   1  31
ATOM     31  C   UNL A   1      42.685  22.903  28.620  1.00  0.00     0.002 C 
BRANCH  31  32
ATOM     32  C   UNL A   1      43.999  22.962  27.842  1.00  0.00     0.021 C 
BRANCH  32  33
ATOM     33  C   UNL A   1      44.404  24.355  27.391  1.00  0.00     0.116 C 
BRANCH  33  34
ATOM     34  N   UNL A   1      43.774  24.728  26.142  1.00  0.00    -0.352 N 
ATOM     35  C   UNL A   1      42.764  25.639  25.949  1.00  0.00     0.251 C 
ATOM     36  H   UNL A   1      44.108  24.273  25.335  1.00  0.00     0.163 HD
ATOM     37  O   UNL A   1      42.188  25.709  24.874  1.00  0.00    -0.269 OA
BRANCH  35  38
ATOM     38  C   UNL A   1      42.365  26.510  27.080  1.00  0.00     0.039 A 
ATOM     39  C   UNL A   1      41.348  26.083  27.932  1.00  0.00     0.014 A 
ATOM     40  C   UNL A   1      43.021  27.724  27.314  1.00  0.00     0.014 A 
ATOM     41  C   UNL A   1      41.011  26.857  29.043  1.00  0.00     0.010 A 
ATOM     42  C   UNL A   1      42.746  28.447  28.471  1.00  0.00     0.010 A 
ATOM     43  C   UNL A   1      41.723  28.034  29.336  1.00  0.00    -0.014 A 
BRANCH  43  44
ATOM     44  C   UNL A   1      41.382  28.854  30.527  1.00  0.00     0.031 A 
ATOM     45  C   UNL A   1      42.183  28.709  31.795  1.00  0.00     0.074 A 
ATOM     46  C   UNL A   1      40.338  29.706  30.478  1.00  0.00     0.049 A 
ATOM     47  N   UNL A   1      42.036  29.327  32.939  1.00  0.00    -0.248 NA
ATOM     48  C   UNL A   1      43.275  27.722  31.785  1.00  0.00     0.031 C 
ATOM     49  C   UNL A   1      39.454  29.896  29.326  1.00  0.00     0.029 A 
ATOM     50  N   UNL A   1      39.842  30.572  31.421  1.00  0.00    -0.354 N 
ATOM     51  C   UNL A   1      43.008  28.799  33.782  1.00  0.00     0.074 A 
ATOM     52  C   UNL A   1      43.694  27.764  33.041  1.00  0.00     0.031 C 
ATOM     53  C   UNL A   1      38.547  30.841  29.617  1.00  0.00     0.029 A 
ATOM     54  C   UNL A   1      38.757  31.298  30.988  1.00  0.00     0.049 A 
ATOM     55  H   UNL A   1      40.226  30.663  32.323  1.00  0.00     0.167 HD
ATOM     56  C   UNL A   1      43.320  29.162  35.049  1.00  0.00     0.037 A 
ATOM     57  C   UNL A   1      38.015  32.227  31.623  1.00  0.00     0.037 A 
ATOM     58  C   UNL A   1      42.645  30.208  35.772  1.00  0.00     0.049 A 
ATOM     59  C   UNL A   1      38.378  32.611  33.033  1.00  0.00     0.074 A 
ATOM     60  C   UNL A   1      42.920  30.693  37.038  1.00  0.00     0.029 A 
ATOM     61  N   UNL A   1      41.559  30.928  35.296  1.00  0.00    -0.354 N 
ATOM     62  N   UNL A   1      39.347  32.153  33.790  1.00  0.00    -0.248 NA
ATOM     63  C   UNL A   1      37.555  33.647  33.672  1.00  0.00     0.031 C 
ATOM     64  C   UNL A   1      41.967  31.667  37.350  1.00  0.00     0.029 A 
ATOM     65  C   UNL A   1      41.136  31.835  36.253  1.00  0.00     0.049 A 
ATOM     66  H   UNL A   1      41.149  30.812  34.408  1.00  0.00     0.167 HD
ATOM     67  C   UNL A   1      39.268  32.863  34.982  1.00  0.00     0.074 A 
ATOM     68  C   UNL A   1      38.166  33.792  34.840  1.00  0.00     0.031 C 
ATOM     69  C   UNL A   1      40.038  32.758  36.095  1.00  0.00     0.037 A 
BRANCH  56  70
ATOM     70  C   UNL A   1      44.440  28.424  35.733  1.00  0.00     0.058 A 
ATOM     71  C   UNL A   1      45.777  28.844  35.626  1.00  0.00     0.135 A 
ATOM     72  C   UNL A   1      44.172  27.302  36.533  1.00  0.00     0.135 A 
ATOM     73  F   UNL A   1      46.095  29.901  34.862  1.00  0.00    -0.206 F 
ATOM     74  C   UNL A   1      46.809  28.161  36.261  1.00  0.00     0.059 A 
ATOM     75  C   UNL A   1      45.185  26.623  37.205  1.00  0.00     0.059 A 
ATOM     76  F   UNL A   1      42.913  26.854  36.671  1.00  0.00    -0.206 F 
ATOM     77  C   UNL A   1      46.502  27.052  37.051  1.00  0.00     0.060 A 
BRANCH  77  78
ATOM     78  S   UNL A   1      47.852  26.184  37.877  1.00  0.00     0.124 S 
ATOM     79  O   UNL A   1      47.852  24.906  37.169  1.00  0.00    -0.237 OA
ATOM     80  O   UNL A   1      48.992  27.055  37.609  1.00  0.00    -0.237 OA
ATOM     81  O   UNL A   1      47.421  26.129  39.269  1.00  0.00    -0.744 OA
ENDBRANCH  77  78
ENDBRANCH  56  70
BRANCH  57  82
ATOM     82  C   UNL A   1      36.869  32.871  30.924  1.00  0.00     0.058 A 
ATOM     83  C   UNL A   1      35.552  32.439  31.141  1.00  0.00     0.135 A 
ATOM     84  C   UNL A   1      37.068  33.939  30.036  1.00  0.00     0.135 A 
ATOM     85  F   UNL A   1      35.310  31.417  31.977  1.00  0.00    -0.206 F 
ATOM     86  C   UNL A   1      34.475  33.029  30.489  1.00  0.00     0.059 A 
ATOM     87  C   UNL A   1      36.003  34.565  29.394  1.00  0.00     0.059 A 
ATOM     88  F   UNL A   1      38.305  34.403  29.807  1.00  0.00    -0.206 F 
ATOM     89  C   UNL A   1      34.710  34.095  29.619  1.00  0.00     0.060 A 
BRANCH  89  90
ATOM     90  S   UNL A   1      33.299  34.887  28.816  1.00  0.00     0.124 S 
ATOM     91  O   UNL A   1      32.489  35.278  29.963  1.00  0.00    -0.237 OA
ATOM     92  O   UNL A   1      33.938  35.976  28.081  1.00  0.00    -0.237 OA
ATOM     93  O   UNL A   1      32.746  33.822  27.985  1.00  0.00    -0.744 OA
ENDBRANCH  89  90
ENDBRANCH  57  82
BRANCH  69  94
ATOM     94  C   UNL A   1      39.743  33.695  37.234  1.00  0.00     0.058 A 
ATOM     95  C   UNL A   1      38.887  33.338  38.287  1.00  0.00     0.135 A 
ATOM     96  C   UNL A   1      40.367  34.953  37.295  1.00  0.00     0.135 A 
ATOM     97  F   UNL A   1      38.262  32.149  38.275  1.00  0.00    -0.206 F 
ATOM     98  C   UNL A   1      38.636  34.204  39.345  1.00  0.00     0.059 A 
ATOM     99  C   UNL A   1      40.156  35.822  38.361  1.00  0.00     0.059 A 
ATOM    100  F   UNL A   1      41.205  35.341  36.321  1.00  0.00    -0.206 F 
ATOM    101  C   UNL A   1      39.277  35.444  39.374  1.00  0.00     0.060 A 
BRANCH 101 102
ATOM    102  S   UNL A   1      38.962  36.547  40.768  1.00  0.00     0.124 S 
ATOM    103  O   UNL A   1      37.947  35.804  41.507  1.00  0.00    -0.237 OA
ATOM    104  O   UNL A   1      40.273  36.633  41.402  1.00  0.00    -0.237 OA
ATOM    105  O   UNL A   1      38.498  37.777  40.130  1.00  0.00    -0.744 OA
ENDBRANCH 101 102
ENDBRANCH  69  94
ENDBRANCH  43  44
ENDBRANCH  35  38
ENDBRANCH  33  34
ENDBRANCH  32  33
ENDBRANCH  31  32
ENDBRANCH   1  31
TORSDOF 20
ENDMDL
MODEL 3
REMARK VINA RESULT:     -11.7      1.090      2.471
REMARK SMILES Cc1ccc(Cl)c(Nc2ccccc2C(=O)N[C@@H](C)C(=O)NCCCCCCNC(=O)c2ccc(-c3c4nc(c(-c5c(F)cc(S(=O)(=O)[O-])cc5F)c5ccc([nH]5)c(-c5c(F)cc(S(=O)(=O)[O-])cc5F)c5nc(c(-c6c(F)cc(S(=O)(=O)[O-])cc6F)c6ccc3[nH]6)C=C5)C=C4)cc2)c1Cl
REMARK SMILES IDX 25 1 24 2 23 3 22 4 20 5 21 6 18 8 19 9 17 10 15 11 16 12
REMARK SMILES IDX 14 14 9 15 10 16 11 17 13 18 12 19 8 20 7 22 1 23 2 24 3 25
REMARK SMILES IDX 98 26 4 27 99 28 5 29 6 30 26 31 27 32 28 33 29 34 30 35
REMARK SMILES IDX 31 37 32 38 33 39 97 40 34 41 96 42 35 43 36 44 37 45 90 46
REMARK SMILES IDX 38 47 95 48 89 49 91 50 39 51 94 52 88 53 87 54 40 56 74 57
REMARK SMILES IDX 53 58 73 59 54 60 57 61 72 62 92 63 55 64 56 65 71 67 93 68
REMARK SMILES IDX 58 69 41 70 42 71 51 72 43 73 44 74 50 75 52 76 45 77 46 78
REMARK SMILES IDX 47 79 48 80 49 81 75 82 76 83 85 84 77 85 78 86 84 87 86 88
REMARK SMILES IDX 79 89 80 90 81 91 82 92 83 93 59 94 60 95 69 96 61 97 62 98
REMARK SMILES IDX 68 99 70 100 63 101 64 102 65 103 66 104 67 105
REMARK H PARENT 22 7 17 13 8 21 29 36 91 55 57 66
REMARK Flexibility Score: inf
ROOT
ATOM      1  C   UNL A   1      40.630  21.130  26.338  1.00  0.00     0.002 C 
ENDROOT
BRANCH   1   2
ATOM      2  C   UNL A   1      39.650  22.279  26.612  1.00  0.00     0.021 C 
BRANCH   2   3
ATOM      3  C   UNL A   1      38.346  22.241  25.804  1.00  0.00     0.116 C 
BRANCH   3   4
ATOM      4  N   UNL A   1      38.054  23.501  25.155  1.00  0.00    -0.354 N 
ATOM      5  C   UNL A   1      36.816  23.606  24.594  1.00  0.00     0.242 C 
ATOM      6  O   UNL A   1      36.662  23.128  23.472  1.00  0.00    -0.273 OA
ATOM      7  H   UNL A   1      38.708  24.237  25.120  1.00  0.00     0.163 HD
BRANCH   5   8
ATOM      8  C   UNL A   1      35.677  24.266  25.402  1.00  0.00     0.168 C 
ATOM      9  C   UNL A   1      35.061  23.412  26.500  1.00  0.00     0.041 C 
BRANCH   8  10
ATOM     10  N   UNL A   1      34.718  24.648  24.381  1.00  0.00    -0.340 N 
ATOM     11  C   UNL A   1      34.053  25.854  24.292  1.00  0.00     0.254 C 
ATOM     12  O   UNL A   1      33.923  26.319  23.156  1.00  0.00    -0.269 OA
ATOM     13  H   UNL A   1      34.524  23.982  23.683  1.00  0.00     0.164 HD
BRANCH  11  14
ATOM     14  C   UNL A   1      33.245  26.442  25.409  1.00  0.00     0.063 A 
ATOM     15  C   UNL A   1      31.953  26.135  25.889  1.00  0.00     0.051 A 
ATOM     16  C   UNL A   1      31.396  26.981  26.881  1.00  0.00     0.027 A 
ATOM     17  C   UNL A   1      32.106  28.039  27.449  1.00  0.00     0.002 A 
ATOM     18  C   UNL A   1      33.952  27.508  26.023  1.00  0.00     0.016 A 
ATOM     19  C   UNL A   1      33.401  28.287  27.037  1.00  0.00     0.001 A 
BRANCH  15  20
ATOM     20  N   UNL A   1      31.149  25.016  25.592  1.00  0.00    -0.352 N 
ATOM     21  H   UNL A   1      30.215  25.128  25.882  1.00  0.00     0.167 HD
BRANCH  20  22
ATOM     22  C   UNL A   1      31.386  23.761  24.969  1.00  0.00     0.077 A 
ATOM     23  C   UNL A   1      33.024  20.349  25.571  1.00  0.00     0.046 C 
ATOM     24  C   UNL A   1      32.301  21.481  24.888  1.00  0.00    -0.030 A 
ATOM     25  C   UNL A   1      32.237  21.494  23.487  1.00  0.00     0.006 A 
ATOM     26  C   UNL A   1      31.811  22.588  25.627  1.00  0.00     0.069 A 
ATOM     27  C   UNL A   1      31.716  22.595  22.819  1.00  0.00     0.023 A 
ATOM     28  Cl  UNL A   1      31.691  22.426  27.353  1.00  0.00    -0.082 Cl
ATOM     29  C   UNL A   1      31.317  23.715  23.551  1.00  0.00     0.066 A 
ATOM     30  Cl  UNL A   1      30.789  25.101  22.646  1.00  0.00    -0.082 Cl
ENDBRANCH  20  22
ENDBRANCH  15  20
ENDBRANCH  11  14
ENDBRANCH   8  10
ENDBRANCH   5   8
ENDBRANCH   3   4
ENDBRANCH   2   3
ENDBRANCH   1   2
BRANCH   1  31
ATOM     31  C   UNL A   1      42.113  21.510  26.358  1.00  0.00     0.002 C 
BRANCH  31  32
ATOM     32  C   UNL A   1      42.599  22.165  27.649  1.00  0.00     0.021 C 
BRANCH  32  33
ATOM     33  C   UNL A   1      43.132  23.578  27.480  1.00  0.00     0.116 C 
BRANCH  33  34
ATOM     34  N   UNL A   1      42.646  24.201  26.267  1.00  0.00    -0.352 N 
ATOM     35  C   UNL A   1      41.892  25.345  26.154  1.00  0.00     0.251 C 
ATOM     36  H   UNL A   1      42.882  23.752  25.423  1.00  0.00     0.163 HD
ATOM     37  O   UNL A   1      41.380  25.647  25.087  1.00  0.00    -0.269 OA
BRANCH  35  38
ATOM     38  C   UNL A   1      41.684  26.183  27.358  1.00  0.00     0.039 A 
ATOM     39  C   UNL A   1      42.528  27.271  27.574  1.00  0.00     0.014 A 
ATOM     40  C   UNL A   1      40.636  25.914  28.245  1.00  0.00     0.014 A 
ATOM     41  C   UNL A   1      42.299  28.113  28.663  1.00  0.00     0.010 A 
ATOM     42  C   UNL A   1      40.355  26.805  29.276  1.00  0.00     0.010 A 
ATOM     43  C   UNL A   1      41.197  27.902  29.510  1.00  0.00    -0.014 A 
BRANCH  43  44
ATOM     44  C   UNL A   1      40.936  28.804  30.662  1.00  0.00     0.031 A 
ATOM     45  C   UNL A   1      41.756  28.676  31.919  1.00  0.00     0.074 A 
ATOM     46  C   UNL A   1      39.946  29.716  30.588  1.00  0.00     0.049 A 
ATOM     47  N   UNL A   1      41.676  29.362  33.030  1.00  0.00    -0.248 NA
ATOM     48  C   UNL A   1      42.784  27.623  31.941  1.00  0.00     0.031 C 
ATOM     49  C   UNL A   1      39.048  29.900  29.445  1.00  0.00     0.029 A 
ATOM     50  N   UNL A   1      39.527  30.661  31.492  1.00  0.00    -0.354 N 
ATOM     51  C   UNL A   1      42.633  28.820  33.881  1.00  0.00     0.074 A 
ATOM     52  C   UNL A   1      43.236  27.706  33.183  1.00  0.00     0.031 C 
ATOM     53  C   UNL A   1      38.209  30.915  29.703  1.00  0.00     0.029 A 
ATOM     54  C   UNL A   1      38.479  31.430  31.042  1.00  0.00     0.049 A 
ATOM     55  H   UNL A   1      39.937  30.775  32.379  1.00  0.00     0.167 HD
ATOM     56  C   UNL A   1      42.997  29.229  35.119  1.00  0.00     0.037 A 
ATOM     57  C   UNL A   1      37.812  32.436  31.641  1.00  0.00     0.037 A 
ATOM     58  C   UNL A   1      42.406  30.353  35.798  1.00  0.00     0.049 A 
ATOM     59  C   UNL A   1      38.232  32.871  33.019  1.00  0.00     0.074 A 
ATOM     60  C   UNL A   1      42.740  30.886  37.029  1.00  0.00     0.029 A 
ATOM     61  N   UNL A   1      41.355  31.113  35.305  1.00  0.00    -0.354 N 
ATOM     62  N   UNL A   1      39.188  32.394  33.780  1.00  0.00    -0.248 NA
ATOM     63  C   UNL A   1      37.489  33.989  33.618  1.00  0.00     0.031 C 
ATOM     64  C   UNL A   1      41.856  31.933  37.308  1.00  0.00     0.029 A 
ATOM     65  C   UNL A   1      41.011  32.095  36.220  1.00  0.00     0.049 A 
ATOM     66  H   UNL A   1      40.918  30.976  34.433  1.00  0.00     0.167 HD
ATOM     67  C   UNL A   1      39.181  33.170  34.934  1.00  0.00     0.074 A 
ATOM     68  C   UNL A   1      38.136  34.157  34.763  1.00  0.00     0.031 C 
ATOM     69  C   UNL A   1      39.970  33.075  36.034  1.00  0.00     0.037 A 
BRANCH  56  70
ATOM     70  C   UNL A   1      44.085  28.459  35.819  1.00  0.00     0.058 A 
ATOM     71  C   UNL A   1      43.796  27.385  36.679  1.00  0.00     0.135 A 
ATOM     72  C   UNL A   1      45.435  28.776  35.604  1.00  0.00     0.135 A 
ATOM     73  F   UNL A   1      42.522  27.047  36.934  1.00  0.00    -0.206 F 
ATOM     74  C   UNL A   1      44.804  26.674  37.322  1.00  0.00     0.059 A 
ATOM     75  C   UNL A   1      46.461  28.057  36.211  1.00  0.00     0.059 A 
ATOM     76  F   UNL A   1      45.771  29.792  34.794  1.00  0.00    -0.206 F 
ATOM     77  C   UNL A   1      46.135  27.017  37.080  1.00  0.00     0.060 A 
BRANCH  77  78
ATOM     78  S   UNL A   1      47.430  26.077  37.915  1.00  0.00     0.124 S 
ATOM     79  O   UNL A   1      46.688  24.909  38.378  1.00  0.00    -0.237 OA
ATOM     80  O   UNL A   1      48.383  25.835  36.837  1.00  0.00    -0.237 OA
ATOM     81  O   UNL A   1      47.889  26.985  38.962  1.00  0.00    -0.744 OA
ENDBRANCH  77  78
ENDBRANCH  56  70
BRANCH  57  82
ATOM     82  C   UNL A   1      36.692  33.113  30.931  1.00  0.00     0.058 A 
ATOM     83  C   UNL A   1      35.358  32.899  31.311  1.00  0.00     0.135 A 
ATOM     84  C   UNL A   1      36.934  33.998  29.868  1.00  0.00     0.135 A 
ATOM     85  F   UNL A   1      35.073  32.058  32.317  1.00  0.00    -0.206 F 
ATOM     86  C   UNL A   1      34.303  33.522  30.651  1.00  0.00     0.059 A 
ATOM     87  C   UNL A   1      35.897  34.655  29.213  1.00  0.00     0.059 A 
ATOM     88  F   UNL A   1      38.191  34.253  29.478  1.00  0.00    -0.206 F 
ATOM     89  C   UNL A   1      34.583  34.402  29.604  1.00  0.00     0.060 A 
BRANCH  89  90
ATOM     90  S   UNL A   1      33.209  35.243  28.787  1.00  0.00     0.124 S 
ATOM     91  O   UNL A   1      32.424  35.698  29.928  1.00  0.00    -0.237 OA
ATOM     92  O   UNL A   1      33.897  36.283  28.027  1.00  0.00    -0.237 OA
ATOM     93  O   UNL A   1      32.602  34.188  27.982  1.00  0.00    -0.744 OA
ENDBRANCH  89  90
ENDBRANCH  57  82
BRANCH  69  94
ATOM     94  C   UNL A   1      39.760  34.089  37.126  1.00  0.00     0.058 A 
ATOM     95  C   UNL A   1      38.982  33.809  38.259  1.00  0.00     0.135 A 
ATOM     96  C   UNL A   1      40.391  35.343  37.058  1.00  0.00     0.135 A 
ATOM     97  F   UNL A   1      38.353  32.627  38.372  1.00  0.00    -0.206 F 
ATOM     98  C   UNL A   1      38.810  34.746  39.273  1.00  0.00     0.059 A 
ATOM     99  C   UNL A   1      40.260  36.283  38.076  1.00  0.00     0.059 A 
ATOM    100  F   UNL A   1      41.158  35.659  36.003  1.00  0.00    -0.206 F 
ATOM    101  C   UNL A   1      39.456  35.980  39.173  1.00  0.00     0.060 A 
BRANCH 101 102
ATOM    102  S   UNL A   1      39.245  37.176  40.508  1.00  0.00     0.124 S 
ATOM    103  O   UNL A   1      40.597  37.708  40.642  1.00  0.00    -0.237 OA
ATOM    104  O   UNL A   1      38.255  38.093  39.955  1.00  0.00    -0.237 OA
ATOM    105  O   UNL A   1      38.780  36.359  41.625  1.00  0.00    -0.744 OA
ENDBRANCH 101 102
ENDBRANCH  69  94
ENDBRANCH  43  44
ENDBRANCH  35  38
ENDBRANCH  33  34
ENDBRANCH  32  33
ENDBRANCH  31  32
ENDBRANCH   1  31
TORSDOF 20
ENDMDL
