MODEL 1
REMARK VINA RESULT:     -12.0      0.000      0.000
REMARK SMILES O=C(NCCCCCCNC(=O)C1CCN(c2ccc(C(F)(F)F)cc2[N+](=O)[O-])CC1)c1ccc(-c2c3nc(c(-c4c(F)cc(S(=O)(=O)[O-])cc4F)c4ccc([nH]4)c(-c4c(F)cc(S(=O)(=O)[O-])cc4F)c4nc(c(-c5c(F)cc(S(=O)(=O)[O-])cc5F)c5ccc2[nH]5)C=C4)C=C3)cc1
REMARK SMILES IDX 6 1 5 2 4 3 3 4 1 5 2 6 32 8 33 9 97 10 34 11 96 12 35 13
REMARK SMILES IDX 36 14 37 15 90 16 38 17 95 18 89 19 91 20 39 21 94 22 88 23
REMARK SMILES IDX 87 24 40 26 74 27 53 28 73 29 54 30 57 31 72 32 92 33 55 34
REMARK SMILES IDX 56 35 71 37 93 38 58 39 41 40 42 41 51 42 43 43 44 44 50 45
REMARK SMILES IDX 52 46 45 47 46 48 47 49 48 50 49 51 75 52 76 53 85 54 77 55
REMARK SMILES IDX 78 56 84 57 86 58 79 59 80 60 81 61 82 62 83 63 59 64 60 65
REMARK SMILES IDX 69 66 61 67 62 68 68 69 70 70 63 71 64 72 65 73 66 74 67 75
REMARK SMILES IDX 7 76 8 77 9 78 10 79 11 80 12 82 13 83 14 84 31 85 15 86
REMARK SMILES IDX 30 87 16 88 17 89 18 90 26 91 19 92 25 93 20 94 27 95 28 96
REMARK SMILES IDX 29 97 21 98 22 99 23 100 24 101
REMARK H PARENT 3 7 91 25 57 36 10 81
REMARK Flexibility Score: inf
ROOT
ATOM      1  C   UNL A   1      35.315  33.567  27.940  1.00  0.00     0.002 C 
ENDROOT
BRANCH   1   2
ATOM      2  C   UNL A   1      35.710  34.044  29.339  1.00  0.00     0.021 C 
BRANCH   2   3
ATOM      3  C   UNL A   1      36.788  33.212  30.025  1.00  0.00     0.116 C 
BRANCH   3   4
ATOM      4  N   UNL A   1      36.212  32.213  30.911  1.00  0.00    -0.352 N 
ATOM      5  O   UNL A   1      35.857  30.152  31.739  1.00  0.00    -0.269 OA
ATOM      6  C   UNL A   1      36.604  30.919  31.140  1.00  0.00     0.251 C 
ATOM      7  H   UNL A   1      35.424  32.510  31.422  1.00  0.00     0.163 HD
BRANCH   6   8
ATOM      8  C   UNL A   1      37.924  30.451  30.663  1.00  0.00     0.039 A 
ATOM      9  C   UNL A   1      38.200  30.364  29.296  1.00  0.00     0.014 A 
ATOM     10  C   UNL A   1      38.915  30.146  31.601  1.00  0.00     0.014 A 
ATOM     11  C   UNL A   1      39.430  29.877  28.866  1.00  0.00     0.010 A 
ATOM     12  C   UNL A   1      40.175  29.726  31.167  1.00  0.00     0.010 A 
ATOM     13  C   UNL A   1      40.437  29.575  29.797  1.00  0.00    -0.014 A 
BRANCH  13  14
ATOM     14  C   UNL A   1      41.788  29.195  29.314  1.00  0.00     0.031 A 
ATOM     15  C   UNL A   1      42.908  30.195  29.270  1.00  0.00     0.074 A 
ATOM     16  C   UNL A   1      41.989  27.928  28.903  1.00  0.00     0.049 A 
ATOM     17  N   UNL A   1      44.140  30.030  28.862  1.00  0.00    -0.248 NA
ATOM     18  C   UNL A   1      42.604  31.556  29.733  1.00  0.00     0.031 C 
ATOM     19  C   UNL A   1      40.964  26.881  28.877  1.00  0.00     0.029 A 
ATOM     20  N   UNL A   1      43.113  27.303  28.429  1.00  0.00    -0.354 N 
ATOM     21  C   UNL A   1      44.756  31.268  29.001  1.00  0.00     0.074 A 
ATOM     22  C   UNL A   1      43.753  32.181  29.508  1.00  0.00     0.031 C 
ATOM     23  C   UNL A   1      41.509  25.741  28.429  1.00  0.00     0.029 A 
ATOM     24  C   UNL A   1      42.904  25.988  28.085  1.00  0.00     0.049 A 
ATOM     25  H   UNL A   1      43.984  27.752  28.341  1.00  0.00     0.167 HD
ATOM     26  C   UNL A   1      46.042  31.605  28.733  1.00  0.00     0.037 A 
ATOM     27  C   UNL A   1      43.733  25.085  27.529  1.00  0.00     0.037 A 
ATOM     28  C   UNL A   1      47.029  30.682  28.232  1.00  0.00     0.049 A 
ATOM     29  C   UNL A   1      45.149  25.485  27.232  1.00  0.00     0.074 A 
ATOM     30  C   UNL A   1      48.371  30.912  27.975  1.00  0.00     0.029 A 
ATOM     31  N   UNL A   1      46.782  29.358  27.897  1.00  0.00    -0.354 N 
ATOM     32  N   UNL A   1      45.732  26.645  27.423  1.00  0.00    -0.248 NA
ATOM     33  C   UNL A   1      46.021  24.459  26.648  1.00  0.00     0.031 C 
ATOM     34  C   UNL A   1      48.921  29.741  27.440  1.00  0.00     0.029 A 
ATOM     35  C   UNL A   1      47.938  28.766  27.410  1.00  0.00     0.049 A 
ATOM     36  H   UNL A   1      45.913  28.905  27.991  1.00  0.00     0.167 HD
ATOM     37  C   UNL A   1      47.043  26.486  26.992  1.00  0.00     0.074 A 
ATOM     38  C   UNL A   1      47.171  25.112  26.549  1.00  0.00     0.031 C 
ATOM     39  C   UNL A   1      48.048  27.397  26.966  1.00  0.00     0.037 A 
BRANCH  26  40
ATOM     40  C   UNL A   1      46.447  33.039  28.953  1.00  0.00     0.058 A 
ATOM     41  C   UNL A   1      46.933  33.490  30.191  1.00  0.00     0.135 A 
ATOM     42  C   UNL A   1      46.371  33.969  27.904  1.00  0.00     0.135 A 
ATOM     43  F   UNL A   1      47.018  32.649  31.233  1.00  0.00    -0.206 F 
ATOM     44  C   UNL A   1      47.293  34.820  30.390  1.00  0.00     0.059 A 
ATOM     45  C   UNL A   1      46.750  35.298  28.073  1.00  0.00     0.059 A 
ATOM     46  F   UNL A   1      45.918  33.592  26.697  1.00  0.00    -0.206 F 
ATOM     47  C   UNL A   1      47.192  35.719  29.326  1.00  0.00     0.060 A 
BRANCH  47  48
ATOM     48  S   UNL A   1      47.639  37.445  29.608  1.00  0.00     0.124 S 
ATOM     49  O   UNL A   1      48.261  37.373  30.927  1.00  0.00    -0.237 OA
ATOM     50  O   UNL A   1      48.545  37.719  28.497  1.00  0.00    -0.237 OA
ATOM     51  O   UNL A   1      46.359  38.142  29.554  1.00  0.00    -0.744 OA
ENDBRANCH  47  48
ENDBRANCH  26  40
BRANCH  27  52
ATOM     52  C   UNL A   1      43.223  23.726  27.214  1.00  0.00     0.058 A 
ATOM     53  C   UNL A   1      43.011  23.317  25.891  1.00  0.00     0.135 A 
ATOM     54  C   UNL A   1      42.997  22.788  28.235  1.00  0.00     0.135 A 
ATOM     55  F   UNL A   1      43.210  24.179  24.882  1.00  0.00    -0.206 F 
ATOM     56  C   UNL A   1      42.592  22.025  25.588  1.00  0.00     0.059 A 
ATOM     57  C   UNL A   1      42.603  21.484  27.956  1.00  0.00     0.059 A 
ATOM     58  F   UNL A   1      43.204  23.127  29.517  1.00  0.00    -0.206 F 
ATOM     59  C   UNL A   1      42.398  21.114  26.628  1.00  0.00     0.060 A 
BRANCH  59  60
ATOM     60  S   UNL A   1      41.927  19.419  26.219  1.00  0.00     0.124 S 
ATOM     61  O   UNL A   1      40.474  19.525  26.157  1.00  0.00    -0.237 OA
ATOM     62  O   UNL A   1      42.608  19.210  24.945  1.00  0.00    -0.237 OA
ATOM     63  O   UNL A   1      42.458  18.644  27.337  1.00  0.00    -0.744 OA
ENDBRANCH  59  60
ENDBRANCH  27  52
BRANCH  39  64
ATOM     64  C   UNL A   1      49.384  26.931  26.458  1.00  0.00     0.058 A 
ATOM     65  C   UNL A   1      50.336  26.357  27.312  1.00  0.00     0.135 A 
ATOM     66  C   UNL A   1      49.693  27.016  25.091  1.00  0.00     0.135 A 
ATOM     67  F   UNL A   1      50.094  26.261  28.629  1.00  0.00    -0.206 F 
ATOM     68  C   UNL A   1      51.559  25.897  26.832  1.00  0.00     0.059 A 
ATOM     69  C   UNL A   1      50.897  26.541  24.585  1.00  0.00     0.059 A 
ATOM     70  F   UNL A   1      48.813  27.553  24.230  1.00  0.00    -0.206 F 
ATOM     71  C   UNL A   1      51.829  25.991  25.465  1.00  0.00     0.060 A 
BRANCH  71  72
ATOM     72  S   UNL A   1      53.401  25.355  24.848  1.00  0.00     0.124 S 
ATOM     73  O   UNL A   1      53.287  23.934  25.162  1.00  0.00    -0.237 OA
ATOM     74  O   UNL A   1      53.343  25.696  23.430  1.00  0.00    -0.237 OA
ATOM     75  O   UNL A   1      54.394  26.091  25.623  1.00  0.00    -0.744 OA
ENDBRANCH  71  72
ENDBRANCH  39  64
ENDBRANCH  13  14
ENDBRANCH   6   8
ENDBRANCH   3   4
ENDBRANCH   2   3
ENDBRANCH   1   2
BRANCH   1  76
ATOM     76  C   UNL A   1      35.231  32.046  27.748  1.00  0.00     0.002 C 
BRANCH  76  77
ATOM     77  C   UNL A   1      33.817  31.466  27.676  1.00  0.00     0.021 C 
BRANCH  77  78
ATOM     78  C   UNL A   1      33.740  30.078  27.051  1.00  0.00     0.116 C 
BRANCH  78  79
ATOM     79  N   UNL A   1      32.727  29.256  27.665  1.00  0.00    -0.356 N 
ATOM     80  C   UNL A   1      32.064  28.156  27.242  1.00  0.00     0.223 C 
ATOM     81  H   UNL A   1      32.469  29.552  28.568  1.00  0.00     0.163 HD
ATOM     82  O   UNL A   1      31.261  27.669  28.050  1.00  0.00    -0.275 OA
BRANCH  80  83
ATOM     83  C   UNL A   1      32.234  27.493  25.871  1.00  0.00     0.082 C 
ATOM     84  C   UNL A   1      31.042  26.694  25.353  1.00  0.00     0.035 C 
ATOM     85  C   UNL A   1      33.579  26.828  25.603  1.00  0.00     0.035 C 
ATOM     86  C   UNL A   1      31.103  25.185  25.548  1.00  0.00     0.117 C 
ATOM     87  C   UNL A   1      33.629  25.331  25.858  1.00  0.00     0.117 C 
ATOM     88  N   UNL A   1      32.450  24.641  25.333  1.00  0.00    -0.366 N 
BRANCH  88  89
ATOM     89  C   UNL A   1      32.510  23.272  25.055  1.00  0.00     0.116 A 
ATOM     90  C   UNL A   1      32.232  22.877  23.733  1.00  0.00     0.034 A 
ATOM     91  C   UNL A   1      32.818  22.225  25.946  1.00  0.00     0.293 A 
ATOM     92  C   UNL A   1      32.266  21.537  23.327  1.00  0.00     0.016 A 
ATOM     93  C   UNL A   1      32.854  20.872  25.558  1.00  0.00     0.101 A 
ATOM     94  C   UNL A   1      32.583  20.519  24.233  1.00  0.00     0.062 A 
BRANCH  91  95
ATOM     95  N   UNL A   1      33.031  22.468  27.354  1.00  0.00     0.064 N 
ATOM     96  O   UNL A   1      34.197  22.412  27.767  1.00  0.00    -0.258 OA
ATOM     97  O   UNL A   1      32.039  22.755  28.039  1.00  0.00    -0.258 OA
ENDBRANCH  91  95
BRANCH  94  98
ATOM     98  C   UNL A   1      32.641  19.083  23.766  1.00  0.00     0.416 C 
ATOM     99  F   UNL A   1      31.795  18.279  24.461  1.00  0.00    -0.166 F 
ATOM    100  F   UNL A   1      32.287  18.964  22.457  1.00  0.00    -0.166 F 
ATOM    101  F   UNL A   1      33.878  18.531  23.875  1.00  0.00    -0.166 F 
ENDBRANCH  94  98
ENDBRANCH  88  89
ENDBRANCH  80  83
ENDBRANCH  78  79
ENDBRANCH  77  78
ENDBRANCH  76  77
ENDBRANCH   1  76
TORSDOF 19
ENDMDL
MODEL 2
REMARK VINA RESULT:     -12.0      1.040      2.073
REMARK SMILES O=C(NCCCCCCNC(=O)C1CCN(c2ccc(C(F)(F)F)cc2[N+](=O)[O-])CC1)c1ccc(-c2c3nc(c(-c4c(F)cc(S(=O)(=O)[O-])cc4F)c4ccc([nH]4)c(-c4c(F)cc(S(=O)(=O)[O-])cc4F)c4nc(c(-c5c(F)cc(S(=O)(=O)[O-])cc5F)c5ccc2[nH]5)C=C4)C=C3)cc1
REMARK SMILES IDX 6 1 5 2 4 3 3 4 1 5 2 6 32 8 33 9 97 10 34 11 96 12 35 13
REMARK SMILES IDX 36 14 37 15 90 16 38 17 95 18 89 19 91 20 39 21 94 22 88 23
REMARK SMILES IDX 87 24 40 26 74 27 53 28 73 29 54 30 57 31 72 32 92 33 55 34
REMARK SMILES IDX 56 35 71 37 93 38 58 39 41 40 42 41 51 42 43 43 44 44 50 45
REMARK SMILES IDX 52 46 45 47 46 48 47 49 48 50 49 51 75 52 76 53 85 54 77 55
REMARK SMILES IDX 78 56 84 57 86 58 79 59 80 60 81 61 82 62 83 63 59 64 60 65
REMARK SMILES IDX 69 66 61 67 62 68 68 69 70 70 63 71 64 72 65 73 66 74 67 75
REMARK SMILES IDX 7 76 8 77 9 78 10 79 11 80 12 82 13 83 14 84 31 85 15 86
REMARK SMILES IDX 30 87 16 88 17 89 18 90 26 91 19 92 25 93 20 94 27 95 28 96
REMARK SMILES IDX 29 97 21 98 22 99 23 100 24 101
REMARK H PARENT 3 7 91 25 57 36 10 81
REMARK Flexibility Score: inf
ROOT
ATOM      1  C   UNL A   1      35.349  33.413  28.010  1.00  0.00     0.002 C 
ENDROOT
BRANCH   1   2
ATOM      2  C   UNL A   1      35.782  34.134  29.288  1.00  0.00     0.021 C 
BRANCH   2   3
ATOM      3  C   UNL A   1      36.844  33.411  30.110  1.00  0.00     0.116 C 
BRANCH   3   4
ATOM      4  N   UNL A   1      36.275  32.312  30.873  1.00  0.00    -0.352 N 
ATOM      5  O   UNL A   1      35.966  30.170  31.484  1.00  0.00    -0.269 OA
ATOM      6  C   UNL A   1      36.705  31.016  30.990  1.00  0.00     0.251 C 
ATOM      7  H   UNL A   1      35.460  32.533  31.381  1.00  0.00     0.163 HD
BRANCH   6   8
ATOM      8  C   UNL A   1      38.055  30.639  30.518  1.00  0.00     0.039 A 
ATOM      9  C   UNL A   1      39.104  30.458  31.424  1.00  0.00     0.014 A 
ATOM     10  C   UNL A   1      38.258  30.413  29.154  1.00  0.00     0.014 A 
ATOM     11  C   UNL A   1      40.378  30.149  30.958  1.00  0.00     0.010 A 
ATOM     12  C   UNL A   1      39.522  30.032  28.695  1.00  0.00     0.010 A 
ATOM     13  C   UNL A   1      40.594  29.911  29.592  1.00  0.00    -0.014 A 
BRANCH  13  14
ATOM     14  C   UNL A   1      41.926  29.444  29.133  1.00  0.00     0.031 A 
ATOM     15  C   UNL A   1      43.094  30.384  29.053  1.00  0.00     0.074 A 
ATOM     16  C   UNL A   1      42.065  28.152  28.777  1.00  0.00     0.049 A 
ATOM     17  N   UNL A   1      44.317  30.142  28.659  1.00  0.00    -0.248 NA
ATOM     18  C   UNL A   1      42.857  31.778  29.456  1.00  0.00     0.031 C 
ATOM     19  C   UNL A   1      40.990  27.157  28.789  1.00  0.00     0.029 A 
ATOM     20  N   UNL A   1      43.158  27.453  28.335  1.00  0.00    -0.354 N 
ATOM     21  C   UNL A   1      44.994  31.353  28.748  1.00  0.00     0.074 A 
ATOM     22  C   UNL A   1      44.036  32.335  29.211  1.00  0.00     0.031 C 
ATOM     23  C   UNL A   1      41.479  25.974  28.394  1.00  0.00     0.029 A 
ATOM     24  C   UNL A   1      42.886  26.136  28.046  1.00  0.00     0.049 A 
ATOM     25  H   UNL A   1      44.051  27.854  28.234  1.00  0.00     0.167 HD
ATOM     26  C   UNL A   1      46.295  31.614  28.473  1.00  0.00     0.037 A 
ATOM     27  C   UNL A   1      43.671  25.171  27.533  1.00  0.00     0.037 A 
ATOM     28  C   UNL A   1      47.238  30.623  28.016  1.00  0.00     0.049 A 
ATOM     29  C   UNL A   1      45.106  25.488  27.228  1.00  0.00     0.074 A 
ATOM     30  C   UNL A   1      48.590  30.775  27.758  1.00  0.00     0.029 A 
ATOM     31  N   UNL A   1      46.926  29.300  27.737  1.00  0.00    -0.354 N 
ATOM     32  N   UNL A   1      45.744  26.624  27.372  1.00  0.00    -0.248 NA
ATOM     33  C   UNL A   1      45.927  24.396  26.692  1.00  0.00     0.031 C 
ATOM     34  C   UNL A   1      49.083  29.558  27.275  1.00  0.00     0.029 A 
ATOM     35  C   UNL A   1      48.053  28.631  27.282  1.00  0.00     0.049 A 
ATOM     36  H   UNL A   1      46.036  28.895  27.845  1.00  0.00     0.167 HD
ATOM     37  C   UNL A   1      47.047  26.383  26.955  1.00  0.00     0.074 A 
ATOM     38  C   UNL A   1      47.109  24.987  26.572  1.00  0.00     0.031 C 
ATOM     39  C   UNL A   1      48.096  27.241  26.897  1.00  0.00     0.037 A 
BRANCH  26  40
ATOM     40  C   UNL A   1      46.771  33.034  28.634  1.00  0.00     0.058 A 
ATOM     41  C   UNL A   1      46.720  33.957  27.576  1.00  0.00     0.135 A 
ATOM     42  C   UNL A   1      47.261  33.486  29.871  1.00  0.00     0.135 A 
ATOM     43  F   UNL A   1      46.272  33.579  26.369  1.00  0.00    -0.206 F 
ATOM     44  C   UNL A   1      47.174  35.264  27.729  1.00  0.00     0.059 A 
ATOM     45  C   UNL A   1      47.695  34.796  30.053  1.00  0.00     0.059 A 
ATOM     46  F   UNL A   1      47.327  32.648  30.918  1.00  0.00    -0.206 F 
ATOM     47  C   UNL A   1      47.666  35.673  28.970  1.00  0.00     0.060 A 
BRANCH  47  48
ATOM     48  S   UNL A   1      48.273  37.364  29.145  1.00  0.00     0.124 S 
ATOM     49  O   UNL A   1      49.689  37.138  29.420  1.00  0.00    -0.237 OA
ATOM     50  O   UNL A   1      47.969  37.942  27.840  1.00  0.00    -0.237 OA
ATOM     51  O   UNL A   1      47.493  37.893  30.258  1.00  0.00    -0.744 OA
ENDBRANCH  47  48
ENDBRANCH  26  40
BRANCH  27  52
ATOM     52  C   UNL A   1      43.095  23.826  27.274  1.00  0.00     0.058 A 
ATOM     53  C   UNL A   1      43.031  22.856  28.282  1.00  0.00     0.135 A 
ATOM     54  C   UNL A   1      42.539  23.511  26.023  1.00  0.00     0.135 A 
ATOM     55  F   UNL A   1      43.552  23.110  29.492  1.00  0.00    -0.206 F 
ATOM     56  C   UNL A   1      42.437  21.617  28.062  1.00  0.00     0.059 A 
ATOM     57  C   UNL A   1      41.917  22.290  25.786  1.00  0.00     0.059 A 
ATOM     58  F   UNL A   1      42.558  24.415  25.031  1.00  0.00    -0.206 F 
ATOM     59  C   UNL A   1      41.876  21.347  26.812  1.00  0.00     0.060 A 
BRANCH  59  60
ATOM     60  S   UNL A   1      41.041  19.766  26.560  1.00  0.00     0.124 S 
ATOM     61  O   UNL A   1      42.020  19.041  25.758  1.00  0.00    -0.237 OA
ATOM     62  O   UNL A   1      40.860  19.292  27.928  1.00  0.00    -0.237 OA
ATOM     63  O   UNL A   1      39.811  20.142  25.869  1.00  0.00    -0.744 OA
ENDBRANCH  59  60
ENDBRANCH  27  52
BRANCH  39  64
ATOM     64  C   UNL A   1      49.409  26.689  26.415  1.00  0.00     0.058 A 
ATOM     65  C   UNL A   1      49.817  26.819  25.080  1.00  0.00     0.135 A 
ATOM     66  C   UNL A   1      50.290  26.065  27.314  1.00  0.00     0.135 A 
ATOM     67  F   UNL A   1      49.008  27.399  24.179  1.00  0.00    -0.206 F 
ATOM     68  C   UNL A   1      51.047  26.336  24.646  1.00  0.00     0.059 A 
ATOM     69  C   UNL A   1      51.534  25.597  26.908  1.00  0.00     0.059 A 
ATOM     70  F   UNL A   1      49.949  25.920  28.604  1.00  0.00    -0.206 F 
ATOM     71  C   UNL A   1      51.901  25.728  25.569  1.00  0.00     0.060 A 
BRANCH  71  72
ATOM     72  S   UNL A   1      53.510  25.140  25.003  1.00  0.00     0.124 S 
ATOM     73  O   UNL A   1      53.533  25.624  23.627  1.00  0.00    -0.237 OA
ATOM     74  O   UNL A   1      54.428  25.804  25.923  1.00  0.00    -0.237 OA
ATOM     75  O   UNL A   1      53.417  23.692  25.157  1.00  0.00    -0.744 OA
ENDBRANCH  71  72
ENDBRANCH  39  64
ENDBRANCH  13  14
ENDBRANCH   6   8
ENDBRANCH   3   4
ENDBRANCH   2   3
ENDBRANCH   1   2
BRANCH   1  76
ATOM     76  C   UNL A   1      34.114  32.512  28.133  1.00  0.00     0.002 C 
BRANCH  76  77
ATOM     77  C   UNL A   1      34.375  31.010  28.009  1.00  0.00     0.021 C 
BRANCH  77  78
ATOM     78  C   UNL A   1      33.514  30.308  26.965  1.00  0.00     0.116 C 
BRANCH  78  79
ATOM     79  N   UNL A   1      32.589  29.373  27.557  1.00  0.00    -0.356 N 
ATOM     80  C   UNL A   1      32.036  28.226  27.104  1.00  0.00     0.223 C 
ATOM     81  H   UNL A   1      32.304  29.618  28.467  1.00  0.00     0.163 HD
ATOM     82  O   UNL A   1      31.287  27.640  27.898  1.00  0.00    -0.275 OA
BRANCH  80  83
ATOM     83  C   UNL A   1      32.267  27.619  25.716  1.00  0.00     0.082 C 
ATOM     84  C   UNL A   1      31.107  26.829  25.120  1.00  0.00     0.035 C 
ATOM     85  C   UNL A   1      33.630  26.980  25.475  1.00  0.00     0.035 C 
ATOM     86  C   UNL A   1      31.179  25.314  25.258  1.00  0.00     0.117 C 
ATOM     87  C   UNL A   1      33.689  25.475  25.673  1.00  0.00     0.117 C 
ATOM     88  N   UNL A   1      32.540  24.794  25.075  1.00  0.00    -0.366 N 
BRANCH  88  89
ATOM     89  C   UNL A   1      32.628  23.437  24.746  1.00  0.00     0.116 A 
ATOM     90  C   UNL A   1      32.075  22.521  25.659  1.00  0.00     0.034 A 
ATOM     91  C   UNL A   1      33.213  22.867  23.598  1.00  0.00     0.293 A 
ATOM     92  C   UNL A   1      32.094  21.138  25.441  1.00  0.00     0.016 A 
ATOM     93  C   UNL A   1      33.245  21.479  23.361  1.00  0.00     0.101 A 
ATOM     94  C   UNL A   1      32.674  20.600  24.286  1.00  0.00     0.062 A 
BRANCH  91  95
ATOM     95  N   UNL A   1      33.904  23.674  22.620  1.00  0.00     0.064 N 
ATOM     96  O   UNL A   1      33.210  24.264  21.781  1.00  0.00    -0.258 OA
ATOM     97  O   UNL A   1      35.137  23.753  22.715  1.00  0.00    -0.258 OA
ENDBRANCH  91  95
BRANCH  94  98
ATOM     98  C   UNL A   1      32.659  19.106  24.058  1.00  0.00     0.416 C 
ATOM     99  F   UNL A   1      31.999  18.441  25.042  1.00  0.00    -0.166 F 
ATOM    100  F   UNL A   1      32.032  18.781  22.895  1.00  0.00    -0.166 F 
ATOM    101  F   UNL A   1      33.900  18.560  23.986  1.00  0.00    -0.166 F 
ENDBRANCH  94  98
ENDBRANCH  88  89
ENDBRANCH  80  83
ENDBRANCH  78  79
ENDBRANCH  77  78
ENDBRANCH  76  77
ENDBRANCH   1  76
TORSDOF 19
ENDMDL
MODEL 3
REMARK VINA RESULT:     -11.9      1.479      2.459
REMARK SMILES O=C(NCCCCCCNC(=O)C1CCN(c2ccc(C(F)(F)F)cc2[N+](=O)[O-])CC1)c1ccc(-c2c3nc(c(-c4c(F)cc(S(=O)(=O)[O-])cc4F)c4ccc([nH]4)c(-c4c(F)cc(S(=O)(=O)[O-])cc4F)c4nc(c(-c5c(F)cc(S(=O)(=O)[O-])cc5F)c5ccc2[nH]5)C=C4)C=C3)cc1
REMARK SMILES IDX 6 1 5 2 4 3 3 4 1 5 2 6 32 8 33 9 97 10 34 11 96 12 35 13
REMARK SMILES IDX 36 14 37 15 90 16 38 17 95 18 89 19 91 20 39 21 94 22 88 23
REMARK SMILES IDX 87 24 40 26 74 27 53 28 73 29 54 30 57 31 72 32 92 33 55 34
REMARK SMILES IDX 56 35 71 37 93 38 58 39 41 40 42 41 51 42 43 43 44 44 50 45
REMARK SMILES IDX 52 46 45 47 46 48 47 49 48 50 49 51 75 52 76 53 85 54 77 55
REMARK SMILES IDX 78 56 84 57 86 58 79 59 80 60 81 61 82 62 83 63 59 64 60 65
REMARK SMILES IDX 69 66 61 67 62 68 68 69 70 70 63 71 64 72 65 73 66 74 67 75
REMARK SMILES IDX 7 76 8 77 9 78 10 79 11 80 12 82 13 83 14 84 31 85 15 86
REMARK SMILES IDX 30 87 16 88 17 89 18 90 26 91 19 92 25 93 20 94 27 95 28 96
REMARK SMILES IDX 29 97 21 98 22 99 23 100 24 101
REMARK H PARENT 3 7 91 25 57 36 10 81
REMARK Flexibility Score: inf
ROOT
ATOM      1  C   UNL A   1      33.016  29.610  26.971  1.00  0.00     0.002 C 
ENDROOT
BRANCH   1   2
ATOM      2  C   UNL A   1      34.390  29.111  27.424  1.00  0.00     0.021 C 
BRANCH   2   3
ATOM      3  C   UNL A   1      35.421  30.204  27.685  1.00  0.00     0.116 C 
BRANCH   3   4
ATOM      4  N   UNL A   1      35.404  30.637  29.073  1.00  0.00    -0.352 N 
ATOM      5  O   UNL A   1      36.058  30.686  31.224  1.00  0.00    -0.269 OA
ATOM      6  C   UNL A   1      36.347  30.463  30.053  1.00  0.00     0.251 C 
ATOM      7  H   UNL A   1      34.596  31.127  29.349  1.00  0.00     0.163 HD
BRANCH   6   8
ATOM      8  C   UNL A   1      37.708  30.005  29.697  1.00  0.00     0.039 A 
ATOM      9  C   UNL A   1      38.153  30.046  28.373  1.00  0.00     0.014 A 
ATOM     10  C   UNL A   1      38.568  29.579  30.714  1.00  0.00     0.014 A 
ATOM     11  C   UNL A   1      39.418  29.567  28.051  1.00  0.00     0.010 A 
ATOM     12  C   UNL A   1      39.865  29.167  30.398  1.00  0.00     0.010 A 
ATOM     13  C   UNL A   1      40.295  29.145  29.063  1.00  0.00    -0.014 A 
BRANCH  13  14
ATOM     14  C   UNL A   1      41.689  28.774  28.714  1.00  0.00     0.031 A 
ATOM     15  C   UNL A   1      42.788  29.798  28.709  1.00  0.00     0.074 A 
ATOM     16  C   UNL A   1      41.950  27.493  28.390  1.00  0.00     0.049 A 
ATOM     17  N   UNL A   1      44.053  29.644  28.413  1.00  0.00    -0.248 NA
ATOM     18  C   UNL A   1      42.418  31.174  29.071  1.00  0.00     0.031 C 
ATOM     19  C   UNL A   1      40.953  26.421  28.336  1.00  0.00     0.029 A 
ATOM     20  N   UNL A   1      43.122  26.873  28.044  1.00  0.00    -0.354 N 
ATOM     21  C   UNL A   1      44.629  30.902  28.535  1.00  0.00     0.074 A 
ATOM     22  C   UNL A   1      43.568  31.815  28.909  1.00  0.00     0.031 C 
ATOM     23  C   UNL A   1      41.557  25.273  27.997  1.00  0.00     0.029 A 
ATOM     24  C   UNL A   1      42.971  25.537  27.755  1.00  0.00     0.049 A 
ATOM     25  H   UNL A   1      43.988  27.339  28.004  1.00  0.00     0.167 HD
ATOM     26  C   UNL A   1      45.925  31.258  28.356  1.00  0.00     0.037 A 
ATOM     27  C   UNL A   1      43.862  24.628  27.319  1.00  0.00     0.037 A 
ATOM     28  C   UNL A   1      46.970  30.335  27.988  1.00  0.00     0.049 A 
ATOM     29  C   UNL A   1      45.289  25.047  27.119  1.00  0.00     0.074 A 
ATOM     30  C   UNL A   1      48.323  30.585  27.831  1.00  0.00     0.029 A 
ATOM     31  N   UNL A   1      46.780  28.990  27.706  1.00  0.00    -0.354 N 
ATOM     32  N   UNL A   1      45.829  26.230  27.294  1.00  0.00    -0.248 NA
ATOM     33  C   UNL A   1      46.228  24.015  26.664  1.00  0.00     0.031 C 
ATOM     34  C   UNL A   1      48.940  29.403  27.406  1.00  0.00     0.029 A 
ATOM     35  C   UNL A   1      47.984  28.402  27.349  1.00  0.00     0.049 A 
ATOM     36  H   UNL A   1      45.916  28.520  27.753  1.00  0.00     0.167 HD
ATOM     37  C   UNL A   1      47.175  26.082  26.982  1.00  0.00     0.074 A 
ATOM     38  C   UNL A   1      47.368  24.691  26.625  1.00  0.00     0.031 C 
ATOM     39  C   UNL A   1      48.159  27.015  26.990  1.00  0.00     0.037 A 
BRANCH  26  40
ATOM     40  C   UNL A   1      46.281  32.711  28.531  1.00  0.00     0.058 A 
ATOM     41  C   UNL A   1      46.246  33.617  27.458  1.00  0.00     0.135 A 
ATOM     42  C   UNL A   1      46.638  33.210  29.794  1.00  0.00     0.135 A 
ATOM     43  F   UNL A   1      45.922  33.194  26.226  1.00  0.00    -0.206 F 
ATOM     44  C   UNL A   1      46.590  34.955  27.625  1.00  0.00     0.059 A 
ATOM     45  C   UNL A   1      46.960  34.550  29.989  1.00  0.00     0.059 A 
ATOM     46  F   UNL A   1      46.684  32.389  30.857  1.00  0.00    -0.206 F 
ATOM     47  C   UNL A   1      46.951  35.412  28.893  1.00  0.00     0.060 A 
BRANCH  47  48
ATOM     48  S   UNL A   1      47.417  37.145  29.088  1.00  0.00     0.124 S 
ATOM     49  O   UNL A   1      47.667  37.220  30.524  1.00  0.00    -0.237 OA
ATOM     50  O   UNL A   1      48.598  37.249  28.236  1.00  0.00    -0.237 OA
ATOM     51  O   UNL A   1      46.242  37.869  28.616  1.00  0.00    -0.744 OA
ENDBRANCH  47  48
ENDBRANCH  26  40
BRANCH  27  52
ATOM     52  C   UNL A   1      43.408  23.241  27.037  1.00  0.00     0.058 A 
ATOM     53  C   UNL A   1      43.306  22.762  25.724  1.00  0.00     0.135 A 
ATOM     54  C   UNL A   1      43.128  22.350  28.085  1.00  0.00     0.135 A 
ATOM     55  F   UNL A   1      43.561  23.579  24.691  1.00  0.00    -0.206 F 
ATOM     56  C   UNL A   1      42.941  21.447  25.457  1.00  0.00     0.059 A 
ATOM     57  C   UNL A   1      42.786  21.023  27.845  1.00  0.00     0.059 A 
ATOM     58  F   UNL A   1      43.229  22.756  29.360  1.00  0.00    -0.206 F 
ATOM     59  C   UNL A   1      42.690  20.583  26.525  1.00  0.00     0.060 A 
BRANCH  59  60
ATOM     60  S   UNL A   1      42.290  18.858  26.169  1.00  0.00     0.124 S 
ATOM     61  O   UNL A   1      42.529  18.228  27.463  1.00  0.00    -0.237 OA
ATOM     62  O   UNL A   1      40.895  18.947  25.750  1.00  0.00    -0.237 OA
ATOM     63  O   UNL A   1      43.232  18.506  25.111  1.00  0.00    -0.744 OA
ENDBRANCH  59  60
ENDBRANCH  27  52
BRANCH  39  64
ATOM     64  C   UNL A   1      49.542  26.558  26.619  1.00  0.00     0.058 A 
ATOM     65  C   UNL A   1      50.013  26.632  25.299  1.00  0.00     0.135 A 
ATOM     66  C   UNL A   1      50.423  26.085  27.605  1.00  0.00     0.135 A 
ATOM     67  F   UNL A   1      49.207  27.067  24.317  1.00  0.00    -0.206 F 
ATOM     68  C   UNL A   1      51.305  26.238  24.966  1.00  0.00     0.059 A 
ATOM     69  C   UNL A   1      51.726  25.710  27.299  1.00  0.00     0.059 A 
ATOM     70  F   UNL A   1      50.024  26.000  28.884  1.00  0.00    -0.206 F 
ATOM     71  C   UNL A   1      52.156  25.780  25.975  1.00  0.00     0.060 A 
BRANCH  71  72
ATOM     72  S   UNL A   1      53.842  25.310  25.537  1.00  0.00     0.124 S 
ATOM     73  O   UNL A   1      53.609  24.275  24.535  1.00  0.00    -0.237 OA
ATOM     74  O   UNL A   1      54.398  26.563  25.036  1.00  0.00    -0.237 OA
ATOM     75  O   UNL A   1      54.404  24.844  26.801  1.00  0.00    -0.744 OA
ENDBRANCH  71  72
ENDBRANCH  39  64
ENDBRANCH  13  14
ENDBRANCH   6   8
ENDBRANCH   3   4
ENDBRANCH   2   3
ENDBRANCH   1   2
BRANCH   1  76
ATOM     76  C   UNL A   1      31.808  28.835  27.514  1.00  0.00     0.002 C 
BRANCH  76  77
ATOM     77  C   UNL A   1      31.476  27.531  26.786  1.00  0.00     0.021 C 
BRANCH  77  78
ATOM     78  C   UNL A   1      31.326  27.676  25.277  1.00  0.00     0.116 C 
BRANCH  78  79
ATOM     79  N   UNL A   1      32.532  27.326  24.569  1.00  0.00    -0.356 N 
ATOM     80  C   UNL A   1      32.884  26.238  23.848  1.00  0.00     0.223 C 
ATOM     81  H   UNL A   1      33.236  28.012  24.620  1.00  0.00     0.163 HD
ATOM     82  O   UNL A   1      34.012  26.272  23.338  1.00  0.00    -0.275 OA
BRANCH  80  83
ATOM     83  C   UNL A   1      32.007  25.000  23.628  1.00  0.00     0.082 C 
ATOM     84  C   UNL A   1      31.673  24.177  24.867  1.00  0.00     0.035 C 
ATOM     85  C   UNL A   1      32.325  24.155  22.400  1.00  0.00     0.035 C 
ATOM     86  C   UNL A   1      32.520  22.933  25.102  1.00  0.00     0.117 C 
ATOM     87  C   UNL A   1      33.218  22.951  22.650  1.00  0.00     0.117 C 
ATOM     88  N   UNL A   1      32.832  22.219  23.857  1.00  0.00    -0.366 N 
BRANCH  88  89
ATOM     89  C   UNL A   1      33.203  20.879  24.007  1.00  0.00     0.116 A 
ATOM     90  C   UNL A   1      32.288  19.910  23.554  1.00  0.00     0.034 A 
ATOM     91  C   UNL A   1      34.393  20.372  24.565  1.00  0.00     0.293 A 
ATOM     92  C   UNL A   1      32.544  18.536  23.642  1.00  0.00     0.016 A 
ATOM     93  C   UNL A   1      34.668  18.994  24.666  1.00  0.00     0.101 A 
ATOM     94  C   UNL A   1      33.740  18.061  24.194  1.00  0.00     0.062 A 
BRANCH  91  95
ATOM     95  N   UNL A   1      35.381  21.241  25.159  1.00  0.00     0.064 N 
ATOM     96  O   UNL A   1      36.168  21.810  24.390  1.00  0.00    -0.258 OA
ATOM     97  O   UNL A   1      35.344  21.390  26.389  1.00  0.00    -0.258 OA
ENDBRANCH  91  95
BRANCH  94  98
ATOM     98  C   UNL A   1      34.007  16.575  24.253  1.00  0.00     0.416 C 
ATOM     99  F   UNL A   1      34.970  16.259  25.157  1.00  0.00    -0.166 F 
ATOM    100  F   UNL A   1      32.898  15.878  24.622  1.00  0.00    -0.166 F 
ATOM    101  F   UNL A   1      34.405  16.052  23.064  1.00  0.00    -0.166 F 
ENDBRANCH  94  98
ENDBRANCH  88  89
ENDBRANCH  80  83
ENDBRANCH  78  79
ENDBRANCH  77  78
ENDBRANCH  76  77
ENDBRANCH   1  76
TORSDOF 19
ENDMDL
