MODEL 1
REMARK VINA RESULT:     -11.3      0.000      0.000
REMARK SMILES O=C(NCCCCCCNC(=O)[C@@H]1C=C[C@H](Nc2ncccn2)C1)c1ccc(-c2c3nc(c(-c4c(F)cc(S(=O)(=O)[O-])cc4F)c4ccc([nH]4)c(-c4c(F)cc(S(=O)(=O)[O-])cc4F)c4nc(c(-c5c(F)cc(S(=O)(=O)[O-])cc5F)c5ccc2[nH]5)C=C4)C=C3)cc1
REMARK SMILES IDX 6 1 5 2 4 3 3 4 1 5 2 6 25 8 26 9 90 10 27 11 89 12 28 13
REMARK SMILES IDX 29 14 30 15 83 16 31 17 88 18 82 19 84 20 32 21 87 22 81 23
REMARK SMILES IDX 80 24 33 26 67 27 46 28 66 29 47 30 50 31 65 32 85 33 48 34
REMARK SMILES IDX 49 35 64 37 86 38 51 39 34 40 35 41 44 42 36 43 37 44 43 45
REMARK SMILES IDX 45 46 38 47 39 48 40 49 41 50 42 51 68 52 69 53 78 54 70 55
REMARK SMILES IDX 71 56 77 57 79 58 72 59 73 60 74 61 75 62 76 63 52 64 53 65
REMARK SMILES IDX 62 66 54 67 55 68 61 69 63 70 56 71 57 72 58 73 59 74 60 75
REMARK SMILES IDX 7 76 8 77 9 78 10 79 11 80 12 82 13 83 14 84 24 85 15 86
REMARK SMILES IDX 16 87 17 88 18 90 19 91 23 92 20 93 22 94 21 95
REMARK H PARENT 3 7 84 25 50 36 10 81 17 89
REMARK Flexibility Score: inf
ROOT
ATOM      1  C   UNL A   1      36.138  24.033  25.030  1.00  0.00     0.002 C 
ENDROOT
BRANCH   1   2
ATOM      2  C   UNL A   1      37.302  23.329  25.730  1.00  0.00     0.021 C 
BRANCH   2   3
ATOM      3  C   UNL A   1      38.252  24.267  26.466  1.00  0.00     0.116 C 
BRANCH   3   4
ATOM      4  N   UNL A   1      39.643  23.996  26.136  1.00  0.00    -0.352 N 
ATOM      5  O   UNL A   1      41.846  24.444  25.974  1.00  0.00    -0.269 OA
ATOM      6  C   UNL A   1      40.769  24.678  26.521  1.00  0.00     0.251 C 
ATOM      7  H   UNL A   1      39.797  23.216  25.556  1.00  0.00     0.163 HD
BRANCH   6   8
ATOM      8  C   UNL A   1      40.680  25.699  27.586  1.00  0.00     0.039 A 
ATOM      9  C   UNL A   1      39.690  25.615  28.569  1.00  0.00     0.014 A 
ATOM     10  C   UNL A   1      41.609  26.742  27.609  1.00  0.00     0.014 A 
ATOM     11  C   UNL A   1      39.555  26.633  29.505  1.00  0.00     0.010 A 
ATOM     12  C   UNL A   1      41.521  27.722  28.599  1.00  0.00     0.010 A 
ATOM     13  C   UNL A   1      40.481  27.686  29.543  1.00  0.00    -0.014 A 
BRANCH  13  14
ATOM     14  C   UNL A   1      40.404  28.703  30.621  1.00  0.00     0.031 A 
ATOM     15  C   UNL A   1      41.249  28.586  31.857  1.00  0.00     0.074 A 
ATOM     16  C   UNL A   1      39.532  29.721  30.488  1.00  0.00     0.049 A 
ATOM     17  N   UNL A   1      41.256  29.343  32.924  1.00  0.00    -0.248 NA
ATOM     18  C   UNL A   1      42.202  27.468  31.907  1.00  0.00     0.031 C 
ATOM     19  C   UNL A   1      38.650  29.925  29.336  1.00  0.00     0.029 A 
ATOM     20  N   UNL A   1      39.230  30.763  31.327  1.00  0.00    -0.354 N 
ATOM     21  C   UNL A   1      42.194  28.783  33.783  1.00  0.00     0.074 A 
ATOM     22  C   UNL A   1      42.718  27.607  33.120  1.00  0.00     0.031 C 
ATOM     23  C   UNL A   1      37.909  31.023  29.539  1.00  0.00     0.029 A 
ATOM     24  C   UNL A   1      38.216  31.564  30.859  1.00  0.00     0.049 A 
ATOM     25  H   UNL A   1      39.694  30.922  32.181  1.00  0.00     0.167 HD
ATOM     26  C   UNL A   1      42.579  29.214  35.009  1.00  0.00     0.037 A 
ATOM     27  C   UNL A   1      37.569  32.592  31.440  1.00  0.00     0.037 A 
ATOM     28  C   UNL A   1      42.041  30.386  35.655  1.00  0.00     0.049 A 
ATOM     29  C   UNL A   1      37.987  33.035  32.811  1.00  0.00     0.074 A 
ATOM     30  C   UNL A   1      42.398  30.936  36.873  1.00  0.00     0.029 A 
ATOM     31  N   UNL A   1      41.020  31.176  35.145  1.00  0.00    -0.354 N 
ATOM     32  N   UNL A   1      38.915  32.530  33.588  1.00  0.00    -0.248 NA
ATOM     33  C   UNL A   1      37.279  34.185  33.385  1.00  0.00     0.031 C 
ATOM     34  C   UNL A   1      41.551  32.020  37.128  1.00  0.00     0.029 A 
ATOM     35  C   UNL A   1      40.711  32.188  36.039  1.00  0.00     0.049 A 
ATOM     36  H   UNL A   1      40.579  31.037  34.276  1.00  0.00     0.167 HD
ATOM     37  C   UNL A   1      38.918  33.312  34.736  1.00  0.00     0.074 A 
ATOM     38  C   UNL A   1      37.902  34.329  34.548  1.00  0.00     0.031 C 
ATOM     39  C   UNL A   1      39.697  33.199  35.840  1.00  0.00     0.037 A 
BRANCH  26  40
ATOM     40  C   UNL A   1      43.600  28.390  35.748  1.00  0.00     0.058 A 
ATOM     41  C   UNL A   1      44.981  28.607  35.604  1.00  0.00     0.135 A 
ATOM     42  C   UNL A   1      43.191  27.368  36.622  1.00  0.00     0.135 A 
ATOM     43  F   UNL A   1      45.433  29.564  34.778  1.00  0.00    -0.206 F 
ATOM     44  C   UNL A   1      45.916  27.808  36.256  1.00  0.00     0.059 A 
ATOM     45  C   UNL A   1      44.109  26.578  37.309  1.00  0.00     0.059 A 
ATOM     46  F   UNL A   1      41.885  27.120  36.808  1.00  0.00    -0.206 F 
ATOM     47  C   UNL A   1      45.470  26.789  37.099  1.00  0.00     0.060 A 
BRANCH  47  48
ATOM     48  S   UNL A   1      46.695  25.732  37.898  1.00  0.00     0.124 S 
ATOM     49  O   UNL A   1      45.885  24.573  38.259  1.00  0.00    -0.237 OA
ATOM     50  O   UNL A   1      47.666  25.516  36.830  1.00  0.00    -0.237 OA
ATOM     51  O   UNL A   1      47.167  26.541  39.018  1.00  0.00    -0.744 OA
ENDBRANCH  47  48
ENDBRANCH  26  40
BRANCH  27  52
ATOM     52  C   UNL A   1      36.449  33.241  30.710  1.00  0.00     0.058 A 
ATOM     53  C   UNL A   1      35.117  33.024  31.084  1.00  0.00     0.135 A 
ATOM     54  C   UNL A   1      36.701  34.163  29.681  1.00  0.00     0.135 A 
ATOM     55  F   UNL A   1      34.826  32.150  32.058  1.00  0.00    -0.206 F 
ATOM     56  C   UNL A   1      34.071  33.707  30.469  1.00  0.00     0.059 A 
ATOM     57  C   UNL A   1      35.676  34.877  29.071  1.00  0.00     0.059 A 
ATOM     58  F   UNL A   1      37.963  34.419  29.302  1.00  0.00    -0.206 F 
ATOM     59  C   UNL A   1      34.363  34.641  29.473  1.00  0.00     0.060 A 
BRANCH  59  60
ATOM     60  S   UNL A   1      33.006  35.590  28.753  1.00  0.00     0.124 S 
ATOM     61  O   UNL A   1      33.727  36.612  28.003  1.00  0.00    -0.237 OA
ATOM     62  O   UNL A   1      32.317  34.580  27.955  1.00  0.00    -0.237 OA
ATOM     63  O   UNL A   1      32.270  36.064  29.920  1.00  0.00    -0.744 OA
ENDBRANCH  59  60
ENDBRANCH  27  52
BRANCH  39  64
ATOM     64  C   UNL A   1      39.518  34.219  36.930  1.00  0.00     0.058 A 
ATOM     65  C   UNL A   1      38.747  33.955  38.072  1.00  0.00     0.135 A 
ATOM     66  C   UNL A   1      40.206  35.443  36.870  1.00  0.00     0.135 A 
ATOM     67  F   UNL A   1      38.058  32.807  38.173  1.00  0.00    -0.206 F 
ATOM     68  C   UNL A   1      38.667  34.869  39.119  1.00  0.00     0.059 A 
ATOM     69  C   UNL A   1      40.161  36.358  37.916  1.00  0.00     0.059 A 
ATOM     70  F   UNL A   1      40.960  35.742  35.800  1.00  0.00    -0.206 F 
ATOM     71  C   UNL A   1      39.387  36.062  39.037  1.00  0.00     0.060 A 
BRANCH  71  72
ATOM     72  S   UNL A   1      39.339  37.201  40.437  1.00  0.00     0.124 S 
ATOM     73  O   UNL A   1      38.538  36.451  41.400  1.00  0.00    -0.237 OA
ATOM     74  O   UNL A   1      40.753  37.349  40.766  1.00  0.00    -0.237 OA
ATOM     75  O   UNL A   1      38.701  38.392  39.886  1.00  0.00    -0.744 OA
ENDBRANCH  71  72
ENDBRANCH  39  64
ENDBRANCH  13  14
ENDBRANCH   6   8
ENDBRANCH   3   4
ENDBRANCH   2   3
ENDBRANCH   1   2
BRANCH   1  76
ATOM     76  C   UNL A   1      35.617  23.326  23.773  1.00  0.00     0.002 C 
BRANCH  76  77
ATOM     77  C   UNL A   1      34.280  22.592  23.949  1.00  0.00     0.021 C 
BRANCH  77  78
ATOM     78  C   UNL A   1      33.232  22.956  22.897  1.00  0.00     0.116 C 
BRANCH  78  79
ATOM     79  N   UNL A   1      33.432  24.309  22.410  1.00  0.00    -0.356 N 
ATOM     80  C   UNL A   1      32.820  25.472  22.781  1.00  0.00     0.227 C 
ATOM     81  H   UNL A   1      34.113  24.403  21.705  1.00  0.00     0.163 HD
ATOM     82  O   UNL A   1      33.132  26.510  22.193  1.00  0.00    -0.274 OA
BRANCH  80  83
ATOM     83  C   UNL A   1      31.838  25.450  23.951  1.00  0.00     0.103 C 
ATOM     84  C   UNL A   1      30.410  25.320  23.527  1.00  0.00    -0.016 C 
ATOM     85  C   UNL A   1      31.878  26.805  24.678  1.00  0.00     0.047 C 
ATOM     86  C   UNL A   1      29.729  26.447  23.746  1.00  0.00    -0.006 C 
ATOM     87  C   UNL A   1      30.599  27.552  24.267  1.00  0.00     0.106 C 
BRANCH  87  88
ATOM     88  N   UNL A   1      30.855  28.462  23.178  1.00  0.00    -0.348 N 
ATOM     89  H   UNL A   1      31.660  28.377  22.617  1.00  0.00     0.164 HD
BRANCH  88  90
ATOM     90  C   UNL A   1      29.929  29.457  22.954  1.00  0.00     0.223 A 
ATOM     91  N   UNL A   1      29.200  29.342  21.836  1.00  0.00    -0.222 NA
ATOM     92  N   UNL A   1      29.730  30.414  23.875  1.00  0.00    -0.222 NA
ATOM     93  C   UNL A   1      28.189  30.214  21.672  1.00  0.00     0.117 A 
ATOM     94  C   UNL A   1      28.725  31.280  23.654  1.00  0.00     0.117 A 
ATOM     95  C   UNL A   1      27.898  31.216  22.563  1.00  0.00     0.040 A 
ENDBRANCH  88  90
ENDBRANCH  87  88
ENDBRANCH  80  83
ENDBRANCH  78  79
ENDBRANCH  77  78
ENDBRANCH  76  77
ENDBRANCH   1  76
TORSDOF 18
ENDMDL
MODEL 2
REMARK VINA RESULT:     -11.1      1.691      3.037
REMARK SMILES O=C(NCCCCCCNC(=O)[C@@H]1C=C[C@H](Nc2ncccn2)C1)c1ccc(-c2c3nc(c(-c4c(F)cc(S(=O)(=O)[O-])cc4F)c4ccc([nH]4)c(-c4c(F)cc(S(=O)(=O)[O-])cc4F)c4nc(c(-c5c(F)cc(S(=O)(=O)[O-])cc5F)c5ccc2[nH]5)C=C4)C=C3)cc1
REMARK SMILES IDX 6 1 5 2 4 3 3 4 1 5 2 6 25 8 26 9 90 10 27 11 89 12 28 13
REMARK SMILES IDX 29 14 30 15 83 16 31 17 88 18 82 19 84 20 32 21 87 22 81 23
REMARK SMILES IDX 80 24 33 26 67 27 46 28 66 29 47 30 50 31 65 32 85 33 48 34
REMARK SMILES IDX 49 35 64 37 86 38 51 39 34 40 35 41 44 42 36 43 37 44 43 45
REMARK SMILES IDX 45 46 38 47 39 48 40 49 41 50 42 51 68 52 69 53 78 54 70 55
REMARK SMILES IDX 71 56 77 57 79 58 72 59 73 60 74 61 75 62 76 63 52 64 53 65
REMARK SMILES IDX 62 66 54 67 55 68 61 69 63 70 56 71 57 72 58 73 59 74 60 75
REMARK SMILES IDX 7 76 8 77 9 78 10 79 11 80 12 82 13 83 14 84 24 85 15 86
REMARK SMILES IDX 16 87 17 88 18 90 19 91 23 92 20 93 22 94 21 95
REMARK H PARENT 3 7 84 25 50 36 10 81 17 89
REMARK Flexibility Score: inf
ROOT
ATOM      1  C   UNL A   1      41.385  22.301  28.043  1.00  0.00     0.002 C 
ENDROOT
BRANCH   1   2
ATOM      2  C   UNL A   1      42.873  22.336  27.688  1.00  0.00     0.021 C 
BRANCH   2   3
ATOM      3  C   UNL A   1      43.424  23.732  27.426  1.00  0.00     0.116 C 
BRANCH   3   4
ATOM      4  N   UNL A   1      42.872  24.313  26.212  1.00  0.00    -0.352 N 
ATOM      5  O   UNL A   1      41.512  25.636  24.996  1.00  0.00    -0.269 OA
ATOM      6  C   UNL A   1      42.065  25.414  26.072  1.00  0.00     0.251 C 
ATOM      7  H   UNL A   1      43.110  23.852  25.375  1.00  0.00     0.163 HD
BRANCH   6   8
ATOM      8  C   UNL A   1      41.857  26.321  27.219  1.00  0.00     0.039 A 
ATOM      9  C   UNL A   1      42.673  27.442  27.395  1.00  0.00     0.014 A 
ATOM     10  C   UNL A   1      40.822  26.055  28.118  1.00  0.00     0.014 A 
ATOM     11  C   UNL A   1      42.531  28.231  28.531  1.00  0.00     0.010 A 
ATOM     12  C   UNL A   1      40.630  26.895  29.216  1.00  0.00     0.010 A 
ATOM     13  C   UNL A   1      41.495  27.978  29.442  1.00  0.00    -0.014 A 
BRANCH  13  14
ATOM     14  C   UNL A   1      41.274  28.897  30.586  1.00  0.00     0.031 A 
ATOM     15  C   UNL A   1      42.093  28.784  31.839  1.00  0.00     0.074 A 
ATOM     16  C   UNL A   1      40.295  29.818  30.495  1.00  0.00     0.049 A 
ATOM     17  N   UNL A   1      41.985  29.456  32.957  1.00  0.00    -0.248 NA
ATOM     18  C   UNL A   1      43.165  27.779  31.844  1.00  0.00     0.031 C 
ATOM     19  C   UNL A   1      39.427  30.008  29.329  1.00  0.00     0.029 A 
ATOM     20  N   UNL A   1      39.854  30.755  31.393  1.00  0.00    -0.354 N 
ATOM     21  C   UNL A   1      42.957  28.941  33.807  1.00  0.00     0.074 A 
ATOM     22  C   UNL A   1      43.629  27.883  33.081  1.00  0.00     0.031 C 
ATOM     23  C   UNL A   1      38.561  30.999  29.583  1.00  0.00     0.029 A 
ATOM     24  C   UNL A   1      38.769  31.471  30.948  1.00  0.00     0.049 A 
ATOM     25  H   UNL A   1      40.274  30.902  32.272  1.00  0.00     0.167 HD
ATOM     26  C   UNL A   1      43.257  29.321  35.073  1.00  0.00     0.037 A 
ATOM     27  C   UNL A   1      37.994  32.374  31.576  1.00  0.00     0.037 A 
ATOM     28  C   UNL A   1      42.572  30.374  35.780  1.00  0.00     0.049 A 
ATOM     29  C   UNL A   1      38.321  32.758  32.990  1.00  0.00     0.074 A 
ATOM     30  C   UNL A   1      42.831  30.869  37.046  1.00  0.00     0.029 A 
ATOM     31  N   UNL A   1      41.482  31.081  35.292  1.00  0.00    -0.354 N 
ATOM     32  N   UNL A   1      39.280  32.303  33.761  1.00  0.00    -0.248 NA
ATOM     33  C   UNL A   1      37.471  33.777  33.619  1.00  0.00     0.031 C 
ATOM     34  C   UNL A   1      41.860  31.830  37.347  1.00  0.00     0.029 A 
ATOM     35  C   UNL A   1      41.035  31.984  36.244  1.00  0.00     0.049 A 
ATOM     36  H   UNL A   1      41.083  30.959  34.400  1.00  0.00     0.167 HD
ATOM     37  C   UNL A   1      39.163  32.994  34.961  1.00  0.00     0.074 A 
ATOM     38  C   UNL A   1      38.043  33.902  34.810  1.00  0.00     0.031 C 
ATOM     39  C   UNL A   1      39.919  32.887  36.081  1.00  0.00     0.037 A 
BRANCH  26  40
ATOM     40  C   UNL A   1      44.345  28.563  35.787  1.00  0.00     0.058 A 
ATOM     41  C   UNL A   1      44.070  27.448  36.596  1.00  0.00     0.135 A 
ATOM     42  C   UNL A   1      45.689  28.956  35.657  1.00  0.00     0.135 A 
ATOM     43  F   UNL A   1      42.806  27.029  36.765  1.00  0.00    -0.206 F 
ATOM     44  C   UNL A   1      45.078  26.784  37.289  1.00  0.00     0.059 A 
ATOM     45  C   UNL A   1      46.716  28.287  36.316  1.00  0.00     0.059 A 
ATOM     46  F   UNL A   1      46.013  30.009  34.890  1.00  0.00    -0.206 F 
ATOM     47  C   UNL A   1      46.398  27.218  37.150  1.00  0.00     0.060 A 
BRANCH  47  48
ATOM     48  S   UNL A   1      47.687  26.377  38.094  1.00  0.00     0.124 S 
ATOM     49  O   UNL A   1      48.890  27.028  37.583  1.00  0.00    -0.237 OA
ATOM     50  O   UNL A   1      47.328  26.703  39.471  1.00  0.00    -0.237 OA
ATOM     51  O   UNL A   1      47.525  24.976  37.721  1.00  0.00    -0.744 OA
ENDBRANCH  47  48
ENDBRANCH  26  40
BRANCH  27  52
ATOM     52  C   UNL A   1      36.827  32.947  30.856  1.00  0.00     0.058 A 
ATOM     53  C   UNL A   1      35.518  32.566  31.175  1.00  0.00     0.135 A 
ATOM     54  C   UNL A   1      37.002  33.956  29.894  1.00  0.00     0.135 A 
ATOM     55  F   UNL A   1      35.301  31.604  32.084  1.00  0.00    -0.206 F 
ATOM     56  C   UNL A   1      34.419  33.172  30.573  1.00  0.00     0.059 A 
ATOM     57  C   UNL A   1      35.920  34.594  29.299  1.00  0.00     0.059 A 
ATOM     58  F   UNL A   1      38.237  34.368  29.570  1.00  0.00    -0.206 F 
ATOM     59  C   UNL A   1      34.631  34.194  29.646  1.00  0.00     0.060 A 
BRANCH  59  60
ATOM     60  S   UNL A   1      33.196  35.039  28.947  1.00  0.00     0.124 S 
ATOM     61  O   UNL A   1      32.739  34.070  27.957  1.00  0.00    -0.237 OA
ATOM     62  O   UNL A   1      32.341  35.207  30.117  1.00  0.00    -0.237 OA
ATOM     63  O   UNL A   1      33.761  36.273  28.409  1.00  0.00    -0.744 OA
ENDBRANCH  59  60
ENDBRANCH  27  52
BRANCH  39  64
ATOM     64  C   UNL A   1      39.596  33.797  37.233  1.00  0.00     0.058 A 
ATOM     65  C   UNL A   1      38.816  33.369  38.318  1.00  0.00     0.135 A 
ATOM     66  C   UNL A   1      40.155  35.085  37.292  1.00  0.00     0.135 A 
ATOM     67  F   UNL A   1      38.246  32.154  38.305  1.00  0.00    -0.206 F 
ATOM     68  C   UNL A   1      38.603  34.187  39.424  1.00  0.00     0.059 A 
ATOM     69  C   UNL A   1      39.977  35.908  38.400  1.00  0.00     0.059 A 
ATOM     70  F   UNL A   1      40.911  35.540  36.281  1.00  0.00    -0.206 F 
ATOM     71  C   UNL A   1      39.198  35.450  39.461  1.00  0.00     0.060 A 
BRANCH  71  72
ATOM     72  S   UNL A   1      38.981  36.468  40.937  1.00  0.00     0.124 S 
ATOM     73  O   UNL A   1      38.640  37.762  40.355  1.00  0.00    -0.237 OA
ATOM     74  O   UNL A   1      37.897  35.779  41.631  1.00  0.00    -0.237 OA
ATOM     75  O   UNL A   1      40.282  36.399  41.593  1.00  0.00    -0.744 OA
ENDBRANCH  71  72
ENDBRANCH  39  64
ENDBRANCH  13  14
ENDBRANCH   6   8
ENDBRANCH   3   4
ENDBRANCH   2   3
ENDBRANCH   1   2
BRANCH   1  76
ATOM     76  C   UNL A   1      40.485  21.636  26.995  1.00  0.00     0.002 C 
BRANCH  76  77
ATOM     77  C   UNL A   1      39.409  22.549  26.391  1.00  0.00     0.021 C 
BRANCH  77  78
ATOM     78  C   UNL A   1      38.241  21.793  25.758  1.00  0.00     0.116 C 
BRANCH  78  79
ATOM     79  N   UNL A   1      37.851  22.399  24.497  1.00  0.00    -0.356 N 
ATOM     80  C   UNL A   1      36.608  22.588  23.965  1.00  0.00     0.227 C 
ATOM     81  H   UNL A   1      38.596  22.724  23.942  1.00  0.00     0.163 HD
ATOM     82  O   UNL A   1      36.524  23.100  22.846  1.00  0.00    -0.274 OA
BRANCH  80  83
ATOM     83  C   UNL A   1      35.382  22.232  24.803  1.00  0.00     0.103 C 
ATOM     84  C   UNL A   1      34.129  22.098  23.997  1.00  0.00    -0.016 C 
ATOM     85  C   UNL A   1      35.069  23.387  25.769  1.00  0.00     0.047 C 
ATOM     86  C   UNL A   1      33.276  23.094  24.247  1.00  0.00    -0.006 C 
ATOM     87  C   UNL A   1      33.844  24.113  25.190  1.00  0.00     0.106 C 
BRANCH  87  88
ATOM     88  N   UNL A   1      34.239  25.262  24.413  1.00  0.00    -0.348 N 
ATOM     89  H   UNL A   1      35.096  25.719  24.573  1.00  0.00     0.164 HD
BRANCH  88  90
ATOM     90  C   UNL A   1      33.368  25.694  23.437  1.00  0.00     0.223 A 
ATOM     91  N   UNL A   1      33.687  25.368  22.177  1.00  0.00    -0.222 NA
ATOM     92  N   UNL A   1      32.228  26.316  23.776  1.00  0.00    -0.222 NA
ATOM     93  C   UNL A   1      32.779  25.645  21.224  1.00  0.00     0.117 A 
ATOM     94  C   UNL A   1      31.363  26.599  22.786  1.00  0.00     0.117 A 
ATOM     95  C   UNL A   1      31.581  26.266  21.474  1.00  0.00     0.040 A 
ENDBRANCH  88  90
ENDBRANCH  87  88
ENDBRANCH  80  83
ENDBRANCH  78  79
ENDBRANCH  77  78
ENDBRANCH  76  77
ENDBRANCH   1  76
TORSDOF 18
ENDMDL
MODEL 3
REMARK VINA RESULT:     -11.1      6.755     12.332
REMARK SMILES O=C(NCCCCCCNC(=O)[C@@H]1C=C[C@H](Nc2ncccn2)C1)c1ccc(-c2c3nc(c(-c4c(F)cc(S(=O)(=O)[O-])cc4F)c4ccc([nH]4)c(-c4c(F)cc(S(=O)(=O)[O-])cc4F)c4nc(c(-c5c(F)cc(S(=O)(=O)[O-])cc5F)c5ccc2[nH]5)C=C4)C=C3)cc1
REMARK SMILES IDX 6 1 5 2 4 3 3 4 1 5 2 6 25 8 26 9 90 10 27 11 89 12 28 13
REMARK SMILES IDX 29 14 30 15 83 16 31 17 88 18 82 19 84 20 32 21 87 22 81 23
REMARK SMILES IDX 80 24 33 26 67 27 46 28 66 29 47 30 50 31 65 32 85 33 48 34
REMARK SMILES IDX 49 35 64 37 86 38 51 39 34 40 35 41 44 42 36 43 37 44 43 45
REMARK SMILES IDX 45 46 38 47 39 48 40 49 41 50 42 51 68 52 69 53 78 54 70 55
REMARK SMILES IDX 71 56 77 57 79 58 72 59 73 60 74 61 75 62 76 63 52 64 53 65
REMARK SMILES IDX 62 66 54 67 55 68 61 69 63 70 56 71 57 72 58 73 59 74 60 75
REMARK SMILES IDX 7 76 8 77 9 78 10 79 11 80 12 82 13 83 14 84 24 85 15 86
REMARK SMILES IDX 16 87 17 88 18 90 19 91 23 92 20 93 22 94 21 95
REMARK H PARENT 3 7 84 25 50 36 10 81 17 89
REMARK Flexibility Score: inf
ROOT
ATOM      1  C   UNL A   1      33.147  28.471  27.234  1.00  0.00     0.002 C 
ENDROOT
BRANCH   1   2
ATOM      2  C   UNL A   1      34.300  29.474  27.160  1.00  0.00     0.021 C 
BRANCH   2   3
ATOM      3  C   UNL A   1      35.375  29.274  28.222  1.00  0.00     0.116 C 
BRANCH   3   4
ATOM      4  N   UNL A   1      35.390  30.362  29.188  1.00  0.00    -0.352 N 
ATOM      5  O   UNL A   1      36.231  31.623  30.856  1.00  0.00    -0.269 OA
ATOM      6  C   UNL A   1      36.441  30.845  29.927  1.00  0.00     0.251 C 
ATOM      7  H   UNL A   1      34.528  30.813  29.332  1.00  0.00     0.163 HD
BRANCH   6   8
ATOM      8  C   UNL A   1      37.818  30.418  29.608  1.00  0.00     0.039 A 
ATOM      9  C   UNL A   1      38.208  30.210  28.282  1.00  0.00     0.014 A 
ATOM     10  C   UNL A   1      38.734  30.241  30.648  1.00  0.00     0.014 A 
ATOM     11  C   UNL A   1      39.477  29.713  28.003  1.00  0.00     0.010 A 
ATOM     12  C   UNL A   1      40.032  29.818  30.358  1.00  0.00     0.010 A 
ATOM     13  C   UNL A   1      40.409  29.532  29.035  1.00  0.00    -0.014 A 
BRANCH  13  14
ATOM     14  C   UNL A   1      41.798  29.120  28.716  1.00  0.00     0.031 A 
ATOM     15  C   UNL A   1      42.915  30.123  28.687  1.00  0.00     0.074 A 
ATOM     16  C   UNL A   1      42.036  27.828  28.417  1.00  0.00     0.049 A 
ATOM     17  N   UNL A   1      44.170  29.948  28.360  1.00  0.00    -0.248 NA
ATOM     18  C   UNL A   1      42.579  31.503  29.064  1.00  0.00     0.031 C 
ATOM     19  C   UNL A   1      41.022  26.770  28.399  1.00  0.00     0.029 A 
ATOM     20  N   UNL A   1      43.193  27.186  28.056  1.00  0.00    -0.354 N 
ATOM     21  C   UNL A   1      44.770  31.197  28.467  1.00  0.00     0.074 A 
ATOM     22  C   UNL A   1      43.733  32.125  28.867  1.00  0.00     0.031 C 
ATOM     23  C   UNL A   1      41.601  25.613  28.049  1.00  0.00     0.029 A 
ATOM     24  C   UNL A   1      43.009  25.858  27.756  1.00  0.00     0.049 A 
ATOM     25  H   UNL A   1      44.069  27.633  28.017  1.00  0.00     0.167 HD
ATOM     26  C   UNL A   1      46.065  31.532  28.252  1.00  0.00     0.037 A 
ATOM     27  C   UNL A   1      43.862  24.944  27.257  1.00  0.00     0.037 A 
ATOM     28  C   UNL A   1      47.083  30.593  27.848  1.00  0.00     0.049 A 
ATOM     29  C   UNL A   1      45.285  25.342  26.993  1.00  0.00     0.074 A 
ATOM     30  C   UNL A   1      48.433  30.821  27.652  1.00  0.00     0.029 A 
ATOM     31  N   UNL A   1      46.858  29.253  27.561  1.00  0.00    -0.354 N 
ATOM     32  N   UNL A   1      45.850  26.514  27.153  1.00  0.00    -0.248 NA
ATOM     33  C   UNL A   1      46.186  24.299  26.487  1.00  0.00     0.031 C 
ATOM     34  C   UNL A   1      49.012  29.636  27.186  1.00  0.00     0.029 A 
ATOM     35  C   UNL A   1      48.038  28.650  27.156  1.00  0.00     0.049 A 
ATOM     36  H   UNL A   1      45.988  28.798  27.634  1.00  0.00     0.167 HD
ATOM     37  C   UNL A   1      47.181  26.348  26.787  1.00  0.00     0.074 A 
ATOM     38  C   UNL A   1      47.335  24.958  26.403  1.00  0.00     0.031 C 
ATOM     39  C   UNL A   1      48.180  27.263  26.778  1.00  0.00     0.037 A 
BRANCH  26  40
ATOM     40  C   UNL A   1      46.444  32.982  28.406  1.00  0.00     0.058 A 
ATOM     41  C   UNL A   1      46.348  33.895  27.343  1.00  0.00     0.135 A 
ATOM     42  C   UNL A   1      46.907  33.468  29.641  1.00  0.00     0.135 A 
ATOM     43  F   UNL A   1      45.920  33.489  26.138  1.00  0.00    -0.206 F 
ATOM     44  C   UNL A   1      46.746  35.222  27.485  1.00  0.00     0.059 A 
ATOM     45  C   UNL A   1      47.280  34.798  29.814  1.00  0.00     0.059 A 
ATOM     46  F   UNL A   1      47.011  32.643  30.696  1.00  0.00    -0.206 F 
ATOM     47  C   UNL A   1      47.220  35.661  28.722  1.00  0.00     0.060 A 
BRANCH  47  48
ATOM     48  S   UNL A   1      47.778  37.371  28.875  1.00  0.00     0.124 S 
ATOM     49  O   UNL A   1      46.557  38.103  28.553  1.00  0.00    -0.237 OA
ATOM     50  O   UNL A   1      48.206  37.436  30.270  1.00  0.00    -0.237 OA
ATOM     51  O   UNL A   1      48.849  37.471  27.888  1.00  0.00    -0.744 OA
ENDBRANCH  47  48
ENDBRANCH  26  40
BRANCH  27  52
ATOM     52  C   UNL A   1      43.360  23.576  26.964  1.00  0.00     0.058 A 
ATOM     53  C   UNL A   1      43.158  23.142  25.648  1.00  0.00     0.135 A 
ATOM     54  C   UNL A   1      43.161  22.648  28.000  1.00  0.00     0.135 A 
ATOM     55  F   UNL A   1      43.333  23.993  24.626  1.00  0.00    -0.206 F 
ATOM     56  C   UNL A   1      42.785  21.831  25.366  1.00  0.00     0.059 A 
ATOM     57  C   UNL A   1      42.814  21.327  27.742  1.00  0.00     0.059 A 
ATOM     58  F   UNL A   1      43.361  23.013  29.277  1.00  0.00    -0.206 F 
ATOM     59  C   UNL A   1      42.628  20.928  26.420  1.00  0.00     0.060 A 
BRANCH  59  60
ATOM     60  S   UNL A   1      42.240  19.208  26.034  1.00  0.00     0.124 S 
ATOM     61  O   UNL A   1      43.028  18.992  24.826  1.00  0.00    -0.237 OA
ATOM     62  O   UNL A   1      42.705  18.514  27.231  1.00  0.00    -0.237 OA
ATOM     63  O   UNL A   1      40.792  19.222  25.849  1.00  0.00    -0.744 OA
ENDBRANCH  59  60
ENDBRANCH  27  52
BRANCH  39  64
ATOM     64  C   UNL A   1      49.552  26.797  26.374  1.00  0.00     0.058 A 
ATOM     65  C   UNL A   1      50.367  26.054  27.242  1.00  0.00     0.135 A 
ATOM     66  C   UNL A   1      50.015  27.017  25.066  1.00  0.00     0.135 A 
ATOM     67  F   UNL A   1      49.978  25.827  28.507  1.00  0.00    -0.206 F 
ATOM     68  C   UNL A   1      51.593  25.545  26.825  1.00  0.00     0.059 A 
ATOM     69  C   UNL A   1      51.224  26.494  24.621  1.00  0.00     0.059 A 
ATOM     70  F   UNL A   1      49.271  27.719  24.196  1.00  0.00    -0.206 F 
ATOM     71  C   UNL A   1      52.008  25.759  25.509  1.00  0.00     0.060 A 
BRANCH  71  72
ATOM     72  S   UNL A   1      53.562  25.024  24.960  1.00  0.00     0.124 S 
ATOM     73  O   UNL A   1      53.538  25.317  23.530  1.00  0.00    -0.237 OA
ATOM     74  O   UNL A   1      54.548  25.763  25.742  1.00  0.00    -0.237 OA
ATOM     75  O   UNL A   1      53.417  23.616  25.313  1.00  0.00    -0.744 OA
ENDBRANCH  71  72
ENDBRANCH  39  64
ENDBRANCH  13  14
ENDBRANCH   6   8
ENDBRANCH   3   4
ENDBRANCH   2   3
ENDBRANCH   1   2
BRANCH   1  76
ATOM     76  C   UNL A   1      31.758  29.061  26.963  1.00  0.00     0.002 C 
BRANCH  76  77
ATOM     77  C   UNL A   1      31.699  30.081  25.818  1.00  0.00     0.021 C 
BRANCH  77  78
ATOM     78  C   UNL A   1      31.050  29.543  24.543  1.00  0.00     0.116 C 
BRANCH  78  79
ATOM     79  N   UNL A   1      30.699  28.141  24.690  1.00  0.00    -0.356 N 
ATOM     80  C   UNL A   1      30.976  27.080  23.877  1.00  0.00     0.227 C 
ATOM     81  H   UNL A   1      30.184  27.922  25.500  1.00  0.00     0.163 HD
ATOM     82  O   UNL A   1      30.538  25.972  24.192  1.00  0.00    -0.274 OA
BRANCH  80  83
ATOM     83  C   UNL A   1      31.876  27.295  22.661  1.00  0.00     0.103 C 
ATOM     84  C   UNL A   1      31.629  26.316  21.558  1.00  0.00    -0.016 C 
ATOM     85  C   UNL A   1      33.340  27.036  23.055  1.00  0.00     0.047 C 
ATOM     86  C   UNL A   1      32.649  25.464  21.421  1.00  0.00    -0.006 C 
ATOM     87  C   UNL A   1      33.709  25.666  22.462  1.00  0.00     0.106 C 
BRANCH  87  88
ATOM     88  N   UNL A   1      33.568  24.619  23.444  1.00  0.00    -0.348 N 
ATOM     89  H   UNL A   1      32.682  24.337  23.769  1.00  0.00     0.164 HD
BRANCH  88  90
ATOM     90  C   UNL A   1      34.723  24.031  23.910  1.00  0.00     0.223 A 
ATOM     91  N   UNL A   1      35.440  23.347  23.009  1.00  0.00    -0.222 NA
ATOM     92  N   UNL A   1      35.123  24.236  25.176  1.00  0.00    -0.222 NA
ATOM     93  C   UNL A   1      36.644  22.892  23.401  1.00  0.00     0.117 A 
ATOM     94  C   UNL A   1      36.321  23.738  25.530  1.00  0.00     0.117 A 
ATOM     95  C   UNL A   1      37.145  23.064  24.667  1.00  0.00     0.040 A 
ENDBRANCH  88  90
ENDBRANCH  87  88
ENDBRANCH  80  83
ENDBRANCH  78  79
ENDBRANCH  77  78
ENDBRANCH  76  77
ENDBRANCH   1  76
TORSDOF 18
ENDMDL
