MODEL 1
REMARK VINA RESULT:     -11.5      0.000      0.000
REMARK SMILES COc1cc(C)cc2c1O[C@H](C(F)(F)F)C(C(=O)NCCCCCCNC(=O)c1ccc(-c3c4nc(c(-c5c(F)cc(S(=O)(=O)[O-])cc5F)c5ccc([nH]5)c(-c5c(F)cc(S(=O)(=O)[O-])cc5F)c5nc(c(-c6c(F)cc(S(=O)(=O)[O-])cc6F)c6ccc3[nH]6)C=C5)C=C4)cc1)=C2
REMARK SMILES IDX 23 1 22 2 21 3 20 4 19 5 17 6 18 7 16 9 3 10 4 11 9 12 5 13
REMARK SMILES IDX 8 14 10 15 6 16 7 17 95 18 11 19 2 20 1 21 12 22 13 23 14 24
REMARK SMILES IDX 15 25 24 26 25 27 26 28 27 29 28 31 29 32 30 33 94 34 31 35
REMARK SMILES IDX 93 36 32 37 33 38 34 39 87 40 35 41 92 42 86 43 88 44 36 45
REMARK SMILES IDX 91 46 85 47 84 48 37 50 71 51 50 52 70 53 51 54 54 55 69 56
REMARK SMILES IDX 89 57 52 58 53 59 68 61 90 62 55 63 38 64 39 65 48 66 40 67
REMARK SMILES IDX 41 68 47 69 49 70 42 71 43 72 44 73 45 74 46 75 72 76 73 77
REMARK SMILES IDX 82 78 74 79 75 80 81 81 83 82 76 83 77 84 78 85 79 86 80 87
REMARK SMILES IDX 56 88 57 89 66 90 58 91 59 92 65 93 67 94 60 95 61 96 62 97
REMARK SMILES IDX 63 98 64 99
REMARK H PARENT 19 8 26 30 88 49 54 60
REMARK Flexibility Score: inf
ROOT
ATOM      1  C   UNL A   1      36.006  32.919  28.251  1.00  0.00     0.002 C 
ENDROOT
BRANCH   1   2
ATOM      2  C   UNL A   1      34.624  32.261  28.137  1.00  0.00     0.002 C 
BRANCH   2   3
ATOM      3  C   UNL A   1      34.621  30.768  27.790  1.00  0.00     0.021 C 
BRANCH   3   4
ATOM      4  C   UNL A   1      33.517  30.347  26.823  1.00  0.00     0.116 C 
BRANCH   4   5
ATOM      5  N   UNL A   1      32.522  29.509  27.468  1.00  0.00    -0.352 N 
ATOM      6  C   UNL A   1      31.944  28.305  27.247  1.00  0.00     0.251 C 
ATOM      7  O   UNL A   1      31.125  27.956  28.104  1.00  0.00    -0.270 OA
ATOM      8  H   UNL A   1      32.174  29.930  28.289  1.00  0.00     0.163 HD
BRANCH   6   9
ATOM      9  C   UNL A   1      32.218  27.407  26.083  1.00  0.00     0.067 C 
ATOM     10  C   UNL A   1      33.118  24.717  22.979  1.00  0.00     0.161 A 
ATOM     11  C   UNL A   1      34.292  23.964  23.028  1.00  0.00     0.054 A 
ATOM     12  C   UNL A   1      32.794  25.582  24.029  1.00  0.00     0.169 A 
ATOM     13  C   UNL A   1      35.130  24.042  24.147  1.00  0.00    -0.047 A 
ATOM     14  C   UNL A   1      33.623  25.675  25.146  1.00  0.00     0.021 A 
ATOM     15  O   UNL A   1      31.619  26.270  23.938  1.00  0.00    -0.471 OA
ATOM     16  C   UNL A   1      36.398  23.243  24.213  1.00  0.00     0.044 C 
ATOM     17  C   UNL A   1      34.788  24.901  25.204  1.00  0.00     0.015 A 
ATOM     18  C   UNL A   1      33.250  26.557  26.245  1.00  0.00     0.025 C 
ATOM     19  C   UNL A   1      31.467  27.441  24.779  1.00  0.00     0.314 C 
BRANCH  10  20
ATOM     20  O   UNL A   1      32.309  24.708  21.873  1.00  0.00    -0.493 OA
ATOM     21  C   UNL A   1      32.744  25.626  20.874  1.00  0.00     0.278 C 
ENDBRANCH  10  20
BRANCH  19  22
ATOM     22  C   UNL A   1      31.770  28.700  23.946  1.00  0.00     0.429 C 
ATOM     23  F   UNL A   1      33.098  28.968  23.949  1.00  0.00    -0.167 F 
ATOM     24  F   UNL A   1      31.414  28.555  22.647  1.00  0.00    -0.167 F 
ATOM     25  F   UNL A   1      31.127  29.795  24.408  1.00  0.00    -0.167 F 
ENDBRANCH  19  22
ENDBRANCH   6   9
ENDBRANCH   4   5
ENDBRANCH   3   4
ENDBRANCH   2   3
ENDBRANCH   1   2
BRANCH   1  26
ATOM     26  C   UNL A   1      36.213  33.836  29.459  1.00  0.00     0.021 C 
BRANCH  26  27
ATOM     27  C   UNL A   1      36.930  33.199  30.643  1.00  0.00     0.116 C 
BRANCH  27  28
ATOM     28  N   UNL A   1      36.333  31.936  31.049  1.00  0.00    -0.352 N 
ATOM     29  C   UNL A   1      36.843  30.663  30.943  1.00  0.00     0.251 C 
ATOM     30  H   UNL A   1      35.440  32.003  31.457  1.00  0.00     0.163 HD
ATOM     31  O   UNL A   1      36.139  29.694  31.214  1.00  0.00    -0.269 OA
BRANCH  29  32
ATOM     32  C   UNL A   1      38.232  30.467  30.470  1.00  0.00     0.039 A 
ATOM     33  C   UNL A   1      38.514  30.386  29.105  1.00  0.00     0.014 A 
ATOM     34  C   UNL A   1      39.259  30.337  31.409  1.00  0.00     0.014 A 
ATOM     35  C   UNL A   1      39.789  30.017  28.686  1.00  0.00     0.010 A 
ATOM     36  C   UNL A   1      40.559  30.044  30.980  1.00  0.00     0.010 A 
ATOM     37  C   UNL A   1      40.824  29.833  29.618  1.00  0.00    -0.014 A 
BRANCH  37  38
ATOM     38  C   UNL A   1      42.167  29.415  29.138  1.00  0.00     0.031 A 
ATOM     39  C   UNL A   1      42.401  28.021  28.619  1.00  0.00     0.074 A 
ATOM     40  C   UNL A   1      43.165  30.320  29.110  1.00  0.00     0.049 A 
ATOM     41  N   UNL A   1      43.491  27.504  28.111  1.00  0.00    -0.248 NA
ATOM     42  C   UNL A   1      41.269  27.082  28.682  1.00  0.00     0.031 C 
ATOM     43  C   UNL A   1      43.059  31.701  29.588  1.00  0.00     0.029 A 
ATOM     44  N   UNL A   1      44.448  30.231  28.635  1.00  0.00    -0.354 N 
ATOM     45  C   UNL A   1      43.186  26.182  27.811  1.00  0.00     0.074 A 
ATOM     46  C   UNL A   1      41.815  25.965  28.218  1.00  0.00     0.031 C 
ATOM     47  C   UNL A   1      44.207  32.344  29.331  1.00  0.00     0.029 A 
ATOM     48  C   UNL A   1      45.148  31.411  28.718  1.00  0.00     0.049 A 
ATOM     49  H   UNL A   1      44.831  29.402  28.270  1.00  0.00     0.167 HD
ATOM     50  C   UNL A   1      43.971  25.241  27.235  1.00  0.00     0.037 A 
ATOM     51  C   UNL A   1      46.409  31.712  28.349  1.00  0.00     0.037 A 
ATOM     52  C   UNL A   1      45.326  25.471  26.802  1.00  0.00     0.049 A 
ATOM     53  C   UNL A   1      47.264  30.647  27.728  1.00  0.00     0.074 A 
ATOM     54  C   UNL A   1      46.188  24.590  26.172  1.00  0.00     0.029 A 
ATOM     55  N   UNL A   1      46.014  26.666  26.951  1.00  0.00    -0.354 N 
ATOM     56  N   UNL A   1      46.950  29.408  27.435  1.00  0.00    -0.248 NA
ATOM     57  C   UNL A   1      48.649  31.013  27.397  1.00  0.00     0.031 C 
ATOM     58  C   UNL A   1      47.411  25.240  25.975  1.00  0.00     0.029 A 
ATOM     59  C   UNL A   1      47.298  26.538  26.446  1.00  0.00     0.049 A 
ATOM     60  H   UNL A   1      45.645  27.484  27.356  1.00  0.00     0.167 HD
ATOM     61  C   UNL A   1      48.095  28.846  26.885  1.00  0.00     0.074 A 
ATOM     62  C   UNL A   1      49.104  29.886  26.866  1.00  0.00     0.031 C 
ATOM     63  C   UNL A   1      48.294  27.580  26.442  1.00  0.00     0.037 A 
BRANCH  50  64
ATOM     64  C   UNL A   1      43.392  23.867  27.039  1.00  0.00     0.058 A 
ATOM     65  C   UNL A   1      42.827  23.473  25.817  1.00  0.00     0.135 A 
ATOM     66  C   UNL A   1      43.452  22.916  28.070  1.00  0.00     0.135 A 
ATOM     67  F   UNL A   1      42.731  24.349  24.804  1.00  0.00    -0.206 F 
ATOM     68  C   UNL A   1      42.325  22.189  25.628  1.00  0.00     0.059 A 
ATOM     69  C   UNL A   1      42.976  21.619  27.897  1.00  0.00     0.059 A 
ATOM     70  F   UNL A   1      43.983  23.240  29.260  1.00  0.00    -0.206 F 
ATOM     71  C   UNL A   1      42.403  21.268  26.676  1.00  0.00     0.060 A 
BRANCH  71  72
ATOM     72  S   UNL A   1      41.754  19.605  26.411  1.00  0.00     0.124 S 
ATOM     73  O   UNL A   1      42.110  18.951  27.668  1.00  0.00    -0.237 OA
ATOM     74  O   UNL A   1      40.331  19.852  26.208  1.00  0.00    -0.237 OA
ATOM     75  O   UNL A   1      42.481  19.138  25.234  1.00  0.00    -0.744 OA
ENDBRANCH  71  72
ENDBRANCH  50  64
BRANCH  51  76
ATOM     76  C   UNL A   1      46.920  33.091  28.557  1.00  0.00     0.058 A 
ATOM     77  C   UNL A   1      46.875  34.040  27.527  1.00  0.00     0.135 A 
ATOM     78  C   UNL A   1      47.406  33.502  29.809  1.00  0.00     0.135 A 
ATOM     79  F   UNL A   1      46.426  33.690  26.311  1.00  0.00    -0.206 F 
ATOM     80  C   UNL A   1      47.288  35.353  27.729  1.00  0.00     0.059 A 
ATOM     81  C   UNL A   1      47.801  34.815  30.042  1.00  0.00     0.059 A 
ATOM     82  F   UNL A   1      47.453  32.633  30.831  1.00  0.00    -0.206 F 
ATOM     83  C   UNL A   1      47.740  35.733  28.994  1.00  0.00     0.060 A 
BRANCH  83  84
ATOM     84  S   UNL A   1      48.190  37.460  29.271  1.00  0.00     0.124 S 
ATOM     85  O   UNL A   1      46.932  38.140  28.990  1.00  0.00    -0.237 OA
ATOM     86  O   UNL A   1      48.610  37.446  30.670  1.00  0.00    -0.237 OA
ATOM     87  O   UNL A   1      49.262  37.686  28.306  1.00  0.00    -0.744 OA
ENDBRANCH  83  84
ENDBRANCH  51  76
BRANCH  63  88
ATOM     88  C   UNL A   1      49.653  27.239  25.904  1.00  0.00     0.058 A 
ATOM     89  C   UNL A   1      50.667  26.755  26.743  1.00  0.00     0.135 A 
ATOM     90  C   UNL A   1      49.918  27.318  24.527  1.00  0.00     0.135 A 
ATOM     91  F   UNL A   1      50.465  26.670  28.067  1.00  0.00    -0.206 F 
ATOM     92  C   UNL A   1      51.902  26.364  26.237  1.00  0.00     0.059 A 
ATOM     93  C   UNL A   1      51.138  26.912  23.997  1.00  0.00     0.059 A 
ATOM     94  F   UNL A   1      48.977  27.768  23.683  1.00  0.00    -0.206 F 
ATOM     95  C   UNL A   1      52.125  26.440  24.861  1.00  0.00     0.060 A 
BRANCH  95  96
ATOM     96  S   UNL A   1      53.711  25.872  24.212  1.00  0.00     0.124 S 
ATOM     97  O   UNL A   1      53.497  25.982  22.773  1.00  0.00    -0.237 OA
ATOM     98  O   UNL A   1      54.647  26.832  24.789  1.00  0.00    -0.237 OA
ATOM     99  O   UNL A   1      53.822  24.510  24.728  1.00  0.00    -0.744 OA
ENDBRANCH  95  96
ENDBRANCH  63  88
ENDBRANCH  37  38
ENDBRANCH  29  32
ENDBRANCH  27  28
ENDBRANCH  26  27
ENDBRANCH   1  26
TORSDOF 18
ENDMDL
MODEL 2
REMARK VINA RESULT:     -11.5      3.188      4.472
REMARK SMILES COc1cc(C)cc2c1O[C@H](C(F)(F)F)C(C(=O)NCCCCCCNC(=O)c1ccc(-c3c4nc(c(-c5c(F)cc(S(=O)(=O)[O-])cc5F)c5ccc([nH]5)c(-c5c(F)cc(S(=O)(=O)[O-])cc5F)c5nc(c(-c6c(F)cc(S(=O)(=O)[O-])cc6F)c6ccc3[nH]6)C=C5)C=C4)cc1)=C2
REMARK SMILES IDX 23 1 22 2 21 3 20 4 19 5 17 6 18 7 16 9 3 10 4 11 9 12 5 13
REMARK SMILES IDX 8 14 10 15 6 16 7 17 95 18 11 19 2 20 1 21 12 22 13 23 14 24
REMARK SMILES IDX 15 25 24 26 25 27 26 28 27 29 28 31 29 32 30 33 94 34 31 35
REMARK SMILES IDX 93 36 32 37 33 38 34 39 87 40 35 41 92 42 86 43 88 44 36 45
REMARK SMILES IDX 91 46 85 47 84 48 37 50 71 51 50 52 70 53 51 54 54 55 69 56
REMARK SMILES IDX 89 57 52 58 53 59 68 61 90 62 55 63 38 64 39 65 48 66 40 67
REMARK SMILES IDX 41 68 47 69 49 70 42 71 43 72 44 73 45 74 46 75 72 76 73 77
REMARK SMILES IDX 82 78 74 79 75 80 81 81 83 82 76 83 77 84 78 85 79 86 80 87
REMARK SMILES IDX 56 88 57 89 66 90 58 91 59 92 65 93 67 94 60 95 61 96 62 97
REMARK SMILES IDX 63 98 64 99
REMARK H PARENT 19 8 26 30 88 49 54 60
REMARK Flexibility Score: inf
ROOT
ATOM      1  C   UNL A   1      31.713  28.588  25.361  1.00  0.00     0.002 C 
ENDROOT
BRANCH   1   2
ATOM      2  C   UNL A   1      30.856  29.364  24.350  1.00  0.00     0.002 C 
BRANCH   2   3
ATOM      3  C   UNL A   1      31.096  29.026  22.874  1.00  0.00     0.021 C 
BRANCH   3   4
ATOM      4  C   UNL A   1      30.604  27.643  22.456  1.00  0.00     0.116 C 
BRANCH   4   5
ATOM      5  N   UNL A   1      31.520  26.998  21.532  1.00  0.00    -0.352 N 
ATOM      6  C   UNL A   1      32.476  26.040  21.589  1.00  0.00     0.251 C 
ATOM      7  O   UNL A   1      33.015  25.779  20.507  1.00  0.00    -0.270 OA
ATOM      8  H   UNL A   1      31.420  27.352  20.618  1.00  0.00     0.163 HD
BRANCH   6   9
ATOM      9  C   UNL A   1      32.905  25.308  22.820  1.00  0.00     0.067 C 
ATOM     10  C   UNL A   1      34.368  23.300  26.212  1.00  0.00     0.161 A 
ATOM     11  C   UNL A   1      35.603  22.652  26.160  1.00  0.00     0.054 A 
ATOM     12  C   UNL A   1      33.896  24.004  25.100  1.00  0.00     0.169 A 
ATOM     13  C   UNL A   1      36.393  22.738  25.008  1.00  0.00    -0.047 A 
ATOM     14  C   UNL A   1      34.669  24.092  23.943  1.00  0.00     0.021 A 
ATOM     15  O   UNL A   1      32.696  24.642  25.221  1.00  0.00    -0.471 OA
ATOM     16  C   UNL A   1      37.720  22.043  24.933  1.00  0.00     0.044 C 
ATOM     17  C   UNL A   1      35.918  23.461  23.901  1.00  0.00     0.015 A 
ATOM     18  C   UNL A   1      34.175  24.860  22.807  1.00  0.00     0.025 C 
ATOM     19  C   UNL A   1      32.014  25.013  23.996  1.00  0.00     0.314 C 
BRANCH  10  20
ATOM     20  O   UNL A   1      33.546  23.186  27.303  1.00  0.00    -0.493 OA
ATOM     21  C   UNL A   1      33.528  21.863  27.833  1.00  0.00     0.278 C 
ENDBRANCH  10  20
BRANCH  19  22
ATOM     22  C   UNL A   1      30.936  23.960  23.683  1.00  0.00     0.429 C 
ATOM     23  F   UNL A   1      31.430  22.996  22.869  1.00  0.00    -0.167 F 
ATOM     24  F   UNL A   1      30.495  23.328  24.797  1.00  0.00    -0.167 F 
ATOM     25  F   UNL A   1      29.850  24.493  23.080  1.00  0.00    -0.167 F 
ENDBRANCH  19  22
ENDBRANCH   6   9
ENDBRANCH   4   5
ENDBRANCH   3   4
ENDBRANCH   2   3
ENDBRANCH   1   2
BRANCH   1  26
ATOM     26  C   UNL A   1      33.185  28.402  24.987  1.00  0.00     0.021 C 
BRANCH  26  27
ATOM     27  C   UNL A   1      34.177  28.628  26.122  1.00  0.00     0.116 C 
BRANCH  27  28
ATOM     28  N   UNL A   1      33.936  29.867  26.842  1.00  0.00    -0.352 N 
ATOM     29  C   UNL A   1      34.726  30.493  27.778  1.00  0.00     0.251 C 
ATOM     30  H   UNL A   1      33.089  30.322  26.630  1.00  0.00     0.163 HD
ATOM     31  O   UNL A   1      34.300  31.469  28.390  1.00  0.00    -0.269 OA
BRANCH  29  32
ATOM     32  C   UNL A   1      36.078  29.965  28.067  1.00  0.00     0.039 A 
ATOM     33  C   UNL A   1      36.394  29.472  29.335  1.00  0.00     0.014 A 
ATOM     34  C   UNL A   1      37.048  29.988  27.061  1.00  0.00     0.014 A 
ATOM     35  C   UNL A   1      37.714  29.155  29.641  1.00  0.00     0.010 A 
ATOM     36  C   UNL A   1      38.359  29.592  27.351  1.00  0.00     0.010 A 
ATOM     37  C   UNL A   1      38.713  29.219  28.656  1.00  0.00    -0.014 A 
BRANCH  37  38
ATOM     38  C   UNL A   1      40.117  28.896  29.024  1.00  0.00     0.031 A 
ATOM     39  C   UNL A   1      40.724  27.568  28.658  1.00  0.00     0.074 A 
ATOM     40  C   UNL A   1      40.866  29.834  29.635  1.00  0.00     0.049 A 
ATOM     41  N   UNL A   1      41.947  27.142  28.850  1.00  0.00    -0.248 NA
ATOM     42  C   UNL A   1      39.849  26.588  27.994  1.00  0.00     0.031 C 
ATOM     43  C   UNL A   1      40.387  31.157  30.042  1.00  0.00     0.029 A 
ATOM     44  N   UNL A   1      42.191  29.836  29.992  1.00  0.00    -0.354 N 
ATOM     45  C   UNL A   1      41.985  25.845  28.351  1.00  0.00     0.074 A 
ATOM     46  C   UNL A   1      40.655  25.541  27.870  1.00  0.00     0.031 C 
ATOM     47  C   UNL A   1      41.414  31.862  30.540  1.00  0.00     0.029 A 
ATOM     48  C   UNL A   1      42.611  31.027  30.537  1.00  0.00     0.049 A 
ATOM     49  H   UNL A   1      42.783  29.060  29.870  1.00  0.00     0.167 HD
ATOM     50  C   UNL A   1      43.035  24.992  28.286  1.00  0.00     0.037 A 
ATOM     51  C   UNL A   1      43.822  31.406  30.989  1.00  0.00     0.037 A 
ATOM     52  C   UNL A   1      44.366  25.311  28.737  1.00  0.00     0.049 A 
ATOM     53  C   UNL A   1      44.966  30.437  30.920  1.00  0.00     0.074 A 
ATOM     54  C   UNL A   1      45.504  24.525  28.677  1.00  0.00     0.029 A 
ATOM     55  N   UNL A   1      44.737  26.509  29.329  1.00  0.00    -0.354 N 
ATOM     56  N   UNL A   1      44.985  29.222  30.427  1.00  0.00    -0.248 NA
ATOM     57  C   UNL A   1      46.251  30.882  31.480  1.00  0.00     0.031 C 
ATOM     58  C   UNL A   1      46.556  25.234  29.267  1.00  0.00     0.029 A 
ATOM     59  C   UNL A   1      46.082  26.476  29.660  1.00  0.00     0.049 A 
ATOM     60  H   UNL A   1      44.134  27.270  29.490  1.00  0.00     0.167 HD
ATOM     61  C   UNL A   1      46.281  28.757  30.615  1.00  0.00     0.074 A 
ATOM     62  C   UNL A   1      47.023  29.828  31.248  1.00  0.00     0.031 C 
ATOM     63  C   UNL A   1      46.805  27.547  30.297  1.00  0.00     0.037 A 
BRANCH  50  64
ATOM     64  C   UNL A   1      42.794  23.624  27.709  1.00  0.00     0.058 A 
ATOM     65  C   UNL A   1      42.943  23.366  26.339  1.00  0.00     0.135 A 
ATOM     66  C   UNL A   1      42.463  22.547  28.548  1.00  0.00     0.135 A 
ATOM     67  F   UNL A   1      43.244  24.364  25.492  1.00  0.00    -0.206 F 
ATOM     68  C   UNL A   1      42.755  22.091  25.814  1.00  0.00     0.059 A 
ATOM     69  C   UNL A   1      42.291  21.258  28.048  1.00  0.00     0.059 A 
ATOM     70  F   UNL A   1      42.309  22.739  29.867  1.00  0.00    -0.206 F 
ATOM     71  C   UNL A   1      42.428  21.043  26.678  1.00  0.00     0.060 A 
BRANCH  71  72
ATOM     72  S   UNL A   1      42.195  19.394  25.982  1.00  0.00     0.124 S 
ATOM     73  O   UNL A   1      42.800  18.555  27.013  1.00  0.00    -0.237 OA
ATOM     74  O   UNL A   1      40.743  19.304  25.866  1.00  0.00    -0.237 OA
ATOM     75  O   UNL A   1      42.920  19.452  24.716  1.00  0.00    -0.744 OA
ENDBRANCH  71  72
ENDBRANCH  50  64
BRANCH  51  76
ATOM     76  C   UNL A   1      44.000  32.775  31.536  1.00  0.00     0.058 A 
ATOM     77  C   UNL A   1      44.298  33.855  30.694  1.00  0.00     0.135 A 
ATOM     78  C   UNL A   1      43.816  33.039  32.902  1.00  0.00     0.135 A 
ATOM     79  F   UNL A   1      44.490  33.650  29.381  1.00  0.00    -0.206 F 
ATOM     80  C   UNL A   1      44.400  35.153  31.185  1.00  0.00     0.059 A 
ATOM     81  C   UNL A   1      43.889  34.330  33.413  1.00  0.00     0.059 A 
ATOM     82  F   UNL A   1      43.515  32.038  33.746  1.00  0.00    -0.206 F 
ATOM     83  C   UNL A   1      44.184  35.381  32.545  1.00  0.00     0.060 A 
BRANCH  83  84
ATOM     84  S   UNL A   1      44.231  37.080  33.157  1.00  0.00     0.124 S 
ATOM     85  O   UNL A   1      45.412  37.052  34.010  1.00  0.00    -0.237 OA
ATOM     86  O   UNL A   1      44.353  37.847  31.920  1.00  0.00    -0.237 OA
ATOM     87  O   UNL A   1      42.953  37.223  33.848  1.00  0.00    -0.744 OA
ENDBRANCH  83  84
ENDBRANCH  51  76
BRANCH  63  88
ATOM     88  C   UNL A   1      48.248  27.308  30.632  1.00  0.00     0.058 A 
ATOM     89  C   UNL A   1      48.622  26.668  31.822  1.00  0.00     0.135 A 
ATOM     90  C   UNL A   1      49.261  27.646  29.719  1.00  0.00     0.135 A 
ATOM     91  F   UNL A   1      47.692  26.333  32.730  1.00  0.00    -0.206 F 
ATOM     92  C   UNL A   1      49.953  26.373  32.100  1.00  0.00     0.059 A 
ATOM     93  C   UNL A   1      50.595  27.343  29.967  1.00  0.00     0.059 A 
ATOM     94  F   UNL A   1      48.952  28.254  28.563  1.00  0.00    -0.206 F 
ATOM     95  C   UNL A   1      50.932  26.709  31.163  1.00  0.00     0.060 A 
BRANCH  95  96
ATOM     96  S   UNL A   1      52.647  26.267  31.510  1.00  0.00     0.124 S 
ATOM     97  O   UNL A   1      52.485  25.018  32.248  1.00  0.00    -0.237 OA
ATOM     98  O   UNL A   1      53.215  26.142  30.171  1.00  0.00    -0.237 OA
ATOM     99  O   UNL A   1      53.139  27.398  32.290  1.00  0.00    -0.744 OA
ENDBRANCH  95  96
ENDBRANCH  63  88
ENDBRANCH  37  38
ENDBRANCH  29  32
ENDBRANCH  27  28
ENDBRANCH  26  27
ENDBRANCH   1  26
TORSDOF 18
ENDMDL
MODEL 3
REMARK VINA RESULT:     -11.4      6.576     11.856
REMARK SMILES COc1cc(C)cc2c1O[C@H](C(F)(F)F)C(C(=O)NCCCCCCNC(=O)c1ccc(-c3c4nc(c(-c5c(F)cc(S(=O)(=O)[O-])cc5F)c5ccc([nH]5)c(-c5c(F)cc(S(=O)(=O)[O-])cc5F)c5nc(c(-c6c(F)cc(S(=O)(=O)[O-])cc6F)c6ccc3[nH]6)C=C5)C=C4)cc1)=C2
REMARK SMILES IDX 23 1 22 2 21 3 20 4 19 5 17 6 18 7 16 9 3 10 4 11 9 12 5 13
REMARK SMILES IDX 8 14 10 15 6 16 7 17 95 18 11 19 2 20 1 21 12 22 13 23 14 24
REMARK SMILES IDX 15 25 24 26 25 27 26 28 27 29 28 31 29 32 30 33 94 34 31 35
REMARK SMILES IDX 93 36 32 37 33 38 34 39 87 40 35 41 92 42 86 43 88 44 36 45
REMARK SMILES IDX 91 46 85 47 84 48 37 50 71 51 50 52 70 53 51 54 54 55 69 56
REMARK SMILES IDX 89 57 52 58 53 59 68 61 90 62 55 63 38 64 39 65 48 66 40 67
REMARK SMILES IDX 41 68 47 69 49 70 42 71 43 72 44 73 45 74 46 75 72 76 73 77
REMARK SMILES IDX 82 78 74 79 75 80 81 81 83 82 76 83 77 84 78 85 79 86 80 87
REMARK SMILES IDX 56 88 57 89 66 90 58 91 59 92 65 93 67 94 60 95 61 96 62 97
REMARK SMILES IDX 63 98 64 99
REMARK H PARENT 19 8 26 30 88 49 54 60
REMARK Flexibility Score: inf
ROOT
ATOM      1  C   UNL A   1      41.368  21.196  27.068  1.00  0.00     0.002 C 
ENDROOT
BRANCH   1   2
ATOM      2  C   UNL A   1      40.158  21.267  26.126  1.00  0.00     0.002 C 
BRANCH   2   3
ATOM      3  C   UNL A   1      39.260  22.499  26.286  1.00  0.00     0.021 C 
BRANCH   3   4
ATOM      4  C   UNL A   1      37.796  22.263  25.919  1.00  0.00     0.116 C 
BRANCH   4   5
ATOM      5  N   UNL A   1      37.536  22.547  24.519  1.00  0.00    -0.352 N 
ATOM      6  C   UNL A   1      36.494  22.981  23.771  1.00  0.00     0.251 C 
ATOM      7  O   UNL A   1      36.735  23.105  22.565  1.00  0.00    -0.270 OA
ATOM      8  H   UNL A   1      38.332  22.380  23.963  1.00  0.00     0.163 HD
BRANCH   6   9
ATOM      9  C   UNL A   1      35.128  23.307  24.284  1.00  0.00     0.067 C 
ATOM     10  C   UNL A   1      31.343  24.484  25.688  1.00  0.00     0.161 A 
ATOM     11  C   UNL A   1      31.189  25.713  26.330  1.00  0.00     0.054 A 
ATOM     12  C   UNL A   1      32.591  24.106  25.182  1.00  0.00     0.169 A 
ATOM     13  C   UNL A   1      32.274  26.592  26.434  1.00  0.00    -0.047 A 
ATOM     14  C   UNL A   1      33.682  24.968  25.286  1.00  0.00     0.021 A 
ATOM     15  O   UNL A   1      32.673  22.906  24.539  1.00  0.00    -0.471 OA
ATOM     16  C   UNL A   1      32.127  27.915  27.126  1.00  0.00     0.044 C 
ATOM     17  C   UNL A   1      33.520  26.211  25.910  1.00  0.00     0.015 A 
ATOM     18  C   UNL A   1      34.966  24.570  24.723  1.00  0.00     0.025 C 
ATOM     19  C   UNL A   1      33.992  22.325  24.381  1.00  0.00     0.314 C 
BRANCH  10  20
ATOM     20  O   UNL A   1      30.316  23.579  25.621  1.00  0.00    -0.493 OA
ATOM     21  C   UNL A   1      30.027  22.992  26.887  1.00  0.00     0.278 C 
ENDBRANCH  10  20
BRANCH  19  22
ATOM     22  C   UNL A   1      34.208  21.265  25.477  1.00  0.00     0.429 C 
ATOM     23  F   UNL A   1      33.054  20.605  25.740  1.00  0.00    -0.167 F 
ATOM     24  F   UNL A   1      35.110  20.324  25.111  1.00  0.00    -0.167 F 
ATOM     25  F   UNL A   1      34.650  21.801  26.636  1.00  0.00    -0.167 F 
ENDBRANCH  19  22
ENDBRANCH   6   9
ENDBRANCH   4   5
ENDBRANCH   3   4
ENDBRANCH   2   3
ENDBRANCH   1   2
BRANCH   1  26
ATOM     26  C   UNL A   1      41.714  22.488  27.811  1.00  0.00     0.021 C 
BRANCH  26  27
ATOM     27  C   UNL A   1      42.829  23.318  27.187  1.00  0.00     0.116 C 
BRANCH  27  28
ATOM     28  N   UNL A   1      42.365  24.147  26.086  1.00  0.00    -0.352 N 
ATOM     29  C   UNL A   1      41.777  25.390  26.126  1.00  0.00     0.251 C 
ATOM     30  H   UNL A   1      42.490  23.766  25.187  1.00  0.00     0.163 HD
ATOM     31  O   UNL A   1      41.319  25.887  25.101  1.00  0.00    -0.269 OA
BRANCH  29  32
ATOM     32  C   UNL A   1      41.668  26.108  27.415  1.00  0.00     0.039 A 
ATOM     33  C   UNL A   1      40.609  25.850  28.287  1.00  0.00     0.014 A 
ATOM     34  C   UNL A   1      42.627  27.072  27.741  1.00  0.00     0.014 A 
ATOM     35  C   UNL A   1      40.421  26.662  29.402  1.00  0.00     0.010 A 
ATOM     36  C   UNL A   1      42.478  27.834  28.905  1.00  0.00     0.010 A 
ATOM     37  C   UNL A   1      41.347  27.669  29.719  1.00  0.00    -0.014 A 
BRANCH  37  38
ATOM     38  C   UNL A   1      41.102  28.534  30.903  1.00  0.00     0.031 A 
ATOM     39  C   UNL A   1      42.003  28.466  32.108  1.00  0.00     0.074 A 
ATOM     40  C   UNL A   1      40.098  29.432  30.862  1.00  0.00     0.049 A 
ATOM     41  N   UNL A   1      41.969  29.185  33.201  1.00  0.00    -0.248 NA
ATOM     42  C   UNL A   1      43.078  27.461  32.087  1.00  0.00     0.031 C 
ATOM     43  C   UNL A   1      39.157  29.589  29.750  1.00  0.00     0.029 A 
ATOM     44  N   UNL A   1      39.719  30.399  31.757  1.00  0.00    -0.354 N 
ATOM     45  C   UNL A   1      43.000  28.711  34.004  1.00  0.00     0.074 A 
ATOM     46  C   UNL A   1      43.627  27.624  33.285  1.00  0.00     0.031 C 
ATOM     47  C   UNL A   1      38.347  30.628  30.004  1.00  0.00     0.029 A 
ATOM     48  C   UNL A   1      38.675  31.178  31.315  1.00  0.00     0.049 A 
ATOM     49  H   UNL A   1      40.153  30.525  32.631  1.00  0.00     0.167 HD
ATOM     50  C   UNL A   1      43.398  29.152  35.222  1.00  0.00     0.037 A 
ATOM     51  C   UNL A   1      38.045  32.215  31.900  1.00  0.00     0.037 A 
ATOM     52  C   UNL A   1      42.791  30.256  35.920  1.00  0.00     0.049 A 
ATOM     53  C   UNL A   1      38.493  32.674  33.257  1.00  0.00     0.074 A 
ATOM     54  C   UNL A   1      43.149  30.801  37.141  1.00  0.00     0.029 A 
ATOM     55  N   UNL A   1      41.703  30.984  35.461  1.00  0.00    -0.354 N 
ATOM     56  N   UNL A   1      39.483  32.225  33.991  1.00  0.00    -0.248 NA
ATOM     57  C   UNL A   1      37.735  33.772  33.873  1.00  0.00     0.031 C 
ATOM     58  C   UNL A   1      42.253  31.834  37.439  1.00  0.00     0.029 A 
ATOM     59  C   UNL A   1      41.362  31.959  36.385  1.00  0.00     0.049 A 
ATOM     60  H   UNL A   1      41.241  30.831  34.605  1.00  0.00     0.167 HD
ATOM     61  C   UNL A   1      39.468  32.984  35.154  1.00  0.00     0.074 A 
ATOM     62  C   UNL A   1      38.385  33.936  35.019  1.00  0.00     0.031 C 
ATOM     63  C   UNL A   1      40.276  32.894  36.239  1.00  0.00     0.037 A 
BRANCH  50  64
ATOM     64  C   UNL A   1      44.543  28.439  35.887  1.00  0.00     0.058 A 
ATOM     65  C   UNL A   1      44.350  27.255  36.614  1.00  0.00     0.135 A 
ATOM     66  C   UNL A   1      45.856  28.918  35.749  1.00  0.00     0.135 A 
ATOM     67  F   UNL A   1      43.113  26.764  36.789  1.00  0.00    -0.206 F 
ATOM     68  C   UNL A   1      45.417  26.579  37.198  1.00  0.00     0.059 A 
ATOM     69  C   UNL A   1      46.941  28.246  36.306  1.00  0.00     0.059 A 
ATOM     70  F   UNL A   1      46.096  30.046  35.062  1.00  0.00    -0.206 F 
ATOM     71  C   UNL A   1      46.710  27.083  37.038  1.00  0.00     0.060 A 
BRANCH  71  72
ATOM     72  S   UNL A   1      48.083  26.188  37.795  1.00  0.00     0.124 S 
ATOM     73  O   UNL A   1      49.063  26.192  36.713  1.00  0.00    -0.237 OA
ATOM     74  O   UNL A   1      48.407  27.026  38.945  1.00  0.00    -0.237 OA
ATOM     75  O   UNL A   1      47.506  24.886  38.115  1.00  0.00    -0.744 OA
ENDBRANCH  71  72
ENDBRANCH  50  64
BRANCH  51  76
ATOM     76  C   UNL A   1      36.929  32.886  31.187  1.00  0.00     0.058 A 
ATOM     77  C   UNL A   1      37.179  33.839  30.191  1.00  0.00     0.135 A 
ATOM     78  C   UNL A   1      35.593  32.541  31.446  1.00  0.00     0.135 A 
ATOM     79  F   UNL A   1      38.440  34.206  29.914  1.00  0.00    -0.206 F 
ATOM     80  C   UNL A   1      36.144  34.424  29.468  1.00  0.00     0.059 A 
ATOM     81  C   UNL A   1      34.543  33.095  30.721  1.00  0.00     0.059 A 
ATOM     82  F   UNL A   1      35.304  31.622  32.381  1.00  0.00    -0.206 F 
ATOM     83  C   UNL A   1      34.829  34.038  29.734  1.00  0.00     0.060 A 
BRANCH  83  84
ATOM     84  S   UNL A   1      33.500  34.737  28.732  1.00  0.00     0.124 S 
ATOM     85  O   UNL A   1      32.516  35.085  29.750  1.00  0.00    -0.237 OA
ATOM     86  O   UNL A   1      34.168  35.859  28.079  1.00  0.00    -0.237 OA
ATOM     87  O   UNL A   1      33.133  33.636  27.846  1.00  0.00    -0.744 OA
ENDBRANCH  83  84
ENDBRANCH  51  76
BRANCH  63  88
ATOM     88  C   UNL A   1      40.021  33.843  37.374  1.00  0.00     0.058 A 
ATOM     89  C   UNL A   1      40.639  35.101  37.422  1.00  0.00     0.135 A 
ATOM     90  C   UNL A   1      39.089  33.528  38.376  1.00  0.00     0.135 A 
ATOM     91  F   UNL A   1      41.544  35.445  36.492  1.00  0.00    -0.206 F 
ATOM     92  C   UNL A   1      40.346  36.015  38.428  1.00  0.00     0.059 A 
ATOM     93  C   UNL A   1      38.765  34.435  39.379  1.00  0.00     0.059 A 
ATOM     94  F   UNL A   1      38.465  32.340  38.369  1.00  0.00    -0.206 F 
ATOM     95  C   UNL A   1      39.402  35.675  39.399  1.00  0.00     0.060 A 
BRANCH  95  96
ATOM     96  S   UNL A   1      38.988  36.895  40.664  1.00  0.00     0.124 S 
ATOM     97  O   UNL A   1      38.250  37.885  39.887  1.00  0.00    -0.237 OA
ATOM     98  O   UNL A   1      38.196  36.110  41.607  1.00  0.00    -0.237 OA
ATOM     99  O   UNL A   1      40.291  37.328  41.159  1.00  0.00    -0.744 OA
ENDBRANCH  95  96
ENDBRANCH  63  88
ENDBRANCH  37  38
ENDBRANCH  29  32
ENDBRANCH  27  28
ENDBRANCH  26  27
ENDBRANCH   1  26
TORSDOF 18
ENDMDL
