MODEL 1
REMARK VINA RESULT:     -12.2      0.000      0.000
REMARK SMILES COc1cccc2ccc(C[N@@H+]3CC4(CC[NH2+]CC4)C[C@@H]3C(=O)NCCCCCCNC(=O)c3ccc(-c4c5nc(c(-c6c(F)cc(S(=O)(=O)[O-])cc6F)c6ccc([nH]6)c(-c6c(F)cc(S(=O)(=O)[O-])cc6F)c6nc(c(-c7c(F)cc(S(=O)(=O)[O-])cc7F)c7ccc4[nH]7)C=C6)C=C5)cc3)nc12
REMARK SMILES IDX 27 1 26 2 25 3 24 4 22 5 23 6 21 8 12 9 13 10 14 12 20 13
REMARK SMILES IDX 15 14 19 15 16 16 18 17 17 18 11 21 10 22 3 23 4 24 101 25
REMARK SMILES IDX 5 26 7 27 100 28 6 29 8 30 9 31 2 32 1 33 28 34 29 35 30 36
REMARK SMILES IDX 31 37 32 38 33 40 34 41 35 42 99 43 36 44 98 45 37 46 38 47
REMARK SMILES IDX 39 48 92 49 40 50 97 51 91 52 93 53 41 54 96 55 90 56 89 57
REMARK SMILES IDX 42 59 76 60 55 61 75 62 56 63 59 64 74 65 94 66 57 67 58 68
REMARK SMILES IDX 73 70 95 71 60 72 43 73 44 74 53 75 45 76 46 77 52 78 54 79
REMARK SMILES IDX 47 80 48 81 49 82 50 83 51 84 77 85 78 86 87 87 79 88 80 89
REMARK SMILES IDX 86 90 88 91 81 92 82 93 83 94 84 95 85 96 61 97 62 98 71 99
REMARK SMILES IDX 63 100 64 101 70 102 72 103 65 104 66 105 67 106 68 107
REMARK SMILES IDX 69 108
REMARK H PARENT 24 7 12 11 17 19 17 20 31 39 93 58 59 69
REMARK Flexibility Score: inf
ROOT
ATOM      1  C   UNL A   1      32.212  29.437  26.129  1.00  0.00     0.002 C 
ENDROOT
BRANCH   1   2
ATOM      2  C   UNL A   1      31.497  28.258  26.785  1.00  0.00     0.021 C 
BRANCH   2   3
ATOM      3  C   UNL A   1      32.113  26.887  26.529  1.00  0.00     0.116 C 
BRANCH   3   4
ATOM      4  N   UNL A   1      31.259  25.787  26.927  1.00  0.00    -0.351 N 
ATOM      5  C   UNL A   1      31.450  24.435  26.915  1.00  0.00     0.278 C 
ATOM      6  O   UNL A   1      30.468  23.759  27.254  1.00  0.00    -0.268 OA
ATOM      7  H   UNL A   1      30.379  26.066  27.270  1.00  0.00     0.163 HD
BRANCH   5   8
ATOM      8  C   UNL A   1      32.740  23.755  26.374  1.00  0.00     0.275 C 
ATOM      9  N   UNL A   1      32.830  23.640  24.894  1.00  0.00    -0.319 N 
ATOM     10  C   UNL A   1      33.880  22.663  24.598  1.00  0.00     0.270 C 
ATOM     11  H   UNL A   1      33.076  24.570  24.554  1.00  0.00     0.349 HD
ATOM     12  C   UNL A   1      34.015  21.715  25.808  1.00  0.00     0.036 C 
ATOM     13  C   UNL A   1      33.165  22.388  26.891  1.00  0.00     0.089 C 
ATOM     14  C   UNL A   1      35.493  21.538  26.227  1.00  0.00     0.074 C 
ATOM     15  C   UNL A   1      33.485  20.284  25.603  1.00  0.00     0.074 C 
ATOM     16  C   UNL A   1      36.275  20.695  25.207  1.00  0.00     0.261 C 
ATOM     17  C   UNL A   1      34.259  19.523  24.537  1.00  0.00     0.261 C 
ATOM     18  N   UNL A   1      35.662  19.396  24.926  1.00  0.00    -0.346 N 
ATOM     19  H   UNL A   1      35.719  18.817  25.764  1.00  0.00     0.346 HD
ATOM     20  H   UNL A   1      36.165  18.972  24.148  1.00  0.00     0.346 HD
BRANCH   9  21
ATOM     21  C   UNL A   1      31.603  23.535  24.081  1.00  0.00     0.320 C 
BRANCH  21  22
ATOM     22  C   UNL A   1      30.920  24.814  23.636  1.00  0.00     0.095 A 
ATOM     23  C   UNL A   1      31.992  28.110  22.515  1.00  0.00     0.145 A 
ATOM     24  C   UNL A   1      31.508  29.423  22.529  1.00  0.00     0.049 A 
ATOM     25  C   UNL A   1      31.196  27.054  22.999  1.00  0.00     0.113 A 
ATOM     26  C   UNL A   1      30.214  29.689  22.977  1.00  0.00     0.005 A 
ATOM     27  C   UNL A   1      29.848  27.321  23.307  1.00  0.00     0.004 A 
ATOM     28  N   UNL A   1      31.712  25.819  23.196  1.00  0.00    -0.243 NA
ATOM     29  C   UNL A   1      29.373  28.641  23.330  1.00  0.00     0.010 A 
ATOM     30  C   UNL A   1      29.009  26.241  23.603  1.00  0.00     0.012 A 
ATOM     31  C   UNL A   1      29.545  24.964  23.739  1.00  0.00     0.030 A 
BRANCH  23  32
ATOM     32  O   UNL A   1      33.213  27.721  22.022  1.00  0.00    -0.494 OA
ATOM     33  C   UNL A   1      34.400  28.431  22.318  1.00  0.00     0.278 C 
ENDBRANCH  23  32
ENDBRANCH  21  22
ENDBRANCH   9  21
ENDBRANCH   5   8
ENDBRANCH   3   4
ENDBRANCH   2   3
ENDBRANCH   1   2
BRANCH   1  34
ATOM     34  C   UNL A   1      33.218  30.174  27.016  1.00  0.00     0.002 C 
BRANCH  34  35
ATOM     35  C   UNL A   1      34.603  29.546  27.148  1.00  0.00     0.021 C 
BRANCH  35  36
ATOM     36  C   UNL A   1      35.640  30.393  27.871  1.00  0.00     0.116 C 
BRANCH  36  37
ATOM     37  N   UNL A   1      35.434  30.425  29.312  1.00  0.00    -0.352 N 
ATOM     38  C   UNL A   1      36.337  30.238  30.334  1.00  0.00     0.251 C 
ATOM     39  H   UNL A   1      34.510  30.607  29.598  1.00  0.00     0.163 HD
ATOM     40  O   UNL A   1      35.950  30.141  31.486  1.00  0.00    -0.269 OA
BRANCH  38  41
ATOM     41  C   UNL A   1      37.777  30.118  30.015  1.00  0.00     0.039 A 
ATOM     42  C   UNL A   1      38.685  29.935  31.060  1.00  0.00     0.014 A 
ATOM     43  C   UNL A   1      38.223  30.147  28.690  1.00  0.00     0.014 A 
ATOM     44  C   UNL A   1      40.027  29.682  30.770  1.00  0.00     0.010 A 
ATOM     45  C   UNL A   1      39.544  29.821  28.401  1.00  0.00     0.010 A 
ATOM     46  C   UNL A   1      40.455  29.567  29.438  1.00  0.00    -0.014 A 
BRANCH  46  47
ATOM     47  C   UNL A   1      41.832  29.126  29.102  1.00  0.00     0.031 A 
ATOM     48  C   UNL A   1      42.965  30.113  29.088  1.00  0.00     0.074 A 
ATOM     49  C   UNL A   1      42.039  27.849  28.719  1.00  0.00     0.049 A 
ATOM     50  N   UNL A   1      44.207  29.937  28.720  1.00  0.00    -0.248 NA
ATOM     51  C   UNL A   1      42.655  31.484  29.524  1.00  0.00     0.031 C 
ATOM     52  C   UNL A   1      41.008  26.809  28.647  1.00  0.00     0.029 A 
ATOM     53  N   UNL A   1      43.180  27.211  28.301  1.00  0.00    -0.354 N 
ATOM     54  C   UNL A   1      44.825  31.172  28.869  1.00  0.00     0.074 A 
ATOM     55  C   UNL A   1      43.809  32.102  29.315  1.00  0.00     0.031 C 
ATOM     56  C   UNL A   1      41.566  25.664  28.225  1.00  0.00     0.029 A 
ATOM     57  C   UNL A   1      42.981  25.895  27.951  1.00  0.00     0.049 A 
ATOM     58  H   UNL A   1      44.058  27.653  28.255  1.00  0.00     0.167 HD
ATOM     59  C   UNL A   1      46.125  31.496  28.669  1.00  0.00     0.037 A 
ATOM     60  C   UNL A   1      43.834  24.983  27.446  1.00  0.00     0.037 A 
ATOM     61  C   UNL A   1      47.131  30.560  28.240  1.00  0.00     0.049 A 
ATOM     62  C   UNL A   1      45.265  25.375  27.203  1.00  0.00     0.074 A 
ATOM     63  C   UNL A   1      48.489  30.773  28.074  1.00  0.00     0.029 A 
ATOM     64  N   UNL A   1      46.891  29.236  27.897  1.00  0.00    -0.354 N 
ATOM     65  N   UNL A   1      45.849  26.530  27.418  1.00  0.00    -0.248 NA
ATOM     66  C   UNL A   1      46.153  24.345  26.646  1.00  0.00     0.031 C 
ATOM     67  C   UNL A   1      49.060  29.595  27.582  1.00  0.00     0.029 A 
ATOM     68  C   UNL A   1      48.068  28.632  27.486  1.00  0.00     0.049 A 
ATOM     69  H   UNL A   1      46.013  28.794  27.939  1.00  0.00     0.167 HD
ATOM     70  C   UNL A   1      47.174  26.362  27.034  1.00  0.00     0.074 A 
ATOM     71  C   UNL A   1      47.311  24.989  26.593  1.00  0.00     0.031 C 
ATOM     72  C   UNL A   1      48.185  27.266  27.042  1.00  0.00     0.037 A 
BRANCH  59  73
ATOM     73  C   UNL A   1      46.536  32.922  28.915  1.00  0.00     0.058 A 
ATOM     74  C   UNL A   1      46.528  33.879  27.887  1.00  0.00     0.135 A 
ATOM     75  C   UNL A   1      46.900  33.348  30.202  1.00  0.00     0.135 A 
ATOM     76  F   UNL A   1      46.202  33.523  26.634  1.00  0.00    -0.206 F 
ATOM     77  C   UNL A   1      46.893  35.200  28.121  1.00  0.00     0.059 A 
ATOM     78  C   UNL A   1      47.243  34.671  30.465  1.00  0.00     0.059 A 
ATOM     79  F   UNL A   1      46.925  32.474  31.222  1.00  0.00    -0.206 F 
ATOM     80  C   UNL A   1      47.249  35.587  29.414  1.00  0.00     0.060 A 
BRANCH  80  81
ATOM     81  S   UNL A   1      47.714  37.308  29.700  1.00  0.00     0.124 S 
ATOM     82  O   UNL A   1      46.471  37.859  30.231  1.00  0.00    -0.237 OA
ATOM     83  O   UNL A   1      48.809  37.179  30.657  1.00  0.00    -0.237 OA
ATOM     84  O   UNL A   1      48.096  37.783  28.375  1.00  0.00    -0.744 OA
ENDBRANCH  80  81
ENDBRANCH  59  73
BRANCH  60  85
ATOM     85  C   UNL A   1      43.353  23.610  27.134  1.00  0.00     0.058 A 
ATOM     86  C   UNL A   1      43.100  23.217  25.813  1.00  0.00     0.135 A 
ATOM     87  C   UNL A   1      43.157  22.659  28.148  1.00  0.00     0.135 A 
ATOM     88  F   UNL A   1      43.264  24.092  24.810  1.00  0.00    -0.206 F 
ATOM     89  C   UNL A   1      42.658  21.933  25.506  1.00  0.00     0.059 A 
ATOM     90  C   UNL A   1      42.741  21.363  27.865  1.00  0.00     0.059 A 
ATOM     91  F   UNL A   1      43.400  22.980  29.429  1.00  0.00    -0.206 F 
ATOM     92  C   UNL A   1      42.487  21.011  26.539  1.00  0.00     0.060 A 
BRANCH  92  93
ATOM     93  S   UNL A   1      41.974  19.329  26.127  1.00  0.00     0.124 S 
ATOM     94  O   UNL A   1      42.772  19.062  24.937  1.00  0.00    -0.237 OA
ATOM     95  O   UNL A   1      42.349  18.592  27.330  1.00  0.00    -0.237 OA
ATOM     96  O   UNL A   1      40.536  19.463  25.908  1.00  0.00    -0.744 OA
ENDBRANCH  92  93
ENDBRANCH  60  85
BRANCH  72  97
ATOM     97  C   UNL A   1      49.532  26.799  26.562  1.00  0.00     0.058 A 
ATOM     98  C   UNL A   1      50.450  26.195  27.434  1.00  0.00     0.135 A 
ATOM     99  C   UNL A   1      49.882  26.899  25.206  1.00  0.00     0.135 A 
ATOM    100  F   UNL A   1      50.170  26.086  28.742  1.00  0.00    -0.206 F 
ATOM    101  C   UNL A   1      51.676  25.718  26.980  1.00  0.00     0.059 A 
ATOM    102  C   UNL A   1      51.090  26.403  24.725  1.00  0.00     0.059 A 
ATOM    103  F   UNL A   1      49.035  27.462  24.328  1.00  0.00    -0.206 F 
ATOM    104  C   UNL A   1      51.983  25.821  25.622  1.00  0.00     0.060 A 
BRANCH 104 105
ATOM    105  S   UNL A   1      53.555  25.150  25.041  1.00  0.00     0.124 S 
ATOM    106  O   UNL A   1      53.355  23.718  25.242  1.00  0.00    -0.237 OA
ATOM    107  O   UNL A   1      53.590  25.597  23.651  1.00  0.00    -0.237 OA
ATOM    108  O   UNL A   1      54.539  25.776  25.919  1.00  0.00    -0.744 OA
ENDBRANCH 104 105
ENDBRANCH  72  97
ENDBRANCH  46  47
ENDBRANCH  38  41
ENDBRANCH  36  37
ENDBRANCH  35  36
ENDBRANCH  34  35
ENDBRANCH   1  34
TORSDOF 19
ENDMDL
MODEL 2
REMARK VINA RESULT:     -11.9      5.925     10.339
REMARK SMILES COc1cccc2ccc(C[N@@H+]3CC4(CC[NH2+]CC4)C[C@@H]3C(=O)NCCCCCCNC(=O)c3ccc(-c4c5nc(c(-c6c(F)cc(S(=O)(=O)[O-])cc6F)c6ccc([nH]6)c(-c6c(F)cc(S(=O)(=O)[O-])cc6F)c6nc(c(-c7c(F)cc(S(=O)(=O)[O-])cc7F)c7ccc4[nH]7)C=C6)C=C5)cc3)nc12
REMARK SMILES IDX 27 1 26 2 25 3 24 4 22 5 23 6 21 8 12 9 13 10 14 12 20 13
REMARK SMILES IDX 15 14 19 15 16 16 18 17 17 18 11 21 10 22 3 23 4 24 101 25
REMARK SMILES IDX 5 26 7 27 100 28 6 29 8 30 9 31 2 32 1 33 28 34 29 35 30 36
REMARK SMILES IDX 31 37 32 38 33 40 34 41 35 42 99 43 36 44 98 45 37 46 38 47
REMARK SMILES IDX 39 48 92 49 40 50 97 51 91 52 93 53 41 54 96 55 90 56 89 57
REMARK SMILES IDX 42 59 76 60 55 61 75 62 56 63 59 64 74 65 94 66 57 67 58 68
REMARK SMILES IDX 73 70 95 71 60 72 43 73 44 74 53 75 45 76 46 77 52 78 54 79
REMARK SMILES IDX 47 80 48 81 49 82 50 83 51 84 77 85 78 86 87 87 79 88 80 89
REMARK SMILES IDX 86 90 88 91 81 92 82 93 83 94 84 95 85 96 61 97 62 98 71 99
REMARK SMILES IDX 63 100 64 101 70 102 72 103 65 104 66 105 67 106 68 107
REMARK SMILES IDX 69 108
REMARK H PARENT 24 7 12 11 17 19 17 20 31 39 93 58 59 69
REMARK Flexibility Score: inf
ROOT
ATOM      1  C   UNL A   1      32.091  29.525  25.745  1.00  0.00     0.002 C 
ENDROOT
BRANCH   1   2
ATOM      2  C   UNL A   1      31.535  28.419  26.638  1.00  0.00     0.021 C 
BRANCH   2   3
ATOM      3  C   UNL A   1      32.200  27.055  26.491  1.00  0.00     0.116 C 
BRANCH   3   4
ATOM      4  N   UNL A   1      31.347  25.952  26.883  1.00  0.00    -0.351 N 
ATOM      5  C   UNL A   1      31.540  24.600  26.866  1.00  0.00     0.278 C 
ATOM      6  O   UNL A   1      30.559  23.921  27.201  1.00  0.00    -0.268 OA
ATOM      7  H   UNL A   1      30.466  26.228  27.225  1.00  0.00     0.163 HD
BRANCH   5   8
ATOM      8  C   UNL A   1      32.832  23.924  26.324  1.00  0.00     0.275 C 
ATOM      9  N   UNL A   1      32.893  23.749  24.849  1.00  0.00    -0.319 N 
ATOM     10  C   UNL A   1      33.957  22.783  24.569  1.00  0.00     0.270 C 
ATOM     11  H   UNL A   1      33.112  24.669  24.465  1.00  0.00     0.349 HD
ATOM     12  C   UNL A   1      34.138  21.889  25.814  1.00  0.00     0.036 C 
ATOM     13  C   UNL A   1      33.298  22.589  26.887  1.00  0.00     0.089 C 
ATOM     14  C   UNL A   1      35.629  21.760  26.206  1.00  0.00     0.074 C 
ATOM     15  C   UNL A   1      33.635  20.440  25.681  1.00  0.00     0.074 C 
ATOM     16  C   UNL A   1      36.406  20.892  25.205  1.00  0.00     0.261 C 
ATOM     17  C   UNL A   1      34.402  19.651  24.630  1.00  0.00     0.261 C 
ATOM     18  N   UNL A   1      35.815  19.569  24.993  1.00  0.00    -0.346 N 
ATOM     19  H   UNL A   1      35.902  19.027  25.852  1.00  0.00     0.346 HD
ATOM     20  H   UNL A   1      36.310  19.123  24.222  1.00  0.00     0.346 HD
BRANCH   9  21
ATOM     21  C   UNL A   1      31.651  23.585  24.069  1.00  0.00     0.320 C 
BRANCH  21  22
ATOM     22  C   UNL A   1      30.901  24.831  23.636  1.00  0.00     0.095 A 
ATOM     23  C   UNL A   1      31.792  28.127  22.369  1.00  0.00     0.145 A 
ATOM     24  C   UNL A   1      31.267  29.424  22.381  1.00  0.00     0.049 A 
ATOM     25  C   UNL A   1      31.062  27.060  22.928  1.00  0.00     0.113 A 
ATOM     26  C   UNL A   1      29.996  29.662  22.903  1.00  0.00     0.005 A 
ATOM     27  C   UNL A   1      29.729  27.293  23.314  1.00  0.00     0.004 A 
ATOM     28  N   UNL A   1      31.630  25.848  23.123  1.00  0.00    -0.243 NA
ATOM     29  C   UNL A   1      29.213  28.598  23.334  1.00  0.00     0.010 A 
ATOM     30  C   UNL A   1      28.945  26.195  23.688  1.00  0.00     0.012 A 
ATOM     31  C   UNL A   1      29.530  24.940  23.822  1.00  0.00     0.030 A 
BRANCH  23  32
ATOM     32  O   UNL A   1      32.993  27.763  21.810  1.00  0.00    -0.494 OA
ATOM     33  C   UNL A   1      34.230  28.130  22.390  1.00  0.00     0.278 C 
ENDBRANCH  23  32
ENDBRANCH  21  22
ENDBRANCH   9  21
ENDBRANCH   5   8
ENDBRANCH   3   4
ENDBRANCH   2   3
ENDBRANCH   1   2
BRANCH   1  34
ATOM     34  C   UNL A   1      31.775  30.954  26.192  1.00  0.00     0.002 C 
BRANCH  34  35
ATOM     35  C   UNL A   1      32.468  31.443  27.462  1.00  0.00     0.021 C 
BRANCH  35  36
ATOM     36  C   UNL A   1      33.458  32.583  27.270  1.00  0.00     0.116 C 
BRANCH  36  37
ATOM     37  N   UNL A   1      32.904  33.877  27.641  1.00  0.00    -0.352 N 
ATOM     38  C   UNL A   1      33.230  34.706  28.691  1.00  0.00     0.251 C 
ATOM     39  H   UNL A   1      32.188  34.209  27.052  1.00  0.00     0.163 HD
ATOM     40  O   UNL A   1      32.545  35.683  28.937  1.00  0.00    -0.269 OA
BRANCH  38  41
ATOM     41  C   UNL A   1      34.398  34.376  29.537  1.00  0.00     0.039 A 
ATOM     42  C   UNL A   1      34.179  33.806  30.793  1.00  0.00     0.014 A 
ATOM     43  C   UNL A   1      35.700  34.593  29.078  1.00  0.00     0.014 A 
ATOM     44  C   UNL A   1      35.267  33.361  31.547  1.00  0.00     0.010 A 
ATOM     45  C   UNL A   1      36.777  34.082  29.796  1.00  0.00     0.010 A 
ATOM     46  C   UNL A   1      36.569  33.445  31.029  1.00  0.00    -0.014 A 
BRANCH  46  47
ATOM     47  C   UNL A   1      37.722  32.823  31.728  1.00  0.00     0.031 A 
ATOM     48  C   UNL A   1      38.384  31.599  31.162  1.00  0.00     0.074 A 
ATOM     49  C   UNL A   1      38.110  33.313  32.924  1.00  0.00     0.049 A 
ATOM     50  N   UNL A   1      39.329  30.859  31.680  1.00  0.00    -0.248 NA
ATOM     51  C   UNL A   1      37.904  31.132  29.852  1.00  0.00     0.031 C 
ATOM     52  C   UNL A   1      37.512  34.470  33.598  1.00  0.00     0.029 A 
ATOM     53  N   UNL A   1      39.085  32.893  33.794  1.00  0.00    -0.354 N 
ATOM     54  C   UNL A   1      39.552  29.835  30.768  1.00  0.00     0.074 A 
ATOM     55  C   UNL A   1      38.609  30.021  29.686  1.00  0.00     0.031 C 
ATOM     56  C   UNL A   1      38.141  34.672  34.766  1.00  0.00     0.029 A 
ATOM     57  C   UNL A   1      39.153  33.637  34.949  1.00  0.00     0.049 A 
ATOM     58  H   UNL A   1      39.678  32.130  33.609  1.00  0.00     0.167 HD
ATOM     59  C   UNL A   1      40.471  28.841  30.821  1.00  0.00     0.037 A 
ATOM     60  C   UNL A   1      39.927  33.490  36.042  1.00  0.00     0.037 A 
ATOM     61  C   UNL A   1      41.415  28.673  31.895  1.00  0.00     0.049 A 
ATOM     62  C   UNL A   1      40.918  32.361  36.091  1.00  0.00     0.074 A 
ATOM     63  C   UNL A   1      42.431  27.741  32.009  1.00  0.00     0.029 A 
ATOM     64  N   UNL A   1      41.454  29.448  33.047  1.00  0.00    -0.354 N 
ATOM     65  N   UNL A   1      41.164  31.444  35.186  1.00  0.00    -0.248 NA
ATOM     66  C   UNL A   1      41.733  32.242  37.308  1.00  0.00     0.031 C 
ATOM     67  C   UNL A   1      43.050  27.917  33.251  1.00  0.00     0.029 A 
ATOM     68  C   UNL A   1      42.452  28.991  33.892  1.00  0.00     0.049 A 
ATOM     69  H   UNL A   1      40.859  30.210  33.234  1.00  0.00     0.167 HD
ATOM     70  C   UNL A   1      42.171  30.646  35.719  1.00  0.00     0.074 A 
ATOM     71  C   UNL A   1      42.501  31.201  37.015  1.00  0.00     0.031 C 
ATOM     72  C   UNL A   1      42.764  29.550  35.183  1.00  0.00     0.037 A 
BRANCH  59  73
ATOM     73  C   UNL A   1      40.504  27.858  29.684  1.00  0.00     0.058 A 
ATOM     74  C   UNL A   1      41.458  27.950  28.657  1.00  0.00     0.135 A 
ATOM     75  C   UNL A   1      39.598  26.786  29.640  1.00  0.00     0.135 A 
ATOM     76  F   UNL A   1      42.338  28.963  28.641  1.00  0.00    -0.206 F 
ATOM     77  C   UNL A   1      41.496  27.030  27.615  1.00  0.00     0.059 A 
ATOM     78  C   UNL A   1      39.635  25.838  28.621  1.00  0.00     0.059 A 
ATOM     79  F   UNL A   1      38.665  26.650  30.595  1.00  0.00    -0.206 F 
ATOM     80  C   UNL A   1      40.581  25.977  27.605  1.00  0.00     0.060 A 
BRANCH  80  81
ATOM     81  S   UNL A   1      40.649  24.789  26.248  1.00  0.00     0.124 S 
ATOM     82  O   UNL A   1      41.574  23.793  26.781  1.00  0.00    -0.237 OA
ATOM     83  O   UNL A   1      39.257  24.364  26.136  1.00  0.00    -0.237 OA
ATOM     84  O   UNL A   1      41.152  25.578  25.129  1.00  0.00    -0.744 OA
ENDBRANCH  80  81
ENDBRANCH  59  73
BRANCH  60  85
ATOM     85  C   UNL A   1      39.790  34.438  37.180  1.00  0.00     0.058 A 
ATOM     86  C   UNL A   1      38.992  34.124  38.290  1.00  0.00     0.135 A 
ATOM     87  C   UNL A   1      40.469  35.667  37.191  1.00  0.00     0.135 A 
ATOM     88  F   UNL A   1      38.316  32.966  38.322  1.00  0.00    -0.206 F 
ATOM     89  C   UNL A   1      38.862  34.997  39.365  1.00  0.00     0.059 A 
ATOM     90  C   UNL A   1      40.376  36.545  38.265  1.00  0.00     0.059 A 
ATOM     91  F   UNL A   1      41.259  36.009  36.160  1.00  0.00    -0.206 F 
ATOM     92  C   UNL A   1      39.564  36.204  39.346  1.00  0.00     0.060 A 
BRANCH  92  93
ATOM     93  S   UNL A   1      39.439  37.304  40.773  1.00  0.00     0.124 S 
ATOM     94  O   UNL A   1      38.502  38.310  40.288  1.00  0.00    -0.237 OA
ATOM     95  O   UNL A   1      38.936  36.405  41.807  1.00  0.00    -0.237 OA
ATOM     96  O   UNL A   1      40.813  37.759  40.965  1.00  0.00    -0.744 OA
ENDBRANCH  92  93
ENDBRANCH  60  85
BRANCH  72  97
ATOM     97  C   UNL A   1      43.835  28.877  35.998  1.00  0.00     0.058 A 
ATOM     98  C   UNL A   1      43.547  27.773  36.814  1.00  0.00     0.135 A 
ATOM     99  C   UNL A   1      45.171  29.300  35.911  1.00  0.00     0.135 A 
ATOM    100  F   UNL A   1      42.284  27.337  36.941  1.00  0.00    -0.206 F 
ATOM    101  C   UNL A   1      44.546  27.119  37.528  1.00  0.00     0.059 A 
ATOM    102  C   UNL A   1      46.190  28.644  36.594  1.00  0.00     0.059 A 
ATOM    103  F   UNL A   1      45.500  30.348  35.137  1.00  0.00    -0.206 F 
ATOM    104  C   UNL A   1      45.865  27.559  37.406  1.00  0.00     0.060 A 
BRANCH 104 105
ATOM    105  S   UNL A   1      47.157  26.667  38.298  1.00  0.00     0.124 S 
ATOM    106  O   UNL A   1      46.409  26.111  39.421  1.00  0.00    -0.237 OA
ATOM    107  O   UNL A   1      47.615  25.703  37.302  1.00  0.00    -0.237 OA
ATOM    108  O   UNL A   1      48.118  27.711  38.640  1.00  0.00    -0.744 OA
ENDBRANCH 104 105
ENDBRANCH  72  97
ENDBRANCH  46  47
ENDBRANCH  38  41
ENDBRANCH  36  37
ENDBRANCH  35  36
ENDBRANCH  34  35
ENDBRANCH   1  34
TORSDOF 19
ENDMDL
MODEL 3
REMARK VINA RESULT:     -11.6      2.374      8.365
REMARK SMILES COc1cccc2ccc(C[N@@H+]3CC4(CC[NH2+]CC4)C[C@@H]3C(=O)NCCCCCCNC(=O)c3ccc(-c4c5nc(c(-c6c(F)cc(S(=O)(=O)[O-])cc6F)c6ccc([nH]6)c(-c6c(F)cc(S(=O)(=O)[O-])cc6F)c6nc(c(-c7c(F)cc(S(=O)(=O)[O-])cc7F)c7ccc4[nH]7)C=C6)C=C5)cc3)nc12
REMARK SMILES IDX 27 1 26 2 25 3 24 4 22 5 23 6 21 8 12 9 13 10 14 12 20 13
REMARK SMILES IDX 15 14 19 15 16 16 18 17 17 18 11 21 10 22 3 23 4 24 101 25
REMARK SMILES IDX 5 26 7 27 100 28 6 29 8 30 9 31 2 32 1 33 28 34 29 35 30 36
REMARK SMILES IDX 31 37 32 38 33 40 34 41 35 42 99 43 36 44 98 45 37 46 38 47
REMARK SMILES IDX 39 48 92 49 40 50 97 51 91 52 93 53 41 54 96 55 90 56 89 57
REMARK SMILES IDX 42 59 76 60 55 61 75 62 56 63 59 64 74 65 94 66 57 67 58 68
REMARK SMILES IDX 73 70 95 71 60 72 43 73 44 74 53 75 45 76 46 77 52 78 54 79
REMARK SMILES IDX 47 80 48 81 49 82 50 83 51 84 77 85 78 86 87 87 79 88 80 89
REMARK SMILES IDX 86 90 88 91 81 92 82 93 83 94 84 95 85 96 61 97 62 98 71 99
REMARK SMILES IDX 63 100 64 101 70 102 72 103 65 104 66 105 67 106 68 107
REMARK SMILES IDX 69 108
REMARK H PARENT 24 7 12 11 17 19 17 20 31 39 93 58 59 69
REMARK Flexibility Score: inf
ROOT
ATOM      1  C   UNL A   1      39.496  23.663  27.474  1.00  0.00     0.002 C 
ENDROOT
BRANCH   1   2
ATOM      2  C   UNL A   1      38.573  24.514  26.604  1.00  0.00     0.021 C 
BRANCH   2   3
ATOM      3  C   UNL A   1      37.304  23.825  26.118  1.00  0.00     0.116 C 
BRANCH   3   4
ATOM      4  N   UNL A   1      37.330  23.494  24.708  1.00  0.00    -0.351 N 
ATOM      5  C   UNL A   1      36.346  23.104  23.845  1.00  0.00     0.278 C 
ATOM      6  O   UNL A   1      36.728  22.816  22.702  1.00  0.00    -0.268 OA
ATOM      7  H   UNL A   1      38.222  23.563  24.296  1.00  0.00     0.163 HD
BRANCH   5   8
ATOM      8  C   UNL A   1      34.868  22.879  24.274  1.00  0.00     0.275 C 
ATOM      9  N   UNL A   1      33.842  23.362  23.312  1.00  0.00    -0.319 N 
ATOM     10  C   UNL A   1      32.567  23.420  24.030  1.00  0.00     0.270 C 
ATOM     11  H   UNL A   1      33.817  22.674  22.559  1.00  0.00     0.349 HD
ATOM     12  C   UNL A   1      32.866  23.594  25.534  1.00  0.00     0.036 C 
ATOM     13  C   UNL A   1      34.378  23.362  25.632  1.00  0.00     0.089 C 
ATOM     14  C   UNL A   1      32.048  22.601  26.393  1.00  0.00     0.074 C 
ATOM     15  C   UNL A   1      32.555  24.981  26.126  1.00  0.00     0.074 C 
ATOM     16  C   UNL A   1      30.558  22.974  26.427  1.00  0.00     0.261 C 
ATOM     17  C   UNL A   1      31.073  25.318  26.073  1.00  0.00     0.261 C 
ATOM     18  N   UNL A   1      30.307  24.351  26.856  1.00  0.00    -0.346 N 
ATOM     19  H   UNL A   1      30.568  24.443  27.837  1.00  0.00     0.346 HD
ATOM     20  H   UNL A   1      29.317  24.549  26.717  1.00  0.00     0.346 HD
BRANCH   9  21
ATOM     21  C   UNL A   1      34.135  24.504  22.424  1.00  0.00     0.320 C 
BRANCH  21  22
ATOM     22  C   UNL A   1      33.195  25.694  22.446  1.00  0.00     0.095 A 
ATOM     23  C   UNL A   1      32.729  28.635  24.543  1.00  0.00     0.145 A 
ATOM     24  C   UNL A   1      31.687  29.490  24.921  1.00  0.00     0.049 A 
ATOM     25  C   UNL A   1      32.503  27.615  23.599  1.00  0.00     0.113 A 
ATOM     26  C   UNL A   1      30.430  29.368  24.330  1.00  0.00     0.005 A 
ATOM     27  C   UNL A   1      31.276  27.603  22.910  1.00  0.00     0.004 A 
ATOM     28  N   UNL A   1      33.424  26.649  23.377  1.00  0.00    -0.243 NA
ATOM     29  C   UNL A   1      30.232  28.454  23.302  1.00  0.00     0.010 A 
ATOM     30  C   UNL A   1      31.124  26.711  21.841  1.00  0.00     0.012 A 
ATOM     31  C   UNL A   1      32.110  25.764  21.584  1.00  0.00     0.030 A 
BRANCH  23  32
ATOM     32  O   UNL A   1      34.023  28.715  24.995  1.00  0.00    -0.494 OA
ATOM     33  C   UNL A   1      34.327  28.870  26.368  1.00  0.00     0.278 C 
ENDBRANCH  23  32
ENDBRANCH  21  22
ENDBRANCH   9  21
ENDBRANCH   5   8
ENDBRANCH   3   4
ENDBRANCH   2   3
ENDBRANCH   1   2
BRANCH   1  34
ATOM     34  C   UNL A   1      40.546  22.845  26.717  1.00  0.00     0.002 C 
BRANCH  34  35
ATOM     35  C   UNL A   1      40.208  21.382  26.445  1.00  0.00     0.021 C 
BRANCH  35  36
ATOM     36  C   UNL A   1      41.083  20.364  27.163  1.00  0.00     0.116 C 
BRANCH  36  37
ATOM     37  N   UNL A   1      41.865  19.548  26.246  1.00  0.00    -0.352 N 
ATOM     38  C   UNL A   1      42.961  19.887  25.484  1.00  0.00     0.251 C 
ATOM     39  H   UNL A   1      41.566  18.615  26.157  1.00  0.00     0.163 HD
ATOM     40  O   UNL A   1      43.390  19.110  24.647  1.00  0.00    -0.269 OA
BRANCH  38  41
ATOM     41  C   UNL A   1      43.586  21.216  25.664  1.00  0.00     0.039 A 
ATOM     42  C   UNL A   1      43.482  22.154  24.635  1.00  0.00     0.014 A 
ATOM     43  C   UNL A   1      44.236  21.545  26.857  1.00  0.00     0.014 A 
ATOM     44  C   UNL A   1      43.944  23.456  24.840  1.00  0.00     0.010 A 
ATOM     45  C   UNL A   1      44.627  22.861  27.087  1.00  0.00     0.010 A 
ATOM     46  C   UNL A   1      44.468  23.833  26.087  1.00  0.00    -0.014 A 
BRANCH  46  47
ATOM     47  C   UNL A   1      44.802  25.247  26.391  1.00  0.00     0.031 A 
ATOM     48  C   UNL A   1      46.206  25.752  26.216  1.00  0.00     0.074 A 
ATOM     49  C   UNL A   1      43.852  26.050  26.914  1.00  0.00     0.049 A 
ATOM     50  N   UNL A   1      46.707  26.919  26.527  1.00  0.00    -0.248 NA
ATOM     51  C   UNL A   1      47.180  24.814  25.636  1.00  0.00     0.031 C 
ATOM     52  C   UNL A   1      42.463  25.660  27.174  1.00  0.00     0.029 A 
ATOM     53  N   UNL A   1      43.912  27.355  27.337  1.00  0.00    -0.354 N 
ATOM     54  C   UNL A   1      48.054  26.854  26.192  1.00  0.00     0.074 A 
ATOM     55  C   UNL A   1      48.302  25.517  25.697  1.00  0.00     0.031 C 
ATOM     56  C   UNL A   1      41.803  26.703  27.698  1.00  0.00     0.029 A 
ATOM     57  C   UNL A   1      42.726  27.822  27.856  1.00  0.00     0.049 A 
ATOM     58  H   UNL A   1      44.726  27.904  27.276  1.00  0.00     0.167 HD
ATOM     59  C   UNL A   1      48.993  27.828  26.272  1.00  0.00     0.037 A 
ATOM     60  C   UNL A   1      42.422  29.009  28.416  1.00  0.00     0.037 A 
ATOM     61  C   UNL A   1      48.731  29.160  26.751  1.00  0.00     0.049 A 
ATOM     62  C   UNL A   1      43.488  30.063  28.523  1.00  0.00     0.074 A 
ATOM     63  C   UNL A   1      49.597  30.239  26.807  1.00  0.00     0.029 A 
ATOM     64  N   UNL A   1      47.518  29.596  27.266  1.00  0.00    -0.354 N 
ATOM     65  N   UNL A   1      44.740  30.008  28.134  1.00  0.00    -0.248 NA
ATOM     66  C   UNL A   1      43.106  31.337  29.147  1.00  0.00     0.031 C 
ATOM     67  C   UNL A   1      48.924  31.309  27.404  1.00  0.00     0.029 A 
ATOM     68  C   UNL A   1      47.624  30.915  27.676  1.00  0.00     0.049 A 
ATOM     69  H   UNL A   1      46.704  29.047  27.331  1.00  0.00     0.167 HD
ATOM     70  C   UNL A   1      45.291  31.244  28.455  1.00  0.00     0.074 A 
ATOM     71  C   UNL A   1      44.231  32.031  29.051  1.00  0.00     0.031 C 
ATOM     72  C   UNL A   1      46.561  31.683  28.276  1.00  0.00     0.037 A 
BRANCH  59  73
ATOM     73  C   UNL A   1      50.389  27.490  25.830  1.00  0.00     0.058 A 
ATOM     74  C   UNL A   1      51.364  27.048  26.739  1.00  0.00     0.135 A 
ATOM     75  C   UNL A   1      50.747  27.567  24.474  1.00  0.00     0.135 A 
ATOM     76  F   UNL A   1      51.081  26.970  28.049  1.00  0.00    -0.206 F 
ATOM     77  C   UNL A   1      52.651  26.721  26.325  1.00  0.00     0.059 A 
ATOM     78  C   UNL A   1      52.021  27.219  24.033  1.00  0.00     0.059 A 
ATOM     79  F   UNL A   1      49.855  27.984  23.562  1.00  0.00    -0.206 F 
ATOM     80  C   UNL A   1      52.970  26.810  24.969  1.00  0.00     0.060 A 
BRANCH  80  81
ATOM     81  S   UNL A   1      54.643  26.375  24.448  1.00  0.00     0.124 S 
ATOM     82  O   UNL A   1      55.428  27.428  25.087  1.00  0.00    -0.237 OA
ATOM     83  O   UNL A   1      54.805  25.037  25.007  1.00  0.00    -0.237 OA
ATOM     84  O   UNL A   1      54.574  26.440  22.992  1.00  0.00    -0.744 OA
ENDBRANCH  80  81
ENDBRANCH  59  73
BRANCH  60  85
ATOM     85  C   UNL A   1      41.045  29.259  28.922  1.00  0.00     0.058 A 
ATOM     86  C   UNL A   1      39.981  29.486  28.037  1.00  0.00     0.135 A 
ATOM     87  C   UNL A   1      40.762  29.256  30.297  1.00  0.00     0.135 A 
ATOM     88  F   UNL A   1      40.203  29.506  26.714  1.00  0.00    -0.206 F 
ATOM     89  C   UNL A   1      38.687  29.712  28.495  1.00  0.00     0.059 A 
ATOM     90  C   UNL A   1      39.473  29.455  30.779  1.00  0.00     0.059 A 
ATOM     91  F   UNL A   1      41.742  29.028  31.186  1.00  0.00    -0.206 F 
ATOM     92  C   UNL A   1      38.442  29.689  29.869  1.00  0.00     0.060 A 
BRANCH  92  93
ATOM     93  S   UNL A   1      36.749  29.922  30.453  1.00  0.00     0.124 S 
ATOM     94  O   UNL A   1      36.710  31.362  30.677  1.00  0.00    -0.237 OA
ATOM     95  O   UNL A   1      35.966  29.427  29.324  1.00  0.00    -0.237 OA
ATOM     96  O   UNL A   1      36.692  29.093  31.654  1.00  0.00    -0.744 OA
ENDBRANCH  92  93
ENDBRANCH  60  85
BRANCH  72  97
ATOM     97  C   UNL A   1      46.878  33.082  28.727  1.00  0.00     0.058 A 
ATOM     98  C   UNL A   1      46.658  34.188  27.892  1.00  0.00     0.135 A 
ATOM     99  C   UNL A   1      47.345  33.325  30.029  1.00  0.00     0.135 A 
ATOM    100  F   UNL A   1      46.223  34.009  26.635  1.00  0.00    -0.206 F 
ATOM    101  C   UNL A   1      46.903  35.486  28.327  1.00  0.00     0.059 A 
ATOM    102  C   UNL A   1      47.570  34.617  30.494  1.00  0.00     0.059 A 
ATOM    103  F   UNL A   1      47.565  32.302  30.871  1.00  0.00    -0.206 F 
ATOM    104  C   UNL A   1      47.353  35.691  29.632  1.00  0.00     0.060 A 
BRANCH 104 105
ATOM    105  S   UNL A   1      47.617  37.384  30.198  1.00  0.00     0.124 S 
ATOM    106  O   UNL A   1      48.867  37.255  30.939  1.00  0.00    -0.237 OA
ATOM    107  O   UNL A   1      47.697  38.124  28.942  1.00  0.00    -0.237 OA
ATOM    108  O   UNL A   1      46.434  37.661  31.007  1.00  0.00    -0.744 OA
ENDBRANCH 104 105
ENDBRANCH  72  97
ENDBRANCH  46  47
ENDBRANCH  38  41
ENDBRANCH  36  37
ENDBRANCH  35  36
ENDBRANCH  34  35
ENDBRANCH   1  34
TORSDOF 19
ENDMDL
