MODEL 1
REMARK VINA RESULT:     -10.5      0.000      0.000
REMARK SMILES CC(=O)[C@@H]1CCCC[N@H+]1CC(C)(C)C(=O)NCCCCCCNC(=O)c1ccc(-c2c3nc(c(-c4c(F)cc(S(=O)(=O)[O-])cc4F)c4ccc([nH]4)c(-c4c(F)cc(S(=O)(=O)[O-])cc4F)c4nc(c(-c5c(F)cc(S(=O)(=O)[O-])cc5F)c5ccc2[nH]5)C=C4)C=C3)cc1
REMARK SMILES IDX 19 1 18 2 17 3 16 4 14 5 15 6 11 8 12 9 13 10 10 11 9 12
REMARK SMILES IDX 4 13 5 14 6 15 8 16 7 18 2 19 1 20 3 21 20 22 21 23 22 24
REMARK SMILES IDX 23 25 24 26 25 28 26 29 27 30 91 31 28 32 90 33 29 34 30 35
REMARK SMILES IDX 31 36 84 37 32 38 89 39 83 40 85 41 33 42 88 43 82 44 81 45
REMARK SMILES IDX 34 47 68 48 47 49 67 50 48 51 51 52 66 53 86 54 49 55 50 56
REMARK SMILES IDX 65 58 87 59 52 60 35 61 36 62 45 63 37 64 38 65 44 66 46 67
REMARK SMILES IDX 39 68 40 69 41 70 42 71 43 72 69 73 70 74 79 75 71 76 72 77
REMARK SMILES IDX 78 78 80 79 73 80 74 81 75 82 76 83 77 84 53 85 54 86 63 87
REMARK SMILES IDX 55 88 56 89 62 90 64 91 57 92 58 93 59 94 60 95 61 96
REMARK H PARENT 16 7 9 17 23 27 85 46 51 57
REMARK Flexibility Score: inf
ROOT
ATOM      1  C   UNL A   1      32.497  29.764  26.920  1.00  0.00     0.002 C 
ENDROOT
BRANCH   1   2
ATOM      2  C   UNL A   1      31.576  28.715  27.553  1.00  0.00     0.021 C 
BRANCH   2   3
ATOM      3  C   UNL A   1      31.828  27.291  27.068  1.00  0.00     0.116 C 
BRANCH   3   4
ATOM      4  N   UNL A   1      31.077  27.042  25.858  1.00  0.00    -0.355 N 
ATOM      5  C   UNL A   1      31.499  27.061  24.569  1.00  0.00     0.231 C 
ATOM      6  O   UNL A   1      30.683  27.499  23.752  1.00  0.00    -0.274 OA
ATOM      7  H   UNL A   1      30.124  26.829  25.989  1.00  0.00     0.163 HD
BRANCH   5   8
ATOM      8  C   UNL A   1      32.913  26.618  24.159  1.00  0.00     0.092 C 
ATOM      9  C   UNL A   1      33.976  27.727  24.174  1.00  0.00     0.027 C 
ATOM     10  C   UNL A   1      32.793  26.084  22.713  1.00  0.00     0.027 C 
BRANCH   8  11
ATOM     11  C   UNL A   1      33.364  25.418  25.081  1.00  0.00     0.279 C 
BRANCH  11  12
ATOM     12  N   UNL A   1      33.005  23.997  24.822  1.00  0.00    -0.325 N 
ATOM     13  C   UNL A   1      34.098  23.001  24.825  1.00  0.00     0.251 C 
ATOM     14  C   UNL A   1      33.596  21.601  24.427  1.00  0.00     0.074 C 
ATOM     15  C   UNL A   1      32.426  21.156  25.291  1.00  0.00     0.012 C 
ATOM     16  C   UNL A   1      31.844  23.565  25.612  1.00  0.00     0.262 C 
ATOM     17  H   UNL A   1      32.744  24.016  23.836  1.00  0.00     0.348 HD
ATOM     18  C   UNL A   1      31.318  22.190  25.208  1.00  0.00     0.062 C 
BRANCH  13  19
ATOM     19  C   UNL A   1      35.241  23.351  23.849  1.00  0.00     0.186 C 
ATOM     20  C   UNL A   1      36.589  23.618  24.480  1.00  0.00     0.094 C 
ATOM     21  O   UNL A   1      35.128  23.356  22.622  1.00  0.00    -0.293 OA
ENDBRANCH  13  19
ENDBRANCH  11  12
ENDBRANCH   8  11
ENDBRANCH   5   8
ENDBRANCH   3   4
ENDBRANCH   2   3
ENDBRANCH   1   2
BRANCH   1  22
ATOM     22  C   UNL A   1      31.780  30.830  26.088  1.00  0.00     0.002 C 
BRANCH  22  23
ATOM     23  C   UNL A   1      31.499  32.140  26.826  1.00  0.00     0.021 C 
BRANCH  23  24
ATOM     24  C   UNL A   1      32.730  32.793  27.443  1.00  0.00     0.116 C 
BRANCH  24  25
ATOM     25  N   UNL A   1      32.519  34.205  27.708  1.00  0.00    -0.352 N 
ATOM     26  C   UNL A   1      33.085  34.994  28.678  1.00  0.00     0.251 C 
ATOM     27  H   UNL A   1      31.881  34.658  27.111  1.00  0.00     0.163 HD
ATOM     28  O   UNL A   1      32.638  36.114  28.898  1.00  0.00    -0.269 OA
BRANCH  26  29
ATOM     29  C   UNL A   1      34.219  34.471  29.468  1.00  0.00     0.039 A 
ATOM     30  C   UNL A   1      33.963  33.891  30.712  1.00  0.00     0.014 A 
ATOM     31  C   UNL A   1      35.527  34.543  28.977  1.00  0.00     0.014 A 
ATOM     32  C   UNL A   1      35.014  33.329  31.438  1.00  0.00     0.010 A 
ATOM     33  C   UNL A   1      36.560  33.914  29.668  1.00  0.00     0.010 A 
ATOM     34  C   UNL A   1      36.314  33.301  30.905  1.00  0.00    -0.014 A 
BRANCH  34  35
ATOM     35  C   UNL A   1      37.420  32.618  31.623  1.00  0.00     0.031 A 
ATOM     36  C   UNL A   1      37.904  33.142  32.949  1.00  0.00     0.074 A 
ATOM     37  C   UNL A   1      38.024  31.557  31.051  1.00  0.00     0.049 A 
ATOM     38  N   UNL A   1      38.884  32.707  33.697  1.00  0.00    -0.248 NA
ATOM     39  C   UNL A   1      37.211  34.320  33.496  1.00  0.00     0.031 C 
ATOM     40  C   UNL A   1      37.674  30.986  29.747  1.00  0.00     0.029 A 
ATOM     41  N   UNL A   1      39.061  30.770  31.485  1.00  0.00    -0.354 N 
ATOM     42  C   UNL A   1      38.933  33.560  34.794  1.00  0.00     0.074 A 
ATOM     43  C   UNL A   1      37.917  34.568  34.590  1.00  0.00     0.031 C 
ATOM     44  C   UNL A   1      38.464  29.930  29.501  1.00  0.00     0.029 A 
ATOM     45  C   UNL A   1      39.405  29.771  30.605  1.00  0.00     0.049 A 
ATOM     46  H   UNL A   1      39.517  30.908  32.347  1.00  0.00     0.167 HD
ATOM     47  C   UNL A   1      39.738  33.494  35.881  1.00  0.00     0.037 A 
ATOM     48  C   UNL A   1      40.376  28.839  30.672  1.00  0.00     0.037 A 
ATOM     49  C   UNL A   1      40.732  32.472  36.086  1.00  0.00     0.049 A 
ATOM     50  C   UNL A   1      41.265  28.799  31.886  1.00  0.00     0.074 A 
ATOM     51  C   UNL A   1      41.554  32.283  37.184  1.00  0.00     0.029 A 
ATOM     52  N   UNL A   1      41.045  31.473  35.176  1.00  0.00    -0.354 N 
ATOM     53  N   UNL A   1      41.247  29.570  32.948  1.00  0.00    -0.248 NA
ATOM     54  C   UNL A   1      42.304  27.760  31.915  1.00  0.00     0.031 C 
ATOM     55  C   UNL A   1      42.403  31.205  36.914  1.00  0.00     0.029 A 
ATOM     56  C   UNL A   1      42.069  30.683  35.674  1.00  0.00     0.049 A 
ATOM     57  H   UNL A   1      40.606  31.344  34.305  1.00  0.00     0.167 HD
ATOM     58  C   UNL A   1      42.251  29.090  33.783  1.00  0.00     0.074 A 
ATOM     59  C   UNL A   1      42.845  27.953  33.110  1.00  0.00     0.031 C 
ATOM     60  C   UNL A   1      42.645  29.549  34.996  1.00  0.00     0.037 A 
BRANCH  47  61
ATOM     61  C   UNL A   1      39.581  34.550  36.941  1.00  0.00     0.058 A 
ATOM     62  C   UNL A   1      38.814  34.330  38.096  1.00  0.00     0.135 A 
ATOM     63  C   UNL A   1      40.263  35.773  36.834  1.00  0.00     0.135 A 
ATOM     64  F   UNL A   1      38.127  33.186  38.245  1.00  0.00    -0.206 F 
ATOM     65  C   UNL A   1      38.716  35.290  39.098  1.00  0.00     0.059 A 
ATOM     66  C   UNL A   1      40.204  36.736  37.838  1.00  0.00     0.059 A 
ATOM     67  F   UNL A   1      41.009  36.039  35.749  1.00  0.00    -0.206 F 
ATOM     68  C   UNL A   1      39.420  36.487  38.963  1.00  0.00     0.060 A 
BRANCH  68  69
ATOM     69  S   UNL A   1      39.306  37.706  40.290  1.00  0.00     0.124 S 
ATOM     70  O   UNL A   1      38.325  38.640  39.745  1.00  0.00    -0.237 OA
ATOM     71  O   UNL A   1      38.853  36.898  41.417  1.00  0.00    -0.237 OA
ATOM     72  O   UNL A   1      40.669  38.221  40.397  1.00  0.00    -0.744 OA
ENDBRANCH  68  69
ENDBRANCH  47  61
BRANCH  48  73
ATOM     73  C   UNL A   1      40.556  27.862  29.564  1.00  0.00     0.058 A 
ATOM     74  C   UNL A   1      39.738  26.728  29.457  1.00  0.00     0.135 A 
ATOM     75  C   UNL A   1      41.557  28.036  28.595  1.00  0.00     0.135 A 
ATOM     76  F   UNL A   1      38.769  26.513  30.362  1.00  0.00    -0.206 F 
ATOM     77  C   UNL A   1      39.920  25.787  28.450  1.00  0.00     0.059 A 
ATOM     78  C   UNL A   1      41.740  27.126  27.559  1.00  0.00     0.059 A 
ATOM     79  F   UNL A   1      42.356  29.114  28.638  1.00  0.00    -0.206 F 
ATOM     80  C   UNL A   1      40.927  25.995  27.504  1.00  0.00     0.060 A 
BRANCH  80  81
ATOM     81  S   UNL A   1      41.140  24.782  26.184  1.00  0.00     0.124 S 
ATOM     82  O   UNL A   1      39.795  24.229  26.075  1.00  0.00    -0.237 OA
ATOM     83  O   UNL A   1      41.581  25.616  25.071  1.00  0.00    -0.237 OA
ATOM     84  O   UNL A   1      42.153  23.878  26.721  1.00  0.00    -0.744 OA
ENDBRANCH  80  81
ENDBRANCH  48  73
BRANCH  60  85
ATOM     85  C   UNL A   1      43.748  28.801  35.695  1.00  0.00     0.058 A 
ATOM     86  C   UNL A   1      43.481  27.752  36.588  1.00  0.00     0.135 A 
ATOM     87  C   UNL A   1      45.093  29.107  35.427  1.00  0.00     0.135 A 
ATOM     88  F   UNL A   1      42.213  27.423  36.885  1.00  0.00    -0.206 F 
ATOM     89  C   UNL A   1      44.508  27.050  37.212  1.00  0.00     0.059 A 
ATOM     90  C   UNL A   1      46.135  28.396  36.014  1.00  0.00     0.059 A 
ATOM     91  F   UNL A   1      45.405  30.093  34.572  1.00  0.00    -0.206 F 
ATOM     92  C   UNL A   1      45.832  27.378  36.917  1.00  0.00     0.060 A 
BRANCH  92  93
ATOM     93  S   UNL A   1      47.152  26.437  37.709  1.00  0.00     0.124 S 
ATOM     94  O   UNL A   1      47.910  25.965  36.556  1.00  0.00    -0.237 OA
ATOM     95  O   UNL A   1      47.809  27.451  38.529  1.00  0.00    -0.237 OA
ATOM     96  O   UNL A   1      46.435  25.405  38.454  1.00  0.00    -0.744 OA
ENDBRANCH  92  93
ENDBRANCH  60  85
ENDBRANCH  34  35
ENDBRANCH  26  29
ENDBRANCH  24  25
ENDBRANCH  23  24
ENDBRANCH  22  23
ENDBRANCH   1  22
TORSDOF 19
ENDMDL
MODEL 2
REMARK VINA RESULT:     -10.5      0.876      8.388
REMARK SMILES CC(=O)[C@@H]1CCCC[N@H+]1CC(C)(C)C(=O)NCCCCCCNC(=O)c1ccc(-c2c3nc(c(-c4c(F)cc(S(=O)(=O)[O-])cc4F)c4ccc([nH]4)c(-c4c(F)cc(S(=O)(=O)[O-])cc4F)c4nc(c(-c5c(F)cc(S(=O)(=O)[O-])cc5F)c5ccc2[nH]5)C=C4)C=C3)cc1
REMARK SMILES IDX 19 1 18 2 17 3 16 4 14 5 15 6 11 8 12 9 13 10 10 11 9 12
REMARK SMILES IDX 4 13 5 14 6 15 8 16 7 18 2 19 1 20 3 21 20 22 21 23 22 24
REMARK SMILES IDX 23 25 24 26 25 28 26 29 27 30 91 31 28 32 90 33 29 34 30 35
REMARK SMILES IDX 31 36 84 37 32 38 89 39 83 40 85 41 33 42 88 43 82 44 81 45
REMARK SMILES IDX 34 47 68 48 47 49 67 50 48 51 51 52 66 53 86 54 49 55 50 56
REMARK SMILES IDX 65 58 87 59 52 60 35 61 36 62 45 63 37 64 38 65 44 66 46 67
REMARK SMILES IDX 39 68 40 69 41 70 42 71 43 72 69 73 70 74 79 75 71 76 72 77
REMARK SMILES IDX 78 78 80 79 73 80 74 81 75 82 76 83 77 84 53 85 54 86 63 87
REMARK SMILES IDX 55 88 56 89 62 90 64 91 57 92 58 93 59 94 60 95 61 96
REMARK H PARENT 16 7 9 17 23 27 85 46 51 57
REMARK Flexibility Score: inf
ROOT
ATOM      1  C   UNL A   1      32.663  29.793  26.775  1.00  0.00     0.002 C 
ENDROOT
BRANCH   1   2
ATOM      2  C   UNL A   1      31.913  28.576  27.328  1.00  0.00     0.021 C 
BRANCH   2   3
ATOM      3  C   UNL A   1      32.474  27.235  26.865  1.00  0.00     0.116 C 
BRANCH   3   4
ATOM      4  N   UNL A   1      31.420  26.247  26.828  1.00  0.00    -0.355 N 
ATOM      5  C   UNL A   1      30.725  25.774  25.763  1.00  0.00     0.231 C 
ATOM      6  O   UNL A   1      29.534  25.526  25.976  1.00  0.00    -0.274 OA
ATOM      7  H   UNL A   1      31.171  25.862  27.700  1.00  0.00     0.163 HD
BRANCH   5   8
ATOM      8  C   UNL A   1      31.361  25.608  24.373  1.00  0.00     0.092 C 
ATOM      9  C   UNL A   1      31.453  26.894  23.538  1.00  0.00     0.027 C 
ATOM     10  C   UNL A   1      30.471  24.600  23.610  1.00  0.00     0.027 C 
BRANCH   8  11
ATOM     11  C   UNL A   1      32.792  24.961  24.536  1.00  0.00     0.279 C 
BRANCH  11  12
ATOM     12  N   UNL A   1      33.017  23.541  24.922  1.00  0.00    -0.325 N 
ATOM     13  C   UNL A   1      33.783  22.688  23.988  1.00  0.00     0.251 C 
ATOM     14  C   UNL A   1      33.833  21.224  24.461  1.00  0.00     0.074 C 
ATOM     15  C   UNL A   1      34.358  21.110  25.884  1.00  0.00     0.012 C 
ATOM     16  C   UNL A   1      33.476  23.410  26.312  1.00  0.00     0.262 C 
ATOM     17  H   UNL A   1      32.081  23.144  24.846  1.00  0.00     0.348 HD
ATOM     18  C   UNL A   1      33.504  21.965  26.804  1.00  0.00     0.062 C 
BRANCH  13  19
ATOM     19  C   UNL A   1      33.192  22.668  22.562  1.00  0.00     0.186 C 
ATOM     20  C   UNL A   1      32.135  21.618  22.301  1.00  0.00     0.094 C 
ATOM     21  O   UNL A   1      33.478  23.479  21.681  1.00  0.00    -0.293 OA
ENDBRANCH  13  19
ENDBRANCH  11  12
ENDBRANCH   8  11
ENDBRANCH   5   8
ENDBRANCH   3   4
ENDBRANCH   2   3
ENDBRANCH   1   2
BRANCH   1  22
ATOM     22  C   UNL A   1      31.778  30.836  26.088  1.00  0.00     0.002 C 
BRANCH  22  23
ATOM     23  C   UNL A   1      31.490  32.085  26.922  1.00  0.00     0.021 C 
BRANCH  23  24
ATOM     24  C   UNL A   1      32.733  32.796  27.443  1.00  0.00     0.116 C 
BRANCH  24  25
ATOM     25  N   UNL A   1      32.487  34.206  27.688  1.00  0.00    -0.352 N 
ATOM     26  C   UNL A   1      33.045  35.026  28.636  1.00  0.00     0.251 C 
ATOM     27  H   UNL A   1      31.830  34.632  27.092  1.00  0.00     0.163 HD
ATOM     28  O   UNL A   1      32.571  36.138  28.844  1.00  0.00    -0.269 OA
BRANCH  26  29
ATOM     29  C   UNL A   1      34.204  34.548  29.419  1.00  0.00     0.039 A 
ATOM     30  C   UNL A   1      33.985  34.022  30.694  1.00  0.00     0.014 A 
ATOM     31  C   UNL A   1      35.498  34.607  28.891  1.00  0.00     0.014 A 
ATOM     32  C   UNL A   1      35.059  33.500  31.416  1.00  0.00     0.010 A 
ATOM     33  C   UNL A   1      36.554  34.016  29.581  1.00  0.00     0.010 A 
ATOM     34  C   UNL A   1      36.345  33.457  30.851  1.00  0.00    -0.014 A 
BRANCH  34  35
ATOM     35  C   UNL A   1      37.475  32.815  31.569  1.00  0.00     0.031 A 
ATOM     36  C   UNL A   1      38.146  31.597  30.996  1.00  0.00     0.074 A 
ATOM     37  C   UNL A   1      37.858  33.301  32.767  1.00  0.00     0.049 A 
ATOM     38  N   UNL A   1      39.113  30.876  31.500  1.00  0.00    -0.248 NA
ATOM     39  C   UNL A   1      37.653  31.110  29.697  1.00  0.00     0.031 C 
ATOM     40  C   UNL A   1      37.253  34.450  33.447  1.00  0.00     0.029 A 
ATOM     41  N   UNL A   1      38.844  32.892  33.630  1.00  0.00    -0.354 N 
ATOM     42  C   UNL A   1      39.338  29.849  30.589  1.00  0.00     0.074 A 
ATOM     43  C   UNL A   1      38.372  30.011  29.525  1.00  0.00     0.031 C 
ATOM     44  C   UNL A   1      37.895  34.666  34.605  1.00  0.00     0.029 A 
ATOM     45  C   UNL A   1      38.928  33.649  34.775  1.00  0.00     0.049 A 
ATOM     46  H   UNL A   1      39.436  32.127  33.446  1.00  0.00     0.167 HD
ATOM     47  C   UNL A   1      40.278  28.874  30.628  1.00  0.00     0.037 A 
ATOM     48  C   UNL A   1      39.737  33.532  35.846  1.00  0.00     0.037 A 
ATOM     49  C   UNL A   1      41.250  28.736  31.682  1.00  0.00     0.049 A 
ATOM     50  C   UNL A   1      40.763  32.431  35.869  1.00  0.00     0.074 A 
ATOM     51  C   UNL A   1      42.284  27.820  31.780  1.00  0.00     0.029 A 
ATOM     52  N   UNL A   1      41.308  29.527  32.820  1.00  0.00    -0.354 N 
ATOM     53  N   UNL A   1      41.008  31.513  34.963  1.00  0.00    -0.248 NA
ATOM     54  C   UNL A   1      41.624  32.349  37.055  1.00  0.00     0.031 C 
ATOM     55  C   UNL A   1      42.931  28.020  33.004  1.00  0.00     0.029 A 
ATOM     56  C   UNL A   1      42.341  29.100  33.640  1.00  0.00     0.049 A 
ATOM     57  H   UNL A   1      40.705  30.280  33.017  1.00  0.00     0.167 HD
ATOM     58  C   UNL A   1      42.072  30.766  35.458  1.00  0.00     0.074 A 
ATOM     59  C   UNL A   1      42.433  31.348  36.733  1.00  0.00     0.031 C 
ATOM     60  C   UNL A   1      42.693  29.695  34.905  1.00  0.00     0.037 A 
BRANCH  47  61
ATOM     61  C   UNL A   1      40.310  27.879  29.501  1.00  0.00     0.058 A 
ATOM     62  C   UNL A   1      41.217  28.000  28.435  1.00  0.00     0.135 A 
ATOM     63  C   UNL A   1      39.472  26.753  29.521  1.00  0.00     0.135 A 
ATOM     64  F   UNL A   1      42.030  29.064  28.356  1.00  0.00    -0.206 F 
ATOM     65  C   UNL A   1      41.280  27.048  27.423  1.00  0.00     0.059 A 
ATOM     66  C   UNL A   1      39.539  25.772  28.534  1.00  0.00     0.059 A 
ATOM     67  F   UNL A   1      38.584  26.588  30.514  1.00  0.00    -0.206 F 
ATOM     68  C   UNL A   1      40.441  25.934  27.485  1.00  0.00     0.060 A 
BRANCH  68  69
ATOM     69  S   UNL A   1      40.561  24.693  26.179  1.00  0.00     0.124 S 
ATOM     70  O   UNL A   1      39.178  24.233  26.086  1.00  0.00    -0.237 OA
ATOM     71  O   UNL A   1      41.045  25.478  25.048  1.00  0.00    -0.237 OA
ATOM     72  O   UNL A   1      41.509  23.722  26.717  1.00  0.00    -0.744 OA
ENDBRANCH  68  69
ENDBRANCH  47  61
BRANCH  48  73
ATOM     73  C   UNL A   1      39.619  34.485  36.983  1.00  0.00     0.058 A 
ATOM     74  C   UNL A   1      38.871  34.163  38.125  1.00  0.00     0.135 A 
ATOM     75  C   UNL A   1      40.243  35.742  36.947  1.00  0.00     0.135 A 
ATOM     76  F   UNL A   1      38.251  32.975  38.206  1.00  0.00    -0.206 F 
ATOM     77  C   UNL A   1      38.720  35.059  39.178  1.00  0.00     0.059 A 
ATOM     78  C   UNL A   1      40.134  36.645  38.000  1.00  0.00     0.059 A 
ATOM     79  F   UNL A   1      40.988  36.095  35.887  1.00  0.00    -0.206 F 
ATOM     80  C   UNL A   1      39.357  36.300  39.105  1.00  0.00     0.060 A 
BRANCH  80  81
ATOM     81  S   UNL A   1      39.178  37.447  40.488  1.00  0.00     0.124 S 
ATOM     82  O   UNL A   1      38.237  38.419  39.943  1.00  0.00    -0.237 OA
ATOM     83  O   UNL A   1      38.664  36.579  41.541  1.00  0.00    -0.237 OA
ATOM     84  O   UNL A   1      40.540  37.934  40.696  1.00  0.00    -0.744 OA
ENDBRANCH  80  81
ENDBRANCH  48  73
BRANCH  60  85
ATOM     85  C   UNL A   1      43.853  29.102  35.659  1.00  0.00     0.058 A 
ATOM     86  C   UNL A   1      45.157  29.605  35.527  1.00  0.00     0.135 A 
ATOM     87  C   UNL A   1      43.646  28.049  36.565  1.00  0.00     0.135 A 
ATOM     88  F   UNL A   1      45.411  30.608  34.670  1.00  0.00    -0.206 F 
ATOM     89  C   UNL A   1      46.220  29.067  36.246  1.00  0.00     0.059 A 
ATOM     90  C   UNL A   1      44.688  27.517  37.318  1.00  0.00     0.059 A 
ATOM     91  F   UNL A   1      42.418  27.537  36.739  1.00  0.00    -0.206 F 
ATOM     92  C   UNL A   1      45.975  28.024  37.141  1.00  0.00     0.060 A 
BRANCH  92  93
ATOM     93  S   UNL A   1      47.358  27.357  38.089  1.00  0.00     0.124 S 
ATOM     94  O   UNL A   1      46.875  27.506  39.457  1.00  0.00    -0.237 OA
ATOM     95  O   UNL A   1      47.445  25.988  37.592  1.00  0.00    -0.237 OA
ATOM     96  O   UNL A   1      48.474  28.225  37.720  1.00  0.00    -0.744 OA
ENDBRANCH  92  93
ENDBRANCH  60  85
ENDBRANCH  34  35
ENDBRANCH  26  29
ENDBRANCH  24  25
ENDBRANCH  23  24
ENDBRANCH  22  23
ENDBRANCH   1  22
TORSDOF 19
ENDMDL
MODEL 3
REMARK VINA RESULT:     -10.4      2.896      4.240
REMARK SMILES CC(=O)[C@@H]1CCCC[N@H+]1CC(C)(C)C(=O)NCCCCCCNC(=O)c1ccc(-c2c3nc(c(-c4c(F)cc(S(=O)(=O)[O-])cc4F)c4ccc([nH]4)c(-c4c(F)cc(S(=O)(=O)[O-])cc4F)c4nc(c(-c5c(F)cc(S(=O)(=O)[O-])cc5F)c5ccc2[nH]5)C=C4)C=C3)cc1
REMARK SMILES IDX 19 1 18 2 17 3 16 4 14 5 15 6 11 8 12 9 13 10 10 11 9 12
REMARK SMILES IDX 4 13 5 14 6 15 8 16 7 18 2 19 1 20 3 21 20 22 21 23 22 24
REMARK SMILES IDX 23 25 24 26 25 28 26 29 27 30 91 31 28 32 90 33 29 34 30 35
REMARK SMILES IDX 31 36 84 37 32 38 89 39 83 40 85 41 33 42 88 43 82 44 81 45
REMARK SMILES IDX 34 47 68 48 47 49 67 50 48 51 51 52 66 53 86 54 49 55 50 56
REMARK SMILES IDX 65 58 87 59 52 60 35 61 36 62 45 63 37 64 38 65 44 66 46 67
REMARK SMILES IDX 39 68 40 69 41 70 42 71 43 72 69 73 70 74 79 75 71 76 72 77
REMARK SMILES IDX 78 78 80 79 73 80 74 81 75 82 76 83 77 84 53 85 54 86 63 87
REMARK SMILES IDX 55 88 56 89 62 90 64 91 57 92 58 93 59 94 60 95 61 96
REMARK H PARENT 16 7 9 17 23 27 85 46 51 57
REMARK Flexibility Score: inf
ROOT
ATOM      1  C   UNL A   1      31.413  28.086  24.253  1.00  0.00     0.002 C 
ENDROOT
BRANCH   1   2
ATOM      2  C   UNL A   1      30.748  27.387  25.443  1.00  0.00     0.021 C 
BRANCH   2   3
ATOM      3  C   UNL A   1      30.582  25.880  25.268  1.00  0.00     0.116 C 
BRANCH   3   4
ATOM      4  N   UNL A   1      30.883  25.204  26.509  1.00  0.00    -0.355 N 
ATOM      5  C   UNL A   1      31.674  24.123  26.726  1.00  0.00     0.231 C 
ATOM      6  O   UNL A   1      31.279  23.345  27.600  1.00  0.00    -0.274 OA
ATOM      7  H   UNL A   1      30.451  25.580  27.310  1.00  0.00     0.163 HD
BRANCH   5   8
ATOM      8  C   UNL A   1      32.948  23.858  25.908  1.00  0.00     0.092 C 
ATOM      9  C   UNL A   1      33.928  25.038  25.824  1.00  0.00     0.027 C 
ATOM     10  C   UNL A   1      32.476  23.521  24.475  1.00  0.00     0.027 C 
BRANCH   8  11
ATOM     11  C   UNL A   1      33.677  22.583  26.489  1.00  0.00     0.279 C 
BRANCH  11  12
ATOM     12  N   UNL A   1      34.271  21.514  25.642  1.00  0.00    -0.325 N 
ATOM     13  C   UNL A   1      35.734  21.314  25.712  1.00  0.00     0.251 C 
ATOM     14  C   UNL A   1      36.216  20.260  24.698  1.00  0.00     0.074 C 
ATOM     15  C   UNL A   1      35.463  18.948  24.850  1.00  0.00     0.012 C 
ATOM     16  C   UNL A   1      33.523  20.251  25.738  1.00  0.00     0.262 C 
ATOM     17  H   UNL A   1      34.157  21.892  24.702  1.00  0.00     0.348 HD
ATOM     18  C   UNL A   1      33.972  19.207  24.720  1.00  0.00     0.062 C 
BRANCH  13  19
ATOM     19  C   UNL A   1      36.536  22.601  25.420  1.00  0.00     0.186 C 
ATOM     20  C   UNL A   1      36.603  23.022  23.969  1.00  0.00     0.094 C 
ATOM     21  O   UNL A   1      37.045  23.312  26.287  1.00  0.00    -0.293 OA
ENDBRANCH  13  19
ENDBRANCH  11  12
ENDBRANCH   8  11
ENDBRANCH   5   8
ENDBRANCH   3   4
ENDBRANCH   2   3
ENDBRANCH   1   2
BRANCH   1  22
ATOM     22  C   UNL A   1      32.834  27.610  23.940  1.00  0.00     0.002 C 
BRANCH  22  23
ATOM     23  C   UNL A   1      33.945  28.552  24.407  1.00  0.00     0.021 C 
BRANCH  23  24
ATOM     24  C   UNL A   1      34.079  28.670  25.920  1.00  0.00     0.116 C 
BRANCH  24  25
ATOM     25  N   UNL A   1      33.778  30.011  26.388  1.00  0.00    -0.352 N 
ATOM     26  C   UNL A   1      34.376  30.727  27.395  1.00  0.00     0.251 C 
ATOM     27  H   UNL A   1      33.044  30.469  25.920  1.00  0.00     0.163 HD
ATOM     28  O   UNL A   1      33.862  31.762  27.802  1.00  0.00    -0.269 OA
BRANCH  26  29
ATOM     29  C   UNL A   1      35.630  30.225  27.996  1.00  0.00     0.039 A 
ATOM     30  C   UNL A   1      36.831  30.427  27.314  1.00  0.00     0.014 A 
ATOM     31  C   UNL A   1      35.620  29.571  29.232  1.00  0.00     0.014 A 
ATOM     32  C   UNL A   1      38.032  30.023  27.901  1.00  0.00     0.010 A 
ATOM     33  C   UNL A   1      36.824  29.240  29.849  1.00  0.00     0.010 A 
ATOM     34  C   UNL A   1      38.042  29.462  29.189  1.00  0.00    -0.014 A 
BRANCH  34  35
ATOM     35  C   UNL A   1      39.319  29.121  29.865  1.00  0.00     0.031 A 
ATOM     36  C   UNL A   1      39.786  29.916  31.055  1.00  0.00     0.074 A 
ATOM     37  C   UNL A   1      40.085  28.128  29.369  1.00  0.00     0.049 A 
ATOM     38  N   UNL A   1      40.892  29.795  31.743  1.00  0.00    -0.248 NA
ATOM     39  C   UNL A   1      38.908  31.001  31.520  1.00  0.00     0.031 C 
ATOM     40  C   UNL A   1      39.760  27.318  28.192  1.00  0.00     0.029 A 
ATOM     41  N   UNL A   1      41.295  27.632  29.785  1.00  0.00    -0.354 N 
ATOM     42  C   UNL A   1      40.847  30.790  32.713  1.00  0.00     0.074 A 
ATOM     43  C   UNL A   1      39.630  31.539  32.493  1.00  0.00     0.031 C 
ATOM     44  C   UNL A   1      40.732  26.413  27.998  1.00  0.00     0.029 A 
ATOM     45  C   UNL A   1      41.770  26.603  29.005  1.00  0.00     0.049 A 
ATOM     46  H   UNL A   1      41.778  27.980  30.569  1.00  0.00     0.167 HD
ATOM     47  C   UNL A   1      41.732  31.042  33.707  1.00  0.00     0.037 A 
ATOM     48  C   UNL A   1      42.916  25.900  29.085  1.00  0.00     0.037 A 
ATOM     49  C   UNL A   1      42.931  30.276  33.931  1.00  0.00     0.049 A 
ATOM     50  C   UNL A   1      43.887  26.211  30.192  1.00  0.00     0.074 A 
ATOM     51  C   UNL A   1      43.858  30.413  34.949  1.00  0.00     0.029 A 
ATOM     52  N   UNL A   1      43.373  29.237  33.125  1.00  0.00    -0.354 N 
ATOM     53  N   UNL A   1      43.792  27.109  31.144  1.00  0.00    -0.248 NA
ATOM     54  C   UNL A   1      45.119  25.412  30.240  1.00  0.00     0.031 C 
ATOM     55  C   UNL A   1      44.890  29.495  34.728  1.00  0.00     0.029 A 
ATOM     56  C   UNL A   1      44.576  28.744  33.606  1.00  0.00     0.049 A 
ATOM     57  H   UNL A   1      42.903  28.900  32.329  1.00  0.00     0.167 HD
ATOM     58  C   UNL A   1      44.937  26.961  31.921  1.00  0.00     0.074 A 
ATOM     59  C   UNL A   1      45.700  25.879  31.337  1.00  0.00     0.031 C 
ATOM     60  C   UNL A   1      45.321  27.660  33.018  1.00  0.00     0.037 A 
BRANCH  47  61
ATOM     61  C   UNL A   1      41.442  32.189  34.636  1.00  0.00     0.058 A 
ATOM     62  C   UNL A   1      41.993  33.465  34.431  1.00  0.00     0.135 A 
ATOM     63  C   UNL A   1      40.547  32.029  35.707  1.00  0.00     0.135 A 
ATOM     64  F   UNL A   1      42.866  33.672  33.433  1.00  0.00    -0.206 F 
ATOM     65  C   UNL A   1      41.678  34.535  35.262  1.00  0.00     0.059 A 
ATOM     66  C   UNL A   1      40.196  33.093  36.533  1.00  0.00     0.059 A 
ATOM     67  F   UNL A   1      39.994  30.831  35.952  1.00  0.00    -0.206 F 
ATOM     68  C   UNL A   1      40.774  34.341  36.307  1.00  0.00     0.060 A 
BRANCH  68  69
ATOM     69  S   UNL A   1      40.354  35.750  37.354  1.00  0.00     0.124 S 
ATOM     70  O   UNL A   1      41.665  36.128  37.873  1.00  0.00    -0.237 OA
ATOM     71  O   UNL A   1      39.758  36.680  36.400  1.00  0.00    -0.237 OA
ATOM     72  O   UNL A   1      39.432  35.183  38.334  1.00  0.00    -0.744 OA
ENDBRANCH  68  69
ENDBRANCH  47  61
BRANCH  48  73
ATOM     73  C   UNL A   1      43.209  24.827  28.095  1.00  0.00     0.058 A 
ATOM     74  C   UNL A   1      42.871  23.490  28.354  1.00  0.00     0.135 A 
ATOM     75  C   UNL A   1      43.841  25.115  26.875  1.00  0.00     0.135 A 
ATOM     76  F   UNL A   1      42.270  23.163  29.508  1.00  0.00    -0.206 F 
ATOM     77  C   UNL A   1      43.174  22.473  27.455  1.00  0.00     0.059 A 
ATOM     78  C   UNL A   1      44.126  24.120  25.946  1.00  0.00     0.059 A 
ATOM     79  F   UNL A   1      44.169  26.380  26.568  1.00  0.00    -0.206 F 
ATOM     80  C   UNL A   1      43.803  22.799  26.252  1.00  0.00     0.060 A 
BRANCH  80  81
ATOM     81  S   UNL A   1      44.168  21.476  25.079  1.00  0.00     0.124 S 
ATOM     82  O   UNL A   1      44.021  22.167  23.803  1.00  0.00    -0.237 OA
ATOM     83  O   UNL A   1      45.529  21.103  25.453  1.00  0.00    -0.237 OA
ATOM     84  O   UNL A   1      43.148  20.474  25.377  1.00  0.00    -0.744 OA
ENDBRANCH  80  81
ENDBRANCH  48  73
BRANCH  60  85
ATOM     85  C   UNL A   1      46.608  27.252  33.683  1.00  0.00     0.058 A 
ATOM     86  C   UNL A   1      47.835  27.846  33.349  1.00  0.00     0.135 A 
ATOM     87  C   UNL A   1      46.604  26.289  34.705  1.00  0.00     0.135 A 
ATOM     88  F   UNL A   1      47.897  28.768  32.374  1.00  0.00    -0.206 F 
ATOM     89  C   UNL A   1      49.017  27.480  33.985  1.00  0.00     0.059 A 
ATOM     90  C   UNL A   1      47.768  25.931  35.378  1.00  0.00     0.059 A 
ATOM     91  F   UNL A   1      45.456  25.697  35.073  1.00  0.00    -0.206 F 
ATOM     92  C   UNL A   1      48.973  26.523  35.000  1.00  0.00     0.060 A 
BRANCH  92  93
ATOM     93  S   UNL A   1      50.509  26.081  35.839  1.00  0.00     0.124 S 
ATOM     94  O   UNL A   1      51.073  25.100  34.920  1.00  0.00    -0.237 OA
ATOM     95  O   UNL A   1      51.206  27.362  35.907  1.00  0.00    -0.237 OA
ATOM     96  O   UNL A   1      50.056  25.552  37.122  1.00  0.00    -0.744 OA
ENDBRANCH  92  93
ENDBRANCH  60  85
ENDBRANCH  34  35
ENDBRANCH  26  29
ENDBRANCH  24  25
ENDBRANCH  23  24
ENDBRANCH  22  23
ENDBRANCH   1  22
TORSDOF 19
ENDMDL
