MODEL 1
REMARK VINA RESULT:     -10.0      0.000      0.000
REMARK SMILES N#C[C@@H]1CN(C(=O)NCCCC(=O)NCCCCCCNC(=O)c2ccc(-c3c4nc(c(-c5c(F)cc(S(=O)(=O)[O-])cc5F)c5ccc([nH]5)c(-c5c(F)cc(S(=O)(=O)[O-])cc5F)c5nc(c(-c6c(F)cc(S(=O)(=O)[O-])cc6F)c6ccc3[nH]6)C=C5)C=C4)cc2)CCO1
REMARK SMILES IDX 16 1 15 2 14 3 12 4 13 5 11 7 10 8 9 9 8 10 6 11 7 12 5 14
REMARK SMILES IDX 3 15 4 16 92 17 91 18 90 19 2 20 1 21 17 22 18 23 19 24
REMARK SMILES IDX 20 25 21 26 22 27 23 29 24 30 25 31 89 32 26 33 88 34 27 35
REMARK SMILES IDX 28 36 29 37 82 38 30 39 87 40 81 41 83 42 31 43 86 44 80 45
REMARK SMILES IDX 79 46 32 48 66 49 45 50 65 51 46 52 49 53 64 54 84 55 47 56
REMARK SMILES IDX 48 57 63 59 85 60 50 61 33 62 34 63 43 64 35 65 36 66 42 67
REMARK SMILES IDX 44 68 37 69 38 70 39 71 40 72 41 73 67 74 68 75 77 76 69 77
REMARK SMILES IDX 70 78 76 79 78 80 71 81 72 82 73 83 74 84 75 85 51 86 52 87
REMARK SMILES IDX 61 88 53 89 54 90 60 91 62 92 55 93 56 94 57 95 58 96 59 97
REMARK H PARENT 14 6 8 13 21 28 83 47 49 58
REMARK Flexibility Score: inf
ROOT
ATOM      1  C   UNL A   1      40.034  21.125  26.035  1.00  0.00     0.021 C 
ENDROOT
BRANCH   1   2
ATOM      2  C   UNL A   1      38.923  22.168  26.154  1.00  0.00     0.116 C 
BRANCH   2   3
ATOM      3  N   UNL A   1      38.080  22.171  24.968  1.00  0.00    -0.356 N 
ATOM      4  C   UNL A   1      36.955  22.881  24.685  1.00  0.00     0.220 C 
ATOM      5  O   UNL A   1      36.351  22.635  23.638  1.00  0.00    -0.275 OA
ATOM      6  H   UNL A   1      38.371  21.558  24.255  1.00  0.00     0.163 HD
BRANCH   4   7
ATOM      7  C   UNL A   1      36.445  23.944  25.637  1.00  0.00     0.102 C 
BRANCH   7   8
ATOM      8  C   UNL A   1      34.984  23.721  26.034  1.00  0.00     0.031 C 
BRANCH   8   9
ATOM      9  C   UNL A   1      34.008  24.730  25.435  1.00  0.00     0.118 C 
BRANCH   9  10
ATOM     10  N   UNL A   1      34.226  24.945  24.018  1.00  0.00    -0.338 N 
ATOM     11  C   UNL A   1      33.563  25.589  23.041  1.00  0.00     0.317 C 
ATOM     12  O   UNL A   1      33.997  25.399  21.903  1.00  0.00    -0.249 OA
ATOM     13  H   UNL A   1      35.053  24.519  23.695  1.00  0.00     0.165 HD
BRANCH  11  14
ATOM     14  N   UNL A   1      32.475  26.375  23.280  1.00  0.00    -0.319 N 
ATOM     15  C   UNL A   1      30.150  26.515  24.170  1.00  0.00     0.240 C 
ATOM     16  C   UNL A   1      31.064  26.082  23.020  1.00  0.00     0.169 C 
ATOM     17  O   UNL A   1      30.370  27.901  24.505  1.00  0.00    -0.360 OA
ATOM     18  C   UNL A   1      31.735  28.146  24.889  1.00  0.00     0.183 C 
ATOM     19  C   UNL A   1      32.714  27.741  23.783  1.00  0.00     0.150 C 
BRANCH  15  20
ATOM     20  C   UNL A   1      30.332  25.614  25.381  1.00  0.00     0.096 C 
ATOM     21  N   UNL A   1      30.483  24.867  26.385  1.00  0.00    -0.195 NA
ENDBRANCH  15  20
ENDBRANCH  11  14
ENDBRANCH   9  10
ENDBRANCH   8   9
ENDBRANCH   7   8
ENDBRANCH   4   7
ENDBRANCH   2   3
ENDBRANCH   1   2
BRANCH   1  22
ATOM     22  C   UNL A   1      40.836  20.882  27.322  1.00  0.00     0.002 C 
BRANCH  22  23
ATOM     23  C   UNL A   1      41.146  22.131  28.161  1.00  0.00     0.002 C 
BRANCH  23  24
ATOM     24  C   UNL A   1      42.629  22.417  28.430  1.00  0.00     0.021 C 
BRANCH  24  25
ATOM     25  C   UNL A   1      43.210  23.632  27.707  1.00  0.00     0.116 C 
BRANCH  25  26
ATOM     26  N   UNL A   1      42.555  23.956  26.457  1.00  0.00    -0.352 N 
ATOM     27  C   UNL A   1      41.851  25.088  26.105  1.00  0.00     0.251 C 
ATOM     28  H   UNL A   1      42.623  23.268  25.755  1.00  0.00     0.163 HD
ATOM     29  O   UNL A   1      41.422  25.199  24.966  1.00  0.00    -0.269 OA
BRANCH  27  30
ATOM     30  C   UNL A   1      41.539  26.137  27.112  1.00  0.00     0.039 A 
ATOM     31  C   UNL A   1      40.575  25.829  28.078  1.00  0.00     0.014 A 
ATOM     32  C   UNL A   1      42.161  27.389  27.133  1.00  0.00     0.014 A 
ATOM     33  C   UNL A   1      40.300  26.731  29.110  1.00  0.00     0.010 A 
ATOM     34  C   UNL A   1      41.919  28.274  28.193  1.00  0.00     0.010 A 
ATOM     35  C   UNL A   1      41.002  27.943  29.203  1.00  0.00    -0.014 A 
BRANCH  35  36
ATOM     36  C   UNL A   1      40.828  28.813  30.397  1.00  0.00     0.031 A 
ATOM     37  C   UNL A   1      41.721  28.683  31.597  1.00  0.00     0.074 A 
ATOM     38  C   UNL A   1      39.835  29.726  30.402  1.00  0.00     0.049 A 
ATOM     39  N   UNL A   1      41.727  29.390  32.700  1.00  0.00    -0.248 NA
ATOM     40  C   UNL A   1      42.732  27.617  31.558  1.00  0.00     0.031 C 
ATOM     41  C   UNL A   1      38.879  29.935  29.312  1.00  0.00     0.029 A 
ATOM     42  N   UNL A   1      39.466  30.651  31.348  1.00  0.00    -0.354 N 
ATOM     43  C   UNL A   1      42.740  28.858  33.487  1.00  0.00     0.074 A 
ATOM     44  C   UNL A   1      43.298  27.742  32.751  1.00  0.00     0.031 C 
ATOM     45  C   UNL A   1      38.057  30.945  29.636  1.00  0.00     0.029 A 
ATOM     46  C   UNL A   1      38.402  31.434  30.969  1.00  0.00     0.049 A 
ATOM     47  H   UNL A   1      39.922  30.745  32.215  1.00  0.00     0.167 HD
ATOM     48  C   UNL A   1      43.176  29.272  34.702  1.00  0.00     0.037 A 
ATOM     49  C   UNL A   1      37.769  32.432  31.616  1.00  0.00     0.037 A 
ATOM     50  C   UNL A   1      42.621  30.385  35.431  1.00  0.00     0.049 A 
ATOM     51  C   UNL A   1      38.235  32.838  32.986  1.00  0.00     0.074 A 
ATOM     52  C   UNL A   1      43.049  30.927  36.632  1.00  0.00     0.029 A 
ATOM     53  N   UNL A   1      41.505  31.112  35.043  1.00  0.00    -0.354 N 
ATOM     54  N   UNL A   1      39.246  32.377  33.681  1.00  0.00    -0.248 NA
ATOM     55  C   UNL A   1      37.466  33.891  33.665  1.00  0.00     0.031 C 
ATOM     56  C   UNL A   1      42.160  31.948  36.994  1.00  0.00     0.029 A 
ATOM     57  C   UNL A   1      41.202  32.067  36.001  1.00  0.00     0.049 A 
ATOM     58  H   UNL A   1      41.003  30.970  34.208  1.00  0.00     0.167 HD
ATOM     59  C   UNL A   1      39.242  33.088  34.876  1.00  0.00     0.074 A 
ATOM     60  C   UNL A   1      38.135  34.019  34.804  1.00  0.00     0.031 C 
ATOM     61  C   UNL A   1      40.081  32.974  35.935  1.00  0.00     0.037 A 
BRANCH  48  62
ATOM     62  C   UNL A   1      44.307  28.501  35.325  1.00  0.00     0.058 A 
ATOM     63  C   UNL A   1      44.073  27.419  36.188  1.00  0.00     0.135 A 
ATOM     64  C   UNL A   1      45.640  28.848  35.055  1.00  0.00     0.135 A 
ATOM     65  F   UNL A   1      42.817  27.050  36.485  1.00  0.00    -0.206 F 
ATOM     66  C   UNL A   1      45.121  26.739  36.802  1.00  0.00     0.059 A 
ATOM     67  C   UNL A   1      46.704  28.166  35.639  1.00  0.00     0.059 A 
ATOM     68  F   UNL A   1      45.921  29.870  34.231  1.00  0.00    -0.206 F 
ATOM     69  C   UNL A   1      46.433  27.129  36.530  1.00  0.00     0.060 A 
BRANCH  69  70
ATOM     70  S   UNL A   1      47.783  26.270  37.368  1.00  0.00     0.124 S 
ATOM     71  O   UNL A   1      48.602  25.847  36.236  1.00  0.00    -0.237 OA
ATOM     72  O   UNL A   1      48.354  27.319  38.206  1.00  0.00    -0.237 OA
ATOM     73  O   UNL A   1      47.105  25.196  38.088  1.00  0.00    -0.744 OA
ENDBRANCH  69  70
ENDBRANCH  48  62
BRANCH  49  74
ATOM     74  C   UNL A   1      36.634  33.127  30.957  1.00  0.00     0.058 A 
ATOM     75  C   UNL A   1      35.321  32.942  31.409  1.00  0.00     0.135 A 
ATOM     76  C   UNL A   1      36.844  34.029  29.903  1.00  0.00     0.135 A 
ATOM     77  F   UNL A   1      35.070  32.081  32.408  1.00  0.00    -0.206 F 
ATOM     78  C   UNL A   1      34.253  33.633  30.845  1.00  0.00     0.059 A 
ATOM     79  C   UNL A   1      35.796  34.746  29.335  1.00  0.00     0.059 A 
ATOM     80  F   UNL A   1      38.086  34.246  29.441  1.00  0.00    -0.206 F 
ATOM     81  C   UNL A   1      34.502  34.541  29.814  1.00  0.00     0.060 A 
BRANCH  81  82
ATOM     82  S   UNL A   1      33.122  35.498  29.150  1.00  0.00     0.124 S 
ATOM     83  O   UNL A   1      32.470  34.517  28.291  1.00  0.00    -0.237 OA
ATOM     84  O   UNL A   1      32.396  35.868  30.361  1.00  0.00    -0.237 OA
ATOM     85  O   UNL A   1      33.781  36.604  28.462  1.00  0.00    -0.744 OA
ENDBRANCH  81  82
ENDBRANCH  49  74
BRANCH  61  86
ATOM     86  C   UNL A   1      39.827  33.869  37.116  1.00  0.00     0.058 A 
ATOM     87  C   UNL A   1      40.475  35.108  37.243  1.00  0.00     0.135 A 
ATOM     88  C   UNL A   1      38.889  33.515  38.099  1.00  0.00     0.135 A 
ATOM     89  F   UNL A   1      41.388  35.489  36.336  1.00  0.00    -0.206 F 
ATOM     90  C   UNL A   1      40.209  35.962  38.309  1.00  0.00     0.059 A 
ATOM     91  C   UNL A   1      38.593  34.363  39.163  1.00  0.00     0.059 A 
ATOM     92  F   UNL A   1      38.239  32.345  38.022  1.00  0.00    -0.206 F 
ATOM     93  C   UNL A   1      39.263  35.582  39.263  1.00  0.00     0.060 A 
BRANCH  93  94
ATOM     94  S   UNL A   1      38.889  36.721  40.614  1.00  0.00     0.124 S 
ATOM     95  O   UNL A   1      40.224  37.025  41.120  1.00  0.00    -0.237 OA
ATOM     96  O   UNL A   1      38.210  37.813  39.925  1.00  0.00    -0.237 OA
ATOM     97  O   UNL A   1      38.045  35.928  41.502  1.00  0.00    -0.744 OA
ENDBRANCH  93  94
ENDBRANCH  61  86
ENDBRANCH  35  36
ENDBRANCH  27  30
ENDBRANCH  25  26
ENDBRANCH  24  25
ENDBRANCH  23  24
ENDBRANCH  22  23
ENDBRANCH   1  22
TORSDOF 21
ENDMDL
MODEL 2
REMARK VINA RESULT:      -9.9      2.724      8.961
REMARK SMILES N#C[C@@H]1CN(C(=O)NCCCC(=O)NCCCCCCNC(=O)c2ccc(-c3c4nc(c(-c5c(F)cc(S(=O)(=O)[O-])cc5F)c5ccc([nH]5)c(-c5c(F)cc(S(=O)(=O)[O-])cc5F)c5nc(c(-c6c(F)cc(S(=O)(=O)[O-])cc6F)c6ccc3[nH]6)C=C5)C=C4)cc2)CCO1
REMARK SMILES IDX 16 1 15 2 14 3 12 4 13 5 11 7 10 8 9 9 8 10 6 11 7 12 5 14
REMARK SMILES IDX 3 15 4 16 92 17 91 18 90 19 2 20 1 21 17 22 18 23 19 24
REMARK SMILES IDX 20 25 21 26 22 27 23 29 24 30 25 31 89 32 26 33 88 34 27 35
REMARK SMILES IDX 28 36 29 37 82 38 30 39 87 40 81 41 83 42 31 43 86 44 80 45
REMARK SMILES IDX 79 46 32 48 66 49 45 50 65 51 46 52 49 53 64 54 84 55 47 56
REMARK SMILES IDX 48 57 63 59 85 60 50 61 33 62 34 63 43 64 35 65 36 66 42 67
REMARK SMILES IDX 44 68 37 69 38 70 39 71 40 72 41 73 67 74 68 75 77 76 69 77
REMARK SMILES IDX 70 78 76 79 78 80 71 81 72 82 73 83 74 84 75 85 51 86 52 87
REMARK SMILES IDX 61 88 53 89 54 90 60 91 62 92 55 93 56 94 57 95 58 96 59 97
REMARK H PARENT 14 6 8 13 21 28 83 47 49 58
REMARK Flexibility Score: inf
ROOT
ATOM      1  C   UNL A   1      33.904  20.606  24.412  1.00  0.00     0.021 C 
ENDROOT
BRANCH   1   2
ATOM      2  C   UNL A   1      32.834  20.351  25.474  1.00  0.00     0.116 C 
BRANCH   2   3
ATOM      3  N   UNL A   1      32.801  21.429  26.451  1.00  0.00    -0.356 N 
ATOM      4  C   UNL A   1      32.037  22.553  26.502  1.00  0.00     0.220 C 
ATOM      5  O   UNL A   1      32.262  23.379  27.389  1.00  0.00    -0.275 OA
ATOM      6  H   UNL A   1      33.435  21.328  27.197  1.00  0.00     0.163 HD
BRANCH   4   7
ATOM      7  C   UNL A   1      30.940  22.795  25.484  1.00  0.00     0.102 C 
BRANCH   7   8
ATOM      8  C   UNL A   1      31.459  23.470  24.213  1.00  0.00     0.031 C 
BRANCH   8   9
ATOM      9  C   UNL A   1      32.651  24.399  24.435  1.00  0.00     0.118 C 
BRANCH   9  10
ATOM     10  N   UNL A   1      33.230  24.871  23.192  1.00  0.00    -0.338 N 
ATOM     11  C   UNL A   1      33.050  25.950  22.410  1.00  0.00     0.317 C 
ATOM     12  O   UNL A   1      33.630  25.909  21.324  1.00  0.00    -0.249 OA
ATOM     13  H   UNL A   1      33.915  24.259  22.839  1.00  0.00     0.165 HD
BRANCH  11  14
ATOM     14  N   UNL A   1      32.264  27.004  22.773  1.00  0.00    -0.319 N 
ATOM     15  C   UNL A   1      30.349  27.809  24.152  1.00  0.00     0.240 C 
ATOM     16  C   UNL A   1      30.806  27.052  22.901  1.00  0.00     0.169 C 
ATOM     17  O   UNL A   1      30.949  29.120  24.205  1.00  0.00    -0.360 OA
ATOM     18  C   UNL A   1      32.386  29.049  24.214  1.00  0.00     0.183 C 
ATOM     19  C   UNL A   1      32.922  28.307  22.986  1.00  0.00     0.150 C 
BRANCH  15  20
ATOM     20  C   UNL A   1      30.645  27.010  25.411  1.00  0.00     0.096 C 
ATOM     21  N   UNL A   1      30.890  26.348  26.456  1.00  0.00    -0.195 NA
ENDBRANCH  15  20
ENDBRANCH  11  14
ENDBRANCH   9  10
ENDBRANCH   8   9
ENDBRANCH   7   8
ENDBRANCH   4   7
ENDBRANCH   2   3
ENDBRANCH   1   2
BRANCH   1  22
ATOM     22  C   UNL A   1      35.021  21.571  24.835  1.00  0.00     0.002 C 
BRANCH  22  23
ATOM     23  C   UNL A   1      35.661  22.389  23.702  1.00  0.00     0.002 C 
BRANCH  23  24
ATOM     24  C   UNL A   1      36.438  23.643  24.124  1.00  0.00     0.021 C 
BRANCH  24  25
ATOM     25  C   UNL A   1      37.102  23.576  25.499  1.00  0.00     0.116 C 
BRANCH  25  26
ATOM     26  N   UNL A   1      38.331  22.810  25.536  1.00  0.00    -0.352 N 
ATOM     27  C   UNL A   1      39.516  23.085  26.186  1.00  0.00     0.251 C 
ATOM     28  H   UNL A   1      38.318  21.969  25.022  1.00  0.00     0.163 HD
ATOM     29  O   UNL A   1      40.426  22.271  26.144  1.00  0.00    -0.269 OA
BRANCH  27  30
ATOM     30  C   UNL A   1      39.727  24.389  26.869  1.00  0.00     0.039 A 
ATOM     31  C   UNL A   1      39.194  24.531  28.154  1.00  0.00     0.014 A 
ATOM     32  C   UNL A   1      40.425  25.453  26.290  1.00  0.00     0.014 A 
ATOM     33  C   UNL A   1      39.434  25.694  28.891  1.00  0.00     0.010 A 
ATOM     34  C   UNL A   1      40.705  26.601  27.045  1.00  0.00     0.010 A 
ATOM     35  C   UNL A   1      40.230  26.721  28.361  1.00  0.00    -0.014 A 
BRANCH  35  36
ATOM     36  C   UNL A   1      40.623  27.874  29.216  1.00  0.00     0.031 A 
ATOM     37  C   UNL A   1      39.721  29.061  29.393  1.00  0.00     0.074 A 
ATOM     38  C   UNL A   1      41.824  27.853  29.831  1.00  0.00     0.049 A 
ATOM     39  N   UNL A   1      39.897  30.126  30.133  1.00  0.00    -0.248 NA
ATOM     40  C   UNL A   1      38.463  29.054  28.634  1.00  0.00     0.031 C 
ATOM     41  C   UNL A   1      42.807  26.774  29.719  1.00  0.00     0.029 A 
ATOM     42  N   UNL A   1      42.420  28.759  30.673  1.00  0.00    -0.354 N 
ATOM     43  C   UNL A   1      38.774  30.919  29.933  1.00  0.00     0.074 A 
ATOM     44  C   UNL A   1      37.943  30.228  28.968  1.00  0.00     0.031 C 
ATOM     45  C   UNL A   1      43.868  27.063  30.489  1.00  0.00     0.029 A 
ATOM     46  C   UNL A   1      43.658  28.363  31.122  1.00  0.00     0.049 A 
ATOM     47  H   UNL A   1      42.001  29.611  30.931  1.00  0.00     0.167 HD
ATOM     48  C   UNL A   1      38.457  32.102  30.513  1.00  0.00     0.037 A 
ATOM     49  C   UNL A   1      44.530  28.972  31.949  1.00  0.00     0.037 A 
ATOM     50  C   UNL A   1      39.284  32.786  31.475  1.00  0.00     0.049 A 
ATOM     51  C   UNL A   1      44.181  30.311  32.537  1.00  0.00     0.074 A 
ATOM     52  C   UNL A   1      39.010  33.950  32.175  1.00  0.00     0.029 A 
ATOM     53  N   UNL A   1      40.556  32.385  31.856  1.00  0.00    -0.354 N 
ATOM     54  N   UNL A   1      43.079  31.007  32.400  1.00  0.00    -0.248 NA
ATOM     55  C   UNL A   1      45.199  30.951  33.382  1.00  0.00     0.031 C 
ATOM     56  C   UNL A   1      40.136  34.278  32.939  1.00  0.00     0.029 A 
ATOM     57  C   UNL A   1      41.098  33.299  32.746  1.00  0.00     0.049 A 
ATOM     58  H   UNL A   1      41.007  31.568  31.542  1.00  0.00     0.167 HD
ATOM     59  C   UNL A   1      43.265  32.165  33.146  1.00  0.00     0.074 A 
ATOM     60  C   UNL A   1      44.582  32.069  33.744  1.00  0.00     0.031 C 
ATOM     61  C   UNL A   1      42.420  33.211  33.318  1.00  0.00     0.037 A 
BRANCH  48  62
ATOM     62  C   UNL A   1      37.158  32.740  30.105  1.00  0.00     0.058 A 
ATOM     63  C   UNL A   1      37.097  33.699  29.081  1.00  0.00     0.135 A 
ATOM     64  C   UNL A   1      35.958  32.388  30.745  1.00  0.00     0.135 A 
ATOM     65  F   UNL A   1      38.214  34.076  28.441  1.00  0.00    -0.206 F 
ATOM     66  C   UNL A   1      35.900  34.323  28.740  1.00  0.00     0.059 A 
ATOM     67  C   UNL A   1      34.747  32.982  30.403  1.00  0.00     0.059 A 
ATOM     68  F   UNL A   1      35.959  31.471  31.726  1.00  0.00    -0.206 F 
ATOM     69  C   UNL A   1      34.733  33.966  29.416  1.00  0.00     0.060 A 
BRANCH  69  70
ATOM     70  S   UNL A   1      33.196  34.816  28.997  1.00  0.00     0.124 S 
ATOM     71  O   UNL A   1      33.701  36.047  28.397  1.00  0.00    -0.237 OA
ATOM     72  O   UNL A   1      32.556  33.880  28.079  1.00  0.00    -0.237 OA
ATOM     73  O   UNL A   1      32.534  34.974  30.288  1.00  0.00    -0.744 OA
ENDBRANCH  69  70
ENDBRANCH  48  62
BRANCH  49  74
ATOM     74  C   UNL A   1      45.814  28.302  32.281  1.00  0.00     0.058 A 
ATOM     75  C   UNL A   1      46.956  28.516  31.499  1.00  0.00     0.135 A 
ATOM     76  C   UNL A   1      45.937  27.483  33.413  1.00  0.00     0.135 A 
ATOM     77  F   UNL A   1      46.883  29.283  30.400  1.00  0.00    -0.206 F 
ATOM     78  C   UNL A   1      48.182  27.947  31.831  1.00  0.00     0.059 A 
ATOM     79  C   UNL A   1      47.155  26.918  33.777  1.00  0.00     0.059 A 
ATOM     80  F   UNL A   1      44.872  27.256  34.198  1.00  0.00    -0.206 F 
ATOM     81  C   UNL A   1      48.274  27.157  32.978  1.00  0.00     0.060 A 
BRANCH  81  82
ATOM     82  S   UNL A   1      49.887  26.497  33.448  1.00  0.00     0.124 S 
ATOM     83  O   UNL A   1      49.981  25.315  32.600  1.00  0.00    -0.237 OA
ATOM     84  O   UNL A   1      50.780  27.600  33.108  1.00  0.00    -0.237 OA
ATOM     85  O   UNL A   1      49.741  26.239  34.878  1.00  0.00    -0.744 OA
ENDBRANCH  81  82
ENDBRANCH  49  74
BRANCH  61  86
ATOM     86  C   UNL A   1      42.897  34.351  34.174  1.00  0.00     0.058 A 
ATOM     87  C   UNL A   1      42.742  34.327  35.570  1.00  0.00     0.135 A 
ATOM     88  C   UNL A   1      43.562  35.449  33.607  1.00  0.00     0.135 A 
ATOM     89  F   UNL A   1      42.103  33.305  36.161  1.00  0.00    -0.206 F 
ATOM     90  C   UNL A   1      43.223  35.356  36.372  1.00  0.00     0.059 A 
ATOM     91  C   UNL A   1      44.070  36.480  34.392  1.00  0.00     0.059 A 
ATOM     92  F   UNL A   1      43.740  35.519  32.279  1.00  0.00    -0.206 F 
ATOM     93  C   UNL A   1      43.890  36.428  35.774  1.00  0.00     0.060 A 
BRANCH  93  94
ATOM     94  S   UNL A   1      44.554  37.733  36.831  1.00  0.00     0.124 S 
ATOM     95  O   UNL A   1      44.387  38.911  35.986  1.00  0.00    -0.237 OA
ATOM     96  O   UNL A   1      43.683  37.663  38.000  1.00  0.00    -0.237 OA
ATOM     97  O   UNL A   1      45.934  37.314  37.060  1.00  0.00    -0.744 OA
ENDBRANCH  93  94
ENDBRANCH  61  86
ENDBRANCH  35  36
ENDBRANCH  27  30
ENDBRANCH  25  26
ENDBRANCH  24  25
ENDBRANCH  23  24
ENDBRANCH  22  23
ENDBRANCH   1  22
TORSDOF 21
ENDMDL
MODEL 3
REMARK VINA RESULT:      -9.8      1.333      2.247
REMARK SMILES N#C[C@@H]1CN(C(=O)NCCCC(=O)NCCCCCCNC(=O)c2ccc(-c3c4nc(c(-c5c(F)cc(S(=O)(=O)[O-])cc5F)c5ccc([nH]5)c(-c5c(F)cc(S(=O)(=O)[O-])cc5F)c5nc(c(-c6c(F)cc(S(=O)(=O)[O-])cc6F)c6ccc3[nH]6)C=C5)C=C4)cc2)CCO1
REMARK SMILES IDX 16 1 15 2 14 3 12 4 13 5 11 7 10 8 9 9 8 10 6 11 7 12 5 14
REMARK SMILES IDX 3 15 4 16 92 17 91 18 90 19 2 20 1 21 17 22 18 23 19 24
REMARK SMILES IDX 20 25 21 26 22 27 23 29 24 30 25 31 89 32 26 33 88 34 27 35
REMARK SMILES IDX 28 36 29 37 82 38 30 39 87 40 81 41 83 42 31 43 86 44 80 45
REMARK SMILES IDX 79 46 32 48 66 49 45 50 65 51 46 52 49 53 64 54 84 55 47 56
REMARK SMILES IDX 48 57 63 59 85 60 50 61 33 62 34 63 43 64 35 65 36 66 42 67
REMARK SMILES IDX 44 68 37 69 38 70 39 71 40 72 41 73 67 74 68 75 77 76 69 77
REMARK SMILES IDX 70 78 76 79 78 80 71 81 72 82 73 83 74 84 75 85 51 86 52 87
REMARK SMILES IDX 61 88 53 89 54 90 60 91 62 92 55 93 56 94 57 95 58 96 59 97
REMARK H PARENT 14 6 8 13 21 28 83 47 49 58
REMARK Flexibility Score: inf
ROOT
ATOM      1  C   UNL A   1      41.121  22.286  26.540  1.00  0.00     0.021 C 
ENDROOT
BRANCH   1   2
ATOM      2  C   UNL A   1      39.817  22.663  27.243  1.00  0.00     0.116 C 
BRANCH   2   3
ATOM      3  N   UNL A   1      38.927  23.381  26.343  1.00  0.00    -0.356 N 
ATOM      4  C   UNL A   1      37.862  22.945  25.618  1.00  0.00     0.220 C 
ATOM      5  O   UNL A   1      37.317  23.731  24.841  1.00  0.00    -0.275 OA
ATOM      6  H   UNL A   1      39.130  24.340  26.242  1.00  0.00     0.163 HD
BRANCH   4   7
ATOM      7  C   UNL A   1      37.360  21.521  25.753  1.00  0.00     0.102 C 
BRANCH   7   8
ATOM      8  C   UNL A   1      36.442  21.114  24.599  1.00  0.00     0.031 C 
BRANCH   8   9
ATOM      9  C   UNL A   1      34.992  20.864  25.006  1.00  0.00     0.118 C 
BRANCH   9  10
ATOM     10  N   UNL A   1      34.709  21.302  26.359  1.00  0.00    -0.338 N 
ATOM     11  C   UNL A   1      34.006  22.311  26.904  1.00  0.00     0.317 C 
ATOM     12  O   UNL A   1      34.144  22.444  28.121  1.00  0.00    -0.249 OA
ATOM     13  H   UNL A   1      35.129  20.725  27.037  1.00  0.00     0.165 HD
BRANCH  11  14
ATOM     14  N   UNL A   1      33.217  23.145  26.167  1.00  0.00    -0.319 N 
ATOM     15  C   UNL A   1      33.085  24.791  24.299  1.00  0.00     0.240 C 
ATOM     16  C   UNL A   1      33.487  24.523  25.753  1.00  0.00     0.169 C 
ATOM     17  O   UNL A   1      31.714  24.405  24.068  1.00  0.00    -0.360 OA
ATOM     18  C   UNL A   1      31.496  23.012  24.353  1.00  0.00     0.183 C 
ATOM     19  C   UNL A   1      31.872  22.665  25.796  1.00  0.00     0.150 C 
BRANCH  15  20
ATOM     20  C   UNL A   1      34.030  24.093  23.335  1.00  0.00     0.096 C 
ATOM     21  N   UNL A   1      34.814  23.513  22.535  1.00  0.00    -0.195 NA
ENDBRANCH  15  20
ENDBRANCH  11  14
ENDBRANCH   9  10
ENDBRANCH   8   9
ENDBRANCH   7   8
ENDBRANCH   4   7
ENDBRANCH   2   3
ENDBRANCH   1   2
BRANCH   1  22
ATOM     22  C   UNL A   1      42.192  21.666  27.450  1.00  0.00     0.002 C 
BRANCH  22  23
ATOM     23  C   UNL A   1      42.904  22.641  28.402  1.00  0.00     0.002 C 
BRANCH  23  24
ATOM     24  C   UNL A   1      44.368  22.962  28.075  1.00  0.00     0.021 C 
BRANCH  24  25
ATOM     25  C   UNL A   1      44.609  24.294  27.365  1.00  0.00     0.116 C 
BRANCH  25  26
ATOM     26  N   UNL A   1      43.818  24.487  26.167  1.00  0.00    -0.352 N 
ATOM     27  C   UNL A   1      42.880  25.457  25.883  1.00  0.00     0.251 C 
ATOM     28  H   UNL A   1      43.974  23.830  25.450  1.00  0.00     0.163 HD
ATOM     29  O   UNL A   1      42.361  25.486  24.778  1.00  0.00    -0.269 OA
BRANCH  27  30
ATOM     30  C   UNL A   1      42.435  26.417  26.929  1.00  0.00     0.039 A 
ATOM     31  C   UNL A   1      41.477  25.967  27.843  1.00  0.00     0.014 A 
ATOM     32  C   UNL A   1      42.929  27.721  27.033  1.00  0.00     0.014 A 
ATOM     33  C   UNL A   1      41.082  26.784  28.907  1.00  0.00     0.010 A 
ATOM     34  C   UNL A   1      42.568  28.522  28.124  1.00  0.00     0.010 A 
ATOM     35  C   UNL A   1      41.658  28.052  29.084  1.00  0.00    -0.014 A 
BRANCH  35  36
ATOM     36  C   UNL A   1      41.361  28.838  30.312  1.00  0.00     0.031 A 
ATOM     37  C   UNL A   1      42.196  28.697  31.551  1.00  0.00     0.074 A 
ATOM     38  C   UNL A   1      40.309  29.682  30.310  1.00  0.00     0.049 A 
ATOM     39  N   UNL A   1      42.095  29.337  32.689  1.00  0.00    -0.248 NA
ATOM     40  C   UNL A   1      43.279  27.704  31.512  1.00  0.00     0.031 C 
ATOM     41  C   UNL A   1      39.400  29.891  29.181  1.00  0.00     0.029 A 
ATOM     42  N   UNL A   1      39.828  30.524  31.283  1.00  0.00    -0.354 N 
ATOM     43  C   UNL A   1      43.100  28.829  33.503  1.00  0.00     0.074 A 
ATOM     44  C   UNL A   1      43.771  27.796  32.739  1.00  0.00     0.031 C 
ATOM     45  C   UNL A   1      38.494  30.823  29.512  1.00  0.00     0.029 A 
ATOM     46  C   UNL A   1      38.734  31.256  30.887  1.00  0.00     0.049 A 
ATOM     47  H   UNL A   1      40.230  30.597  32.178  1.00  0.00     0.167 HD
ATOM     48  C   UNL A   1      43.442  29.199  34.761  1.00  0.00     0.037 A 
ATOM     49  C   UNL A   1      38.001  32.171  31.551  1.00  0.00     0.037 A 
ATOM     50  C   UNL A   1      42.774  30.229  35.517  1.00  0.00     0.049 A 
ATOM     51  C   UNL A   1      38.365  32.526  32.965  1.00  0.00     0.074 A 
ATOM     52  C   UNL A   1      43.099  30.727  36.768  1.00  0.00     0.029 A 
ATOM     53  N   UNL A   1      41.632  30.902  35.106  1.00  0.00    -0.354 N 
ATOM     54  N   UNL A   1      39.367  32.094  33.689  1.00  0.00    -0.248 NA
ATOM     55  C   UNL A   1      37.491  33.485  33.655  1.00  0.00     0.031 C 
ATOM     56  C   UNL A   1      42.124  31.665  37.134  1.00  0.00     0.029 A 
ATOM     57  C   UNL A   1      41.214  31.778  36.096  1.00  0.00     0.049 A 
ATOM     58  H   UNL A   1      41.186  30.777  34.238  1.00  0.00     0.167 HD
ATOM     59  C   UNL A   1      39.251  32.732  34.919  1.00  0.00     0.074 A 
ATOM     60  C   UNL A   1      38.088  33.591  34.836  1.00  0.00     0.031 C 
ATOM     61  C   UNL A   1      40.039  32.612  36.016  1.00  0.00     0.037 A 
BRANCH  48  62
ATOM     62  C   UNL A   1      44.588  28.469  35.404  1.00  0.00     0.058 A 
ATOM     63  C   UNL A   1      44.377  27.405  36.295  1.00  0.00     0.135 A 
ATOM     64  C   UNL A   1      45.914  28.837  35.126  1.00  0.00     0.135 A 
ATOM     65  F   UNL A   1      43.129  27.017  36.601  1.00  0.00    -0.206 F 
ATOM     66  C   UNL A   1      45.439  26.764  36.927  1.00  0.00     0.059 A 
ATOM     67  C   UNL A   1      46.992  28.194  35.727  1.00  0.00     0.059 A 
ATOM     68  F   UNL A   1      46.173  29.843  34.275  1.00  0.00    -0.206 F 
ATOM     69  C   UNL A   1      46.743  27.175  36.645  1.00  0.00     0.060 A 
BRANCH  69  70
ATOM     70  S   UNL A   1      48.110  26.367  37.505  1.00  0.00     0.124 S 
ATOM     71  O   UNL A   1      47.838  26.739  38.891  1.00  0.00    -0.237 OA
ATOM     72  O   UNL A   1      47.905  24.961  37.175  1.00  0.00    -0.237 OA
ATOM     73  O   UNL A   1      49.293  26.981  36.911  1.00  0.00    -0.744 OA
ENDBRANCH  69  70
ENDBRANCH  48  62
BRANCH  49  74
ATOM     74  C   UNL A   1      36.857  32.828  30.867  1.00  0.00     0.058 A 
ATOM     75  C   UNL A   1      35.538  32.466  31.170  1.00  0.00     0.135 A 
ATOM     76  C   UNL A   1      37.058  33.863  29.942  1.00  0.00     0.135 A 
ATOM     77  F   UNL A   1      35.298  31.473  32.041  1.00  0.00    -0.206 F 
ATOM     78  C   UNL A   1      34.453  33.113  30.587  1.00  0.00     0.059 A 
ATOM     79  C   UNL A   1      35.990  34.538  29.359  1.00  0.00     0.059 A 
ATOM     80  F   UNL A   1      38.303  34.251  29.626  1.00  0.00    -0.206 F 
ATOM     81  C   UNL A   1      34.690  34.156  29.689  1.00  0.00     0.060 A 
BRANCH  81  82
ATOM     82  S   UNL A   1      33.276  35.048  29.006  1.00  0.00     0.124 S 
ATOM     83  O   UNL A   1      32.747  34.078  28.055  1.00  0.00    -0.237 OA
ATOM     84  O   UNL A   1      32.462  35.287  30.194  1.00  0.00    -0.237 OA
ATOM     85  O   UNL A   1      33.882  36.241  28.422  1.00  0.00    -0.744 OA
ENDBRANCH  81  82
ENDBRANCH  49  74
BRANCH  61  86
ATOM     86  C   UNL A   1      39.662  33.419  37.228  1.00  0.00     0.058 A 
ATOM     87  C   UNL A   1      38.681  32.967  38.126  1.00  0.00     0.135 A 
ATOM     88  C   UNL A   1      40.322  34.622  37.527  1.00  0.00     0.135 A 
ATOM     89  F   UNL A   1      38.013  31.829  37.880  1.00  0.00    -0.206 F 
ATOM     90  C   UNL A   1      38.361  33.685  39.273  1.00  0.00     0.059 A 
ATOM     91  C   UNL A   1      40.032  35.345  38.680  1.00  0.00     0.059 A 
ATOM     92  F   UNL A   1      41.270  35.095  36.705  1.00  0.00    -0.206 F 
ATOM     93  C   UNL A   1      39.045  34.872  39.544  1.00  0.00     0.060 A 
BRANCH  93  94
ATOM     94  S   UNL A   1      38.656  35.768  41.064  1.00  0.00     0.124 S 
ATOM     95  O   UNL A   1      37.499  35.026  41.555  1.00  0.00    -0.237 OA
ATOM     96  O   UNL A   1      39.882  35.616  41.841  1.00  0.00    -0.237 OA
ATOM     97  O   UNL A   1      38.381  37.123  40.597  1.00  0.00    -0.744 OA
ENDBRANCH  93  94
ENDBRANCH  61  86
ENDBRANCH  35  36
ENDBRANCH  27  30
ENDBRANCH  25  26
ENDBRANCH  24  25
ENDBRANCH  23  24
ENDBRANCH  22  23
ENDBRANCH   1  22
TORSDOF 21
ENDMDL
