MODEL 1
REMARK VINA RESULT:     -12.8      0.000      0.000
REMARK SMILES Cc1nccn1C1(C(=O)NCCCCCCNC(=O)c2ccc(-c3c4nc(c(-c5c(F)cc(S(=O)(=O)[O-])cc5F)c5ccc([nH]5)c(-c5c(F)cc(S(=O)(=O)[O-])cc5F)c5nc(c(-c6c(F)cc(S(=O)(=O)[O-])cc6F)c6ccc3[nH]6)C=C5)C=C4)cc2)CCN(C(=O)[C@@H]2C[C@H]2c2ccccc2)CC1
REMARK SMILES IDX 14 1 13 2 12 3 11 4 10 5 8 6 9 7 7 9 86 10 101 11 87 12
REMARK SMILES IDX 100 13 88 14 89 15 90 16 6 17 1 18 2 19 3 20 4 21 5 22 91 23
REMARK SMILES IDX 92 24 93 25 94 26 95 27 99 28 96 29 98 30 97 31 15 32 16 33
REMARK SMILES IDX 17 34 18 35 19 37 20 38 21 39 85 40 22 41 84 42 23 43 24 44
REMARK SMILES IDX 25 45 78 46 26 47 83 48 77 49 79 50 27 51 82 52 76 53 75 54
REMARK SMILES IDX 28 56 62 57 41 58 61 59 42 60 45 61 60 62 80 63 43 64 44 65
REMARK SMILES IDX 59 67 81 68 46 69 29 70 30 71 39 72 31 73 32 74 38 75 40 76
REMARK SMILES IDX 33 77 34 78 35 79 36 80 37 81 63 82 64 83 73 84 65 85 66 86
REMARK SMILES IDX 72 87 74 88 67 89 68 90 69 91 70 92 71 93 47 94 48 95 57 96
REMARK SMILES IDX 49 97 50 98 56 99 58 100 51 101 52 102 53 103 54 104 55 105
REMARK H PARENT 10 8 17 36 79 55 45 66
REMARK Flexibility Score: inf
ROOT
ATOM      1  C   UNL A   1      34.663  30.257  27.447  1.00  0.00     0.002 C 
ENDROOT
BRANCH   1   2
ATOM      2  C   UNL A   1      33.983  28.909  27.153  1.00  0.00     0.002 C 
BRANCH   2   3
ATOM      3  C   UNL A   1      32.535  28.740  27.638  1.00  0.00     0.021 C 
BRANCH   3   4
ATOM      4  C   UNL A   1      31.529  28.301  26.569  1.00  0.00     0.116 C 
BRANCH   4   5
ATOM      5  N   UNL A   1      30.972  26.993  26.873  1.00  0.00    -0.354 N 
ATOM      6  C   UNL A   1      30.788  25.842  26.156  1.00  0.00     0.246 C 
ATOM      7  O   UNL A   1      30.080  25.034  26.764  1.00  0.00    -0.272 OA
ATOM      8  H   UNL A   1      30.658  26.918  27.804  1.00  0.00     0.163 HD
BRANCH   6   9
ATOM      9  C   UNL A   1      31.433  25.581  24.725  1.00  0.00     0.127 C 
ATOM     10  C   UNL A   1      32.970  25.672  24.927  1.00  0.00     0.061 C 
ATOM     11  C   UNL A   1      30.907  24.187  24.285  1.00  0.00     0.061 C 
ATOM     12  C   UNL A   1      33.844  24.569  24.314  1.00  0.00     0.122 C 
ATOM     13  C   UNL A   1      31.855  23.531  23.312  1.00  0.00     0.122 C 
ATOM     14  N   UNL A   1      33.146  23.336  23.949  1.00  0.00    -0.342 N 
ATOM     15  C   UNL A   1      33.878  22.144  24.062  1.00  0.00     0.226 C 
ATOM     16  O   UNL A   1      35.081  22.168  24.312  1.00  0.00    -0.275 OA
BRANCH   9  17
ATOM     17  N   UNL A   1      30.980  26.569  23.659  1.00  0.00    -0.320 N 
ATOM     18  C   UNL A   1      28.351  26.682  23.837  1.00  0.00     0.087 C 
ATOM     19  C   UNL A   1      29.709  27.117  23.402  1.00  0.00     0.106 A 
ATOM     20  N   UNL A   1      29.799  28.144  22.574  1.00  0.00    -0.242 NA
ATOM     21  C   UNL A   1      31.083  28.207  22.166  1.00  0.00     0.131 A 
ATOM     22  C   UNL A   1      31.830  27.272  22.825  1.00  0.00     0.108 A 
ENDBRANCH   9  17
BRANCH  15  23
ATOM     23  C   UNL A   1      33.274  20.774  23.975  1.00  0.00     0.087 C 
ATOM     24  C   UNL A   1      32.034  20.445  24.770  1.00  0.00     0.023 C 
ATOM     25  C   UNL A   1      33.318  19.694  25.009  1.00  0.00     0.032 C 
BRANCH  25  26
ATOM     26  C   UNL A   1      33.474  18.231  24.765  1.00  0.00    -0.044 A 
ATOM     27  C   UNL A   1      32.473  17.351  25.206  1.00  0.00     0.004 A 
ATOM     28  C   UNL A   1      34.741  17.708  24.473  1.00  0.00     0.004 A 
ATOM     29  C   UNL A   1      32.763  16.015  25.468  1.00  0.00     0.000 A 
ATOM     30  C   UNL A   1      35.035  16.371  24.736  1.00  0.00     0.000 A 
ATOM     31  C   UNL A   1      34.054  15.534  25.262  1.00  0.00     0.000 A 
ENDBRANCH  25  26
ENDBRANCH  15  23
ENDBRANCH   6   9
ENDBRANCH   4   5
ENDBRANCH   3   4
ENDBRANCH   2   3
ENDBRANCH   1   2
BRANCH   1  32
ATOM     32  C   UNL A   1      33.750  31.464  27.713  1.00  0.00     0.021 C 
BRANCH  32  33
ATOM     33  C   UNL A   1      34.461  32.680  28.284  1.00  0.00     0.116 C 
BRANCH  33  34
ATOM     34  N   UNL A   1      34.079  32.983  29.670  1.00  0.00    -0.352 N 
ATOM     35  C   UNL A   1      34.687  32.577  30.856  1.00  0.00     0.251 C 
ATOM     36  H   UNL A   1      33.284  33.553  29.775  1.00  0.00     0.163 HD
ATOM     37  O   UNL A   1      34.073  32.582  31.906  1.00  0.00    -0.269 OA
BRANCH  35  38
ATOM     38  C   UNL A   1      36.102  32.153  30.807  1.00  0.00     0.039 A 
ATOM     39  C   UNL A   1      37.186  33.039  30.823  1.00  0.00     0.014 A 
ATOM     40  C   UNL A   1      36.321  30.788  30.754  1.00  0.00     0.014 A 
ATOM     41  C   UNL A   1      38.478  32.509  30.822  1.00  0.00     0.010 A 
ATOM     42  C   UNL A   1      37.535  30.290  31.095  1.00  0.00     0.010 A 
ATOM     43  C   UNL A   1      38.629  31.124  30.949  1.00  0.00    -0.014 A 
BRANCH  43  44
ATOM     44  C   UNL A   1      39.900  30.424  30.904  1.00  0.00     0.031 A 
ATOM     45  C   UNL A   1      40.522  30.163  32.220  1.00  0.00     0.074 A 
ATOM     46  C   UNL A   1      40.258  29.762  29.778  1.00  0.00     0.049 A 
ATOM     47  N   UNL A   1      41.629  30.647  32.674  1.00  0.00    -0.248 NA
ATOM     48  C   UNL A   1      39.755  29.399  33.217  1.00  0.00     0.031 C 
ATOM     49  C   UNL A   1      39.524  29.651  28.505  1.00  0.00     0.029 A 
ATOM     50  N   UNL A   1      41.298  28.914  29.586  1.00  0.00    -0.354 N 
ATOM     51  C   UNL A   1      41.809  30.074  33.928  1.00  0.00     0.074 A 
ATOM     52  C   UNL A   1      40.535  29.513  34.294  1.00  0.00     0.031 C 
ATOM     53  C   UNL A   1      40.017  28.623  27.783  1.00  0.00     0.029 A 
ATOM     54  C   UNL A   1      41.186  28.100  28.462  1.00  0.00     0.049 A 
ATOM     55  H   UNL A   1      42.071  28.875  30.194  1.00  0.00     0.167 HD
ATOM     56  C   UNL A   1      43.051  29.903  34.461  1.00  0.00     0.037 A 
ATOM     57  C   UNL A   1      41.978  27.038  28.162  1.00  0.00     0.037 A 
ATOM     58  C   UNL A   1      44.045  30.593  33.673  1.00  0.00     0.049 A 
ATOM     59  C   UNL A   1      43.235  27.220  28.948  1.00  0.00     0.074 A 
ATOM     60  C   UNL A   1      44.251  31.917  33.330  1.00  0.00     0.029 A 
ATOM     61  N   UNL A   1      44.766  29.851  32.765  1.00  0.00    -0.354 N 
ATOM     62  N   UNL A   1      44.070  28.209  28.750  1.00  0.00    -0.248 NA
ATOM     63  C   UNL A   1      43.302  26.617  30.272  1.00  0.00     0.031 C 
ATOM     64  C   UNL A   1      44.668  31.880  31.967  1.00  0.00     0.029 A 
ATOM     65  C   UNL A   1      44.778  30.544  31.579  1.00  0.00     0.049 A 
ATOM     66  H   UNL A   1      45.196  28.981  32.936  1.00  0.00     0.167 HD
ATOM     67  C   UNL A   1      44.452  28.623  30.020  1.00  0.00     0.074 A 
ATOM     68  C   UNL A   1      44.010  27.553  30.913  1.00  0.00     0.031 C 
ATOM     69  C   UNL A   1      44.810  29.921  30.270  1.00  0.00     0.037 A 
BRANCH  56  70
ATOM     70  C   UNL A   1      43.430  28.862  35.484  1.00  0.00     0.058 A 
ATOM     71  C   UNL A   1      44.062  29.271  36.676  1.00  0.00     0.135 A 
ATOM     72  C   UNL A   1      43.428  27.471  35.244  1.00  0.00     0.135 A 
ATOM     73  F   UNL A   1      44.123  30.571  37.008  1.00  0.00    -0.206 F 
ATOM     74  C   UNL A   1      44.709  28.374  37.527  1.00  0.00     0.059 A 
ATOM     75  C   UNL A   1      44.013  26.552  36.110  1.00  0.00     0.059 A 
ATOM     76  F   UNL A   1      42.949  26.939  34.114  1.00  0.00    -0.206 F 
ATOM     77  C   UNL A   1      44.693  27.017  37.223  1.00  0.00     0.060 A 
BRANCH  77  78
ATOM     78  S   UNL A   1      45.628  25.871  38.250  1.00  0.00     0.124 S 
ATOM     79  O   UNL A   1      44.758  25.750  39.414  1.00  0.00    -0.237 OA
ATOM     80  O   UNL A   1      45.716  24.696  37.390  1.00  0.00    -0.237 OA
ATOM     81  O   UNL A   1      46.888  26.572  38.473  1.00  0.00    -0.744 OA
ENDBRANCH  77  78
ENDBRANCH  56  70
BRANCH  57  82
ATOM     82  C   UNL A   1      41.563  25.749  27.538  1.00  0.00     0.058 A 
ATOM     83  C   UNL A   1      42.392  25.066  26.630  1.00  0.00     0.135 A 
ATOM     84  C   UNL A   1      40.448  25.023  28.013  1.00  0.00     0.135 A 
ATOM     85  F   UNL A   1      43.485  25.665  26.135  1.00  0.00    -0.206 F 
ATOM     86  C   UNL A   1      42.161  23.732  26.258  1.00  0.00     0.059 A 
ATOM     87  C   UNL A   1      40.190  23.703  27.646  1.00  0.00     0.059 A 
ATOM     88  F   UNL A   1      39.617  25.540  28.930  1.00  0.00    -0.206 F 
ATOM     89  C   UNL A   1      41.066  23.051  26.791  1.00  0.00     0.060 A 
BRANCH  89  90
ATOM     90  S   UNL A   1      40.862  21.281  26.480  1.00  0.00     0.124 S 
ATOM     91  O   UNL A   1      42.048  20.971  25.691  1.00  0.00    -0.237 OA
ATOM     92  O   UNL A   1      40.830  20.732  27.831  1.00  0.00    -0.237 OA
ATOM     93  O   UNL A   1      39.594  21.209  25.755  1.00  0.00    -0.744 OA
ENDBRANCH  89  90
ENDBRANCH  57  82
BRANCH  69  94
ATOM     94  C   UNL A   1      45.016  30.851  29.094  1.00  0.00     0.058 A 
ATOM     95  C   UNL A   1      44.002  31.644  28.525  1.00  0.00     0.135 A 
ATOM     96  C   UNL A   1      46.325  31.091  28.652  1.00  0.00     0.135 A 
ATOM     97  F   UNL A   1      42.741  31.569  28.964  1.00  0.00    -0.206 F 
ATOM     98  C   UNL A   1      44.265  32.595  27.539  1.00  0.00     0.059 A 
ATOM     99  C   UNL A   1      46.617  32.057  27.691  1.00  0.00     0.059 A 
ATOM    100  F   UNL A   1      47.352  30.420  29.200  1.00  0.00    -0.206 F 
ATOM    101  C   UNL A   1      45.579  32.797  27.128  1.00  0.00     0.060 A 
BRANCH 101 102
ATOM    102  S   UNL A   1      45.929  34.082  25.909  1.00  0.00     0.124 S 
ATOM    103  O   UNL A   1      45.534  35.293  26.622  1.00  0.00    -0.237 OA
ATOM    104  O   UNL A   1      47.362  33.922  25.677  1.00  0.00    -0.237 OA
ATOM    105  O   UNL A   1      45.080  33.719  24.777  1.00  0.00    -0.744 OA
ENDBRANCH 101 102
ENDBRANCH  69  94
ENDBRANCH  43  44
ENDBRANCH  35  38
ENDBRANCH  33  34
ENDBRANCH  32  33
ENDBRANCH   1  32
TORSDOF 19
ENDMDL
MODEL 2
REMARK VINA RESULT:     -12.2      1.610      2.243
REMARK SMILES Cc1nccn1C1(C(=O)NCCCCCCNC(=O)c2ccc(-c3c4nc(c(-c5c(F)cc(S(=O)(=O)[O-])cc5F)c5ccc([nH]5)c(-c5c(F)cc(S(=O)(=O)[O-])cc5F)c5nc(c(-c6c(F)cc(S(=O)(=O)[O-])cc6F)c6ccc3[nH]6)C=C5)C=C4)cc2)CCN(C(=O)[C@@H]2C[C@H]2c2ccccc2)CC1
REMARK SMILES IDX 14 1 13 2 12 3 11 4 10 5 8 6 9 7 7 9 86 10 101 11 87 12
REMARK SMILES IDX 100 13 88 14 89 15 90 16 6 17 1 18 2 19 3 20 4 21 5 22 91 23
REMARK SMILES IDX 92 24 93 25 94 26 95 27 99 28 96 29 98 30 97 31 15 32 16 33
REMARK SMILES IDX 17 34 18 35 19 37 20 38 21 39 85 40 22 41 84 42 23 43 24 44
REMARK SMILES IDX 25 45 78 46 26 47 83 48 77 49 79 50 27 51 82 52 76 53 75 54
REMARK SMILES IDX 28 56 62 57 41 58 61 59 42 60 45 61 60 62 80 63 43 64 44 65
REMARK SMILES IDX 59 67 81 68 46 69 29 70 30 71 39 72 31 73 32 74 38 75 40 76
REMARK SMILES IDX 33 77 34 78 35 79 36 80 37 81 63 82 64 83 73 84 65 85 66 86
REMARK SMILES IDX 72 87 74 88 67 89 68 90 69 91 70 92 71 93 47 94 48 95 57 96
REMARK SMILES IDX 49 97 50 98 56 99 58 100 51 101 52 102 53 103 54 104 55 105
REMARK H PARENT 10 8 17 36 79 55 45 66
REMARK Flexibility Score: inf
ROOT
ATOM      1  C   UNL A   1      32.018  29.214  26.338  1.00  0.00     0.002 C 
ENDROOT
BRANCH   1   2
ATOM      2  C   UNL A   1      31.193  28.948  25.068  1.00  0.00     0.002 C 
BRANCH   2   3
ATOM      3  C   UNL A   1      30.482  27.588  24.973  1.00  0.00     0.021 C 
BRANCH   3   4
ATOM      4  C   UNL A   1      30.076  27.154  23.561  1.00  0.00     0.116 C 
BRANCH   4   5
ATOM      5  N   UNL A   1      29.991  25.706  23.458  1.00  0.00    -0.354 N 
ATOM      6  C   UNL A   1      30.908  24.691  23.462  1.00  0.00     0.246 C 
ATOM      7  O   UNL A   1      30.399  23.615  23.137  1.00  0.00    -0.272 OA
ATOM      8  H   UNL A   1      29.065  25.384  23.364  1.00  0.00     0.163 HD
BRANCH   6   9
ATOM      9  C   UNL A   1      32.436  24.886  23.862  1.00  0.00     0.127 C 
ATOM     10  C   UNL A   1      32.447  25.158  25.390  1.00  0.00     0.061 C 
ATOM     11  C   UNL A   1      33.146  23.575  23.420  1.00  0.00     0.061 C 
ATOM     12  C   UNL A   1      33.451  24.383  26.254  1.00  0.00     0.122 C 
ATOM     13  C   UNL A   1      34.387  23.326  24.242  1.00  0.00     0.122 C 
ATOM     14  N   UNL A   1      34.021  23.182  25.640  1.00  0.00    -0.342 N 
ATOM     15  C   UNL A   1      34.336  22.124  26.507  1.00  0.00     0.226 C 
ATOM     16  O   UNL A   1      34.268  22.270  27.726  1.00  0.00    -0.275 OA
BRANCH   9  17
ATOM     17  N   UNL A   1      33.125  26.020  23.117  1.00  0.00    -0.320 N 
ATOM     18  C   UNL A   1      32.671  25.596  20.554  1.00  0.00     0.087 C 
ATOM     19  C   UNL A   1      33.091  26.373  21.754  1.00  0.00     0.106 A 
ATOM     20  N   UNL A   1      33.594  27.582  21.569  1.00  0.00    -0.242 NA
ATOM     21  C   UNL A   1      34.089  27.986  22.757  1.00  0.00     0.131 A 
ATOM     22  C   UNL A   1      33.801  27.064  23.722  1.00  0.00     0.108 A 
ENDBRANCH   9  17
BRANCH  15  23
ATOM     23  C   UNL A   1      34.690  20.740  26.052  1.00  0.00     0.087 C 
ATOM     24  C   UNL A   1      35.724  20.543  24.971  1.00  0.00     0.023 C 
ATOM     25  C   UNL A   1      34.305  20.080  24.766  1.00  0.00     0.032 C 
BRANCH  25  26
ATOM     26  C   UNL A   1      33.925  18.651  24.575  1.00  0.00    -0.044 A 
ATOM     27  C   UNL A   1      32.657  18.215  24.990  1.00  0.00     0.004 A 
ATOM     28  C   UNL A   1      34.924  17.690  24.362  1.00  0.00     0.004 A 
ATOM     29  C   UNL A   1      32.431  16.879  25.307  1.00  0.00     0.000 A 
ATOM     30  C   UNL A   1      34.701  16.352  24.679  1.00  0.00     0.000 A 
ATOM     31  C   UNL A   1      33.464  15.953  25.180  1.00  0.00     0.000 A 
ENDBRANCH  25  26
ENDBRANCH  15  23
ENDBRANCH   6   9
ENDBRANCH   4   5
ENDBRANCH   3   4
ENDBRANCH   2   3
ENDBRANCH   1   2
BRANCH   1  32
ATOM     32  C   UNL A   1      33.287  30.067  26.188  1.00  0.00     0.021 C 
BRANCH  32  33
ATOM     33  C   UNL A   1      34.228  30.014  27.381  1.00  0.00     0.116 C 
BRANCH  33  34
ATOM     34  N   UNL A   1      34.212  31.238  28.192  1.00  0.00    -0.352 N 
ATOM     35  C   UNL A   1      35.007  31.578  29.285  1.00  0.00     0.251 C 
ATOM     36  H   UNL A   1      33.547  31.914  27.926  1.00  0.00     0.163 HD
ATOM     37  O   UNL A   1      34.650  32.430  30.077  1.00  0.00    -0.269 OA
BRANCH  35  38
ATOM     38  C   UNL A   1      36.302  30.885  29.448  1.00  0.00     0.039 A 
ATOM     39  C   UNL A   1      36.445  29.493  29.490  1.00  0.00     0.014 A 
ATOM     40  C   UNL A   1      37.414  31.702  29.551  1.00  0.00     0.014 A 
ATOM     41  C   UNL A   1      37.732  28.960  29.600  1.00  0.00     0.010 A 
ATOM     42  C   UNL A   1      38.647  31.189  29.313  1.00  0.00     0.010 A 
ATOM     43  C   UNL A   1      38.822  29.833  29.518  1.00  0.00    -0.014 A 
BRANCH  43  44
ATOM     44  C   UNL A   1      40.210  29.437  29.675  1.00  0.00     0.031 A 
ATOM     45  C   UNL A   1      40.648  29.219  31.071  1.00  0.00     0.074 A 
ATOM     46  C   UNL A   1      40.893  28.958  28.608  1.00  0.00     0.049 A 
ATOM     47  N   UNL A   1      41.523  29.898  31.733  1.00  0.00    -0.248 NA
ATOM     48  C   UNL A   1      39.924  28.230  31.886  1.00  0.00     0.031 C 
ATOM     49  C   UNL A   1      40.426  28.786  27.221  1.00  0.00     0.029 A 
ATOM     50  N   UNL A   1      42.117  28.377  28.574  1.00  0.00    -0.354 N 
ATOM     51  C   UNL A   1      41.619  29.285  32.977  1.00  0.00     0.074 A 
ATOM     52  C   UNL A   1      40.466  28.431  33.088  1.00  0.00     0.031 C 
ATOM     53  C   UNL A   1      41.256  27.950  26.562  1.00  0.00     0.029 A 
ATOM     54  C   UNL A   1      42.384  27.647  27.419  1.00  0.00     0.049 A 
ATOM     55  H   UNL A   1      42.767  28.463  29.309  1.00  0.00     0.167 HD
ATOM     56  C   UNL A   1      42.761  29.351  33.717  1.00  0.00     0.037 A 
ATOM     57  C   UNL A   1      43.437  26.812  27.227  1.00  0.00     0.037 A 
ATOM     58  C   UNL A   1      43.686  30.302  33.146  1.00  0.00     0.049 A 
ATOM     59  C   UNL A   1      44.470  27.206  28.231  1.00  0.00     0.074 A 
ATOM     60  C   UNL A   1      43.635  31.660  32.895  1.00  0.00     0.029 A 
ATOM     61  N   UNL A   1      44.699  29.808  32.355  1.00  0.00    -0.354 N 
ATOM     62  N   UNL A   1      45.076  28.366  28.222  1.00  0.00    -0.248 NA
ATOM     63  C   UNL A   1      44.454  26.532  29.523  1.00  0.00     0.031 C 
ATOM     64  C   UNL A   1      44.270  31.821  31.629  1.00  0.00     0.029 A 
ATOM     65  C   UNL A   1      44.747  30.575  31.217  1.00  0.00     0.049 A 
ATOM     66  H   UNL A   1      45.283  29.044  32.568  1.00  0.00     0.167 HD
ATOM     67  C   UNL A   1      45.136  28.756  29.555  1.00  0.00     0.074 A 
ATOM     68  C   UNL A   1      44.811  27.549  30.314  1.00  0.00     0.031 C 
ATOM     69  C   UNL A   1      45.139  30.077  29.913  1.00  0.00     0.037 A 
BRANCH  56  70
ATOM     70  C   UNL A   1      43.194  28.344  34.753  1.00  0.00     0.058 A 
ATOM     71  C   UNL A   1      43.449  28.781  36.069  1.00  0.00     0.135 A 
ATOM     72  C   UNL A   1      43.609  27.026  34.459  1.00  0.00     0.135 A 
ATOM     73  F   UNL A   1      43.097  30.015  36.461  1.00  0.00    -0.206 F 
ATOM     74  C   UNL A   1      44.131  27.995  36.999  1.00  0.00     0.059 A 
ATOM     75  C   UNL A   1      44.235  26.204  35.390  1.00  0.00     0.059 A 
ATOM     76  F   UNL A   1      43.518  26.504  33.231  1.00  0.00    -0.206 F 
ATOM     77  C   UNL A   1      44.536  26.714  36.642  1.00  0.00     0.060 A 
BRANCH  77  78
ATOM     78  S   UNL A   1      45.521  25.744  37.795  1.00  0.00     0.124 S 
ATOM     79  O   UNL A   1      45.862  26.747  38.798  1.00  0.00    -0.237 OA
ATOM     80  O   UNL A   1      44.575  24.716  38.213  1.00  0.00    -0.237 OA
ATOM     81  O   UNL A   1      46.630  25.271  36.973  1.00  0.00    -0.744 OA
ENDBRANCH  77  78
ENDBRANCH  56  70
BRANCH  57  82
ATOM     82  C   UNL A   1      43.440  25.514  26.491  1.00  0.00     0.058 A 
ATOM     83  C   UNL A   1      44.257  25.304  25.366  1.00  0.00     0.135 A 
ATOM     84  C   UNL A   1      42.829  24.360  27.027  1.00  0.00     0.135 A 
ATOM     85  F   UNL A   1      44.895  26.336  24.795  1.00  0.00    -0.206 F 
ATOM     86  C   UNL A   1      44.495  24.025  24.839  1.00  0.00     0.059 A 
ATOM     87  C   UNL A   1      43.038  23.082  26.512  1.00  0.00     0.059 A 
ATOM     88  F   UNL A   1      42.077  24.419  28.136  1.00  0.00    -0.206 F 
ATOM     89  C   UNL A   1      43.896  22.915  25.435  1.00  0.00     0.060 A 
BRANCH  89  90
ATOM     90  S   UNL A   1      44.342  21.246  24.897  1.00  0.00     0.124 S 
ATOM     91  O   UNL A   1      44.485  21.419  23.456  1.00  0.00    -0.237 OA
ATOM     92  O   UNL A   1      45.576  21.003  25.637  1.00  0.00    -0.237 OA
ATOM     93  O   UNL A   1      43.199  20.438  25.319  1.00  0.00    -0.744 OA
ENDBRANCH  89  90
ENDBRANCH  57  82
BRANCH  69  94
ATOM     94  C   UNL A   1      45.318  31.118  28.828  1.00  0.00     0.058 A 
ATOM     95  C   UNL A   1      44.258  31.695  28.103  1.00  0.00     0.135 A 
ATOM     96  C   UNL A   1      46.586  31.688  28.650  1.00  0.00     0.135 A 
ATOM     97  F   UNL A   1      42.997  31.295  28.292  1.00  0.00    -0.206 F 
ATOM     98  C   UNL A   1      44.453  32.753  27.216  1.00  0.00     0.059 A 
ATOM     99  C   UNL A   1      46.800  32.767  27.794  1.00  0.00     0.059 A 
ATOM    100  F   UNL A   1      47.632  31.235  29.361  1.00  0.00    -0.206 F 
ATOM    101  C   UNL A   1      45.730  33.286  27.068  1.00  0.00     0.060 A 
BRANCH 101 102
ATOM    102  S   UNL A   1      45.966  34.707  25.980  1.00  0.00     0.124 S 
ATOM    103  O   UNL A   1      47.249  34.403  25.355  1.00  0.00    -0.237 OA
ATOM    104  O   UNL A   1      44.801  34.635  25.102  1.00  0.00    -0.237 OA
ATOM    105  O   UNL A   1      45.973  35.843  26.899  1.00  0.00    -0.744 OA
ENDBRANCH 101 102
ENDBRANCH  69  94
ENDBRANCH  43  44
ENDBRANCH  35  38
ENDBRANCH  33  34
ENDBRANCH  32  33
ENDBRANCH   1  32
TORSDOF 19
ENDMDL
MODEL 3
REMARK VINA RESULT:     -12.1      1.351      2.221
REMARK SMILES Cc1nccn1C1(C(=O)NCCCCCCNC(=O)c2ccc(-c3c4nc(c(-c5c(F)cc(S(=O)(=O)[O-])cc5F)c5ccc([nH]5)c(-c5c(F)cc(S(=O)(=O)[O-])cc5F)c5nc(c(-c6c(F)cc(S(=O)(=O)[O-])cc6F)c6ccc3[nH]6)C=C5)C=C4)cc2)CCN(C(=O)[C@@H]2C[C@H]2c2ccccc2)CC1
REMARK SMILES IDX 14 1 13 2 12 3 11 4 10 5 8 6 9 7 7 9 86 10 101 11 87 12
REMARK SMILES IDX 100 13 88 14 89 15 90 16 6 17 1 18 2 19 3 20 4 21 5 22 91 23
REMARK SMILES IDX 92 24 93 25 94 26 95 27 99 28 96 29 98 30 97 31 15 32 16 33
REMARK SMILES IDX 17 34 18 35 19 37 20 38 21 39 85 40 22 41 84 42 23 43 24 44
REMARK SMILES IDX 25 45 78 46 26 47 83 48 77 49 79 50 27 51 82 52 76 53 75 54
REMARK SMILES IDX 28 56 62 57 41 58 61 59 42 60 45 61 60 62 80 63 43 64 44 65
REMARK SMILES IDX 59 67 81 68 46 69 29 70 30 71 39 72 31 73 32 74 38 75 40 76
REMARK SMILES IDX 33 77 34 78 35 79 36 80 37 81 63 82 64 83 73 84 65 85 66 86
REMARK SMILES IDX 72 87 74 88 67 89 68 90 69 91 70 92 71 93 47 94 48 95 57 96
REMARK SMILES IDX 49 97 50 98 56 99 58 100 51 101 52 102 53 103 54 104 55 105
REMARK H PARENT 10 8 17 36 79 55 45 66
REMARK Flexibility Score: inf
ROOT
ATOM      1  C   UNL A   1      35.811  30.943  27.768  1.00  0.00     0.002 C 
ENDROOT
BRANCH   1   2
ATOM      2  C   UNL A   1      35.618  29.427  27.587  1.00  0.00     0.002 C 
BRANCH   2   3
ATOM      3  C   UNL A   1      34.172  28.915  27.499  1.00  0.00     0.021 C 
BRANCH   3   4
ATOM      4  C   UNL A   1      33.881  27.955  26.342  1.00  0.00     0.116 C 
BRANCH   4   5
ATOM      5  N   UNL A   1      34.209  28.558  25.061  1.00  0.00    -0.354 N 
ATOM      6  C   UNL A   1      33.772  28.374  23.777  1.00  0.00     0.246 C 
ATOM      7  O   UNL A   1      34.484  28.968  22.962  1.00  0.00    -0.272 OA
ATOM      8  H   UNL A   1      34.901  29.255  25.132  1.00  0.00     0.163 HD
BRANCH   6   9
ATOM      9  C   UNL A   1      32.486  27.517  23.398  1.00  0.00     0.127 C 
ATOM     10  C   UNL A   1      32.761  26.935  21.985  1.00  0.00     0.061 C 
ATOM     11  C   UNL A   1      32.348  26.461  24.530  1.00  0.00     0.061 C 
ATOM     12  C   UNL A   1      32.480  25.445  21.751  1.00  0.00     0.122 C 
ATOM     13  C   UNL A   1      31.618  25.234  24.043  1.00  0.00     0.122 C 
ATOM     14  N   UNL A   1      32.367  24.624  22.957  1.00  0.00    -0.342 N 
ATOM     15  C   UNL A   1      32.801  23.293  22.854  1.00  0.00     0.226 C 
ATOM     16  O   UNL A   1      33.118  22.820  21.764  1.00  0.00    -0.275 OA
BRANCH   9  17
ATOM     17  N   UNL A   1      31.192  28.319  23.398  1.00  0.00    -0.320 N 
ATOM     18  C   UNL A   1      31.398  30.042  25.383  1.00  0.00     0.087 C 
ATOM     19  C   UNL A   1      30.820  29.456  24.140  1.00  0.00     0.106 A 
ATOM     20  N   UNL A   1      29.729  30.009  23.639  1.00  0.00    -0.242 NA
ATOM     21  C   UNL A   1      29.287  29.188  22.664  1.00  0.00     0.131 A 
ATOM     22  C   UNL A   1      30.168  28.160  22.482  1.00  0.00     0.108 A 
ENDBRANCH   9  17
BRANCH  15  23
ATOM     23  C   UNL A   1      32.996  22.378  24.025  1.00  0.00     0.087 C 
ATOM     24  C   UNL A   1      34.034  22.702  25.072  1.00  0.00     0.023 C 
ATOM     25  C   UNL A   1      34.131  21.434  24.263  1.00  0.00     0.032 C 
BRANCH  25  26
ATOM     26  C   UNL A   1      34.049  20.070  24.859  1.00  0.00    -0.044 A 
ATOM     27  C   UNL A   1      35.035  19.121  24.545  1.00  0.00     0.004 A 
ATOM     28  C   UNL A   1      32.832  19.617  25.388  1.00  0.00     0.004 A 
ATOM     29  C   UNL A   1      34.767  17.758  24.635  1.00  0.00     0.000 A 
ATOM     30  C   UNL A   1      32.560  18.252  25.478  1.00  0.00     0.000 A 
ATOM     31  C   UNL A   1      33.518  17.326  25.072  1.00  0.00     0.000 A 
ENDBRANCH  25  26
ENDBRANCH  15  23
ENDBRANCH   6   9
ENDBRANCH   4   5
ENDBRANCH   3   4
ENDBRANCH   2   3
ENDBRANCH   1   2
BRANCH   1  32
ATOM     32  C   UNL A   1      34.575  31.768  28.159  1.00  0.00     0.021 C 
BRANCH  32  33
ATOM     33  C   UNL A   1      34.890  33.131  28.753  1.00  0.00     0.116 C 
BRANCH  33  34
ATOM     34  N   UNL A   1      34.454  33.275  30.149  1.00  0.00    -0.352 N 
ATOM     35  C   UNL A   1      34.825  32.528  31.265  1.00  0.00     0.251 C 
ATOM     36  H   UNL A   1      33.812  34.001  30.319  1.00  0.00     0.163 HD
ATOM     37  O   UNL A   1      34.128  32.505  32.261  1.00  0.00    -0.269 OA
BRANCH  35  38
ATOM     38  C   UNL A   1      36.094  31.774  31.211  1.00  0.00     0.039 A 
ATOM     39  C   UNL A   1      36.182  30.380  31.306  1.00  0.00     0.014 A 
ATOM     40  C   UNL A   1      37.240  32.532  31.043  1.00  0.00     0.014 A 
ATOM     41  C   UNL A   1      37.439  29.783  31.191  1.00  0.00     0.010 A 
ATOM     42  C   UNL A   1      38.376  31.941  30.597  1.00  0.00     0.010 A 
ATOM     43  C   UNL A   1      38.529  30.589  30.844  1.00  0.00    -0.014 A 
BRANCH  43  44
ATOM     44  C   UNL A   1      39.901  30.125  30.746  1.00  0.00     0.031 A 
ATOM     45  C   UNL A   1      40.605  29.967  32.038  1.00  0.00     0.074 A 
ATOM     46  C   UNL A   1      40.331  29.546  29.601  1.00  0.00     0.049 A 
ATOM     47  N   UNL A   1      41.624  30.634  32.462  1.00  0.00    -0.248 NA
ATOM     48  C   UNL A   1      40.019  29.071  33.048  1.00  0.00     0.031 C 
ATOM     49  C   UNL A   1      39.585  29.318  28.351  1.00  0.00     0.029 A 
ATOM     50  N   UNL A   1      41.497  28.896  29.362  1.00  0.00    -0.354 N 
ATOM     51  C   UNL A   1      41.945  30.092  33.701  1.00  0.00     0.074 A 
ATOM     52  C   UNL A   1      40.804  29.312  34.101  1.00  0.00     0.031 C 
ATOM     53  C   UNL A   1      40.226  28.399  27.598  1.00  0.00     0.029 A 
ATOM     54  C   UNL A   1      41.491  28.084  28.231  1.00  0.00     0.049 A 
ATOM     55  H   UNL A   1      42.285  28.989  29.944  1.00  0.00     0.167 HD
ATOM     56  C   UNL A   1      43.216  30.138  34.191  1.00  0.00     0.037 A 
ATOM     57  C   UNL A   1      42.446  27.182  27.890  1.00  0.00     0.037 A 
ATOM     58  C   UNL A   1      44.045  30.999  33.382  1.00  0.00     0.049 A 
ATOM     59  C   UNL A   1      43.678  27.575  28.638  1.00  0.00     0.074 A 
ATOM     60  C   UNL A   1      44.003  32.340  33.051  1.00  0.00     0.029 A 
ATOM     61  N   UNL A   1      44.854  30.402  32.440  1.00  0.00    -0.354 N 
ATOM     62  N   UNL A   1      44.319  28.697  28.426  1.00  0.00    -0.248 NA
ATOM     63  C   UNL A   1      43.896  26.982  29.950  1.00  0.00     0.031 C 
ATOM     64  C   UNL A   1      44.373  32.390  31.675  1.00  0.00     0.029 A 
ATOM     65  C   UNL A   1      44.702  31.097  31.264  1.00  0.00     0.049 A 
ATOM     66  H   UNL A   1      45.436  29.621  32.584  1.00  0.00     0.167 HD
ATOM     67  C   UNL A   1      44.665  29.162  29.689  1.00  0.00     0.074 A 
ATOM     68  C   UNL A   1      44.450  28.023  30.581  1.00  0.00     0.031 C 
ATOM     69  C   UNL A   1      44.798  30.500  29.946  1.00  0.00     0.037 A 
BRANCH  56  70
ATOM     70  C   UNL A   1      43.807  29.171  35.187  1.00  0.00     0.058 A 
ATOM     71  C   UNL A   1      43.972  27.821  34.816  1.00  0.00     0.135 A 
ATOM     72  C   UNL A   1      43.988  29.451  36.559  1.00  0.00     0.135 A 
ATOM     73  F   UNL A   1      43.825  27.439  33.538  1.00  0.00    -0.206 F 
ATOM     74  C   UNL A   1      44.222  26.814  35.750  1.00  0.00     0.059 A 
ATOM     75  C   UNL A   1      44.299  28.472  37.497  1.00  0.00     0.059 A 
ATOM     76  F   UNL A   1      43.777  30.667  37.076  1.00  0.00    -0.206 F 
ATOM     77  C   UNL A   1      44.366  27.150  37.091  1.00  0.00     0.060 A 
BRANCH  77  78
ATOM     78  S   UNL A   1      44.566  25.843  38.313  1.00  0.00     0.124 S 
ATOM     79  O   UNL A   1      45.992  25.559  38.201  1.00  0.00    -0.237 OA
ATOM     80  O   UNL A   1      44.139  26.507  39.540  1.00  0.00    -0.237 OA
ATOM     81  O   UNL A   1      43.673  24.794  37.832  1.00  0.00    -0.744 OA
ENDBRANCH  77  78
ENDBRANCH  56  70
BRANCH  57  82
ATOM     82  C   UNL A   1      42.243  25.844  27.262  1.00  0.00     0.058 A 
ATOM     83  C   UNL A   1      43.162  25.314  26.338  1.00  0.00     0.135 A 
ATOM     84  C   UNL A   1      41.272  24.940  27.746  1.00  0.00     0.135 A 
ATOM     85  F   UNL A   1      44.133  26.090  25.834  1.00  0.00    -0.206 F 
ATOM     86  C   UNL A   1      43.150  23.963  25.959  1.00  0.00     0.059 A 
ATOM     87  C   UNL A   1      41.232  23.598  27.372  1.00  0.00     0.059 A 
ATOM     88  F   UNL A   1      40.379  25.307  28.677  1.00  0.00    -0.206 F 
ATOM     89  C   UNL A   1      42.192  23.106  26.500  1.00  0.00     0.060 A 
BRANCH  89  90
ATOM     90  S   UNL A   1      42.281  21.328  26.178  1.00  0.00     0.124 S 
ATOM     91  O   UNL A   1      43.197  21.269  25.045  1.00  0.00    -0.237 OA
ATOM     92  O   UNL A   1      42.793  20.810  27.442  1.00  0.00    -0.237 OA
ATOM     93  O   UNL A   1      40.895  20.969  25.879  1.00  0.00    -0.744 OA
ENDBRANCH  89  90
ENDBRANCH  57  82
BRANCH  69  94
ATOM     94  C   UNL A   1      44.797  31.462  28.777  1.00  0.00     0.058 A 
ATOM     95  C   UNL A   1      45.885  31.647  27.904  1.00  0.00     0.135 A 
ATOM     96  C   UNL A   1      43.589  32.075  28.416  1.00  0.00     0.135 A 
ATOM     97  F   UNL A   1      47.044  31.010  28.103  1.00  0.00    -0.206 F 
ATOM     98  C   UNL A   1      45.792  32.433  26.755  1.00  0.00     0.059 A 
ATOM     99  C   UNL A   1      43.463  32.839  27.257  1.00  0.00     0.059 A 
ATOM    100  F   UNL A   1      42.490  31.886  29.165  1.00  0.00    -0.206 F 
ATOM    101  C   UNL A   1      44.574  33.025  26.437  1.00  0.00     0.060 A 
BRANCH 101 102
ATOM    102  S   UNL A   1      44.434  33.977  24.909  1.00  0.00     0.124 S 
ATOM    103  O   UNL A   1      43.351  34.902  25.224  1.00  0.00    -0.237 OA
ATOM    104  O   UNL A   1      45.761  34.575  24.783  1.00  0.00    -0.237 OA
ATOM    105  O   UNL A   1      44.119  32.964  23.904  1.00  0.00    -0.744 OA
ENDBRANCH 101 102
ENDBRANCH  69  94
ENDBRANCH  43  44
ENDBRANCH  35  38
ENDBRANCH  33  34
ENDBRANCH  32  33
ENDBRANCH   1  32
TORSDOF 19
ENDMDL
