MODEL 1
REMARK VINA RESULT:     -11.9      0.000      0.000
REMARK SMILES CS(=O)(=O)c1ccc(/C=C(/C(=O)NCCCCCCNC(=O)c2ccc(-c3c4nc(c(-c5c(F)cc(S(=O)(=O)[O-])cc5F)c5ccc([nH]5)c(-c5c(F)cc(S(=O)(=O)[O-])cc5F)c5nc(c(-c6c(F)cc(S(=O)(=O)[O-])cc6F)c6ccc3[nH]6)C=C5)C=C4)cc2)c2cccc(Br)c2)cc1
REMARK SMILES IDX 17 1 16 2 15 3 14 4 13 5 11 6 12 7 10 9 9 10 8 11 5 12 6 13
REMARK SMILES IDX 97 14 7 15 96 16 2 17 1 18 3 19 4 20 89 21 90 22 95 23 91 24
REMARK SMILES IDX 93 25 92 26 94 27 18 28 19 29 20 30 21 31 22 33 23 34 24 35
REMARK SMILES IDX 88 36 25 37 87 38 26 39 27 40 28 41 81 42 29 43 86 44 80 45
REMARK SMILES IDX 82 46 30 47 85 48 79 49 78 50 31 52 65 53 44 54 64 55 45 56
REMARK SMILES IDX 48 57 63 58 83 59 46 60 47 61 62 63 84 64 49 65 32 66 33 67
REMARK SMILES IDX 42 68 34 69 35 70 41 71 43 72 36 73 37 74 38 75 39 76 40 77
REMARK SMILES IDX 66 78 67 79 76 80 68 81 69 82 75 83 77 84 70 85 71 86 72 87
REMARK SMILES IDX 73 88 74 89 50 90 51 91 60 92 52 93 53 94 59 95 61 96 54 97
REMARK SMILES IDX 55 98 56 99 57 100 58 101
REMARK H PARENT 13 8 20 32 82 51 48 62
REMARK Flexibility Score: inf
ROOT
ATOM      1  C   UNL A   1      37.258  22.856  25.639  1.00  0.00     0.002 C 
ENDROOT
BRANCH   1   2
ATOM      2  C   UNL A   1      35.747  23.057  25.473  1.00  0.00     0.002 C 
BRANCH   2   3
ATOM      3  C   UNL A   1      35.305  24.504  25.193  1.00  0.00     0.021 C 
BRANCH   3   4
ATOM      4  C   UNL A   1      34.344  24.637  24.007  1.00  0.00     0.116 C 
BRANCH   4   5
ATOM      5  N   UNL A   1      33.100  23.952  24.302  1.00  0.00    -0.352 N 
ATOM      6  C   UNL A   1      31.825  24.352  24.543  1.00  0.00     0.251 C 
ATOM      7  O   UNL A   1      31.026  23.458  24.840  1.00  0.00    -0.269 OA
ATOM      8  H   UNL A   1      33.204  22.973  24.337  1.00  0.00     0.163 HD
BRANCH   6   9
ATOM      9  C   UNL A   1      31.341  25.777  24.379  1.00  0.00     0.047 C 
ATOM     10  C   UNL A   1      30.759  26.222  23.244  1.00  0.00     0.022 C 
BRANCH  10  11
ATOM     11  C   UNL A   1      30.138  27.537  22.969  1.00  0.00    -0.025 A 
ATOM     12  C   UNL A   1      28.840  29.999  22.577  1.00  0.00     0.067 A 
ATOM     13  C   UNL A   1      30.183  29.856  22.223  1.00  0.00     0.021 A 
ATOM     14  C   UNL A   1      28.127  28.915  23.090  1.00  0.00     0.021 A 
ATOM     15  C   UNL A   1      30.820  28.623  22.406  1.00  0.00     0.009 A 
ATOM     16  C   UNL A   1      28.776  27.692  23.282  1.00  0.00     0.009 A 
BRANCH  12  17
ATOM     17  S   UNL A   1      28.025  31.563  22.359  1.00  0.00     0.175 S 
ATOM     18  C   UNL A   1      29.248  32.782  22.757  1.00  0.00     0.163 C 
ATOM     19  O   UNL A   1      26.989  31.663  23.366  1.00  0.00    -0.224 OA
ATOM     20  O   UNL A   1      27.717  31.679  20.945  1.00  0.00    -0.224 OA
ENDBRANCH  12  17
ENDBRANCH  10  11
BRANCH   9  21
ATOM     21  C   UNL A   1      31.688  26.724  25.471  1.00  0.00    -0.012 A 
ATOM     22  C   UNL A   1      30.783  26.883  26.535  1.00  0.00     0.009 A 
ATOM     23  C   UNL A   1      32.911  27.405  25.512  1.00  0.00     0.024 A 
ATOM     24  C   UNL A   1      31.094  27.691  27.629  1.00  0.00     0.002 A 
ATOM     25  C   UNL A   1      33.223  28.196  26.620  1.00  0.00     0.018 A 
ATOM     26  C   UNL A   1      32.322  28.341  27.677  1.00  0.00     0.016 A 
ATOM     27  Br  UNL A   1      34.906  29.054  26.713  1.00  0.00    -0.051 Br
ENDBRANCH   9  21
ENDBRANCH   6   9
ENDBRANCH   4   5
ENDBRANCH   3   4
ENDBRANCH   2   3
ENDBRANCH   1   2
BRANCH   1  28
ATOM     28  C   UNL A   1      38.028  24.082  26.137  1.00  0.00     0.021 C 
BRANCH  28  29
ATOM     29  C   UNL A   1      39.276  23.760  26.956  1.00  0.00     0.116 C 
BRANCH  29  30
ATOM     30  N   UNL A   1      40.496  23.970  26.194  1.00  0.00    -0.352 N 
ATOM     31  C   UNL A   1      41.432  24.967  26.322  1.00  0.00     0.251 C 
ATOM     32  H   UNL A   1      40.676  23.307  25.488  1.00  0.00     0.163 HD
ATOM     33  O   UNL A   1      42.302  25.110  25.468  1.00  0.00    -0.269 OA
BRANCH  31  34
ATOM     34  C   UNL A   1      41.375  25.878  27.486  1.00  0.00     0.039 A 
ATOM     35  C   UNL A   1      42.304  26.917  27.582  1.00  0.00     0.014 A 
ATOM     36  C   UNL A   1      40.401  25.708  28.473  1.00  0.00     0.014 A 
ATOM     37  C   UNL A   1      42.216  27.827  28.639  1.00  0.00     0.010 A 
ATOM     38  C   UNL A   1      40.280  26.647  29.495  1.00  0.00     0.010 A 
ATOM     39  C   UNL A   1      41.184  27.718  29.584  1.00  0.00    -0.014 A 
BRANCH  39  40
ATOM     40  C   UNL A   1      41.018  28.717  30.670  1.00  0.00     0.031 A 
ATOM     41  C   UNL A   1      41.872  28.637  31.905  1.00  0.00     0.074 A 
ATOM     42  C   UNL A   1      40.044  29.644  30.579  1.00  0.00     0.049 A 
ATOM     43  N   UNL A   1      41.803  29.344  33.004  1.00  0.00    -0.248 NA
ATOM     44  C   UNL A   1      42.926  27.611  31.915  1.00  0.00     0.031 C 
ATOM     45  C   UNL A   1      39.125  29.797  29.449  1.00  0.00     0.029 A 
ATOM     46  N   UNL A   1      39.652  30.621  31.459  1.00  0.00    -0.354 N 
ATOM     47  C   UNL A   1      42.788  28.837  33.843  1.00  0.00     0.074 A 
ATOM     48  C   UNL A   1      43.416  27.737  33.140  1.00  0.00     0.031 C 
ATOM     49  C   UNL A   1      38.282  30.812  29.701  1.00  0.00     0.029 A 
ATOM     50  C   UNL A   1      38.577  31.358  31.022  1.00  0.00     0.049 A 
ATOM     51  H   UNL A   1      40.097  30.778  32.323  1.00  0.00     0.167 HD
ATOM     52  C   UNL A   1      43.148  29.261  35.078  1.00  0.00     0.037 A 
ATOM     53  C   UNL A   1      37.897  32.354  31.623  1.00  0.00     0.037 A 
ATOM     54  C   UNL A   1      42.541  30.373  35.759  1.00  0.00     0.049 A 
ATOM     55  C   UNL A   1      38.317  32.810  32.993  1.00  0.00     0.074 A 
ATOM     56  C   UNL A   1      42.875  30.918  36.987  1.00  0.00     0.029 A 
ATOM     57  N   UNL A   1      41.473  31.113  35.272  1.00  0.00    -0.354 N 
ATOM     58  N   UNL A   1      39.286  32.353  33.751  1.00  0.00    -0.248 NA
ATOM     59  C   UNL A   1      37.555  33.915  33.591  1.00  0.00     0.031 C 
ATOM     60  C   UNL A   1      41.989  31.967  37.256  1.00  0.00     0.029 A 
ATOM     61  C   UNL A   1      41.125  32.098  36.180  1.00  0.00     0.049 A 
ATOM     62  H   UNL A   1      41.027  30.959  34.407  1.00  0.00     0.167 HD
ATOM     63  C   UNL A   1      39.263  33.129  34.905  1.00  0.00     0.074 A 
ATOM     64  C   UNL A   1      38.191  34.089  34.741  1.00  0.00     0.031 C 
ATOM     65  C   UNL A   1      40.059  33.051  35.999  1.00  0.00     0.037 A 
BRANCH  52  66
ATOM     66  C   UNL A   1      44.257  28.518  35.769  1.00  0.00     0.058 A 
ATOM     67  C   UNL A   1      45.603  28.870  35.587  1.00  0.00     0.135 A 
ATOM     68  C   UNL A   1      43.969  27.458  36.645  1.00  0.00     0.135 A 
ATOM     69  F   UNL A   1      45.933  29.866  34.749  1.00  0.00    -0.206 F 
ATOM     70  C   UNL A   1      46.629  28.179  36.224  1.00  0.00     0.059 A 
ATOM     71  C   UNL A   1      44.978  26.769  37.312  1.00  0.00     0.059 A 
ATOM     72  F   UNL A   1      42.698  27.080  36.856  1.00  0.00    -0.206 F 
ATOM     73  C   UNL A   1      46.305  27.126  37.082  1.00  0.00     0.060 A 
BRANCH  73  74
ATOM     74  S   UNL A   1      47.646  26.234  37.897  1.00  0.00     0.124 S 
ATOM     75  O   UNL A   1      47.369  24.859  37.491  1.00  0.00    -0.237 OA
ATOM     76  O   UNL A   1      48.834  26.841  37.304  1.00  0.00    -0.237 OA
ATOM     77  O   UNL A   1      47.437  26.526  39.312  1.00  0.00    -0.744 OA
ENDBRANCH  73  74
ENDBRANCH  52  66
BRANCH  53  78
ATOM     78  C   UNL A   1      36.756  32.998  30.923  1.00  0.00     0.058 A 
ATOM     79  C   UNL A   1      35.433  32.709  31.288  1.00  0.00     0.135 A 
ATOM     80  C   UNL A   1      36.963  33.930  29.895  1.00  0.00     0.135 A 
ATOM     81  F   UNL A   1      35.186  31.820  32.261  1.00  0.00    -0.206 F 
ATOM     82  C   UNL A   1      34.354  33.312  30.652  1.00  0.00     0.059 A 
ATOM     83  C   UNL A   1      35.900  34.564  29.258  1.00  0.00     0.059 A 
ATOM     84  F   UNL A   1      38.211  34.253  29.522  1.00  0.00    -0.206 F 
ATOM     85  C   UNL A   1      34.598  34.241  29.639  1.00  0.00     0.060 A 
BRANCH  85  86
ATOM     86  S   UNL A   1      33.193  35.068  28.861  1.00  0.00     0.124 S 
ATOM     87  O   UNL A   1      32.332  35.325  30.009  1.00  0.00    -0.237 OA
ATOM     88  O   UNL A   1      33.820  36.239  28.256  1.00  0.00    -0.237 OA
ATOM     89  O   UNL A   1      32.703  34.072  27.913  1.00  0.00    -0.744 OA
ENDBRANCH  85  86
ENDBRANCH  53  78
BRANCH  65  90
ATOM     90  C   UNL A   1      39.821  34.048  37.098  1.00  0.00     0.058 A 
ATOM     91  C   UNL A   1      38.966  33.764  38.172  1.00  0.00     0.135 A 
ATOM     92  C   UNL A   1      40.504  35.274  37.105  1.00  0.00     0.135 A 
ATOM     93  F   UNL A   1      38.284  32.607  38.207  1.00  0.00    -0.206 F 
ATOM     94  C   UNL A   1      38.786  34.668  39.214  1.00  0.00     0.059 A 
ATOM     95  C   UNL A   1      40.356  36.184  38.147  1.00  0.00     0.059 A 
ATOM     96  F   UNL A   1      41.340  35.588  36.103  1.00  0.00    -0.206 F 
ATOM     97  C   UNL A   1      39.487  35.875  39.193  1.00  0.00     0.060 A 
BRANCH  97  98
ATOM     98  S   UNL A   1      39.282  37.021  40.573  1.00  0.00     0.124 S 
ATOM     99  O   UNL A   1      40.634  37.551  40.718  1.00  0.00    -0.237 OA
ATOM    100  O   UNL A   1      38.287  37.957  40.061  1.00  0.00    -0.237 OA
ATOM    101  O   UNL A   1      38.824  36.163  41.662  1.00  0.00    -0.744 OA
ENDBRANCH  97  98
ENDBRANCH  65  90
ENDBRANCH  39  40
ENDBRANCH  31  34
ENDBRANCH  29  30
ENDBRANCH  28  29
ENDBRANCH   1  28
TORSDOF 19
ENDMDL
MODEL 2
REMARK VINA RESULT:     -11.2      5.491     12.321
REMARK SMILES CS(=O)(=O)c1ccc(/C=C(/C(=O)NCCCCCCNC(=O)c2ccc(-c3c4nc(c(-c5c(F)cc(S(=O)(=O)[O-])cc5F)c5ccc([nH]5)c(-c5c(F)cc(S(=O)(=O)[O-])cc5F)c5nc(c(-c6c(F)cc(S(=O)(=O)[O-])cc6F)c6ccc3[nH]6)C=C5)C=C4)cc2)c2cccc(Br)c2)cc1
REMARK SMILES IDX 17 1 16 2 15 3 14 4 13 5 11 6 12 7 10 9 9 10 8 11 5 12 6 13
REMARK SMILES IDX 97 14 7 15 96 16 2 17 1 18 3 19 4 20 89 21 90 22 95 23 91 24
REMARK SMILES IDX 93 25 92 26 94 27 18 28 19 29 20 30 21 31 22 33 23 34 24 35
REMARK SMILES IDX 88 36 25 37 87 38 26 39 27 40 28 41 81 42 29 43 86 44 80 45
REMARK SMILES IDX 82 46 30 47 85 48 79 49 78 50 31 52 65 53 44 54 64 55 45 56
REMARK SMILES IDX 48 57 63 58 83 59 46 60 47 61 62 63 84 64 49 65 32 66 33 67
REMARK SMILES IDX 42 68 34 69 35 70 41 71 43 72 36 73 37 74 38 75 39 76 40 77
REMARK SMILES IDX 66 78 67 79 76 80 68 81 69 82 75 83 77 84 70 85 71 86 72 87
REMARK SMILES IDX 73 88 74 89 50 90 51 91 60 92 52 93 53 94 59 95 61 96 54 97
REMARK SMILES IDX 55 98 56 99 57 100 58 101
REMARK H PARENT 13 8 20 32 82 51 48 62
REMARK Flexibility Score: inf
ROOT
ATOM      1  C   UNL A   1      36.582  33.704  28.066  1.00  0.00     0.002 C 
ENDROOT
BRANCH   1   2
ATOM      2  C   UNL A   1      37.775  33.224  28.901  1.00  0.00     0.002 C 
BRANCH   2   3
ATOM      3  C   UNL A   1      38.776  34.319  29.306  1.00  0.00     0.021 C 
BRANCH   3   4
ATOM      4  C   UNL A   1      38.912  34.501  30.821  1.00  0.00     0.116 C 
BRANCH   4   5
ATOM      5  N   UNL A   1      37.619  34.822  31.396  1.00  0.00    -0.352 N 
ATOM      6  C   UNL A   1      37.002  34.540  32.571  1.00  0.00     0.251 C 
ATOM      7  O   UNL A   1      35.836  34.933  32.676  1.00  0.00    -0.269 OA
ATOM      8  H   UNL A   1      37.061  35.368  30.795  1.00  0.00     0.163 HD
BRANCH   6   9
ATOM      9  C   UNL A   1      37.685  33.874  33.746  1.00  0.00     0.047 C 
ATOM     10  C   UNL A   1      38.170  34.571  34.798  1.00  0.00     0.022 C 
BRANCH  10  11
ATOM     11  C   UNL A   1      38.756  34.066  36.060  1.00  0.00    -0.025 A 
ATOM     12  C   UNL A   1      40.017  33.198  38.416  1.00  0.00     0.067 A 
ATOM     13  C   UNL A   1      38.624  33.251  38.352  1.00  0.00     0.021 A 
ATOM     14  C   UNL A   1      40.788  33.537  37.304  1.00  0.00     0.021 A 
ATOM     15  C   UNL A   1      38.000  33.669  37.171  1.00  0.00     0.009 A 
ATOM     16  C   UNL A   1      40.155  33.967  36.133  1.00  0.00     0.009 A 
BRANCH  12  17
ATOM     17  S   UNL A   1      40.819  32.679  39.915  1.00  0.00     0.175 S 
ATOM     18  C   UNL A   1      41.370  34.175  40.688  1.00  0.00     0.163 C 
ATOM     19  O   UNL A   1      42.005  31.935  39.544  1.00  0.00    -0.224 OA
ATOM     20  O   UNL A   1      39.791  32.091  40.755  1.00  0.00    -0.224 OA
ENDBRANCH  12  17
ENDBRANCH  10  11
BRANCH   9  21
ATOM     21  C   UNL A   1      37.954  32.417  33.617  1.00  0.00    -0.012 A 
ATOM     22  C   UNL A   1      36.874  31.555  33.356  1.00  0.00     0.009 A 
ATOM     23  C   UNL A   1      39.248  31.886  33.676  1.00  0.00     0.024 A 
ATOM     24  C   UNL A   1      37.077  30.193  33.138  1.00  0.00     0.002 A 
ATOM     25  C   UNL A   1      39.446  30.524  33.438  1.00  0.00     0.018 A 
ATOM     26  C   UNL A   1      38.369  29.677  33.169  1.00  0.00     0.016 A 
ATOM     27  Br  UNL A   1      41.201  29.820  33.438  1.00  0.00    -0.051 Br
ENDBRANCH   9  21
ENDBRANCH   6   9
ENDBRANCH   4   5
ENDBRANCH   3   4
ENDBRANCH   2   3
ENDBRANCH   1   2
BRANCH   1  28
ATOM     28  C   UNL A   1      35.221  33.611  28.761  1.00  0.00     0.021 C 
BRANCH  28  29
ATOM     29  C   UNL A   1      35.028  32.362  29.617  1.00  0.00     0.116 C 
BRANCH  29  30
ATOM     30  N   UNL A   1      34.272  31.335  28.919  1.00  0.00    -0.352 N 
ATOM     31  C   UNL A   1      34.733  30.220  28.262  1.00  0.00     0.251 C 
ATOM     32  H   UNL A   1      33.294  31.455  28.916  1.00  0.00     0.163 HD
ATOM     33  O   UNL A   1      33.975  29.561  27.556  1.00  0.00    -0.269 OA
BRANCH  31  34
ATOM     34  C   UNL A   1      36.153  29.828  28.395  1.00  0.00     0.039 A 
ATOM     35  C   UNL A   1      37.015  30.018  27.313  1.00  0.00     0.014 A 
ATOM     36  C   UNL A   1      36.629  29.281  29.590  1.00  0.00     0.014 A 
ATOM     37  C   UNL A   1      38.373  29.719  27.450  1.00  0.00     0.010 A 
ATOM     38  C   UNL A   1      37.992  29.035  29.744  1.00  0.00     0.010 A 
ATOM     39  C   UNL A   1      38.877  29.256  28.676  1.00  0.00    -0.014 A 
BRANCH  39  40
ATOM     40  C   UNL A   1      40.328  29.008  28.874  1.00  0.00     0.031 A 
ATOM     41  C   UNL A   1      40.917  27.669  28.527  1.00  0.00     0.074 A 
ATOM     42  C   UNL A   1      41.095  29.959  29.442  1.00  0.00     0.049 A 
ATOM     43  N   UNL A   1      42.130  27.223  28.730  1.00  0.00    -0.248 NA
ATOM     44  C   UNL A   1      40.017  26.695  27.891  1.00  0.00     0.031 C 
ATOM     45  C   UNL A   1      40.629  31.283  29.860  1.00  0.00     0.029 A 
ATOM     46  N   UNL A   1      42.423  29.952  29.785  1.00  0.00    -0.354 N 
ATOM     47  C   UNL A   1      42.136  25.914  28.266  1.00  0.00     0.074 A 
ATOM     48  C   UNL A   1      40.794  25.624  27.805  1.00  0.00     0.031 C 
ATOM     49  C   UNL A   1      41.657  31.963  30.395  1.00  0.00     0.029 A 
ATOM     50  C   UNL A   1      42.843  31.113  30.390  1.00  0.00     0.049 A 
ATOM     51  H   UNL A   1      43.020  29.187  29.615  1.00  0.00     0.167 HD
ATOM     52  C   UNL A   1      43.168  25.040  28.212  1.00  0.00     0.037 A 
ATOM     53  C   UNL A   1      44.046  31.450  30.896  1.00  0.00     0.037 A 
ATOM     54  C   UNL A   1      44.507  25.343  28.642  1.00  0.00     0.049 A 
ATOM     55  C   UNL A   1      45.178  30.464  30.821  1.00  0.00     0.074 A 
ATOM     56  C   UNL A   1      45.636  24.544  28.573  1.00  0.00     0.029 A 
ATOM     57  N   UNL A   1      44.899  26.539  29.225  1.00  0.00    -0.354 N 
ATOM     58  N   UNL A   1      45.179  29.247  30.331  1.00  0.00    -0.248 NA
ATOM     59  C   UNL A   1      46.473  30.894  31.368  1.00  0.00     0.031 C 
ATOM     60  C   UNL A   1      46.705  25.247  29.142  1.00  0.00     0.029 A 
ATOM     61  C   UNL A   1      46.249  26.496  29.534  1.00  0.00     0.049 A 
ATOM     62  H   UNL A   1      44.306  27.306  29.394  1.00  0.00     0.167 HD
ATOM     63  C   UNL A   1      46.476  28.775  30.489  1.00  0.00     0.074 A 
ATOM     64  C   UNL A   1      47.235  29.839  31.113  1.00  0.00     0.031 C 
ATOM     65  C   UNL A   1      46.991  27.568  30.148  1.00  0.00     0.037 A 
BRANCH  52  66
ATOM     66  C   UNL A   1      42.888  23.670  27.660  1.00  0.00     0.058 A 
ATOM     67  C   UNL A   1      42.898  23.417  26.279  1.00  0.00     0.135 A 
ATOM     68  C   UNL A   1      42.633  22.590  28.522  1.00  0.00     0.135 A 
ATOM     69  F   UNL A   1      43.121  24.418  25.411  1.00  0.00    -0.206 F 
ATOM     70  C   UNL A   1      42.634  22.151  25.769  1.00  0.00     0.059 A 
ATOM     71  C   UNL A   1      42.391  21.309  28.034  1.00  0.00     0.059 A 
ATOM     72  F   UNL A   1      42.613  22.776  29.851  1.00  0.00    -0.206 F 
ATOM     73  C   UNL A   1      42.377  21.103  26.656  1.00  0.00     0.060 A 
BRANCH  73  74
ATOM     74  S   UNL A   1      42.030  19.465  25.980  1.00  0.00     0.124 S 
ATOM     75  O   UNL A   1      42.388  18.606  27.105  1.00  0.00    -0.237 OA
ATOM     76  O   UNL A   1      40.605  19.547  25.674  1.00  0.00    -0.237 OA
ATOM     77  O   UNL A   1      42.913  19.382  24.821  1.00  0.00    -0.744 OA
ENDBRANCH  73  74
ENDBRANCH  52  66
BRANCH  53  78
ATOM     78  C   UNL A   1      44.242  32.792  31.503  1.00  0.00     0.058 A 
ATOM     79  C   UNL A   1      44.543  33.905  30.705  1.00  0.00     0.135 A 
ATOM     80  C   UNL A   1      44.111  32.994  32.886  1.00  0.00     0.135 A 
ATOM     81  F   UNL A   1      44.685  33.758  29.379  1.00  0.00    -0.206 F 
ATOM     82  C   UNL A   1      44.718  35.170  31.254  1.00  0.00     0.059 A 
ATOM     83  C   UNL A   1      44.259  34.254  33.457  1.00  0.00     0.059 A 
ATOM     84  F   UNL A   1      43.806  31.964  33.690  1.00  0.00    -0.206 F 
ATOM     85  C   UNL A   1      44.571  35.335  32.633  1.00  0.00     0.060 A 
BRANCH  85  86
ATOM     86  S   UNL A   1      44.737  36.992  33.332  1.00  0.00     0.124 S 
ATOM     87  O   UNL A   1      43.372  37.264  33.767  1.00  0.00    -0.237 OA
ATOM     88  O   UNL A   1      45.717  36.783  34.393  1.00  0.00    -0.237 OA
ATOM     89  O   UNL A   1      45.210  37.785  32.202  1.00  0.00    -0.744 OA
ENDBRANCH  85  86
ENDBRANCH  53  78
BRANCH  65  90
ATOM     90  C   UNL A   1      48.452  27.339  30.416  1.00  0.00     0.058 A 
ATOM     91  C   UNL A   1      48.893  26.731  31.601  1.00  0.00     0.135 A 
ATOM     92  C   UNL A   1      49.413  27.677  29.451  1.00  0.00     0.135 A 
ATOM     93  F   UNL A   1      48.013  26.397  32.558  1.00  0.00    -0.206 F 
ATOM     94  C   UNL A   1      50.242  26.476  31.825  1.00  0.00     0.059 A 
ATOM     95  C   UNL A   1      50.765  27.412  29.644  1.00  0.00     0.059 A 
ATOM     96  F   UNL A   1      49.039  28.254  28.298  1.00  0.00    -0.206 F 
ATOM     97  C   UNL A   1      51.170  26.818  30.839  1.00  0.00     0.060 A 
BRANCH  97  98
ATOM     98  S   UNL A   1      52.913  26.439  31.120  1.00  0.00     0.124 S 
ATOM     99  O   UNL A   1      53.389  26.219  29.758  1.00  0.00    -0.237 OA
ATOM    100  O   UNL A   1      53.398  27.651  31.773  1.00  0.00    -0.237 OA
ATOM    101  O   UNL A   1      52.870  25.252  31.969  1.00  0.00    -0.744 OA
ENDBRANCH  97  98
ENDBRANCH  65  90
ENDBRANCH  39  40
ENDBRANCH  31  34
ENDBRANCH  29  30
ENDBRANCH  28  29
ENDBRANCH   1  28
TORSDOF 19
ENDMDL
MODEL 3
REMARK VINA RESULT:     -10.8      5.018     13.753
REMARK SMILES CS(=O)(=O)c1ccc(/C=C(/C(=O)NCCCCCCNC(=O)c2ccc(-c3c4nc(c(-c5c(F)cc(S(=O)(=O)[O-])cc5F)c5ccc([nH]5)c(-c5c(F)cc(S(=O)(=O)[O-])cc5F)c5nc(c(-c6c(F)cc(S(=O)(=O)[O-])cc6F)c6ccc3[nH]6)C=C5)C=C4)cc2)c2cccc(Br)c2)cc1
REMARK SMILES IDX 17 1 16 2 15 3 14 4 13 5 11 6 12 7 10 9 9 10 8 11 5 12 6 13
REMARK SMILES IDX 97 14 7 15 96 16 2 17 1 18 3 19 4 20 89 21 90 22 95 23 91 24
REMARK SMILES IDX 93 25 92 26 94 27 18 28 19 29 20 30 21 31 22 33 23 34 24 35
REMARK SMILES IDX 88 36 25 37 87 38 26 39 27 40 28 41 81 42 29 43 86 44 80 45
REMARK SMILES IDX 82 46 30 47 85 48 79 49 78 50 31 52 65 53 44 54 64 55 45 56
REMARK SMILES IDX 48 57 63 58 83 59 46 60 47 61 62 63 84 64 49 65 32 66 33 67
REMARK SMILES IDX 42 68 34 69 35 70 41 71 43 72 36 73 37 74 38 75 39 76 40 77
REMARK SMILES IDX 66 78 67 79 76 80 68 81 69 82 75 83 77 84 70 85 71 86 72 87
REMARK SMILES IDX 73 88 74 89 50 90 51 91 60 92 52 93 53 94 59 95 61 96 54 97
REMARK SMILES IDX 55 98 56 99 57 100 58 101
REMARK H PARENT 13 8 20 32 82 51 48 62
REMARK Flexibility Score: inf
ROOT
ATOM      1  C   UNL A   1      43.967  24.596  29.337  1.00  0.00     0.002 C 
ENDROOT
BRANCH   1   2
ATOM      2  C   UNL A   1      44.415  23.626  30.436  1.00  0.00     0.002 C 
BRANCH   2   3
ATOM      3  C   UNL A   1      44.368  24.188  31.867  1.00  0.00     0.021 C 
BRANCH   3   4
ATOM      4  C   UNL A   1      44.108  23.124  32.940  1.00  0.00     0.116 C 
BRANCH   4   5
ATOM      5  N   UNL A   1      44.233  23.715  34.259  1.00  0.00    -0.352 N 
ATOM      6  C   UNL A   1      45.009  23.468  35.345  1.00  0.00     0.251 C 
ATOM      7  O   UNL A   1      44.771  24.153  36.344  1.00  0.00    -0.269 OA
ATOM      8  H   UNL A   1      43.611  24.467  34.399  1.00  0.00     0.163 HD
BRANCH   6   9
ATOM      9  C   UNL A   1      46.168  22.495  35.352  1.00  0.00     0.047 C 
ATOM     10  C   UNL A   1      47.336  22.749  34.722  1.00  0.00     0.022 C 
BRANCH  10  11
ATOM     11  C   UNL A   1      48.589  21.960  34.729  1.00  0.00    -0.025 A 
ATOM     12  C   UNL A   1      51.001  20.529  34.904  1.00  0.00     0.067 A 
ATOM     13  C   UNL A   1      49.975  20.064  34.079  1.00  0.00     0.021 A 
ATOM     14  C   UNL A   1      50.851  21.720  35.613  1.00  0.00     0.021 A 
ATOM     15  C   UNL A   1      48.781  20.790  33.983  1.00  0.00     0.009 A 
ATOM     16  C   UNL A   1      49.649  22.430  35.521  1.00  0.00     0.009 A 
BRANCH  12  17
ATOM     17  S   UNL A   1      52.516  19.609  35.040  1.00  0.00     0.175 S 
ATOM     18  C   UNL A   1      53.757  20.816  35.421  1.00  0.00     0.163 C 
ATOM     19  O   UNL A   1      52.829  19.082  33.728  1.00  0.00    -0.224 OA
ATOM     20  O   UNL A   1      52.371  18.735  36.190  1.00  0.00    -0.224 OA
ENDBRANCH  12  17
ENDBRANCH  10  11
BRANCH   9  21
ATOM     21  C   UNL A   1      45.906  21.157  35.946  1.00  0.00    -0.012 A 
ATOM     22  C   UNL A   1      45.343  20.159  35.130  1.00  0.00     0.009 A 
ATOM     23  C   UNL A   1      46.264  20.838  37.261  1.00  0.00     0.024 A 
ATOM     24  C   UNL A   1      45.156  18.862  35.607  1.00  0.00     0.002 A 
ATOM     25  C   UNL A   1      46.093  19.532  37.725  1.00  0.00     0.018 A 
ATOM     26  C   UNL A   1      45.542  18.544  36.905  1.00  0.00     0.016 A 
ATOM     27  Br  UNL A   1      46.649  19.079  39.474  1.00  0.00    -0.051 Br
ENDBRANCH   9  21
ENDBRANCH   6   9
ENDBRANCH   4   5
ENDBRANCH   3   4
ENDBRANCH   2   3
ENDBRANCH   1   2
BRANCH   1  28
ATOM     28  C   UNL A   1      43.813  23.977  27.945  1.00  0.00     0.021 C 
BRANCH  28  29
ATOM     29  C   UNL A   1      44.281  24.869  26.798  1.00  0.00     0.116 C 
BRANCH  29  30
ATOM     30  N   UNL A   1      43.201  25.182  25.875  1.00  0.00    -0.352 N 
ATOM     31  C   UNL A   1      42.037  25.871  26.112  1.00  0.00     0.251 C 
ATOM     32  H   UNL A   1      43.320  24.853  24.955  1.00  0.00     0.163 HD
ATOM     33  O   UNL A   1      41.141  25.875  25.274  1.00  0.00    -0.269 OA
BRANCH  31  34
ATOM     34  C   UNL A   1      41.862  26.593  27.391  1.00  0.00     0.039 A 
ATOM     35  C   UNL A   1      42.641  27.725  27.645  1.00  0.00     0.014 A 
ATOM     36  C   UNL A   1      40.927  26.154  28.333  1.00  0.00     0.014 A 
ATOM     37  C   UNL A   1      42.435  28.457  28.817  1.00  0.00     0.010 A 
ATOM     38  C   UNL A   1      40.685  26.915  29.474  1.00  0.00     0.010 A 
ATOM     39  C   UNL A   1      41.434  28.076  29.724  1.00  0.00    -0.014 A 
BRANCH  39  40
ATOM     40  C   UNL A   1      41.139  28.881  30.937  1.00  0.00     0.031 A 
ATOM     41  C   UNL A   1      40.022  29.887  30.920  1.00  0.00     0.074 A 
ATOM     42  C   UNL A   1      41.928  28.764  32.023  1.00  0.00     0.049 A 
ATOM     43  N   UNL A   1      39.682  30.759  31.834  1.00  0.00    -0.248 NA
ATOM     44  C   UNL A   1      39.195  29.937  29.704  1.00  0.00     0.031 C 
ATOM     45  C   UNL A   1      43.068  27.852  32.145  1.00  0.00     0.029 A 
ATOM     46  N   UNL A   1      41.905  29.428  33.223  1.00  0.00    -0.354 N 
ATOM     47  C   UNL A   1      38.616  31.473  31.300  1.00  0.00     0.074 A 
ATOM     48  C   UNL A   1      38.390  30.958  29.965  1.00  0.00     0.031 C 
ATOM     49  C   UNL A   1      43.629  28.009  33.356  1.00  0.00     0.029 A 
ATOM     50  C   UNL A   1      42.913  29.054  34.080  1.00  0.00     0.049 A 
ATOM     51  H   UNL A   1      41.232  30.110  33.449  1.00  0.00     0.167 HD
ATOM     52  C   UNL A   1      37.882  32.454  31.875  1.00  0.00     0.037 A 
ATOM     53  C   UNL A   1      43.233  29.511  35.307  1.00  0.00     0.037 A 
ATOM     54  C   UNL A   1      38.091  32.941  33.213  1.00  0.00     0.049 A 
ATOM     55  C   UNL A   1      42.400  30.599  35.927  1.00  0.00     0.074 A 
ATOM     56  C   UNL A   1      37.362  33.891  33.907  1.00  0.00     0.029 A 
ATOM     57  N   UNL A   1      39.105  32.518  34.060  1.00  0.00    -0.354 N 
ATOM     58  N   UNL A   1      41.362  31.227  35.427  1.00  0.00    -0.248 NA
ATOM     59  C   UNL A   1      42.780  31.042  37.275  1.00  0.00     0.031 C 
ATOM     60  C   UNL A   1      37.954  34.065  35.164  1.00  0.00     0.029 A 
ATOM     61  C   UNL A   1      39.030  33.197  35.265  1.00  0.00     0.049 A 
ATOM     62  H   UNL A   1      39.778  31.835  33.838  1.00  0.00     0.167 HD
ATOM     63  C   UNL A   1      40.952  32.123  36.408  1.00  0.00     0.074 A 
ATOM     64  C   UNL A   1      41.848  31.949  37.533  1.00  0.00     0.031 C 
ATOM     65  C   UNL A   1      39.926  33.008  36.377  1.00  0.00     0.037 A 
BRANCH  52  66
ATOM     66  C   UNL A   1      36.777  33.063  31.057  1.00  0.00     0.058 A 
ATOM     67  C   UNL A   1      37.047  33.953  30.005  1.00  0.00     0.135 A 
ATOM     68  C   UNL A   1      35.436  32.733  31.310  1.00  0.00     0.135 A 
ATOM     69  F   UNL A   1      38.311  34.313  29.733  1.00  0.00    -0.206 F 
ATOM     70  C   UNL A   1      36.024  34.520  29.252  1.00  0.00     0.059 A 
ATOM     71  C   UNL A   1      34.398  33.269  30.552  1.00  0.00     0.059 A 
ATOM     72  F   UNL A   1      35.122  31.887  32.303  1.00  0.00    -0.206 F 
ATOM     73  C   UNL A   1      34.701  34.174  29.536  1.00  0.00     0.060 A 
BRANCH  73  74
ATOM     74  S   UNL A   1      33.384  34.921  28.554  1.00  0.00     0.124 S 
ATOM     75  O   UNL A   1      34.134  35.872  27.738  1.00  0.00    -0.237 OA
ATOM     76  O   UNL A   1      32.833  33.772  27.841  1.00  0.00    -0.237 OA
ATOM     77  O   UNL A   1      32.504  35.511  29.559  1.00  0.00    -0.744 OA
ENDBRANCH  73  74
ENDBRANCH  52  66
BRANCH  53  78
ATOM     78  C   UNL A   1      44.387  28.925  36.036  1.00  0.00     0.058 A 
ATOM     79  C   UNL A   1      45.671  29.474  35.907  1.00  0.00     0.135 A 
ATOM     80  C   UNL A   1      44.227  27.825  36.893  1.00  0.00     0.135 A 
ATOM     81  F   UNL A   1      45.873  30.522  35.095  1.00  0.00    -0.206 F 
ATOM     82  C   UNL A   1      46.760  28.947  36.592  1.00  0.00     0.059 A 
ATOM     83  C   UNL A   1      45.297  27.294  37.606  1.00  0.00     0.059 A 
ATOM     84  F   UNL A   1      43.015  27.277  37.064  1.00  0.00    -0.206 F 
ATOM     85  C   UNL A   1      46.563  27.857  37.442  1.00  0.00     0.060 A 
BRANCH  85  86
ATOM     86  S   UNL A   1      47.970  27.218  38.377  1.00  0.00     0.124 S 
ATOM     87  O   UNL A   1      49.094  27.733  37.603  1.00  0.00    -0.237 OA
ATOM     88  O   UNL A   1      47.767  27.822  39.690  1.00  0.00    -0.237 OA
ATOM     89  O   UNL A   1      47.776  25.772  38.326  1.00  0.00    -0.744 OA
ENDBRANCH  85  86
ENDBRANCH  53  78
BRANCH  65  90
ATOM     90  C   UNL A   1      39.696  33.841  37.607  1.00  0.00     0.058 A 
ATOM     91  C   UNL A   1      38.839  33.415  38.631  1.00  0.00     0.135 A 
ATOM     92  C   UNL A   1      40.388  35.049  37.786  1.00  0.00     0.135 A 
ATOM     93  F   UNL A   1      38.149  32.270  38.503  1.00  0.00    -0.206 F 
ATOM     94  C   UNL A   1      38.666  34.165  39.790  1.00  0.00     0.059 A 
ATOM     95  C   UNL A   1      40.247  35.805  38.945  1.00  0.00     0.059 A 
ATOM     96  F   UNL A   1      41.226  35.495  36.837  1.00  0.00    -0.206 F 
ATOM     97  C   UNL A   1      39.377  35.358  39.939  1.00  0.00     0.060 A 
BRANCH  97  98
ATOM     98  S   UNL A   1      39.181  36.299  41.467  1.00  0.00     0.124 S 
ATOM     99  O   UNL A   1      38.004  35.667  42.053  1.00  0.00    -0.237 OA
ATOM    100  O   UNL A   1      40.444  36.050  42.155  1.00  0.00    -0.237 OA
ATOM    101  O   UNL A   1      38.990  37.669  40.999  1.00  0.00    -0.744 OA
ENDBRANCH  97  98
ENDBRANCH  65  90
ENDBRANCH  39  40
ENDBRANCH  31  34
ENDBRANCH  29  30
ENDBRANCH  28  29
ENDBRANCH   1  28
TORSDOF 19
ENDMDL
