MODEL 1
REMARK VINA RESULT:     -11.3      0.000      0.000
REMARK SMILES CC1(C)CCSC[C@@]1(Nc1ccccc1Br)C(=O)NCCCCCCNC(=O)c1ccc(-c2c3nc(c(-c4c(F)cc(S(=O)(=O)[O-])cc4F)c4ccc([nH]4)c(-c4c(F)cc(S(=O)(=O)[O-])cc4F)c4nc(c(-c5c(F)cc(S(=O)(=O)[O-])cc5F)c5ccc2[nH]5)C=C4)C=C3)cc1
REMARK SMILES IDX 23 1 22 2 21 3 20 4 19 5 17 6 18 7 8 9 1 10 2 11 3 12 4 13
REMARK SMILES IDX 5 14 7 15 6 16 9 17 10 19 11 20 15 21 12 22 14 23 16 24
REMARK SMILES IDX 13 25 24 26 25 27 26 28 27 29 28 31 29 32 30 33 94 34 31 35
REMARK SMILES IDX 93 36 32 37 33 38 34 39 87 40 35 41 92 42 86 43 88 44 36 45
REMARK SMILES IDX 91 46 85 47 84 48 37 50 71 51 50 52 70 53 51 54 54 55 69 56
REMARK SMILES IDX 89 57 52 58 53 59 68 61 90 62 55 63 38 64 39 65 48 66 40 67
REMARK SMILES IDX 41 68 47 69 49 70 42 71 43 72 44 73 45 74 46 75 72 76 73 77
REMARK SMILES IDX 82 78 74 79 75 80 81 81 83 82 76 83 77 84 78 85 79 86 80 87
REMARK SMILES IDX 56 88 57 89 66 90 58 91 59 92 65 93 67 94 60 95 61 96 62 97
REMARK SMILES IDX 63 98 64 99
REMARK H PARENT 19 8 9 18 26 30 88 49 54 60
REMARK Flexibility Score: inf
ROOT
ATOM      1  C   UNL A   1      40.418  22.409  27.726  1.00  0.00     0.002 C 
ENDROOT
BRANCH   1   2
ATOM      2  C   UNL A   1      39.516  22.574  26.499  1.00  0.00     0.002 C 
BRANCH   2   3
ATOM      3  C   UNL A   1      38.627  23.823  26.525  1.00  0.00     0.021 C 
BRANCH   3   4
ATOM      4  C   UNL A   1      37.366  23.692  25.678  1.00  0.00     0.116 C 
BRANCH   4   5
ATOM      5  N   UNL A   1      36.254  23.302  26.515  1.00  0.00    -0.354 N 
ATOM      6  C   UNL A   1      34.905  23.303  26.420  1.00  0.00     0.247 C 
ATOM      7  O   UNL A   1      34.372  22.884  27.460  1.00  0.00    -0.272 OA
ATOM      8  H   UNL A   1      36.557  22.942  27.380  1.00  0.00     0.163 HD
BRANCH   6   9
ATOM      9  C   UNL A   1      34.047  23.706  25.147  1.00  0.00     0.131 C 
ATOM     10  C   UNL A   1      34.030  21.134  24.614  1.00  0.00     0.014 C 
ATOM     11  C   UNL A   1      34.260  22.555  24.020  1.00  0.00    -0.002 C 
ATOM     12  C   UNL A   1      35.683  22.579  23.397  1.00  0.00     0.014 C 
ATOM     13  C   UNL A   1      33.290  22.706  22.804  1.00  0.00     0.020 C 
ATOM     14  C   UNL A   1      31.810  22.613  23.127  1.00  0.00     0.070 C 
ATOM     15  C   UNL A   1      32.533  23.822  25.488  1.00  0.00     0.108 C 
ATOM     16  S   UNL A   1      31.331  24.020  24.126  1.00  0.00    -0.159 SA
BRANCH   9  17
ATOM     17  N   UNL A   1      34.558  25.012  24.578  1.00  0.00    -0.369 N 
ATOM     18  H   UNL A   1      35.377  25.001  24.031  1.00  0.00     0.161 HD
BRANCH  17  19
ATOM     19  C   UNL A   1      33.909  26.233  24.800  1.00  0.00     0.049 A 
ATOM     20  C   UNL A   1      33.754  26.667  26.128  1.00  0.00     0.027 A 
ATOM     21  C   UNL A   1      33.428  27.085  23.788  1.00  0.00     0.041 A 
ATOM     22  C   UNL A   1      33.221  27.921  26.438  1.00  0.00     0.002 A 
ATOM     23  C   UNL A   1      32.919  28.357  24.095  1.00  0.00     0.018 A 
ATOM     24  Br  UNL A   1      33.277  26.538  21.972  1.00  0.00    -0.049 Br
ATOM     25  C   UNL A   1      32.828  28.779  25.419  1.00  0.00     0.001 A 
ENDBRANCH  17  19
ENDBRANCH   9  17
ENDBRANCH   6   9
ENDBRANCH   4   5
ENDBRANCH   3   4
ENDBRANCH   2   3
ENDBRANCH   1   2
BRANCH   1  26
ATOM     26  C   UNL A   1      41.899  22.189  27.404  1.00  0.00     0.021 C 
BRANCH  26  27
ATOM     27  C   UNL A   1      42.745  23.455  27.457  1.00  0.00     0.116 C 
BRANCH  27  28
ATOM     28  N   UNL A   1      42.725  24.169  26.192  1.00  0.00    -0.352 N 
ATOM     29  C   UNL A   1      42.270  25.434  25.929  1.00  0.00     0.251 C 
ATOM     30  H   UNL A   1      43.088  23.678  25.420  1.00  0.00     0.163 HD
ATOM     31  O   UNL A   1      42.118  25.806  24.767  1.00  0.00    -0.269 OA
BRANCH  29  32
ATOM     32  C   UNL A   1      41.948  26.337  27.052  1.00  0.00     0.039 A 
ATOM     33  C   UNL A   1      40.848  26.047  27.860  1.00  0.00     0.014 A 
ATOM     34  C   UNL A   1      42.739  27.462  27.308  1.00  0.00     0.014 A 
ATOM     35  C   UNL A   1      40.569  26.864  28.956  1.00  0.00     0.010 A 
ATOM     36  C   UNL A   1      42.505  28.227  28.445  1.00  0.00     0.010 A 
ATOM     37  C   UNL A   1      41.411  27.942  29.276  1.00  0.00    -0.014 A 
BRANCH  37  38
ATOM     38  C   UNL A   1      41.154  28.788  30.468  1.00  0.00     0.031 A 
ATOM     39  C   UNL A   1      41.975  28.601  31.715  1.00  0.00     0.074 A 
ATOM     40  C   UNL A   1      40.153  29.690  30.440  1.00  0.00     0.049 A 
ATOM     41  N   UNL A   1      41.870  29.207  32.870  1.00  0.00    -0.248 NA
ATOM     42  C   UNL A   1      43.037  27.582  31.669  1.00  0.00     0.031 C 
ATOM     43  C   UNL A   1      39.261  29.927  29.302  1.00  0.00     0.029 A 
ATOM     44  N   UNL A   1      39.713  30.571  31.395  1.00  0.00    -0.354 N 
ATOM     45  C   UNL A   1      42.847  28.644  33.684  1.00  0.00     0.074 A 
ATOM     46  C   UNL A   1      43.489  27.603  32.913  1.00  0.00     0.031 C 
ATOM     47  C   UNL A   1      38.397  30.906  29.617  1.00  0.00     0.029 A 
ATOM     48  C   UNL A   1      38.646  31.338  30.989  1.00  0.00     0.049 A 
ATOM     49  H   UNL A   1      40.122  30.646  32.287  1.00  0.00     0.167 HD
ATOM     50  C   UNL A   1      43.198  28.986  34.946  1.00  0.00     0.037 A 
ATOM     51  C   UNL A   1      37.942  32.277  31.651  1.00  0.00     0.037 A 
ATOM     52  C   UNL A   1      42.560  30.034  35.701  1.00  0.00     0.049 A 
ATOM     53  C   UNL A   1      38.336  32.621  33.063  1.00  0.00     0.074 A 
ATOM     54  C   UNL A   1      42.862  30.484  36.974  1.00  0.00     0.029 A 
ATOM     55  N   UNL A   1      41.491  30.796  35.252  1.00  0.00    -0.354 N 
ATOM     56  N   UNL A   1      39.301  32.120  33.796  1.00  0.00    -0.248 NA
ATOM     57  C   UNL A   1      37.550  33.665  33.735  1.00  0.00     0.031 C 
ATOM     58  C   UNL A   1      41.945  31.483  37.314  1.00  0.00     0.029 A 
ATOM     59  C   UNL A   1      41.109  31.700  36.231  1.00  0.00     0.049 A 
ATOM     60  H   UNL A   1      41.066  30.708  34.368  1.00  0.00     0.167 HD
ATOM     61  C   UNL A   1      39.259  32.809  35.004  1.00  0.00     0.074 A 
ATOM     62  C   UNL A   1      38.184  33.773  34.896  1.00  0.00     0.031 C 
ATOM     63  C   UNL A   1      40.041  32.660  36.103  1.00  0.00     0.037 A 
BRANCH  50  64
ATOM     64  C   UNL A   1      44.328  28.226  35.587  1.00  0.00     0.058 A 
ATOM     65  C   UNL A   1      45.654  28.682  35.517  1.00  0.00     0.135 A 
ATOM     66  C   UNL A   1      44.082  27.048  36.311  1.00  0.00     0.135 A 
ATOM     67  F   UNL A   1      45.952  29.794  34.824  1.00  0.00    -0.206 F 
ATOM     68  C   UNL A   1      46.699  27.983  36.113  1.00  0.00     0.059 A 
ATOM     69  C   UNL A   1      45.106  26.350  36.944  1.00  0.00     0.059 A 
ATOM     70  F   UNL A   1      42.833  26.564  36.411  1.00  0.00    -0.206 F 
ATOM     71  C   UNL A   1      46.414  26.819  36.827  1.00  0.00     0.060 A 
BRANCH  71  72
ATOM     72  S   UNL A   1      47.782  25.930  37.602  1.00  0.00     0.124 S 
ATOM     73  O   UNL A   1      47.820  24.705  36.808  1.00  0.00    -0.237 OA
ATOM     74  O   UNL A   1      48.899  26.847  37.406  1.00  0.00    -0.237 OA
ATOM     75  O   UNL A   1      47.342  25.768  38.985  1.00  0.00    -0.744 OA
ENDBRANCH  71  72
ENDBRANCH  50  64
BRANCH  51  76
ATOM     76  C   UNL A   1      36.804  32.967  30.986  1.00  0.00     0.058 A 
ATOM     77  C   UNL A   1      35.476  32.683  31.341  1.00  0.00     0.135 A 
ATOM     78  C   UNL A   1      37.019  33.922  29.979  1.00  0.00     0.135 A 
ATOM     79  F   UNL A   1      35.218  31.776  32.296  1.00  0.00    -0.206 F 
ATOM     80  C   UNL A   1      34.403  33.296  30.703  1.00  0.00     0.059 A 
ATOM     81  C   UNL A   1      35.963  34.570  29.347  1.00  0.00     0.059 A 
ATOM     82  F   UNL A   1      38.269  34.247  29.615  1.00  0.00    -0.206 F 
ATOM     83  C   UNL A   1      34.657  34.239  29.706  1.00  0.00     0.060 A 
BRANCH  83  84
ATOM     84  S   UNL A   1      33.257  35.049  28.902  1.00  0.00     0.124 S 
ATOM     85  O   UNL A   1      32.886  34.062  27.895  1.00  0.00    -0.237 OA
ATOM     86  O   UNL A   1      32.323  35.215  30.010  1.00  0.00    -0.237 OA
ATOM     87  O   UNL A   1      33.837  36.288  28.390  1.00  0.00    -0.744 OA
ENDBRANCH  83  84
ENDBRANCH  51  76
BRANCH  63  88
ATOM     88  C   UNL A   1      39.790  33.586  37.261  1.00  0.00     0.058 A 
ATOM     89  C   UNL A   1      40.466  34.809  37.393  1.00  0.00     0.135 A 
ATOM     90  C   UNL A   1      38.822  33.265  38.228  1.00  0.00     0.135 A 
ATOM     91  F   UNL A   1      41.404  35.162  36.500  1.00  0.00    -0.206 F 
ATOM     92  C   UNL A   1      40.213  35.667  38.458  1.00  0.00     0.059 A 
ATOM     93  C   UNL A   1      38.530  34.123  39.283  1.00  0.00     0.059 A 
ATOM     94  F   UNL A   1      38.137  32.113  38.143  1.00  0.00    -0.206 F 
ATOM     95  C   UNL A   1      39.241  35.316  39.397  1.00  0.00     0.060 A 
BRANCH  95  96
ATOM     96  S   UNL A   1      38.902  36.454  40.757  1.00  0.00     0.124 S 
ATOM     97  O   UNL A   1      38.367  37.611  40.047  1.00  0.00    -0.237 OA
ATOM     98  O   UNL A   1      37.942  35.703  41.560  1.00  0.00    -0.237 OA
ATOM     99  O   UNL A   1      40.211  36.646  41.374  1.00  0.00    -0.744 OA
ENDBRANCH  95  96
ENDBRANCH  63  88
ENDBRANCH  37  38
ENDBRANCH  29  32
ENDBRANCH  27  28
ENDBRANCH  26  27
ENDBRANCH   1  26
TORSDOF 18
ENDMDL
MODEL 2
REMARK VINA RESULT:     -11.0      6.329     11.789
REMARK SMILES CC1(C)CCSC[C@@]1(Nc1ccccc1Br)C(=O)NCCCCCCNC(=O)c1ccc(-c2c3nc(c(-c4c(F)cc(S(=O)(=O)[O-])cc4F)c4ccc([nH]4)c(-c4c(F)cc(S(=O)(=O)[O-])cc4F)c4nc(c(-c5c(F)cc(S(=O)(=O)[O-])cc5F)c5ccc2[nH]5)C=C4)C=C3)cc1
REMARK SMILES IDX 23 1 22 2 21 3 20 4 19 5 17 6 18 7 8 9 1 10 2 11 3 12 4 13
REMARK SMILES IDX 5 14 7 15 6 16 9 17 10 19 11 20 15 21 12 22 14 23 16 24
REMARK SMILES IDX 13 25 24 26 25 27 26 28 27 29 28 31 29 32 30 33 94 34 31 35
REMARK SMILES IDX 93 36 32 37 33 38 34 39 87 40 35 41 92 42 86 43 88 44 36 45
REMARK SMILES IDX 91 46 85 47 84 48 37 50 71 51 50 52 70 53 51 54 54 55 69 56
REMARK SMILES IDX 89 57 52 58 53 59 68 61 90 62 55 63 38 64 39 65 48 66 40 67
REMARK SMILES IDX 41 68 47 69 49 70 42 71 43 72 44 73 45 74 46 75 72 76 73 77
REMARK SMILES IDX 82 78 74 79 75 80 81 81 83 82 76 83 77 84 78 85 79 86 80 87
REMARK SMILES IDX 56 88 57 89 66 90 58 91 59 92 65 93 67 94 60 95 61 96 62 97
REMARK SMILES IDX 63 98 64 99
REMARK H PARENT 19 8 9 18 26 30 88 49 54 60
REMARK Flexibility Score: inf
ROOT
ATOM      1  C   UNL A   1      34.094  30.198  27.465  1.00  0.00     0.002 C 
ENDROOT
BRANCH   1   2
ATOM      2  C   UNL A   1      32.786  30.138  26.670  1.00  0.00     0.002 C 
BRANCH   2   3
ATOM      3  C   UNL A   1      31.882  28.950  27.019  1.00  0.00     0.021 C 
BRANCH   3   4
ATOM      4  C   UNL A   1      32.530  27.593  26.760  1.00  0.00     0.116 C 
BRANCH   4   5
ATOM      5  N   UNL A   1      31.537  26.548  26.870  1.00  0.00    -0.354 N 
ATOM      6  C   UNL A   1      31.210  25.428  26.187  1.00  0.00     0.247 C 
ATOM      7  O   UNL A   1      30.219  24.865  26.677  1.00  0.00    -0.272 OA
ATOM      8  H   UNL A   1      30.944  26.689  27.643  1.00  0.00     0.163 HD
BRANCH   6   9
ATOM      9  C   UNL A   1      31.993  24.811  24.952  1.00  0.00     0.131 C 
ATOM     10  C   UNL A   1      33.292  23.407  26.752  1.00  0.00     0.014 C 
ATOM     11  C   UNL A   1      33.440  24.300  25.485  1.00  0.00    -0.002 C 
ATOM     12  C   UNL A   1      34.396  25.471  25.845  1.00  0.00     0.014 C 
ATOM     13  C   UNL A   1      34.220  23.461  24.422  1.00  0.00     0.020 C 
ATOM     14  C   UNL A   1      33.541  22.183  23.965  1.00  0.00     0.070 C 
ATOM     15  C   UNL A   1      31.222  23.616  24.322  1.00  0.00     0.108 C 
ATOM     16  S   UNL A   1      32.054  22.593  23.057  1.00  0.00    -0.159 SA
BRANCH   9  17
ATOM     17  N   UNL A   1      32.235  25.885  23.912  1.00  0.00    -0.369 N 
ATOM     18  H   UNL A   1      33.093  25.890  23.428  1.00  0.00     0.161 HD
BRANCH  17  19
ATOM     19  C   UNL A   1      31.285  26.869  23.614  1.00  0.00     0.049 A 
ATOM     20  C   UNL A   1      29.932  26.489  23.562  1.00  0.00     0.027 A 
ATOM     21  C   UNL A   1      31.576  28.229  23.394  1.00  0.00     0.041 A 
ATOM     22  C   UNL A   1      28.908  27.423  23.383  1.00  0.00     0.002 A 
ATOM     23  C   UNL A   1      30.547  29.173  23.242  1.00  0.00     0.018 A 
ATOM     24  Br  UNL A   1      33.347  28.869  23.127  1.00  0.00    -0.049 Br
ATOM     25  C   UNL A   1      29.214  28.771  23.250  1.00  0.00     0.001 A 
ENDBRANCH  17  19
ENDBRANCH   9  17
ENDBRANCH   6   9
ENDBRANCH   4   5
ENDBRANCH   3   4
ENDBRANCH   2   3
ENDBRANCH   1   2
BRANCH   1  26
ATOM     26  C   UNL A   1      34.677  31.605  27.625  1.00  0.00     0.021 C 
BRANCH  26  27
ATOM     27  C   UNL A   1      35.946  31.662  28.466  1.00  0.00     0.116 C 
BRANCH  27  28
ATOM     28  N   UNL A   1      35.698  31.270  29.843  1.00  0.00    -0.352 N 
ATOM     29  C   UNL A   1      36.414  30.410  30.632  1.00  0.00     0.251 C 
ATOM     30  H   UNL A   1      34.909  31.679  30.266  1.00  0.00     0.163 HD
ATOM     31  O   UNL A   1      35.946  30.014  31.698  1.00  0.00    -0.269 OA
BRANCH  29  32
ATOM     32  C   UNL A   1      37.743  29.950  30.182  1.00  0.00     0.039 A 
ATOM     33  C   UNL A   1      38.011  29.890  28.814  1.00  0.00     0.014 A 
ATOM     34  C   UNL A   1      38.721  29.586  31.113  1.00  0.00     0.014 A 
ATOM     35  C   UNL A   1      39.281  29.509  28.381  1.00  0.00     0.010 A 
ATOM     36  C   UNL A   1      40.008  29.283  30.680  1.00  0.00     0.010 A 
ATOM     37  C   UNL A   1      40.299  29.232  29.310  1.00  0.00    -0.014 A 
BRANCH  37  38
ATOM     38  C   UNL A   1      41.668  28.875  28.862  1.00  0.00     0.031 A 
ATOM     39  C   UNL A   1      42.741  29.928  28.806  1.00  0.00     0.074 A 
ATOM     40  C   UNL A   1      41.930  27.614  28.464  1.00  0.00     0.049 A 
ATOM     41  N   UNL A   1      43.980  29.823  28.398  1.00  0.00    -0.248 NA
ATOM     42  C   UNL A   1      42.368  31.284  29.241  1.00  0.00     0.031 C 
ATOM     43  C   UNL A   1      40.957  26.519  28.430  1.00  0.00     0.029 A 
ATOM     44  N   UNL A   1      43.089  27.040  28.006  1.00  0.00    -0.354 N 
ATOM     45  C   UNL A   1      44.531  31.093  28.526  1.00  0.00     0.074 A 
ATOM     46  C   UNL A   1      43.474  31.967  28.985  1.00  0.00     0.031 C 
ATOM     47  C   UNL A   1      41.566  25.402  28.001  1.00  0.00     0.029 A 
ATOM     48  C   UNL A   1      42.958  25.708  27.689  1.00  0.00     0.049 A 
ATOM     49  H   UNL A   1      43.934  27.536  27.912  1.00  0.00     0.167 HD
ATOM     50  C   UNL A   1      45.808  31.488  28.312  1.00  0.00     0.037 A 
ATOM     51  C   UNL A   1      43.858  24.835  27.195  1.00  0.00     0.037 A 
ATOM     52  C   UNL A   1      46.857  30.607  27.867  1.00  0.00     0.049 A 
ATOM     53  C   UNL A   1      45.266  25.306  26.941  1.00  0.00     0.074 A 
ATOM     54  C   UNL A   1      48.193  30.898  27.652  1.00  0.00     0.029 A 
ATOM     55  N   UNL A   1      46.689  29.263  27.567  1.00  0.00    -0.354 N 
ATOM     56  N   UNL A   1      45.784  26.496  27.124  1.00  0.00    -0.248 NA
ATOM     57  C   UNL A   1      46.214  24.310  26.421  1.00  0.00     0.031 C 
ATOM     58  C   UNL A   1      48.822  29.744  27.177  1.00  0.00     0.029 A 
ATOM     59  C   UNL A   1      47.893  28.716  27.151  1.00  0.00     0.049 A 
ATOM     60  H   UNL A   1      45.840  28.770  27.640  1.00  0.00     0.167 HD
ATOM     61  C   UNL A   1      47.125  26.386  26.773  1.00  0.00     0.074 A 
ATOM     62  C   UNL A   1      47.341  25.009  26.382  1.00  0.00     0.031 C 
ATOM     63  C   UNL A   1      48.092  27.338  26.775  1.00  0.00     0.037 A 
BRANCH  50  64
ATOM     64  C   UNL A   1      46.144  32.934  28.564  1.00  0.00     0.058 A 
ATOM     65  C   UNL A   1      46.514  33.391  29.840  1.00  0.00     0.135 A 
ATOM     66  C   UNL A   1      46.132  33.867  27.516  1.00  0.00     0.135 A 
ATOM     67  F   UNL A   1      46.527  32.546  30.884  1.00  0.00    -0.206 F 
ATOM     68  C   UNL A   1      46.830  34.725  30.073  1.00  0.00     0.059 A 
ATOM     69  C   UNL A   1      46.476  35.201  27.719  1.00  0.00     0.059 A 
ATOM     70  F   UNL A   1      45.785  33.487  26.275  1.00  0.00    -0.206 F 
ATOM     71  C   UNL A   1      46.810  35.623  29.005  1.00  0.00     0.060 A 
BRANCH  71  72
ATOM     72  S   UNL A   1      47.232  37.349  29.325  1.00  0.00     0.124 S 
ATOM     73  O   UNL A   1      47.471  37.845  27.973  1.00  0.00    -0.237 OA
ATOM     74  O   UNL A   1      46.027  37.847  29.978  1.00  0.00    -0.237 OA
ATOM     75  O   UNL A   1      48.413  37.258  30.178  1.00  0.00    -0.744 OA
ENDBRANCH  71  72
ENDBRANCH  50  64
BRANCH  51  76
ATOM     76  C   UNL A   1      43.462  23.428  26.920  1.00  0.00     0.058 A 
ATOM     77  C   UNL A   1      43.325  22.956  25.606  1.00  0.00     0.135 A 
ATOM     78  C   UNL A   1      43.208  22.525  27.966  1.00  0.00     0.135 A 
ATOM     79  F   UNL A   1      43.554  23.780  24.571  1.00  0.00    -0.206 F 
ATOM     80  C   UNL A   1      42.922  21.653  25.336  1.00  0.00     0.059 A 
ATOM     81  C   UNL A   1      42.833  21.208  27.721  1.00  0.00     0.059 A 
ATOM     82  F   UNL A   1      43.344  22.917  29.242  1.00  0.00    -0.206 F 
ATOM     83  C   UNL A   1      42.678  20.785  26.402  1.00  0.00     0.060 A 
BRANCH  83  84
ATOM     84  S   UNL A   1      42.181  19.087  26.041  1.00  0.00     0.124 S 
ATOM     85  O   UNL A   1      42.976  18.795  24.854  1.00  0.00    -0.237 OA
ATOM     86  O   UNL A   1      42.572  18.388  27.261  1.00  0.00    -0.237 OA
ATOM     87  O   UNL A   1      40.741  19.198  25.825  1.00  0.00    -0.744 OA
ENDBRANCH  83  84
ENDBRANCH  51  76
BRANCH  63  88
ATOM     88  C   UNL A   1      49.480  26.914  26.381  1.00  0.00     0.058 A 
ATOM     89  C   UNL A   1      50.408  26.444  27.324  1.00  0.00     0.135 A 
ATOM     90  C   UNL A   1      49.871  26.935  25.032  1.00  0.00     0.135 A 
ATOM     91  F   UNL A   1      50.088  26.409  28.627  1.00  0.00    -0.206 F 
ATOM     92  C   UNL A   1      51.683  26.037  26.946  1.00  0.00     0.059 A 
ATOM     93  C   UNL A   1      51.130  26.502  24.628  1.00  0.00     0.059 A 
ATOM     94  F   UNL A   1      49.019  27.364  24.087  1.00  0.00    -0.206 F 
ATOM     95  C   UNL A   1      52.034  26.068  25.595  1.00  0.00     0.060 A 
BRANCH  95  96
ATOM     96  S   UNL A   1      53.682  25.508  25.118  1.00  0.00     0.124 S 
ATOM     97  O   UNL A   1      54.397  25.578  26.388  1.00  0.00    -0.237 OA
ATOM     98  O   UNL A   1      53.421  24.164  24.611  1.00  0.00    -0.237 OA
ATOM     99  O   UNL A   1      54.094  26.481  24.111  1.00  0.00    -0.744 OA
ENDBRANCH  95  96
ENDBRANCH  63  88
ENDBRANCH  37  38
ENDBRANCH  29  32
ENDBRANCH  27  28
ENDBRANCH  26  27
ENDBRANCH   1  26
TORSDOF 18
ENDMDL
MODEL 3
REMARK VINA RESULT:     -10.9      0.465      8.189
REMARK SMILES CC1(C)CCSC[C@@]1(Nc1ccccc1Br)C(=O)NCCCCCCNC(=O)c1ccc(-c2c3nc(c(-c4c(F)cc(S(=O)(=O)[O-])cc4F)c4ccc([nH]4)c(-c4c(F)cc(S(=O)(=O)[O-])cc4F)c4nc(c(-c5c(F)cc(S(=O)(=O)[O-])cc5F)c5ccc2[nH]5)C=C4)C=C3)cc1
REMARK SMILES IDX 23 1 22 2 21 3 20 4 19 5 17 6 18 7 8 9 1 10 2 11 3 12 4 13
REMARK SMILES IDX 5 14 7 15 6 16 9 17 10 19 11 20 15 21 12 22 14 23 16 24
REMARK SMILES IDX 13 25 24 26 25 27 26 28 27 29 28 31 29 32 30 33 94 34 31 35
REMARK SMILES IDX 93 36 32 37 33 38 34 39 87 40 35 41 92 42 86 43 88 44 36 45
REMARK SMILES IDX 91 46 85 47 84 48 37 50 71 51 50 52 70 53 51 54 54 55 69 56
REMARK SMILES IDX 89 57 52 58 53 59 68 61 90 62 55 63 38 64 39 65 48 66 40 67
REMARK SMILES IDX 41 68 47 69 49 70 42 71 43 72 44 73 45 74 46 75 72 76 73 77
REMARK SMILES IDX 82 78 74 79 75 80 81 81 83 82 76 83 77 84 78 85 79 86 80 87
REMARK SMILES IDX 56 88 57 89 66 90 58 91 59 92 65 93 67 94 60 95 61 96 62 97
REMARK SMILES IDX 63 98 64 99
REMARK H PARENT 19 8 9 18 26 30 88 49 54 60
REMARK Flexibility Score: inf
ROOT
ATOM      1  C   UNL A   1      40.506  22.334  27.641  1.00  0.00     0.002 C 
ENDROOT
BRANCH   1   2
ATOM      2  C   UNL A   1      39.470  22.480  26.522  1.00  0.00     0.002 C 
BRANCH   2   3
ATOM      3  C   UNL A   1      38.659  23.780  26.572  1.00  0.00     0.021 C 
BRANCH   3   4
ATOM      4  C   UNL A   1      37.395  23.743  25.719  1.00  0.00     0.116 C 
BRANCH   4   5
ATOM      5  N   UNL A   1      36.275  23.310  26.524  1.00  0.00    -0.354 N 
ATOM      6  C   UNL A   1      34.928  23.294  26.406  1.00  0.00     0.247 C 
ATOM      7  O   UNL A   1      34.384  22.834  27.422  1.00  0.00    -0.272 OA
ATOM      8  H   UNL A   1      36.569  22.927  27.382  1.00  0.00     0.163 HD
BRANCH   6   9
ATOM      9  C   UNL A   1      34.085  23.725  25.132  1.00  0.00     0.131 C 
ATOM     10  C   UNL A   1      34.091  21.168  24.532  1.00  0.00     0.014 C 
ATOM     11  C   UNL A   1      34.321  22.605  23.978  1.00  0.00    -0.002 C 
ATOM     12  C   UNL A   1      35.752  22.653  23.377  1.00  0.00     0.014 C 
ATOM     13  C   UNL A   1      33.367  22.782  22.753  1.00  0.00     0.020 C 
ATOM     14  C   UNL A   1      31.883  22.673  23.052  1.00  0.00     0.070 C 
ATOM     15  C   UNL A   1      32.567  23.824  25.454  1.00  0.00     0.108 C 
ATOM     16  S   UNL A   1      31.382  24.051  24.081  1.00  0.00    -0.159 SA
BRANCH   9  17
ATOM     17  N   UNL A   1      34.597  25.048  24.603  1.00  0.00    -0.369 N 
ATOM     18  H   UNL A   1      35.417  25.055  24.058  1.00  0.00     0.161 HD
BRANCH  17  19
ATOM     19  C   UNL A   1      33.947  26.261  24.861  1.00  0.00     0.049 A 
ATOM     20  C   UNL A   1      33.813  26.668  26.201  1.00  0.00     0.027 A 
ATOM     21  C   UNL A   1      33.444  27.131  23.875  1.00  0.00     0.041 A 
ATOM     22  C   UNL A   1      33.281  27.914  26.545  1.00  0.00     0.002 A 
ATOM     23  C   UNL A   1      32.934  28.395  24.217  1.00  0.00     0.018 A 
ATOM     24  Br  UNL A   1      33.262  26.620  22.052  1.00  0.00    -0.049 Br
ATOM     25  C   UNL A   1      32.866  28.790  25.551  1.00  0.00     0.001 A 
ENDBRANCH  17  19
ENDBRANCH   9  17
ENDBRANCH   6   9
ENDBRANCH   4   5
ENDBRANCH   3   4
ENDBRANCH   2   3
ENDBRANCH   1   2
BRANCH   1  26
ATOM     26  C   UNL A   1      41.956  22.234  27.158  1.00  0.00     0.021 C 
BRANCH  26  27
ATOM     27  C   UNL A   1      42.771  23.505  27.363  1.00  0.00     0.116 C 
BRANCH  27  28
ATOM     28  N   UNL A   1      42.867  24.286  26.141  1.00  0.00    -0.352 N 
ATOM     29  C   UNL A   1      42.500  25.587  25.925  1.00  0.00     0.251 C 
ATOM     30  H   UNL A   1      43.248  23.816  25.365  1.00  0.00     0.163 HD
ATOM     31  O   UNL A   1      42.440  26.029  24.779  1.00  0.00    -0.269 OA
BRANCH  29  32
ATOM     32  C   UNL A   1      42.163  26.447  27.077  1.00  0.00     0.039 A 
ATOM     33  C   UNL A   1      41.138  26.053  27.938  1.00  0.00     0.014 A 
ATOM     34  C   UNL A   1      42.864  27.634  27.307  1.00  0.00     0.014 A 
ATOM     35  C   UNL A   1      40.849  26.830  29.060  1.00  0.00     0.010 A 
ATOM     36  C   UNL A   1      42.626  28.364  28.467  1.00  0.00     0.010 A 
ATOM     37  C   UNL A   1      41.609  27.975  29.350  1.00  0.00    -0.014 A 
BRANCH  37  38
ATOM     38  C   UNL A   1      41.345  28.782  30.567  1.00  0.00     0.031 A 
ATOM     39  C   UNL A   1      40.224  29.787  30.576  1.00  0.00     0.074 A 
ATOM     40  C   UNL A   1      42.141  28.641  31.645  1.00  0.00     0.049 A 
ATOM     41  N   UNL A   1      39.869  30.618  31.522  1.00  0.00    -0.248 NA
ATOM     42  C   UNL A   1      39.413  29.893  29.352  1.00  0.00     0.031 C 
ATOM     43  C   UNL A   1      43.286  27.731  31.736  1.00  0.00     0.029 A 
ATOM     44  N   UNL A   1      42.115  29.263  32.867  1.00  0.00    -0.354 N 
ATOM     45  C   UNL A   1      38.798  31.341  31.009  1.00  0.00     0.074 A 
ATOM     46  C   UNL A   1      38.605  30.900  29.646  1.00  0.00     0.031 C 
ATOM     47  C   UNL A   1      43.836  27.837  32.957  1.00  0.00     0.029 A 
ATOM     48  C   UNL A   1      43.111  28.848  33.720  1.00  0.00     0.049 A 
ATOM     49  H   UNL A   1      41.446  29.943  33.111  1.00  0.00     0.167 HD
ATOM     50  C   UNL A   1      38.025  32.265  31.629  1.00  0.00     0.037 A 
ATOM     51  C   UNL A   1      43.412  29.245  34.972  1.00  0.00     0.037 A 
ATOM     52  C   UNL A   1      38.217  32.689  32.992  1.00  0.00     0.049 A 
ATOM     53  C   UNL A   1      42.553  30.293  35.630  1.00  0.00     0.074 A 
ATOM     54  C   UNL A   1      37.470  33.592  33.726  1.00  0.00     0.029 A 
ATOM     55  N   UNL A   1      39.230  32.238  33.827  1.00  0.00    -0.354 N 
ATOM     56  N   UNL A   1      41.508  30.923  35.150  1.00  0.00    -0.248 NA
ATOM     57  C   UNL A   1      42.910  30.677  37.002  1.00  0.00     0.031 C 
ATOM     58  C   UNL A   1      38.058  33.725  34.987  1.00  0.00     0.029 A 
ATOM     59  C   UNL A   1      39.138  32.860  35.062  1.00  0.00     0.049 A 
ATOM     60  H   UNL A   1      39.913  31.574  33.578  1.00  0.00     0.167 HD
ATOM     61  C   UNL A   1      41.062  31.754  36.173  1.00  0.00     0.074 A 
ATOM     62  C   UNL A   1      41.943  31.534  37.301  1.00  0.00     0.031 C 
ATOM     63  C   UNL A   1      40.019  32.621  36.179  1.00  0.00     0.037 A 
BRANCH  50  64
ATOM     64  C   UNL A   1      36.897  32.873  30.840  1.00  0.00     0.058 A 
ATOM     65  C   UNL A   1      35.565  32.471  31.033  1.00  0.00     0.135 A 
ATOM     66  C   UNL A   1      37.140  33.896  29.909  1.00  0.00     0.135 A 
ATOM     67  F   UNL A   1      35.273  31.487  31.899  1.00  0.00    -0.206 F 
ATOM     68  C   UNL A   1      34.520  33.037  30.309  1.00  0.00     0.059 A 
ATOM     69  C   UNL A   1      36.108  34.499  29.197  1.00  0.00     0.059 A 
ATOM     70  F   UNL A   1      38.394  34.319  29.683  1.00  0.00    -0.206 F 
ATOM     71  C   UNL A   1      34.802  34.052  29.394  1.00  0.00     0.060 A 
BRANCH  71  72
ATOM     72  S   UNL A   1      33.432  34.781  28.470  1.00  0.00     0.124 S 
ATOM     73  O   UNL A   1      34.119  35.811  27.696  1.00  0.00    -0.237 OA
ATOM     74  O   UNL A   1      32.933  33.643  27.706  1.00  0.00    -0.237 OA
ATOM     75  O   UNL A   1      32.540  35.273  29.515  1.00  0.00    -0.744 OA
ENDBRANCH  71  72
ENDBRANCH  50  64
BRANCH  51  76
ATOM     76  C   UNL A   1      44.567  28.643  35.691  1.00  0.00     0.058 A 
ATOM     77  C   UNL A   1      45.869  29.139  35.516  1.00  0.00     0.135 A 
ATOM     78  C   UNL A   1      44.396  27.557  36.565  1.00  0.00     0.135 A 
ATOM     79  F   UNL A   1      46.085  30.174  34.690  1.00  0.00    -0.206 F 
ATOM     80  C   UNL A   1      46.960  28.563  36.156  1.00  0.00     0.059 A 
ATOM     81  C   UNL A   1      45.468  26.984  37.239  1.00  0.00     0.059 A 
ATOM     82  F   UNL A   1      43.170  27.057  36.784  1.00  0.00    -0.206 F 
ATOM     83  C   UNL A   1      46.750  27.484  37.016  1.00  0.00     0.060 A 
BRANCH  83  84
ATOM     84  S   UNL A   1      48.172  26.761  37.862  1.00  0.00     0.124 S 
ATOM     85  O   UNL A   1      48.580  27.854  38.737  1.00  0.00    -0.237 OA
ATOM     86  O   UNL A   1      47.579  25.602  38.520  1.00  0.00    -0.237 OA
ATOM     87  O   UNL A   1      49.089  26.450  36.770  1.00  0.00    -0.744 OA
ENDBRANCH  83  84
ENDBRANCH  51  76
BRANCH  63  88
ATOM     88  C   UNL A   1      39.745  33.365  37.457  1.00  0.00     0.058 A 
ATOM     89  C   UNL A   1      40.432  34.543  37.791  1.00  0.00     0.135 A 
ATOM     90  C   UNL A   1      38.745  32.918  38.337  1.00  0.00     0.135 A 
ATOM     91  F   UNL A   1      41.400  35.011  36.988  1.00  0.00    -0.206 F 
ATOM     92  C   UNL A   1      40.158  35.234  38.966  1.00  0.00     0.059 A 
ATOM     93  C   UNL A   1      38.432  33.611  39.501  1.00  0.00     0.059 A 
ATOM     94  F   UNL A   1      38.049  31.804  38.059  1.00  0.00    -0.206 F 
ATOM     95  C   UNL A   1      39.154  34.761  39.814  1.00  0.00     0.060 A 
BRANCH  95  96
ATOM     96  S   UNL A   1      38.789  35.686  41.321  1.00  0.00     0.124 S 
ATOM     97  O   UNL A   1      37.518  35.096  41.728  1.00  0.00    -0.237 OA
ATOM     98  O   UNL A   1      39.935  35.368  42.167  1.00  0.00    -0.237 OA
ATOM     99  O   UNL A   1      38.721  37.070  40.863  1.00  0.00    -0.744 OA
ENDBRANCH  95  96
ENDBRANCH  63  88
ENDBRANCH  37  38
ENDBRANCH  29  32
ENDBRANCH  27  28
ENDBRANCH  26  27
ENDBRANCH   1  26
TORSDOF 18
ENDMDL
