MODEL 1
REMARK VINA RESULT:     -11.1      0.000      0.000
REMARK SMILES O=C(CCCC(=O)Nc1ccc(C(=O)N2CCOCC2)cc1)NCCCCCCNC(=O)c1ccc(-c2c3nc(c(-c4c(F)cc(S(=O)(=O)[O-])cc4F)c4ccc([nH]4)c(-c4c(F)cc(S(=O)(=O)[O-])cc4F)c4nc(c(-c5c(F)cc(S(=O)(=O)[O-])cc5F)c5ccc2[nH]5)C=C4)C=C3)cc1
REMARK SMILES IDX 25 1 24 2 23 3 1 4 2 5 3 7 4 8 5 9 6 10 7 11 8 12 9 14 10 15
REMARK SMILES IDX 22 16 11 17 21 18 12 19 13 20 14 21 15 22 16 23 20 24 17 25
REMARK SMILES IDX 19 26 18 27 26 28 27 29 28 30 29 31 30 32 31 33 32 35 33 36
REMARK SMILES IDX 34 37 98 38 35 39 97 40 36 41 37 42 38 43 91 44 39 45 96 46
REMARK SMILES IDX 90 47 92 48 40 49 95 50 89 51 88 52 41 54 75 55 54 56 74 57
REMARK SMILES IDX 55 58 58 59 73 60 93 61 56 62 57 63 72 65 94 66 59 67 42 68
REMARK SMILES IDX 43 69 52 70 44 71 45 72 51 73 53 74 46 75 47 76 48 77 49 78
REMARK SMILES IDX 50 79 76 80 77 81 86 82 78 83 79 84 85 85 87 86 80 87 81 88
REMARK SMILES IDX 82 89 83 90 84 91 60 92 61 93 70 94 62 95 63 96 69 97 71 98
REMARK SMILES IDX 64 99 65 100 66 101 67 102 68 103
REMARK H PARENT 23 6 8 13 30 34 92 53 58 64
REMARK Flexibility Score: inf
ROOT
ATOM      1  C   UNL A   1      39.003  22.596  26.259  1.00  0.00     0.021 C 
ENDROOT
BRANCH   1   2
ATOM      2  C   UNL A   1      37.702  22.367  25.487  1.00  0.00     0.116 C 
BRANCH   2   3
ATOM      3  N   UNL A   1      36.662  23.325  25.811  1.00  0.00    -0.356 N 
ATOM      4  O   UNL A   1      35.884  23.503  23.679  1.00  0.00    -0.275 OA
ATOM      5  C   UNL A   1      35.785  23.793  24.870  1.00  0.00     0.220 C 
ATOM      6  H   UNL A   1      36.584  23.649  26.738  1.00  0.00     0.163 HD
BRANCH   5   7
ATOM      7  C   UNL A   1      34.747  24.807  25.335  1.00  0.00     0.100 C 
BRANCH   7   8
ATOM      8  C   UNL A   1      33.613  25.293  24.421  1.00  0.00     0.020 C 
BRANCH   8   9
ATOM      9  C   UNL A   1      32.242  25.688  24.963  1.00  0.00     0.101 C 
BRANCH   9  10
ATOM     10  C   UNL A   1      31.825  25.428  26.424  1.00  0.00     0.224 C 
ATOM     11  O   UNL A   1      31.658  26.381  27.192  1.00  0.00    -0.275 OA
ATOM     12  N   UNL A   1      31.365  24.194  26.810  1.00  0.00    -0.326 N 
ATOM     13  H   UNL A   1      30.539  24.202  27.345  1.00  0.00     0.169 HD
BRANCH  12  14
ATOM     14  C   UNL A   1      31.900  22.930  26.554  1.00  0.00     0.041 A 
ATOM     15  C   UNL A   1      31.418  22.179  25.486  1.00  0.00     0.027 A 
ATOM     16  C   UNL A   1      32.920  22.411  27.331  1.00  0.00     0.027 A 
ATOM     17  C   UNL A   1      32.149  21.064  25.043  1.00  0.00     0.016 A 
ATOM     18  C   UNL A   1      33.646  21.297  26.892  1.00  0.00     0.016 A 
ATOM     19  C   UNL A   1      33.338  20.675  25.684  1.00  0.00     0.040 A 
BRANCH  19  20
ATOM     20  C   UNL A   1      34.298  19.822  24.893  1.00  0.00     0.254 C 
ATOM     21  O   UNL A   1      35.412  20.289  24.649  1.00  0.00    -0.269 OA
ATOM     22  N   UNL A   1      34.023  18.479  24.663  1.00  0.00    -0.334 N 
ATOM     23  C   UNL A   1      32.820  17.935  24.040  1.00  0.00     0.148 C 
ATOM     24  C   UNL A   1      35.131  17.515  24.692  1.00  0.00     0.148 C 
ATOM     25  C   UNL A   1      32.414  16.647  24.761  1.00  0.00     0.181 C 
ATOM     26  C   UNL A   1      34.675  16.175  25.295  1.00  0.00     0.181 C 
ATOM     27  O   UNL A   1      33.474  15.681  24.669  1.00  0.00    -0.378 OA
ENDBRANCH  19  20
ENDBRANCH  12  14
ENDBRANCH   9  10
ENDBRANCH   8   9
ENDBRANCH   7   8
ENDBRANCH   5   7
ENDBRANCH   2   3
ENDBRANCH   1   2
BRANCH   1  28
ATOM     28  C   UNL A   1      39.803  21.333  26.602  1.00  0.00     0.002 C 
BRANCH  28  29
ATOM     29  C   UNL A   1      41.312  21.540  26.747  1.00  0.00     0.002 C 
BRANCH  29  30
ATOM     30  C   UNL A   1      41.743  22.269  28.020  1.00  0.00     0.021 C 
BRANCH  30  31
ATOM     31  C   UNL A   1      42.712  23.427  27.801  1.00  0.00     0.116 C 
BRANCH  31  32
ATOM     32  N   UNL A   1      42.517  24.074  26.514  1.00  0.00    -0.352 N 
ATOM     33  C   UNL A   1      41.973  25.308  26.239  1.00  0.00     0.251 C 
ATOM     34  H   UNL A   1      42.814  23.559  25.729  1.00  0.00     0.163 HD
ATOM     35  O   UNL A   1      41.709  25.620  25.085  1.00  0.00    -0.269 OA
BRANCH  33  36
ATOM     36  C   UNL A   1      41.689  26.247  27.349  1.00  0.00     0.039 A 
ATOM     37  C   UNL A   1      40.494  26.115  28.061  1.00  0.00     0.014 A 
ATOM     38  C   UNL A   1      42.603  27.248  27.692  1.00  0.00     0.014 A 
ATOM     39  C   UNL A   1      40.245  26.946  29.156  1.00  0.00     0.010 A 
ATOM     40  C   UNL A   1      42.387  28.023  28.829  1.00  0.00     0.010 A 
ATOM     41  C   UNL A   1      41.205  27.884  29.572  1.00  0.00    -0.014 A 
BRANCH  41  42
ATOM     42  C   UNL A   1      40.991  28.728  30.778  1.00  0.00     0.031 A 
ATOM     43  C   UNL A   1      39.913  29.779  30.784  1.00  0.00     0.074 A 
ATOM     44  C   UNL A   1      41.809  28.594  31.843  1.00  0.00     0.049 A 
ATOM     45  N   UNL A   1      39.621  30.659  31.707  1.00  0.00    -0.248 NA
ATOM     46  C   UNL A   1      39.065  29.868  29.584  1.00  0.00     0.031 C 
ATOM     47  C   UNL A   1      42.919  27.645  31.943  1.00  0.00     0.029 A 
ATOM     48  N   UNL A   1      41.841  29.265  33.040  1.00  0.00    -0.354 N 
ATOM     49  C   UNL A   1      38.571  31.412  31.197  1.00  0.00     0.074 A 
ATOM     50  C   UNL A   1      38.310  30.921  29.861  1.00  0.00     0.031 C 
ATOM     51  C   UNL A   1      43.509  27.780  33.141  1.00  0.00     0.029 A 
ATOM     52  C   UNL A   1      42.850  28.854  33.879  1.00  0.00     0.049 A 
ATOM     53  H   UNL A   1      41.201  29.976  33.276  1.00  0.00     0.167 HD
ATOM     54  C   UNL A   1      37.871  32.406  31.795  1.00  0.00     0.037 A 
ATOM     55  C   UNL A   1      43.213  29.297  35.099  1.00  0.00     0.037 A 
ATOM     56  C   UNL A   1      38.121  32.875  33.133  1.00  0.00     0.049 A 
ATOM     57  C   UNL A   1      42.428  30.413  35.737  1.00  0.00     0.074 A 
ATOM     58  C   UNL A   1      37.432  33.840  33.848  1.00  0.00     0.029 A 
ATOM     59  N   UNL A   1      39.141  32.421  33.957  1.00  0.00    -0.354 N 
ATOM     60  N   UNL A   1      41.396  31.071  35.264  1.00  0.00    -0.248 NA
ATOM     61  C   UNL A   1      42.851  30.844  37.077  1.00  0.00     0.031 C 
ATOM     62  C   UNL A   1      38.066  34.006  35.083  1.00  0.00     0.029 A 
ATOM     63  C   UNL A   1      39.114  33.101  35.164  1.00  0.00     0.049 A 
ATOM     64  H   UNL A   1      39.787  31.718  33.719  1.00  0.00     0.167 HD
ATOM     65  C   UNL A   1      41.027  31.968  36.261  1.00  0.00     0.074 A 
ATOM     66  C   UNL A   1      41.939  31.762  37.366  1.00  0.00     0.031 C 
ATOM     67  C   UNL A   1      40.020  32.877  36.262  1.00  0.00     0.037 A 
BRANCH  54  68
ATOM     68  C   UNL A   1      36.763  33.054  31.008  1.00  0.00     0.058 A 
ATOM     69  C   UNL A   1      37.021  34.045  30.046  1.00  0.00     0.135 A 
ATOM     70  C   UNL A   1      35.429  32.650  31.185  1.00  0.00     0.135 A 
ATOM     71  F   UNL A   1      38.274  34.481  29.843  1.00  0.00    -0.206 F 
ATOM     72  C   UNL A   1      35.996  34.631  29.309  1.00  0.00     0.059 A 
ATOM     73  C   UNL A   1      34.391  33.200  30.437  1.00  0.00     0.059 A 
ATOM     74  F   UNL A   1      35.123  31.707  32.090  1.00  0.00    -0.206 F 
ATOM     75  C   UNL A   1      34.684  34.201  29.512  1.00  0.00     0.060 A 
BRANCH  75  76
ATOM     76  S   UNL A   1      33.369  34.964  28.539  1.00  0.00     0.124 S 
ATOM     77  O   UNL A   1      34.133  35.835  27.651  1.00  0.00    -0.237 OA
ATOM     78  O   UNL A   1      32.738  33.811  27.907  1.00  0.00    -0.237 OA
ATOM     79  O   UNL A   1      32.558  35.649  29.541  1.00  0.00    -0.744 OA
ENDBRANCH  75  76
ENDBRANCH  54  68
BRANCH  55  80
ATOM     80  C   UNL A   1      44.367  28.678  35.806  1.00  0.00     0.058 A 
ATOM     81  C   UNL A   1      45.675  29.138  35.598  1.00  0.00     0.135 A 
ATOM     82  C   UNL A   1      44.186  27.616  36.707  1.00  0.00     0.135 A 
ATOM     83  F   UNL A   1      45.903  30.146  34.741  1.00  0.00    -0.206 F 
ATOM     84  C   UNL A   1      46.766  28.557  36.238  1.00  0.00     0.059 A 
ATOM     85  C   UNL A   1      45.256  27.037  37.382  1.00  0.00     0.059 A 
ATOM     86  F   UNL A   1      42.953  27.147  36.957  1.00  0.00    -0.206 F 
ATOM     87  C   UNL A   1      46.545  27.506  37.130  1.00  0.00     0.060 A 
BRANCH  87  88
ATOM     88  S   UNL A   1      47.963  26.785  37.985  1.00  0.00     0.124 S 
ATOM     89  O   UNL A   1      48.232  27.790  39.007  1.00  0.00    -0.237 OA
ATOM     90  O   UNL A   1      47.420  25.517  38.462  1.00  0.00    -0.237 OA
ATOM     91  O   UNL A   1      48.968  26.671  36.932  1.00  0.00    -0.744 OA
ENDBRANCH  87  88
ENDBRANCH  55  80
BRANCH  67  92
ATOM     92  C   UNL A   1      39.818  33.691  37.511  1.00  0.00     0.058 A 
ATOM     93  C   UNL A   1      40.497  34.900  37.728  1.00  0.00     0.135 A 
ATOM     94  C   UNL A   1      38.884  33.283  38.478  1.00  0.00     0.135 A 
ATOM     95  F   UNL A   1      41.405  35.335  36.840  1.00  0.00    -0.206 F 
ATOM     96  C   UNL A   1      40.275  35.663  38.871  1.00  0.00     0.059 A 
ATOM     97  C   UNL A   1      38.623  34.045  39.612  1.00  0.00     0.059 A 
ATOM     98  F   UNL A   1      38.199  32.139  38.315  1.00  0.00    -0.206 F 
ATOM     99  C   UNL A   1      39.332  35.229  39.805  1.00  0.00     0.060 A 
BRANCH  99 100
ATOM    100  S   UNL A   1      39.026  36.248  41.263  1.00  0.00     0.124 S 
ATOM    101  O   UNL A   1      40.301  36.148  41.965  1.00  0.00    -0.237 OA
ATOM    102  O   UNL A   1      38.726  37.551  40.675  1.00  0.00    -0.237 OA
ATOM    103  O   UNL A   1      37.898  35.586  41.911  1.00  0.00    -0.744 OA
ENDBRANCH  99 100
ENDBRANCH  67  92
ENDBRANCH  41  42
ENDBRANCH  33  36
ENDBRANCH  31  32
ENDBRANCH  30  31
ENDBRANCH  29  30
ENDBRANCH  28  29
ENDBRANCH   1  28
TORSDOF 21
ENDMDL
MODEL 2
REMARK VINA RESULT:     -10.9      0.534      8.082
REMARK SMILES O=C(CCCC(=O)Nc1ccc(C(=O)N2CCOCC2)cc1)NCCCCCCNC(=O)c1ccc(-c2c3nc(c(-c4c(F)cc(S(=O)(=O)[O-])cc4F)c4ccc([nH]4)c(-c4c(F)cc(S(=O)(=O)[O-])cc4F)c4nc(c(-c5c(F)cc(S(=O)(=O)[O-])cc5F)c5ccc2[nH]5)C=C4)C=C3)cc1
REMARK SMILES IDX 25 1 24 2 23 3 1 4 2 5 3 7 4 8 5 9 6 10 7 11 8 12 9 14 10 15
REMARK SMILES IDX 22 16 11 17 21 18 12 19 13 20 14 21 15 22 16 23 20 24 17 25
REMARK SMILES IDX 19 26 18 27 26 28 27 29 28 30 29 31 30 32 31 33 32 35 33 36
REMARK SMILES IDX 34 37 98 38 35 39 97 40 36 41 37 42 38 43 91 44 39 45 96 46
REMARK SMILES IDX 90 47 92 48 40 49 95 50 89 51 88 52 41 54 75 55 54 56 74 57
REMARK SMILES IDX 55 58 58 59 73 60 93 61 56 62 57 63 72 65 94 66 59 67 42 68
REMARK SMILES IDX 43 69 52 70 44 71 45 72 51 73 53 74 46 75 47 76 48 77 49 78
REMARK SMILES IDX 50 79 76 80 77 81 86 82 78 83 79 84 85 85 87 86 80 87 81 88
REMARK SMILES IDX 82 89 83 90 84 91 60 92 61 93 70 94 62 95 63 96 69 97 71 98
REMARK SMILES IDX 64 99 65 100 66 101 67 102 68 103
REMARK H PARENT 23 6 8 13 30 34 92 53 58 64
REMARK Flexibility Score: inf
ROOT
ATOM      1  C   UNL A   1      39.040  22.369  26.456  1.00  0.00     0.021 C 
ENDROOT
BRANCH   1   2
ATOM      2  C   UNL A   1      37.729  22.151  25.698  1.00  0.00     0.116 C 
BRANCH   2   3
ATOM      3  N   UNL A   1      36.701  23.118  26.032  1.00  0.00    -0.356 N 
ATOM      4  O   UNL A   1      36.080  23.500  23.875  1.00  0.00    -0.275 OA
ATOM      5  C   UNL A   1      35.907  23.695  25.077  1.00  0.00     0.220 C 
ATOM      6  H   UNL A   1      36.569  23.367  26.975  1.00  0.00     0.163 HD
BRANCH   5   7
ATOM      7  C   UNL A   1      34.873  24.706  25.556  1.00  0.00     0.100 C 
BRANCH   7   8
ATOM      8  C   UNL A   1      33.871  25.366  24.597  1.00  0.00     0.020 C 
BRANCH   8   9
ATOM      9  C   UNL A   1      32.443  25.705  25.018  1.00  0.00     0.101 C 
BRANCH   9  10
ATOM     10  C   UNL A   1      31.907  25.411  26.432  1.00  0.00     0.224 C 
ATOM     11  O   UNL A   1      31.700  26.344  27.215  1.00  0.00    -0.275 OA
ATOM     12  N   UNL A   1      31.391  24.178  26.742  1.00  0.00    -0.326 N 
ATOM     13  H   UNL A   1      30.526  24.189  27.211  1.00  0.00     0.169 HD
BRANCH  12  14
ATOM     14  C   UNL A   1      31.917  22.910  26.488  1.00  0.00     0.041 A 
ATOM     15  C   UNL A   1      31.453  22.174  25.401  1.00  0.00     0.027 A 
ATOM     16  C   UNL A   1      32.912  22.372  27.285  1.00  0.00     0.027 A 
ATOM     17  C   UNL A   1      32.181  21.054  24.967  1.00  0.00     0.016 A 
ATOM     18  C   UNL A   1      33.634  21.253  26.854  1.00  0.00     0.016 A 
ATOM     19  C   UNL A   1      33.349  20.644  25.634  1.00  0.00     0.040 A 
BRANCH  19  20
ATOM     20  C   UNL A   1      34.318  19.787  24.859  1.00  0.00     0.254 C 
ATOM     21  O   UNL A   1      35.435  20.251  24.628  1.00  0.00    -0.269 OA
ATOM     22  N   UNL A   1      34.044  18.443  24.631  1.00  0.00    -0.334 N 
ATOM     23  C   UNL A   1      32.848  17.898  23.994  1.00  0.00     0.148 C 
ATOM     24  C   UNL A   1      35.149  17.477  24.678  1.00  0.00     0.148 C 
ATOM     25  C   UNL A   1      32.430  16.615  24.715  1.00  0.00     0.181 C 
ATOM     26  C   UNL A   1      34.682  16.140  25.281  1.00  0.00     0.181 C 
ATOM     27  O   UNL A   1      33.489  15.646  24.640  1.00  0.00    -0.378 OA
ENDBRANCH  19  20
ENDBRANCH  12  14
ENDBRANCH   9  10
ENDBRANCH   8   9
ENDBRANCH   7   8
ENDBRANCH   5   7
ENDBRANCH   2   3
ENDBRANCH   1   2
BRANCH   1  28
ATOM     28  C   UNL A   1      40.090  21.261  26.301  1.00  0.00     0.002 C 
BRANCH  28  29
ATOM     29  C   UNL A   1      41.532  21.749  26.161  1.00  0.00     0.002 C 
BRANCH  29  30
ATOM     30  C   UNL A   1      42.147  22.322  27.438  1.00  0.00     0.021 C 
BRANCH  30  31
ATOM     31  C   UNL A   1      43.255  23.347  27.215  1.00  0.00     0.116 C 
BRANCH  31  32
ATOM     32  N   UNL A   1      43.037  24.146  26.020  1.00  0.00    -0.352 N 
ATOM     33  C   UNL A   1      42.545  25.426  25.913  1.00  0.00     0.251 C 
ATOM     34  H   UNL A   1      43.272  23.710  25.168  1.00  0.00     0.163 HD
ATOM     35  O   UNL A   1      42.247  25.880  24.815  1.00  0.00    -0.269 OA
BRANCH  33  36
ATOM     36  C   UNL A   1      42.358  26.243  27.134  1.00  0.00     0.039 A 
ATOM     37  C   UNL A   1      43.030  27.464  27.244  1.00  0.00     0.014 A 
ATOM     38  C   UNL A   1      41.516  25.811  28.163  1.00  0.00     0.014 A 
ATOM     39  C   UNL A   1      42.807  28.279  28.357  1.00  0.00     0.010 A 
ATOM     40  C   UNL A   1      41.239  26.658  29.233  1.00  0.00     0.010 A 
ATOM     41  C   UNL A   1      41.883  27.900  29.345  1.00  0.00    -0.014 A 
BRANCH  41  42
ATOM     42  C   UNL A   1      41.577  28.785  30.500  1.00  0.00     0.031 A 
ATOM     43  C   UNL A   1      42.355  28.649  31.783  1.00  0.00     0.074 A 
ATOM     44  C   UNL A   1      40.560  29.666  30.419  1.00  0.00     0.049 A 
ATOM     45  N   UNL A   1      42.189  29.275  32.920  1.00  0.00    -0.248 NA
ATOM     46  C   UNL A   1      43.447  27.663  31.797  1.00  0.00     0.031 C 
ATOM     47  C   UNL A   1      39.702  29.862  29.248  1.00  0.00     0.029 A 
ATOM     48  N   UNL A   1      40.064  30.554  31.341  1.00  0.00    -0.354 N 
ATOM     49  C   UNL A   1      43.142  28.750  33.785  1.00  0.00     0.074 A 
ATOM     50  C   UNL A   1      43.848  27.718  33.058  1.00  0.00     0.031 C 
ATOM     51  C   UNL A   1      38.802  30.822  29.515  1.00  0.00     0.029 A 
ATOM     52  C   UNL A   1      38.987  31.280  30.889  1.00  0.00     0.049 A 
ATOM     53  H   UNL A   1      40.444  30.661  32.243  1.00  0.00     0.167 HD
ATOM     54  C   UNL A   1      43.421  29.112  35.060  1.00  0.00     0.037 A 
ATOM     55  C   UNL A   1      38.226  32.202  31.511  1.00  0.00     0.037 A 
ATOM     56  C   UNL A   1      42.729  30.157  35.771  1.00  0.00     0.049 A 
ATOM     57  C   UNL A   1      38.547  32.578  32.935  1.00  0.00     0.074 A 
ATOM     58  C   UNL A   1      42.972  30.635  37.047  1.00  0.00     0.029 A 
ATOM     59  N   UNL A   1      41.655  30.881  35.272  1.00  0.00    -0.354 N 
ATOM     60  N   UNL A   1      39.494  32.116  33.716  1.00  0.00    -0.248 NA
ATOM     61  C   UNL A   1      37.700  33.603  33.559  1.00  0.00     0.031 C 
ATOM     62  C   UNL A   1      42.014  31.610  37.339  1.00  0.00     0.029 A 
ATOM     63  C   UNL A   1      41.211  31.785  36.223  1.00  0.00     0.049 A 
ATOM     64  H   UNL A   1      41.267  30.768  34.375  1.00  0.00     0.167 HD
ATOM     65  C   UNL A   1      39.378  32.819  34.911  1.00  0.00     0.074 A 
ATOM     66  C   UNL A   1      38.276  33.743  34.746  1.00  0.00     0.031 C 
ATOM     67  C   UNL A   1      40.120  32.710  36.041  1.00  0.00     0.037 A 
BRANCH  54  68
ATOM     68  C   UNL A   1      44.524  28.377  35.773  1.00  0.00     0.058 A 
ATOM     69  C   UNL A   1      44.287  27.173  36.459  1.00  0.00     0.135 A 
ATOM     70  C   UNL A   1      45.845  28.855  35.734  1.00  0.00     0.135 A 
ATOM     71  F   UNL A   1      43.043  26.676  36.543  1.00  0.00    -0.206 F 
ATOM     72  C   UNL A   1      45.312  26.488  37.104  1.00  0.00     0.059 A 
ATOM     73  C   UNL A   1      46.891  28.168  36.345  1.00  0.00     0.059 A 
ATOM     74  F   UNL A   1      46.129  29.999  35.092  1.00  0.00    -0.206 F 
ATOM     75  C   UNL A   1      46.612  26.993  37.039  1.00  0.00     0.060 A 
BRANCH  75  76
ATOM     76  S   UNL A   1      47.930  26.084  37.872  1.00  0.00     0.124 S 
ATOM     77  O   UNL A   1      49.113  26.811  37.422  1.00  0.00    -0.237 OA
ATOM     78  O   UNL A   1      47.582  26.249  39.279  1.00  0.00    -0.237 OA
ATOM     79  O   UNL A   1      47.792  24.729  37.349  1.00  0.00    -0.744 OA
ENDBRANCH  75  76
ENDBRANCH  54  68
BRANCH  55  80
ATOM     80  C   UNL A   1      37.094  32.846  30.791  1.00  0.00     0.058 A 
ATOM     81  C   UNL A   1      35.771  32.435  31.007  1.00  0.00     0.135 A 
ATOM     82  C   UNL A   1      37.311  33.889  29.876  1.00  0.00     0.135 A 
ATOM     83  F   UNL A   1      35.510  31.438  31.867  1.00  0.00    -0.206 F 
ATOM     84  C   UNL A   1      34.704  33.015  30.327  1.00  0.00     0.059 A 
ATOM     85  C   UNL A   1      36.259  34.505  29.205  1.00  0.00     0.059 A 
ATOM     86  F   UNL A   1      38.556  34.333  29.643  1.00  0.00    -0.206 F 
ATOM     87  C   UNL A   1      34.959  34.052  29.428  1.00  0.00     0.060 A 
BRANCH  87  88
ATOM     88  S   UNL A   1      33.564  34.825  28.581  1.00  0.00     0.124 S 
ATOM     89  O   UNL A   1      33.577  34.129  27.300  1.00  0.00    -0.237 OA
ATOM     90  O   UNL A   1      32.452  34.507  29.471  1.00  0.00    -0.237 OA
ATOM     91  O   UNL A   1      33.937  36.236  28.537  1.00  0.00    -0.744 OA
ENDBRANCH  87  88
ENDBRANCH  55  80
BRANCH  67  92
ATOM     92  C   UNL A   1      39.799  33.643  37.177  1.00  0.00     0.058 A 
ATOM     93  C   UNL A   1      38.833  33.330  38.146  1.00  0.00     0.135 A 
ATOM     94  C   UNL A   1      40.514  34.843  37.331  1.00  0.00     0.135 A 
ATOM     95  F   UNL A   1      38.115  32.200  38.045  1.00  0.00    -0.206 F 
ATOM     96  C   UNL A   1      38.570  34.184  39.212  1.00  0.00     0.059 A 
ATOM     97  C   UNL A   1      40.291  35.696  38.406  1.00  0.00     0.059 A 
ATOM     98  F   UNL A   1      41.458  35.186  36.439  1.00  0.00    -0.206 F 
ATOM     99  C   UNL A   1      39.308  35.363  39.337  1.00  0.00     0.060 A 
BRANCH  99 100
ATOM    100  S   UNL A   1      38.984  36.442  40.747  1.00  0.00     0.124 S 
ATOM    101  O   UNL A   1      38.493  37.648  40.088  1.00  0.00    -0.237 OA
ATOM    102  O   UNL A   1      37.991  35.682  41.499  1.00  0.00    -0.237 OA
ATOM    103  O   UNL A   1      40.289  36.565  41.389  1.00  0.00    -0.744 OA
ENDBRANCH  99 100
ENDBRANCH  67  92
ENDBRANCH  41  42
ENDBRANCH  33  36
ENDBRANCH  31  32
ENDBRANCH  30  31
ENDBRANCH  29  30
ENDBRANCH  28  29
ENDBRANCH   1  28
TORSDOF 21
ENDMDL
MODEL 3
REMARK VINA RESULT:     -10.9      1.491      8.863
REMARK SMILES O=C(CCCC(=O)Nc1ccc(C(=O)N2CCOCC2)cc1)NCCCCCCNC(=O)c1ccc(-c2c3nc(c(-c4c(F)cc(S(=O)(=O)[O-])cc4F)c4ccc([nH]4)c(-c4c(F)cc(S(=O)(=O)[O-])cc4F)c4nc(c(-c5c(F)cc(S(=O)(=O)[O-])cc5F)c5ccc2[nH]5)C=C4)C=C3)cc1
REMARK SMILES IDX 25 1 24 2 23 3 1 4 2 5 3 7 4 8 5 9 6 10 7 11 8 12 9 14 10 15
REMARK SMILES IDX 22 16 11 17 21 18 12 19 13 20 14 21 15 22 16 23 20 24 17 25
REMARK SMILES IDX 19 26 18 27 26 28 27 29 28 30 29 31 30 32 31 33 32 35 33 36
REMARK SMILES IDX 34 37 98 38 35 39 97 40 36 41 37 42 38 43 91 44 39 45 96 46
REMARK SMILES IDX 90 47 92 48 40 49 95 50 89 51 88 52 41 54 75 55 54 56 74 57
REMARK SMILES IDX 55 58 58 59 73 60 93 61 56 62 57 63 72 65 94 66 59 67 42 68
REMARK SMILES IDX 43 69 52 70 44 71 45 72 51 73 53 74 46 75 47 76 48 77 49 78
REMARK SMILES IDX 50 79 76 80 77 81 86 82 78 83 79 84 85 85 87 86 80 87 81 88
REMARK SMILES IDX 82 89 83 90 84 91 60 92 61 93 70 94 62 95 63 96 69 97 71 98
REMARK SMILES IDX 64 99 65 100 66 101 67 102 68 103
REMARK H PARENT 23 6 8 13 30 34 92 53 58 64
REMARK Flexibility Score: inf
ROOT
ATOM      1  C   UNL A   1      39.486  23.307  27.229  1.00  0.00     0.021 C 
ENDROOT
BRANCH   1   2
ATOM      2  C   UNL A   1      38.429  23.506  26.140  1.00  0.00     0.116 C 
BRANCH   2   3
ATOM      3  N   UNL A   1      37.599  22.338  25.921  1.00  0.00    -0.356 N 
ATOM      4  O   UNL A   1      35.629  23.478  25.995  1.00  0.00    -0.275 OA
ATOM      5  C   UNL A   1      36.236  22.423  25.816  1.00  0.00     0.220 C 
ATOM      6  H   UNL A   1      38.028  21.455  25.844  1.00  0.00     0.163 HD
BRANCH   5   7
ATOM      7  C   UNL A   1      35.476  21.121  25.600  1.00  0.00     0.100 C 
BRANCH   7   8
ATOM      8  C   UNL A   1      34.057  20.903  26.145  1.00  0.00     0.020 C 
BRANCH   8   9
ATOM      9  C   UNL A   1      33.091  19.897  25.524  1.00  0.00     0.101 C 
BRANCH   9  10
ATOM     10  C   UNL A   1      32.837  19.825  24.006  1.00  0.00     0.224 C 
ATOM     11  O   UNL A   1      33.051  18.772  23.398  1.00  0.00    -0.275 OA
ATOM     12  N   UNL A   1      32.116  20.805  23.371  1.00  0.00    -0.326 N 
ATOM     13  H   UNL A   1      31.411  20.483  22.764  1.00  0.00     0.169 HD
BRANCH  12  14
ATOM     14  C   UNL A   1      32.238  22.193  23.462  1.00  0.00     0.041 A 
ATOM     15  C   UNL A   1      33.344  22.827  22.904  1.00  0.00     0.027 A 
ATOM     16  C   UNL A   1      31.268  22.961  24.081  1.00  0.00     0.027 A 
ATOM     17  C   UNL A   1      33.320  24.220  22.723  1.00  0.00     0.016 A 
ATOM     18  C   UNL A   1      31.247  24.349  23.905  1.00  0.00     0.016 A 
ATOM     19  C   UNL A   1      32.214  24.986  23.129  1.00  0.00     0.040 A 
BRANCH  19  20
ATOM     20  C   UNL A   1      32.037  26.337  22.482  1.00  0.00     0.254 C 
ATOM     21  O   UNL A   1      31.382  26.391  21.440  1.00  0.00    -0.269 OA
ATOM     22  N   UNL A   1      32.391  27.496  23.162  1.00  0.00    -0.334 N 
ATOM     23  C   UNL A   1      33.698  27.798  23.740  1.00  0.00     0.148 C 
ATOM     24  C   UNL A   1      31.551  28.692  23.007  1.00  0.00     0.148 C 
ATOM     25  C   UNL A   1      33.506  28.516  25.078  1.00  0.00     0.181 C 
ATOM     26  C   UNL A   1      31.477  29.482  24.326  1.00  0.00     0.181 C 
ATOM     27  O   UNL A   1      32.784  29.742  24.875  1.00  0.00    -0.378 OA
ENDBRANCH  19  20
ENDBRANCH  12  14
ENDBRANCH   9  10
ENDBRANCH   8   9
ENDBRANCH   7   8
ENDBRANCH   5   7
ENDBRANCH   2   3
ENDBRANCH   1   2
BRANCH   1  28
ATOM     28  C   UNL A   1      40.214  21.956  27.209  1.00  0.00     0.002 C 
BRANCH  28  29
ATOM     29  C   UNL A   1      41.519  21.911  28.005  1.00  0.00     0.002 C 
BRANCH  29  30
ATOM     30  C   UNL A   1      42.789  22.096  27.174  1.00  0.00     0.021 C 
BRANCH  30  31
ATOM     31  C   UNL A   1      43.415  23.485  27.257  1.00  0.00     0.116 C 
BRANCH  31  32
ATOM     32  N   UNL A   1      43.148  24.283  26.071  1.00  0.00    -0.352 N 
ATOM     33  C   UNL A   1      42.596  25.540  25.980  1.00  0.00     0.251 C 
ATOM     34  H   UNL A   1      43.396  23.866  25.214  1.00  0.00     0.163 HD
ATOM     35  O   UNL A   1      42.266  25.989  24.890  1.00  0.00    -0.269 OA
BRANCH  33  36
ATOM     36  C   UNL A   1      42.384  26.337  27.211  1.00  0.00     0.039 A 
ATOM     37  C   UNL A   1      43.215  27.431  27.464  1.00  0.00     0.014 A 
ATOM     38  C   UNL A   1      41.361  26.011  28.108  1.00  0.00     0.014 A 
ATOM     39  C   UNL A   1      42.981  28.235  28.582  1.00  0.00     0.010 A 
ATOM     40  C   UNL A   1      41.084  26.857  29.178  1.00  0.00     0.010 A 
ATOM     41  C   UNL A   1      41.892  27.976  29.430  1.00  0.00    -0.014 A 
BRANCH  41  42
ATOM     42  C   UNL A   1      41.582  28.862  30.585  1.00  0.00     0.031 A 
ATOM     43  C   UNL A   1      42.376  28.749  31.859  1.00  0.00     0.074 A 
ATOM     44  C   UNL A   1      40.545  29.721  30.511  1.00  0.00     0.049 A 
ATOM     45  N   UNL A   1      42.212  29.377  32.995  1.00  0.00    -0.248 NA
ATOM     46  C   UNL A   1      43.489  27.785  31.865  1.00  0.00     0.031 C 
ATOM     47  C   UNL A   1      39.670  29.892  29.349  1.00  0.00     0.029 A 
ATOM     48  N   UNL A   1      40.042  30.604  31.434  1.00  0.00    -0.354 N 
ATOM     49  C   UNL A   1      43.185  28.877  33.851  1.00  0.00     0.074 A 
ATOM     50  C   UNL A   1      43.904  27.855  33.122  1.00  0.00     0.031 C 
ATOM     51  C   UNL A   1      38.754  30.835  29.622  1.00  0.00     0.029 A 
ATOM     52  C   UNL A   1      38.945  31.305  30.991  1.00  0.00     0.049 A 
ATOM     53  H   UNL A   1      40.430  30.723  32.331  1.00  0.00     0.167 HD
ATOM     54  C   UNL A   1      43.471  29.252  35.121  1.00  0.00     0.037 A 
ATOM     55  C   UNL A   1      38.173  32.214  31.617  1.00  0.00     0.037 A 
ATOM     56  C   UNL A   1      42.766  30.285  35.834  1.00  0.00     0.049 A 
ATOM     57  C   UNL A   1      38.502  32.604  33.035  1.00  0.00     0.074 A 
ATOM     58  C   UNL A   1      43.014  30.776  37.105  1.00  0.00     0.029 A 
ATOM     59  N   UNL A   1      41.672  30.984  35.344  1.00  0.00    -0.354 N 
ATOM     60  N   UNL A   1      39.467  32.166  33.807  1.00  0.00    -0.248 NA
ATOM     61  C   UNL A   1      37.641  33.616  33.664  1.00  0.00     0.031 C 
ATOM     62  C   UNL A   1      42.040  31.733  37.403  1.00  0.00     0.029 A 
ATOM     63  C   UNL A   1      41.220  31.885  36.295  1.00  0.00     0.049 A 
ATOM     64  H   UNL A   1      41.276  30.859  34.452  1.00  0.00     0.167 HD
ATOM     65  C   UNL A   1      39.351  32.873  35.000  1.00  0.00     0.074 A 
ATOM     66  C   UNL A   1      38.228  33.774  34.843  1.00  0.00     0.031 C 
ATOM     67  C   UNL A   1      40.108  32.786  36.122  1.00  0.00     0.037 A 
BRANCH  54  68
ATOM     68  C   UNL A   1      44.597  28.543  35.825  1.00  0.00     0.058 A 
ATOM     69  C   UNL A   1      44.372  27.412  36.628  1.00  0.00     0.135 A 
ATOM     70  C   UNL A   1      45.926  28.970  35.659  1.00  0.00     0.135 A 
ATOM     71  F   UNL A   1      43.122  26.967  36.835  1.00  0.00    -0.206 F 
ATOM     72  C   UNL A   1      45.417  26.750  37.265  1.00  0.00     0.059 A 
ATOM     73  C   UNL A   1      46.990  28.303  36.261  1.00  0.00     0.059 A 
ATOM     74  F   UNL A   1      46.200  30.044  34.902  1.00  0.00    -0.206 F 
ATOM     75  C   UNL A   1      46.724  27.203  37.073  1.00  0.00     0.060 A 
BRANCH  75  76
ATOM     76  S   UNL A   1      48.068  26.324  37.898  1.00  0.00     0.124 S 
ATOM     77  O   UNL A   1      49.029  27.401  38.113  1.00  0.00    -0.237 OA
ATOM     78  O   UNL A   1      47.415  25.809  39.096  1.00  0.00    -0.237 OA
ATOM     79  O   UNL A   1      48.465  25.316  36.921  1.00  0.00    -0.744 OA
ENDBRANCH  75  76
ENDBRANCH  54  68
BRANCH  55  80
ATOM     80  C   UNL A   1      37.019  32.831  30.907  1.00  0.00     0.058 A 
ATOM     81  C   UNL A   1      35.712  32.360  31.104  1.00  0.00     0.135 A 
ATOM     82  C   UNL A   1      37.198  33.906  30.021  1.00  0.00     0.135 A 
ATOM     83  F   UNL A   1      35.488  31.331  31.934  1.00  0.00    -0.206 F 
ATOM     84  C   UNL A   1      34.627  32.915  30.432  1.00  0.00     0.059 A 
ATOM     85  C   UNL A   1      36.126  34.497  29.361  1.00  0.00     0.059 A 
ATOM     86  F   UNL A   1      38.425  34.407  29.809  1.00  0.00    -0.206 F 
ATOM     87  C   UNL A   1      34.844  33.986  29.563  1.00  0.00     0.060 A 
BRANCH  87  88
ATOM     88  S   UNL A   1      33.423  34.723  28.727  1.00  0.00     0.124 S 
ATOM     89  O   UNL A   1      34.029  35.886  28.088  1.00  0.00    -0.237 OA
ATOM     90  O   UNL A   1      33.003  33.649  27.833  1.00  0.00    -0.237 OA
ATOM     91  O   UNL A   1      32.503  35.013  29.822  1.00  0.00    -0.744 OA
ENDBRANCH  87  88
ENDBRANCH  55  80
BRANCH  67  92
ATOM     92  C   UNL A   1      39.782  33.718  37.256  1.00  0.00     0.058 A 
ATOM     93  C   UNL A   1      38.880  33.366  38.272  1.00  0.00     0.135 A 
ATOM     94  C   UNL A   1      40.428  34.962  37.359  1.00  0.00     0.135 A 
ATOM     95  F   UNL A   1      38.229  32.193  38.222  1.00  0.00    -0.206 F 
ATOM     96  C   UNL A   1      38.613  34.222  39.336  1.00  0.00     0.059 A 
ATOM     97  C   UNL A   1      40.201  35.820  38.430  1.00  0.00     0.059 A 
ATOM     98  F   UNL A   1      41.309  35.345  36.420  1.00  0.00    -0.206 F 
ATOM     99  C   UNL A   1      39.282  35.445  39.409  1.00  0.00     0.060 A 
BRANCH  99 100
ATOM    100  S   UNL A   1      38.956  36.528  40.815  1.00  0.00     0.124 S 
ATOM    101  O   UNL A   1      38.468  37.733  40.152  1.00  0.00    -0.237 OA
ATOM    102  O   UNL A   1      37.959  35.771  41.567  1.00  0.00    -0.237 OA
ATOM    103  O   UNL A   1      40.259  36.651  41.461  1.00  0.00    -0.744 OA
ENDBRANCH  99 100
ENDBRANCH  67  92
ENDBRANCH  41  42
ENDBRANCH  33  36
ENDBRANCH  31  32
ENDBRANCH  30  31
ENDBRANCH  29  30
ENDBRANCH  28  29
ENDBRANCH   1  28
TORSDOF 21
ENDMDL
