MODEL 1
REMARK VINA RESULT:      -8.8      0.000      0.000
REMARK SMILES COc1c(C(=O)NCCCCCCNC(=O)c2ccc(-c3c4nc(c(-c5c(F)cc(S(=O)(=O)[O-])cc5F)c5ccc([nH]5)c(-c5c(F)cc(S(=O)(=O)[O-])cc5F)c5nc(c(-c6c(F)cc(S(=O)(=O)[O-])cc6F)c6ccc3[nH]6)C=C5)C=C4)cc2)ccc(F)c1F
REMARK SMILES IDX 11 1 10 2 9 3 8 4 7 5 5 6 6 7 4 9 3 10 87 11 83 12 85 13
REMARK SMILES IDX 88 14 84 15 86 16 2 17 1 18 12 19 13 20 14 21 15 22 16 24
REMARK SMILES IDX 17 25 18 26 82 27 19 28 81 29 20 30 21 31 22 32 75 33 23 34
REMARK SMILES IDX 80 35 74 36 76 37 24 38 79 39 73 40 72 41 25 43 59 44 38 45
REMARK SMILES IDX 58 46 39 47 42 48 57 49 77 50 40 51 41 52 56 54 78 55 43 56
REMARK SMILES IDX 26 57 27 58 36 59 28 60 29 61 35 62 37 63 30 64 31 65 32 66
REMARK SMILES IDX 33 67 34 68 60 69 61 70 70 71 62 72 63 73 69 74 71 75 64 76
REMARK SMILES IDX 65 77 66 78 67 79 68 80 44 81 45 82 54 83 46 84 47 85 53 86
REMARK SMILES IDX 55 87 48 88 49 89 50 90 51 91 52 92
REMARK H PARENT 7 8 14 23 76 42 42 53
REMARK Flexibility Score: inf
ROOT
ATOM      1  C   UNL A   1      42.535  22.576  26.445  1.00  0.00     0.002 C 
ENDROOT
BRANCH   1   2
ATOM      2  C   UNL A   1      42.491  23.144  27.870  1.00  0.00     0.002 C 
BRANCH   2   3
ATOM      3  C   UNL A   1      43.495  22.517  28.852  1.00  0.00     0.021 C 
BRANCH   3   4
ATOM      4  C   UNL A   1      44.765  23.349  29.032  1.00  0.00     0.116 C 
BRANCH   4   5
ATOM      5  N   UNL A   1      45.607  23.251  27.860  1.00  0.00    -0.352 N 
ATOM      6  C   UNL A   1      45.853  23.997  26.742  1.00  0.00     0.255 C 
ATOM      7  O   UNL A   1      46.690  23.491  25.992  1.00  0.00    -0.269 OA
ATOM      8  H   UNL A   1      46.147  22.428  27.871  1.00  0.00     0.163 HD
BRANCH   6   9
ATOM      9  C   UNL A   1      45.241  25.334  26.413  1.00  0.00     0.085 A 
ATOM     10  C   UNL A   1      45.617  26.474  27.161  1.00  0.00     0.170 A 
ATOM     11  C   UNL A   1      44.919  27.683  27.034  1.00  0.00     0.201 A 
ATOM     12  C   UNL A   1      44.266  25.528  25.420  1.00  0.00     0.021 A 
ATOM     13  C   UNL A   1      43.890  27.807  26.116  1.00  0.00     0.162 A 
ATOM     14  F   UNL A   1      45.260  28.740  27.787  1.00  0.00    -0.200 F 
ATOM     15  C   UNL A   1      43.577  26.744  25.286  1.00  0.00     0.043 A 
ATOM     16  F   UNL A   1      43.217  28.958  25.999  1.00  0.00    -0.204 F 
BRANCH  10  17
ATOM     17  O   UNL A   1      46.655  26.481  28.063  1.00  0.00    -0.493 OA
ATOM     18  C   UNL A   1      47.879  26.828  27.406  1.00  0.00     0.278 C 
ENDBRANCH  10  17
ENDBRANCH   6   9
ENDBRANCH   4   5
ENDBRANCH   3   4
ENDBRANCH   2   3
ENDBRANCH   1   2
BRANCH   1  19
ATOM     19  C   UNL A   1      41.567  21.418  26.183  1.00  0.00     0.021 C 
BRANCH  19  20
ATOM     20  C   UNL A   1      40.222  21.561  26.887  1.00  0.00     0.116 C 
BRANCH  20  21
ATOM     21  N   UNL A   1      39.196  22.044  25.977  1.00  0.00    -0.352 N 
ATOM     22  C   UNL A   1      38.557  23.258  25.961  1.00  0.00     0.251 C 
ATOM     23  H   UNL A   1      38.921  21.411  25.274  1.00  0.00     0.163 HD
ATOM     24  O   UNL A   1      37.545  23.410  25.285  1.00  0.00    -0.269 OA
BRANCH  22  25
ATOM     25  C   UNL A   1      39.092  24.375  26.768  1.00  0.00     0.039 A 
ATOM     26  C   UNL A   1      39.953  25.296  26.167  1.00  0.00     0.014 A 
ATOM     27  C   UNL A   1      38.753  24.504  28.118  1.00  0.00     0.014 A 
ATOM     28  C   UNL A   1      40.436  26.374  26.910  1.00  0.00     0.010 A 
ATOM     29  C   UNL A   1      39.176  25.619  28.836  1.00  0.00     0.010 A 
ATOM     30  C   UNL A   1      40.030  26.560  28.243  1.00  0.00    -0.014 A 
BRANCH  30  31
ATOM     31  C   UNL A   1      40.494  27.728  29.033  1.00  0.00     0.031 A 
ATOM     32  C   UNL A   1      41.843  27.701  29.698  1.00  0.00     0.074 A 
ATOM     33  C   UNL A   1      39.675  28.785  29.200  1.00  0.00     0.049 A 
ATOM     34  N   UNL A   1      42.401  28.597  30.471  1.00  0.00    -0.248 NA
ATOM     35  C   UNL A   1      42.663  26.496  29.491  1.00  0.00     0.031 C 
ATOM     36  C   UNL A   1      38.326  28.907  28.641  1.00  0.00     0.029 A 
ATOM     37  N   UNL A   1      39.852  29.955  29.893  1.00  0.00    -0.354 N 
ATOM     38  C   UNL A   1      43.622  28.059  30.857  1.00  0.00     0.074 A 
ATOM     39  C   UNL A   1      43.704  26.737  30.274  1.00  0.00     0.031 C 
ATOM     40  C   UNL A   1      37.811  30.096  28.990  1.00  0.00     0.029 A 
ATOM     41  C   UNL A   1      38.773  30.805  29.828  1.00  0.00     0.049 A 
ATOM     42  H   UNL A   1      40.674  30.167  30.392  1.00  0.00     0.167 HD
ATOM     43  C   UNL A   1      44.597  28.623  31.609  1.00  0.00     0.037 A 
ATOM     44  C   UNL A   1      38.578  32.016  30.385  1.00  0.00     0.037 A 
ATOM     45  C   UNL A   1      44.518  29.951  32.161  1.00  0.00     0.049 A 
ATOM     46  C   UNL A   1      39.674  32.620  31.221  1.00  0.00     0.074 A 
ATOM     47  C   UNL A   1      45.480  30.645  32.873  1.00  0.00     0.029 A 
ATOM     48  N   UNL A   1      43.413  30.785  32.066  1.00  0.00    -0.354 N 
ATOM     49  N   UNL A   1      40.855  32.129  31.513  1.00  0.00    -0.248 NA
ATOM     50  C   UNL A   1      39.413  33.945  31.801  1.00  0.00     0.031 C 
ATOM     51  C   UNL A   1      44.937  31.876  33.257  1.00  0.00     0.029 A 
ATOM     52  C   UNL A   1      43.656  31.973  32.734  1.00  0.00     0.049 A 
ATOM     53  H   UNL A   1      42.578  30.563  31.594  1.00  0.00     0.167 HD
ATOM     54  C   UNL A   1      41.490  33.097  32.284  1.00  0.00     0.074 A 
ATOM     55  C   UNL A   1      40.565  34.205  32.404  1.00  0.00     0.031 C 
ATOM     56  C   UNL A   1      42.727  33.071  32.840  1.00  0.00     0.037 A 
BRANCH  43  57
ATOM     57  C   UNL A   1      45.830  27.805  31.886  1.00  0.00     0.058 A 
ATOM     58  C   UNL A   1      47.011  27.967  31.143  1.00  0.00     0.135 A 
ATOM     59  C   UNL A   1      45.841  26.867  32.931  1.00  0.00     0.135 A 
ATOM     60  F   UNL A   1      47.054  28.839  30.124  1.00  0.00    -0.206 F 
ATOM     61  C   UNL A   1      48.145  27.203  31.402  1.00  0.00     0.059 A 
ATOM     62  C   UNL A   1      46.974  26.114  33.228  1.00  0.00     0.059 A 
ATOM     63  F   UNL A   1      44.741  26.670  33.676  1.00  0.00    -0.206 F 
ATOM     64  C   UNL A   1      48.115  26.277  32.446  1.00  0.00     0.060 A 
BRANCH  64  65
ATOM     65  S   UNL A   1      49.594  25.291  32.765  1.00  0.00     0.124 S 
ATOM     66  O   UNL A   1      50.465  26.273  33.403  1.00  0.00    -0.237 OA
ATOM     67  O   UNL A   1      49.084  24.237  33.636  1.00  0.00    -0.237 OA
ATOM     68  O   UNL A   1      50.007  24.857  31.435  1.00  0.00    -0.744 OA
ENDBRANCH  64  65
ENDBRANCH  43  57
BRANCH  44  69
ATOM     69  C   UNL A   1      37.307  32.751  30.146  1.00  0.00     0.058 A 
ATOM     70  C   UNL A   1      37.206  33.696  29.114  1.00  0.00     0.135 A 
ATOM     71  C   UNL A   1      36.167  32.517  30.931  1.00  0.00     0.135 A 
ATOM     72  F   UNL A   1      38.270  33.959  28.340  1.00  0.00    -0.206 F 
ATOM     73  C   UNL A   1      36.028  34.396  28.879  1.00  0.00     0.059 A 
ATOM     74  C   UNL A   1      34.969  33.185  30.697  1.00  0.00     0.059 A 
ATOM     75  F   UNL A   1      36.205  31.610  31.919  1.00  0.00    -0.206 F 
ATOM     76  C   UNL A   1      34.913  34.131  29.675  1.00  0.00     0.060 A 
BRANCH  76  77
ATOM     77  S   UNL A   1      33.375  35.013  29.330  1.00  0.00     0.124 S 
ATOM     78  O   UNL A   1      33.873  36.282  28.816  1.00  0.00    -0.237 OA
ATOM     79  O   UNL A   1      32.731  34.136  28.357  1.00  0.00    -0.237 OA
ATOM     80  O   UNL A   1      32.724  35.072  30.637  1.00  0.00    -0.744 OA
ENDBRANCH  76  77
ENDBRANCH  44  69
BRANCH  56  81
ATOM     81  C   UNL A   1      43.168  34.291  33.601  1.00  0.00     0.058 A 
ATOM     82  C   UNL A   1      43.916  35.312  32.993  1.00  0.00     0.135 A 
ATOM     83  C   UNL A   1      42.794  34.463  34.944  1.00  0.00     0.135 A 
ATOM     84  F   UNL A   1      44.306  35.194  31.714  1.00  0.00    -0.206 F 
ATOM     85  C   UNL A   1      44.299  36.448  33.697  1.00  0.00     0.059 A 
ATOM     86  C   UNL A   1      43.140  35.605  35.658  1.00  0.00     0.059 A 
ATOM     87  F   UNL A   1      42.070  33.522  35.570  1.00  0.00    -0.206 F 
ATOM     88  C   UNL A   1      43.904  36.588  35.029  1.00  0.00     0.060 A 
BRANCH  88  89
ATOM     89  S   UNL A   1      44.379  38.083  35.921  1.00  0.00     0.124 S 
ATOM     90  O   UNL A   1      43.812  39.125  35.071  1.00  0.00    -0.237 OA
ATOM     91  O   UNL A   1      43.728  37.895  37.214  1.00  0.00    -0.237 OA
ATOM     92  O   UNL A   1      45.837  38.016  35.946  1.00  0.00    -0.744 OA
ENDBRANCH  88  89
ENDBRANCH  56  81
ENDBRANCH  30  31
ENDBRANCH  22  25
ENDBRANCH  20  21
ENDBRANCH  19  20
ENDBRANCH   1  19
TORSDOF 17
ENDMDL
MODEL 2
REMARK VINA RESULT:      -8.5      3.830     10.452
REMARK SMILES COc1c(C(=O)NCCCCCCNC(=O)c2ccc(-c3c4nc(c(-c5c(F)cc(S(=O)(=O)[O-])cc5F)c5ccc([nH]5)c(-c5c(F)cc(S(=O)(=O)[O-])cc5F)c5nc(c(-c6c(F)cc(S(=O)(=O)[O-])cc6F)c6ccc3[nH]6)C=C5)C=C4)cc2)ccc(F)c1F
REMARK SMILES IDX 11 1 10 2 9 3 8 4 7 5 5 6 6 7 4 9 3 10 87 11 83 12 85 13
REMARK SMILES IDX 88 14 84 15 86 16 2 17 1 18 12 19 13 20 14 21 15 22 16 24
REMARK SMILES IDX 17 25 18 26 82 27 19 28 81 29 20 30 21 31 22 32 75 33 23 34
REMARK SMILES IDX 80 35 74 36 76 37 24 38 79 39 73 40 72 41 25 43 59 44 38 45
REMARK SMILES IDX 58 46 39 47 42 48 57 49 77 50 40 51 41 52 56 54 78 55 43 56
REMARK SMILES IDX 26 57 27 58 36 59 28 60 29 61 35 62 37 63 30 64 31 65 32 66
REMARK SMILES IDX 33 67 34 68 60 69 61 70 70 71 62 72 63 73 69 74 71 75 64 76
REMARK SMILES IDX 65 77 66 78 67 79 68 80 44 81 45 82 54 83 46 84 47 85 53 86
REMARK SMILES IDX 55 87 48 88 49 89 50 90 51 91 52 92
REMARK H PARENT 7 8 14 23 76 42 42 53
REMARK Flexibility Score: inf
ROOT
ATOM      1  C   UNL A   1      33.795  26.748  24.829  1.00  0.00     0.002 C 
ENDROOT
BRANCH   1   2
ATOM      2  C   UNL A   1      33.162  26.500  23.453  1.00  0.00     0.002 C 
BRANCH   2   3
ATOM      3  C   UNL A   1      33.650  25.233  22.731  1.00  0.00     0.021 C 
BRANCH   3   4
ATOM      4  C   UNL A   1      32.628  24.096  22.749  1.00  0.00     0.116 C 
BRANCH   4   5
ATOM      5  N   UNL A   1      32.298  23.731  24.109  1.00  0.00    -0.352 N 
ATOM      6  C   UNL A   1      32.944  23.176  25.179  1.00  0.00     0.255 C 
ATOM      7  O   UNL A   1      32.225  23.054  26.173  1.00  0.00    -0.269 OA
ATOM      8  H   UNL A   1      31.359  23.937  24.321  1.00  0.00     0.163 HD
BRANCH   6   9
ATOM      9  C   UNL A   1      34.395  22.775  25.231  1.00  0.00     0.085 A 
ATOM     10  C   UNL A   1      34.758  21.441  24.933  1.00  0.00     0.170 A 
ATOM     11  C   UNL A   1      36.058  20.976  25.178  1.00  0.00     0.201 A 
ATOM     12  C   UNL A   1      35.436  23.641  25.605  1.00  0.00     0.021 A 
ATOM     13  C   UNL A   1      37.034  21.835  25.649  1.00  0.00     0.162 A 
ATOM     14  F   UNL A   1      36.371  19.694  24.935  1.00  0.00    -0.200 F 
ATOM     15  C   UNL A   1      36.739  23.175  25.837  1.00  0.00     0.043 A 
ATOM     16  F   UNL A   1      38.274  21.391  25.892  1.00  0.00    -0.204 F 
BRANCH  10  17
ATOM     17  O   UNL A   1      33.884  20.514  24.415  1.00  0.00    -0.493 OA
ATOM     18  C   UNL A   1      33.254  19.783  25.472  1.00  0.00     0.278 C 
ENDBRANCH  10  17
ENDBRANCH   6   9
ENDBRANCH   4   5
ENDBRANCH   3   4
ENDBRANCH   2   3
ENDBRANCH   1   2
BRANCH   1  19
ATOM     19  C   UNL A   1      33.634  28.174  25.365  1.00  0.00     0.021 C 
BRANCH  19  20
ATOM     20  C   UNL A   1      33.824  28.296  26.873  1.00  0.00     0.116 C 
BRANCH  20  21
ATOM     21  N   UNL A   1      33.634  29.665  27.323  1.00  0.00    -0.352 N 
ATOM     22  C   UNL A   1      34.462  30.446  28.090  1.00  0.00     0.251 C 
ATOM     23  H   UNL A   1      32.794  30.092  27.037  1.00  0.00     0.163 HD
ATOM     24  O   UNL A   1      34.040  31.486  28.585  1.00  0.00    -0.269 OA
BRANCH  22  25
ATOM     25  C   UNL A   1      35.859  30.021  28.321  1.00  0.00     0.039 A 
ATOM     26  C   UNL A   1      36.772  30.091  27.267  1.00  0.00     0.014 A 
ATOM     27  C   UNL A   1      36.260  29.543  29.571  1.00  0.00     0.014 A 
ATOM     28  C   UNL A   1      38.102  29.726  27.482  1.00  0.00     0.010 A 
ATOM     29  C   UNL A   1      37.601  29.250  29.804  1.00  0.00     0.010 A 
ATOM     30  C   UNL A   1      38.533  29.328  28.759  1.00  0.00    -0.014 A 
BRANCH  30  31
ATOM     31  C   UNL A   1      39.954  28.984  29.019  1.00  0.00     0.031 A 
ATOM     32  C   UNL A   1      40.884  30.013  29.602  1.00  0.00     0.074 A 
ATOM     33  C   UNL A   1      40.418  27.767  28.673  1.00  0.00     0.049 A 
ATOM     34  N   UNL A   1      42.166  29.921  29.850  1.00  0.00    -0.248 NA
ATOM     35  C   UNL A   1      40.306  31.328  29.924  1.00  0.00     0.031 C 
ATOM     36  C   UNL A   1      39.622  26.702  28.058  1.00  0.00     0.029 A 
ATOM     37  N   UNL A   1      41.671  27.222  28.781  1.00  0.00    -0.354 N 
ATOM     38  C   UNL A   1      42.549  31.166  30.336  1.00  0.00     0.074 A 
ATOM     39  C   UNL A   1      41.376  32.011  30.301  1.00  0.00     0.031 C 
ATOM     40  C   UNL A   1      40.399  25.624  27.871  1.00  0.00     0.029 A 
ATOM     41  C   UNL A   1      41.755  25.931  28.314  1.00  0.00     0.049 A 
ATOM     42  H   UNL A   1      42.441  27.708  29.158  1.00  0.00     0.167 HD
ATOM     43  C   UNL A   1      43.762  31.561  30.791  1.00  0.00     0.037 A 
ATOM     44  C   UNL A   1      42.807  25.092  28.244  1.00  0.00     0.037 A 
ATOM     45  C   UNL A   1      44.916  30.702  30.849  1.00  0.00     0.049 A 
ATOM     46  C   UNL A   1      44.146  25.556  28.751  1.00  0.00     0.074 A 
ATOM     47  C   UNL A   1      46.171  30.980  31.361  1.00  0.00     0.029 A 
ATOM     48  N   UNL A   1      44.960  29.398  30.375  1.00  0.00    -0.354 N 
ATOM     49  N   UNL A   1      44.473  26.712  29.279  1.00  0.00    -0.248 NA
ATOM     50  C   UNL A   1      45.259  24.601  28.658  1.00  0.00     0.031 C 
ATOM     51  C   UNL A   1      46.989  29.866  31.146  1.00  0.00     0.029 A 
ATOM     52  C   UNL A   1      46.228  28.871  30.552  1.00  0.00     0.049 A 
ATOM     53  H   UNL A   1      44.201  28.920  29.969  1.00  0.00     0.167 HD
ATOM     54  C   UNL A   1      45.821  26.612  29.608  1.00  0.00     0.074 A 
ATOM     55  C   UNL A   1      46.244  25.279  29.230  1.00  0.00     0.031 C 
ATOM     56  C   UNL A   1      46.633  27.539  30.175  1.00  0.00     0.037 A 
BRANCH  43  57
ATOM     57  C   UNL A   1      43.905  32.985  31.256  1.00  0.00     0.058 A 
ATOM     58  C   UNL A   1      44.259  34.021  30.377  1.00  0.00     0.135 A 
ATOM     59  C   UNL A   1      43.654  33.324  32.596  1.00  0.00     0.135 A 
ATOM     60  F   UNL A   1      44.524  33.754  29.089  1.00  0.00    -0.206 F 
ATOM     61  C   UNL A   1      44.395  35.335  30.816  1.00  0.00     0.059 A 
ATOM     62  C   UNL A   1      43.754  34.636  33.050  1.00  0.00     0.059 A 
ATOM     63  F   UNL A   1      43.312  32.375  33.482  1.00  0.00    -0.206 F 
ATOM     64  C   UNL A   1      44.142  35.632  32.156  1.00  0.00     0.060 A 
BRANCH  64  65
ATOM     65  S   UNL A   1      44.326  37.340  32.710  1.00  0.00     0.124 S 
ATOM     66  O   UNL A   1      45.671  37.318  33.277  1.00  0.00    -0.237 OA
ATOM     67  O   UNL A   1      44.176  38.089  31.467  1.00  0.00    -0.237 OA
ATOM     68  O   UNL A   1      43.242  37.504  33.673  1.00  0.00    -0.744 OA
ENDBRANCH  64  65
ENDBRANCH  43  57
BRANCH  44  69
ATOM     69  C   UNL A   1      42.631  23.719  27.701  1.00  0.00     0.058 A 
ATOM     70  C   UNL A   1      42.679  23.480  26.319  1.00  0.00     0.135 A 
ATOM     71  C   UNL A   1      42.422  22.618  28.546  1.00  0.00     0.135 A 
ATOM     72  F   UNL A   1      42.871  24.501  25.469  1.00  0.00    -0.206 F 
ATOM     73  C   UNL A   1      42.511  22.205  25.792  1.00  0.00     0.059 A 
ATOM     74  C   UNL A   1      42.279  21.329  28.045  1.00  0.00     0.059 A 
ATOM     75  F   UNL A   1      42.385  22.789  29.876  1.00  0.00    -0.206 F 
ATOM     76  C   UNL A   1      42.314  21.133  26.665  1.00  0.00     0.060 A 
BRANCH  76  77
ATOM     77  S   UNL A   1      42.143  19.474  25.972  1.00  0.00     0.124 S 
ATOM     78  O   UNL A   1      40.704  19.392  25.757  1.00  0.00    -0.237 OA
ATOM     79  O   UNL A   1      42.966  19.559  24.770  1.00  0.00    -0.237 OA
ATOM     80  O   UNL A   1      42.675  18.615  27.027  1.00  0.00    -0.744 OA
ENDBRANCH  76  77
ENDBRANCH  44  69
BRANCH  56  81
ATOM     81  C   UNL A   1      48.054  27.135  30.453  1.00  0.00     0.058 A 
ATOM     82  C   UNL A   1      49.092  27.406  29.548  1.00  0.00     0.135 A 
ATOM     83  C   UNL A   1      48.390  26.512  31.667  1.00  0.00     0.135 A 
ATOM     84  F   UNL A   1      48.825  27.994  28.370  1.00  0.00    -0.206 F 
ATOM     85  C   UNL A   1      50.408  27.050  29.823  1.00  0.00     0.059 A 
ATOM     86  C   UNL A   1      49.703  26.175  31.977  1.00  0.00     0.059 A 
ATOM     87  F   UNL A   1      47.437  26.238  32.573  1.00  0.00    -0.206 F 
ATOM     88  C   UNL A   1      50.705  26.438  31.042  1.00  0.00     0.060 A 
BRANCH  88  89
ATOM     89  S   UNL A   1      52.422  26.012  31.402  1.00  0.00     0.124 S 
ATOM     90  O   UNL A   1      52.799  27.073  32.329  1.00  0.00    -0.237 OA
ATOM     91  O   UNL A   1      52.297  24.678  31.981  1.00  0.00    -0.237 OA
ATOM     92  O   UNL A   1      53.066  26.062  30.094  1.00  0.00    -0.744 OA
ENDBRANCH  88  89
ENDBRANCH  56  81
ENDBRANCH  30  31
ENDBRANCH  22  25
ENDBRANCH  20  21
ENDBRANCH  19  20
ENDBRANCH   1  19
TORSDOF 17
ENDMDL
MODEL 3
REMARK VINA RESULT:      -8.5      4.740     12.496
REMARK SMILES COc1c(C(=O)NCCCCCCNC(=O)c2ccc(-c3c4nc(c(-c5c(F)cc(S(=O)(=O)[O-])cc5F)c5ccc([nH]5)c(-c5c(F)cc(S(=O)(=O)[O-])cc5F)c5nc(c(-c6c(F)cc(S(=O)(=O)[O-])cc6F)c6ccc3[nH]6)C=C5)C=C4)cc2)ccc(F)c1F
REMARK SMILES IDX 11 1 10 2 9 3 8 4 7 5 5 6 6 7 4 9 3 10 87 11 83 12 85 13
REMARK SMILES IDX 88 14 84 15 86 16 2 17 1 18 12 19 13 20 14 21 15 22 16 24
REMARK SMILES IDX 17 25 18 26 82 27 19 28 81 29 20 30 21 31 22 32 75 33 23 34
REMARK SMILES IDX 80 35 74 36 76 37 24 38 79 39 73 40 72 41 25 43 59 44 38 45
REMARK SMILES IDX 58 46 39 47 42 48 57 49 77 50 40 51 41 52 56 54 78 55 43 56
REMARK SMILES IDX 26 57 27 58 36 59 28 60 29 61 35 62 37 63 30 64 31 65 32 66
REMARK SMILES IDX 33 67 34 68 60 69 61 70 70 71 62 72 63 73 69 74 71 75 64 76
REMARK SMILES IDX 65 77 66 78 67 79 68 80 44 81 45 82 54 83 46 84 47 85 53 86
REMARK SMILES IDX 55 87 48 88 49 89 50 90 51 91 52 92
REMARK H PARENT 7 8 14 23 76 42 42 53
REMARK Flexibility Score: inf
ROOT
ATOM      1  C   UNL A   1      36.873  33.556  32.061  1.00  0.00     0.002 C 
ENDROOT
BRANCH   1   2
ATOM      2  C   UNL A   1      36.548  34.796  32.907  1.00  0.00     0.002 C 
BRANCH   2   3
ATOM      3  C   UNL A   1      35.408  34.609  33.922  1.00  0.00     0.021 C 
BRANCH   3   4
ATOM      4  C   UNL A   1      34.386  33.555  33.497  1.00  0.00     0.116 C 
BRANCH   4   5
ATOM      5  N   UNL A   1      33.095  34.165  33.263  1.00  0.00    -0.352 N 
ATOM      6  C   UNL A   1      32.514  34.929  32.290  1.00  0.00     0.255 C 
ATOM      7  O   UNL A   1      31.341  35.222  32.535  1.00  0.00    -0.269 OA
ATOM      8  H   UNL A   1      32.469  33.981  34.000  1.00  0.00     0.163 HD
BRANCH   6   9
ATOM      9  C   UNL A   1      33.157  35.367  31.000  1.00  0.00     0.085 A 
ATOM     10  C   UNL A   1      33.178  36.741  30.666  1.00  0.00     0.170 A 
ATOM     11  C   UNL A   1      33.569  37.167  29.388  1.00  0.00     0.201 A 
ATOM     12  C   UNL A   1      33.715  34.484  30.061  1.00  0.00     0.021 A 
ATOM     13  C   UNL A   1      34.014  36.253  28.449  1.00  0.00     0.162 A 
ATOM     14  F   UNL A   1      33.536  38.471  29.074  1.00  0.00    -0.200 F 
ATOM     15  C   UNL A   1      34.117  34.915  28.787  1.00  0.00     0.043 A 
ATOM     16  F   UNL A   1      34.379  36.656  27.226  1.00  0.00    -0.204 F 
BRANCH  10  17
ATOM     17  O   UNL A   1      32.806  37.740  31.535  1.00  0.00    -0.493 OA
ATOM     18  C   UNL A   1      33.853  37.987  32.480  1.00  0.00     0.278 C 
ENDBRANCH  10  17
ENDBRANCH   6   9
ENDBRANCH   4   5
ENDBRANCH   3   4
ENDBRANCH   2   3
ENDBRANCH   1   2
BRANCH   1  19
ATOM     19  C   UNL A   1      37.316  33.854  30.626  1.00  0.00     0.021 C 
BRANCH  19  20
ATOM     20  C   UNL A   1      36.893  32.796  29.613  1.00  0.00     0.116 C 
BRANCH  20  21
ATOM     21  N   UNL A   1      36.277  31.652  30.266  1.00  0.00    -0.352 N 
ATOM     22  C   UNL A   1      36.700  30.347  30.305  1.00  0.00     0.251 C 
ATOM     23  H   UNL A   1      35.439  31.841  30.749  1.00  0.00     0.163 HD
ATOM     24  O   UNL A   1      35.937  29.466  30.687  1.00  0.00    -0.269 OA
BRANCH  22  25
ATOM     25  C   UNL A   1      38.074  30.012  29.878  1.00  0.00     0.039 A 
ATOM     26  C   UNL A   1      39.079  29.908  30.842  1.00  0.00     0.014 A 
ATOM     27  C   UNL A   1      38.371  29.815  28.526  1.00  0.00     0.014 A 
ATOM     28  C   UNL A   1      40.373  29.558  30.454  1.00  0.00     0.010 A 
ATOM     29  C   UNL A   1      39.643  29.394  28.150  1.00  0.00     0.010 A 
ATOM     30  C   UNL A   1      40.660  29.271  29.109  1.00  0.00    -0.014 A 
BRANCH  30  31
ATOM     31  C   UNL A   1      42.019  28.848  28.685  1.00  0.00     0.031 A 
ATOM     32  C   UNL A   1      43.133  29.856  28.611  1.00  0.00     0.074 A 
ATOM     33  C   UNL A   1      42.230  27.572  28.308  1.00  0.00     0.049 A 
ATOM     34  N   UNL A   1      44.369  29.693  28.214  1.00  0.00    -0.248 NA
ATOM     35  C   UNL A   1      42.811  31.236  29.010  1.00  0.00     0.031 C 
ATOM     36  C   UNL A   1      41.216  26.515  28.294  1.00  0.00     0.029 A 
ATOM     37  N   UNL A   1      43.365  26.947  27.859  1.00  0.00    -0.354 N 
ATOM     38  C   UNL A   1      44.963  30.947  28.296  1.00  0.00     0.074 A 
ATOM     39  C   UNL A   1      43.940  31.871  28.733  1.00  0.00     0.031 C 
ATOM     40  C   UNL A   1      41.782  25.368  27.885  1.00  0.00     0.029 A 
ATOM     41  C   UNL A   1      43.186  25.614  27.571  1.00  0.00     0.049 A 
ATOM     42  H   UNL A   1      44.229  27.408  27.751  1.00  0.00     0.167 HD
ATOM     43  C   UNL A   1      46.250  31.292  28.051  1.00  0.00     0.037 A 
ATOM     44  C   UNL A   1      44.052  24.696  27.102  1.00  0.00     0.037 A 
ATOM     45  C   UNL A   1      47.268  30.358  27.645  1.00  0.00     0.049 A 
ATOM     46  C   UNL A   1      45.475  25.105  26.834  1.00  0.00     0.074 A 
ATOM     47  C   UNL A   1      48.617  30.590  27.444  1.00  0.00     0.029 A 
ATOM     48  N   UNL A   1      47.050  29.015  27.373  1.00  0.00    -0.354 N 
ATOM     49  N   UNL A   1      46.040  26.279  26.989  1.00  0.00    -0.248 NA
ATOM     50  C   UNL A   1      46.381  24.064  26.329  1.00  0.00     0.031 C 
ATOM     51  C   UNL A   1      49.204  29.402  26.996  1.00  0.00     0.029 A 
ATOM     52  C   UNL A   1      48.232  28.413  26.974  1.00  0.00     0.049 A 
ATOM     53  H   UNL A   1      46.182  28.558  27.450  1.00  0.00     0.167 HD
ATOM     54  C   UNL A   1      47.373  26.110  26.631  1.00  0.00     0.074 A 
ATOM     55  C   UNL A   1      47.532  24.719  26.262  1.00  0.00     0.031 C 
ATOM     56  C   UNL A   1      48.375  27.025  26.613  1.00  0.00     0.037 A 
BRANCH  43  57
ATOM     57  C   UNL A   1      46.629  32.740  28.210  1.00  0.00     0.058 A 
ATOM     58  C   UNL A   1      47.278  33.216  29.361  1.00  0.00     0.135 A 
ATOM     59  C   UNL A   1      46.367  33.660  27.182  1.00  0.00     0.135 A 
ATOM     60  F   UNL A   1      47.541  32.384  30.382  1.00  0.00    -0.206 F 
ATOM     61  C   UNL A   1      47.619  34.557  29.503  1.00  0.00     0.059 A 
ATOM     62  C   UNL A   1      46.728  35.000  27.289  1.00  0.00     0.059 A 
ATOM     63  F   UNL A   1      45.750  33.262  26.058  1.00  0.00    -0.206 F 
ATOM     64  C   UNL A   1      47.338  35.443  28.461  1.00  0.00     0.060 A 
BRANCH  64  65
ATOM     65  S   UNL A   1      47.785  37.180  28.662  1.00  0.00     0.124 S 
ATOM     66  O   UNL A   1      48.404  37.169  29.984  1.00  0.00    -0.237 OA
ATOM     67  O   UNL A   1      48.692  37.401  27.541  1.00  0.00    -0.237 OA
ATOM     68  O   UNL A   1      46.504  37.873  28.575  1.00  0.00    -0.744 OA
ENDBRANCH  64  65
ENDBRANCH  43  57
BRANCH  44  69
ATOM     69  C   UNL A   1      43.607  23.293  26.886  1.00  0.00     0.058 A 
ATOM     70  C   UNL A   1      43.475  22.772  25.589  1.00  0.00     0.135 A 
ATOM     71  C   UNL A   1      43.317  22.442  27.964  1.00  0.00     0.135 A 
ATOM     72  F   UNL A   1      43.735  23.548  24.526  1.00  0.00    -0.206 F 
ATOM     73  C   UNL A   1      43.055  21.465  25.368  1.00  0.00     0.059 A 
ATOM     74  C   UNL A   1      42.922  21.123  27.768  1.00  0.00     0.059 A 
ATOM     75  F   UNL A   1      43.445  22.885  29.224  1.00  0.00    -0.206 F 
ATOM     76  C   UNL A   1      42.784  20.647  26.465  1.00  0.00     0.060 A 
BRANCH  76  77
ATOM     77  S   UNL A   1      42.284  18.937  26.165  1.00  0.00     0.124 S 
ATOM     78  O   UNL A   1      42.535  18.325  27.464  1.00  0.00    -0.237 OA
ATOM     79  O   UNL A   1      40.882  19.090  25.789  1.00  0.00    -0.237 OA
ATOM     80  O   UNL A   1      43.172  18.514  25.085  1.00  0.00    -0.744 OA
ENDBRANCH  76  77
ENDBRANCH  44  69
BRANCH  56  81
ATOM     81  C   UNL A   1      49.743  26.543  26.212  1.00  0.00     0.058 A 
ATOM     82  C   UNL A   1      50.241  26.730  24.914  1.00  0.00     0.135 A 
ATOM     83  C   UNL A   1      50.585  25.932  27.156  1.00  0.00     0.135 A 
ATOM     84  F   UNL A   1      49.475  27.303  23.971  1.00  0.00    -0.206 F 
ATOM     85  C   UNL A   1      51.517  26.304  24.557  1.00  0.00     0.059 A 
ATOM     86  C   UNL A   1      51.874  25.525  26.830  1.00  0.00     0.059 A 
ATOM     87  F   UNL A   1      50.161  25.738  28.415  1.00  0.00    -0.206 F 
ATOM     88  C   UNL A   1      52.327  25.705  25.523  1.00  0.00     0.060 A 
BRANCH  88  89
ATOM     89  S   UNL A   1      53.992  25.187  25.057  1.00  0.00     0.124 S 
ATOM     90  O   UNL A   1      53.826  23.743  24.933  1.00  0.00    -0.237 OA
ATOM     91  O   UNL A   1      54.204  25.910  23.806  1.00  0.00    -0.237 OA
ATOM     92  O   UNL A   1      54.814  25.632  26.177  1.00  0.00    -0.744 OA
ENDBRANCH  88  89
ENDBRANCH  56  81
ENDBRANCH  30  31
ENDBRANCH  22  25
ENDBRANCH  20  21
ENDBRANCH  19  20
ENDBRANCH   1  19
TORSDOF 17
ENDMDL
