MODEL 1
REMARK VINA RESULT:     -10.8      0.000      0.000
REMARK SMILES N#CCSc1nnnn1-c1ccc(C(=O)NCCCCCCNC(=O)c2ccc(-c3c4nc(c(-c5c(F)cc(S(=O)(=O)[O-])cc5F)c5ccc([nH]5)c(-c5c(F)cc(S(=O)(=O)[O-])cc5F)c5nc(c(-c6c(F)cc(S(=O)(=O)[O-])cc6F)c6ccc3[nH]6)C=C5)C=C4)cc2)cc1
REMARK SMILES IDX 19 1 18 2 17 3 16 4 14 5 15 6 13 8 10 9 11 10 93 11 12 12
REMARK SMILES IDX 92 13 9 14 5 15 6 16 7 17 8 18 4 19 3 20 2 21 1 22 20 23
REMARK SMILES IDX 21 24 22 25 23 26 24 27 25 29 26 30 27 31 91 32 28 33 90 34
REMARK SMILES IDX 29 35 30 36 31 37 84 38 32 39 89 40 83 41 85 42 33 43 88 44
REMARK SMILES IDX 82 45 81 46 34 48 68 49 47 50 67 51 48 52 51 53 66 54 86 55
REMARK SMILES IDX 49 56 50 57 65 59 87 60 52 61 35 62 36 63 45 64 37 65 38 66
REMARK SMILES IDX 44 67 46 68 39 69 40 70 41 71 42 72 43 73 69 74 70 75 79 76
REMARK SMILES IDX 71 77 72 78 78 79 80 80 73 81 74 82 75 83 76 84 77 85 53 86
REMARK SMILES IDX 54 87 63 88 55 89 56 90 62 91 64 92 57 93 58 94 59 95 60 96
REMARK SMILES IDX 61 97
REMARK H PARENT 16 7 23 28 85 47 51 58
REMARK Flexibility Score: inf
ROOT
ATOM      1  C   UNL A   1      39.221  22.077  26.271  1.00  0.00     0.002 C 
ENDROOT
BRANCH   1   2
ATOM      2  C   UNL A   1      38.357  21.106  25.454  1.00  0.00     0.021 C 
BRANCH   2   3
ATOM      3  C   UNL A   1      37.356  21.802  24.531  1.00  0.00     0.116 C 
BRANCH   3   4
ATOM      4  N   UNL A   1      36.025  21.236  24.692  1.00  0.00    -0.352 N 
ATOM      5  C   UNL A   1      34.774  21.799  24.718  1.00  0.00     0.251 C 
ATOM      6  O   UNL A   1      33.799  21.054  24.799  1.00  0.00    -0.269 OA
ATOM      7  H   UNL A   1      36.022  20.258  24.805  1.00  0.00     0.163 HD
BRANCH   5   8
ATOM      8  C   UNL A   1      34.559  23.255  24.520  1.00  0.00     0.039 A 
ATOM      9  C   UNL A   1      33.745  25.904  24.394  1.00  0.00     0.069 A 
ATOM     10  C   UNL A   1      34.249  25.417  25.597  1.00  0.00     0.029 A 
ATOM     11  C   UNL A   1      33.832  25.154  23.220  1.00  0.00     0.029 A 
ATOM     12  C   UNL A   1      34.650  24.081  25.655  1.00  0.00     0.016 A 
ATOM     13  C   UNL A   1      34.250  23.827  23.285  1.00  0.00     0.016 A 
BRANCH   9  14
ATOM     14  N   UNL A   1      33.123  27.154  24.350  1.00  0.00    -0.187 N 
ATOM     15  C   UNL A   1      31.795  27.490  24.135  1.00  0.00     0.215 A 
ATOM     16  N   UNL A   1      31.737  28.797  23.965  1.00  0.00    -0.101 NA
ATOM     17  N   UNL A   1      33.016  29.268  24.123  1.00  0.00    -0.022 NA
ATOM     18  N   UNL A   1      33.854  28.285  24.416  1.00  0.00    -0.039 NA
BRANCH  15  19
ATOM     19  S   UNL A   1      30.357  26.565  24.472  1.00  0.00    -0.069 SA
BRANCH  19  20
ATOM     20  C   UNL A   1      30.595  25.531  25.931  1.00  0.00     0.198 C 
BRANCH  20  21
ATOM     21  C   UNL A   1      30.823  24.058  25.632  1.00  0.00     0.074 C 
ATOM     22  N   UNL A   1      31.013  22.836  25.384  1.00  0.00    -0.197 NA
ENDBRANCH  20  21
ENDBRANCH  19  20
ENDBRANCH  15  19
ENDBRANCH   9  14
ENDBRANCH   5   8
ENDBRANCH   3   4
ENDBRANCH   2   3
ENDBRANCH   1   2
BRANCH   1  23
ATOM     23  C   UNL A   1      40.396  21.443  27.035  1.00  0.00     0.002 C 
BRANCH  23  24
ATOM     24  C   UNL A   1      40.863  20.071  26.531  1.00  0.00     0.021 C 
BRANCH  24  25
ATOM     25  C   UNL A   1      42.233  19.666  27.055  1.00  0.00     0.116 C 
BRANCH  25  26
ATOM     26  N   UNL A   1      43.191  19.445  25.972  1.00  0.00    -0.352 N 
ATOM     27  C   UNL A   1      43.764  20.390  25.139  1.00  0.00     0.251 C 
ATOM     28  H   UNL A   1      43.462  18.511  25.818  1.00  0.00     0.163 HD
ATOM     29  O   UNL A   1      44.226  20.078  24.056  1.00  0.00    -0.269 OA
BRANCH  27  30
ATOM     30  C   UNL A   1      43.819  21.784  25.614  1.00  0.00     0.039 A 
ATOM     31  C   UNL A   1      42.959  22.767  25.114  1.00  0.00     0.014 A 
ATOM     32  C   UNL A   1      44.744  22.077  26.611  1.00  0.00     0.014 A 
ATOM     33  C   UNL A   1      42.987  24.037  25.689  1.00  0.00     0.010 A 
ATOM     34  C   UNL A   1      44.669  23.273  27.270  1.00  0.00     0.010 A 
ATOM     35  C   UNL A   1      43.835  24.277  26.780  1.00  0.00    -0.014 A 
BRANCH  35  36
ATOM     36  C   UNL A   1      43.753  25.514  27.556  1.00  0.00     0.031 A 
ATOM     37  C   UNL A   1      44.847  26.485  27.245  1.00  0.00     0.074 A 
ATOM     38  C   UNL A   1      42.625  25.837  28.233  1.00  0.00     0.049 A 
ATOM     39  N   UNL A   1      45.747  26.960  28.042  1.00  0.00    -0.248 NA
ATOM     40  C   UNL A   1      45.074  26.845  25.830  1.00  0.00     0.031 C 
ATOM     41  C   UNL A   1      41.383  25.053  28.319  1.00  0.00     0.029 A 
ATOM     42  N   UNL A   1      42.275  26.992  28.865  1.00  0.00    -0.354 N 
ATOM     43  C   UNL A   1      46.466  27.887  27.287  1.00  0.00     0.074 A 
ATOM     44  C   UNL A   1      46.174  27.595  25.910  1.00  0.00     0.031 C 
ATOM     45  C   UNL A   1      40.366  25.846  28.719  1.00  0.00     0.029 A 
ATOM     46  C   UNL A   1      40.902  27.142  29.081  1.00  0.00     0.049 A 
ATOM     47  H   UNL A   1      42.935  27.665  29.147  1.00  0.00     0.167 HD
ATOM     48  C   UNL A   1      46.988  29.006  27.862  1.00  0.00     0.037 A 
ATOM     49  C   UNL A   1      40.251  28.264  29.490  1.00  0.00     0.037 A 
ATOM     50  C   UNL A   1      47.061  28.860  29.294  1.00  0.00     0.049 A 
ATOM     51  C   UNL A   1      41.276  29.154  30.094  1.00  0.00     0.074 A 
ATOM     52  C   UNL A   1      47.669  27.964  30.152  1.00  0.00     0.029 A 
ATOM     53  N   UNL A   1      46.100  29.501  30.040  1.00  0.00    -0.354 N 
ATOM     54  N   UNL A   1      41.938  28.862  31.181  1.00  0.00    -0.248 NA
ATOM     55  C   UNL A   1      41.911  30.126  29.220  1.00  0.00     0.031 C 
ATOM     56  C   UNL A   1      46.731  27.771  31.207  1.00  0.00     0.029 A 
ATOM     57  C   UNL A   1      45.648  28.623  30.989  1.00  0.00     0.049 A 
ATOM     58  H   UNL A   1      45.793  30.428  29.913  1.00  0.00     0.167 HD
ATOM     59  C   UNL A   1      43.241  29.259  30.919  1.00  0.00     0.074 A 
ATOM     60  C   UNL A   1      43.147  30.099  29.725  1.00  0.00     0.031 C 
ATOM     61  C   UNL A   1      44.300  28.632  31.514  1.00  0.00     0.037 A 
BRANCH  48  62
ATOM     62  C   UNL A   1      47.026  30.368  27.194  1.00  0.00     0.058 A 
ATOM     63  C   UNL A   1      48.223  31.114  27.225  1.00  0.00     0.135 A 
ATOM     64  C   UNL A   1      45.878  31.090  26.792  1.00  0.00     0.135 A 
ATOM     65  F   UNL A   1      49.377  30.538  27.600  1.00  0.00    -0.206 F 
ATOM     66  C   UNL A   1      48.262  32.483  26.955  1.00  0.00     0.059 A 
ATOM     67  C   UNL A   1      45.904  32.441  26.466  1.00  0.00     0.059 A 
ATOM     68  F   UNL A   1      44.653  30.552  26.788  1.00  0.00    -0.206 F 
ATOM     69  C   UNL A   1      47.091  33.140  26.589  1.00  0.00     0.060 A 
BRANCH  69  70
ATOM     70  S   UNL A   1      47.116  34.921  26.324  1.00  0.00     0.124 S 
ATOM     71  O   UNL A   1      46.666  35.014  24.940  1.00  0.00    -0.237 OA
ATOM     72  O   UNL A   1      46.175  35.387  27.337  1.00  0.00    -0.237 OA
ATOM     73  O   UNL A   1      48.512  35.275  26.562  1.00  0.00    -0.744 OA
ENDBRANCH  69  70
ENDBRANCH  48  62
BRANCH  49  74
ATOM     74  C   UNL A   1      38.904  28.759  29.083  1.00  0.00     0.058 A 
ATOM     75  C   UNL A   1      37.874  28.956  30.023  1.00  0.00     0.135 A 
ATOM     76  C   UNL A   1      38.685  29.318  27.807  1.00  0.00     0.135 A 
ATOM     77  F   UNL A   1      38.003  28.482  31.271  1.00  0.00    -0.206 F 
ATOM     78  C   UNL A   1      36.718  29.696  29.729  1.00  0.00     0.059 A 
ATOM     79  C   UNL A   1      37.539  30.052  27.489  1.00  0.00     0.059 A 
ATOM     80  F   UNL A   1      39.623  29.248  26.852  1.00  0.00    -0.206 F 
ATOM     81  C   UNL A   1      36.569  30.257  28.462  1.00  0.00     0.060 A 
BRANCH  81  82
ATOM     82  S   UNL A   1      35.163  31.348  28.122  1.00  0.00     0.124 S 
ATOM     83  O   UNL A   1      34.346  30.522  27.240  1.00  0.00    -0.237 OA
ATOM     84  O   UNL A   1      34.622  31.582  29.456  1.00  0.00    -0.237 OA
ATOM     85  O   UNL A   1      35.782  32.511  27.491  1.00  0.00    -0.744 OA
ENDBRANCH  81  82
ENDBRANCH  49  74
BRANCH  61  86
ATOM     86  C   UNL A   1      44.030  27.725  32.688  1.00  0.00     0.058 A 
ATOM     87  C   UNL A   1      43.872  26.327  32.616  1.00  0.00     0.135 A 
ATOM     88  C   UNL A   1      44.091  28.291  33.969  1.00  0.00     0.135 A 
ATOM     89  F   UNL A   1      43.902  25.689  31.437  1.00  0.00    -0.206 F 
ATOM     90  C   UNL A   1      43.745  25.540  33.764  1.00  0.00     0.059 A 
ATOM     91  C   UNL A   1      44.000  27.525  35.126  1.00  0.00     0.059 A 
ATOM     92  F   UNL A   1      44.301  29.612  34.110  1.00  0.00    -0.206 F 
ATOM     93  C   UNL A   1      43.812  26.149  35.017  1.00  0.00     0.060 A 
BRANCH  93  94
ATOM     94  S   UNL A   1      43.712  25.131  36.505  1.00  0.00     0.124 S 
ATOM     95  O   UNL A   1      42.275  25.100  36.759  1.00  0.00    -0.237 OA
ATOM     96  O   UNL A   1      44.307  23.871  36.069  1.00  0.00    -0.237 OA
ATOM     97  O   UNL A   1      44.500  25.877  37.483  1.00  0.00    -0.744 OA
ENDBRANCH  93  94
ENDBRANCH  61  86
ENDBRANCH  35  36
ENDBRANCH  27  30
ENDBRANCH  25  26
ENDBRANCH  24  25
ENDBRANCH  23  24
ENDBRANCH   1  23
TORSDOF 20
ENDMDL
MODEL 2
REMARK VINA RESULT:     -10.7      2.079      2.687
REMARK SMILES N#CCSc1nnnn1-c1ccc(C(=O)NCCCCCCNC(=O)c2ccc(-c3c4nc(c(-c5c(F)cc(S(=O)(=O)[O-])cc5F)c5ccc([nH]5)c(-c5c(F)cc(S(=O)(=O)[O-])cc5F)c5nc(c(-c6c(F)cc(S(=O)(=O)[O-])cc6F)c6ccc3[nH]6)C=C5)C=C4)cc2)cc1
REMARK SMILES IDX 19 1 18 2 17 3 16 4 14 5 15 6 13 8 10 9 11 10 93 11 12 12
REMARK SMILES IDX 92 13 9 14 5 15 6 16 7 17 8 18 4 19 3 20 2 21 1 22 20 23
REMARK SMILES IDX 21 24 22 25 23 26 24 27 25 29 26 30 27 31 91 32 28 33 90 34
REMARK SMILES IDX 29 35 30 36 31 37 84 38 32 39 89 40 83 41 85 42 33 43 88 44
REMARK SMILES IDX 82 45 81 46 34 48 68 49 47 50 67 51 48 52 51 53 66 54 86 55
REMARK SMILES IDX 49 56 50 57 65 59 87 60 52 61 35 62 36 63 45 64 37 65 38 66
REMARK SMILES IDX 44 67 46 68 39 69 40 70 41 71 42 72 43 73 69 74 70 75 79 76
REMARK SMILES IDX 71 77 72 78 78 79 80 80 73 81 74 82 75 83 76 84 77 85 53 86
REMARK SMILES IDX 54 87 63 88 55 89 56 90 62 91 64 92 57 93 58 94 59 95 60 96
REMARK SMILES IDX 61 97
REMARK H PARENT 16 7 23 28 85 47 51 58
REMARK Flexibility Score: inf
ROOT
ATOM      1  C   UNL A   1      37.610  23.572  25.730  1.00  0.00     0.002 C 
ENDROOT
BRANCH   1   2
ATOM      2  C   UNL A   1      37.091  22.386  24.904  1.00  0.00     0.021 C 
BRANCH   2   3
ATOM      3  C   UNL A   1      35.999  21.577  25.607  1.00  0.00     0.116 C 
BRANCH   3   4
ATOM      4  N   UNL A   1      34.895  21.302  24.700  1.00  0.00    -0.352 N 
ATOM      5  C   UNL A   1      33.850  22.069  24.251  1.00  0.00     0.251 C 
ATOM      6  O   UNL A   1      33.089  21.587  23.413  1.00  0.00    -0.269 OA
ATOM      7  H   UNL A   1      34.900  20.386  24.338  1.00  0.00     0.163 HD
BRANCH   5   8
ATOM      8  C   UNL A   1      33.688  23.492  24.644  1.00  0.00     0.039 A 
ATOM      9  C   UNL A   1      32.923  26.087  25.254  1.00  0.00     0.069 A 
ATOM     10  C   UNL A   1      32.574  25.064  26.132  1.00  0.00     0.029 A 
ATOM     11  C   UNL A   1      33.809  25.861  24.200  1.00  0.00     0.029 A 
ATOM     12  C   UNL A   1      32.956  23.760  25.814  1.00  0.00     0.016 A 
ATOM     13  C   UNL A   1      34.199  24.558  23.901  1.00  0.00     0.016 A 
BRANCH   9  14
ATOM     14  N   UNL A   1      32.371  27.361  25.408  1.00  0.00    -0.187 N 
ATOM     15  C   UNL A   1      31.505  28.071  24.590  1.00  0.00     0.215 A 
ATOM     16  N   UNL A   1      31.447  29.306  25.048  1.00  0.00    -0.101 NA
ATOM     17  N   UNL A   1      32.234  29.344  26.171  1.00  0.00    -0.022 NA
ATOM     18  N   UNL A   1      32.751  28.153  26.431  1.00  0.00    -0.039 NA
BRANCH  15  19
ATOM     19  S   UNL A   1      30.314  27.473  23.467  1.00  0.00    -0.069 SA
BRANCH  19  20
ATOM     20  C   UNL A   1      29.453  28.842  22.666  1.00  0.00     0.198 C 
BRANCH  20  21
ATOM     21  C   UNL A   1      27.965  28.916  22.968  1.00  0.00     0.074 C 
ATOM     22  N   UNL A   1      26.731  28.978  23.218  1.00  0.00    -0.197 NA
ENDBRANCH  20  21
ENDBRANCH  19  20
ENDBRANCH  15  19
ENDBRANCH   9  14
ENDBRANCH   5   8
ENDBRANCH   3   4
ENDBRANCH   2   3
ENDBRANCH   1   2
BRANCH   1  23
ATOM     23  C   UNL A   1      38.897  23.313  26.531  1.00  0.00     0.002 C 
BRANCH  23  24
ATOM     24  C   UNL A   1      39.633  22.004  26.216  1.00  0.00     0.021 C 
BRANCH  24  25
ATOM     25  C   UNL A   1      40.979  21.881  26.916  1.00  0.00     0.116 C 
BRANCH  25  26
ATOM     26  N   UNL A   1      42.082  21.745  25.965  1.00  0.00    -0.352 N 
ATOM     27  C   UNL A   1      42.797  22.755  25.344  1.00  0.00     0.251 C 
ATOM     28  H   UNL A   1      42.348  20.825  25.739  1.00  0.00     0.163 HD
ATOM     29  O   UNL A   1      43.407  22.551  24.310  1.00  0.00    -0.269 OA
BRANCH  27  30
ATOM     30  C   UNL A   1      42.817  24.080  25.988  1.00  0.00     0.039 A 
ATOM     31  C   UNL A   1      42.033  25.139  25.519  1.00  0.00     0.014 A 
ATOM     32  C   UNL A   1      43.628  24.227  27.109  1.00  0.00     0.014 A 
ATOM     33  C   UNL A   1      42.012  26.330  26.243  1.00  0.00     0.010 A 
ATOM     34  C   UNL A   1      43.494  25.339  27.896  1.00  0.00     0.010 A 
ATOM     35  C   UNL A   1      42.736  26.416  27.442  1.00  0.00    -0.014 A 
BRANCH  35  36
ATOM     36  C   UNL A   1      42.583  27.554  28.349  1.00  0.00     0.031 A 
ATOM     37  C   UNL A   1      43.685  28.558  28.233  1.00  0.00     0.074 A 
ATOM     38  C   UNL A   1      41.406  27.792  28.974  1.00  0.00     0.049 A 
ATOM     39  N   UNL A   1      44.519  28.940  29.144  1.00  0.00    -0.248 NA
ATOM     40  C   UNL A   1      44.009  29.081  26.889  1.00  0.00     0.031 C 
ATOM     41  C   UNL A   1      40.170  26.999  28.877  1.00  0.00     0.029 A 
ATOM     42  N   UNL A   1      40.997  28.864  29.709  1.00  0.00    -0.354 N 
ATOM     43  C   UNL A   1      45.280  29.950  28.555  1.00  0.00     0.074 A 
ATOM     44  C   UNL A   1      45.092  29.820  27.136  1.00  0.00     0.031 C 
ATOM     45  C   UNL A   1      39.117  27.737  29.291  1.00  0.00     0.029 A 
ATOM     46  C   UNL A   1      39.610  28.983  29.840  1.00  0.00     0.049 A 
ATOM     47  H   UNL A   1      41.627  29.501  30.114  1.00  0.00     0.167 HD
ATOM     48  C   UNL A   1      45.746  30.997  29.293  1.00  0.00     0.037 A 
ATOM     49  C   UNL A   1      38.919  30.048  30.328  1.00  0.00     0.037 A 
ATOM     50  C   UNL A   1      45.717  30.685  30.700  1.00  0.00     0.049 A 
ATOM     51  C   UNL A   1      39.887  30.865  31.104  1.00  0.00     0.074 A 
ATOM     52  C   UNL A   1      46.272  29.697  31.490  1.00  0.00     0.029 A 
ATOM     53  N   UNL A   1      44.698  31.231  31.443  1.00  0.00    -0.354 N 
ATOM     54  N   UNL A   1      40.472  30.450  32.195  1.00  0.00    -0.248 NA
ATOM     55  C   UNL A   1      40.572  31.935  30.397  1.00  0.00     0.031 C 
ATOM     56  C   UNL A   1      45.263  29.379  32.444  1.00  0.00     0.029 A 
ATOM     57  C   UNL A   1      44.188  30.247  32.248  1.00  0.00     0.049 A 
ATOM     58  H   UNL A   1      44.390  32.165  31.402  1.00  0.00     0.167 HD
ATOM     59  C   UNL A   1      41.785  30.879  32.077  1.00  0.00     0.074 A 
ATOM     60  C   UNL A   1      41.768  31.852  30.985  1.00  0.00     0.031 C 
ATOM     61  C   UNL A   1      42.806  30.190  32.671  1.00  0.00     0.037 A 
BRANCH  48  62
ATOM     62  C   UNL A   1      45.816  32.428  28.792  1.00  0.00     0.058 A 
ATOM     63  C   UNL A   1      47.005  33.163  28.982  1.00  0.00     0.135 A 
ATOM     64  C   UNL A   1      44.690  33.192  28.408  1.00  0.00     0.135 A 
ATOM     65  F   UNL A   1      48.138  32.546  29.358  1.00  0.00    -0.206 F 
ATOM     66  C   UNL A   1      47.052  34.554  28.878  1.00  0.00     0.059 A 
ATOM     67  C   UNL A   1      44.728  34.572  28.244  1.00  0.00     0.059 A 
ATOM     68  F   UNL A   1      43.471  32.660  28.267  1.00  0.00    -0.206 F 
ATOM     69  C   UNL A   1      45.902  35.251  28.520  1.00  0.00     0.060 A 
BRANCH  69  70
ATOM     70  S   UNL A   1      45.932  37.050  28.467  1.00  0.00     0.124 S 
ATOM     71  O   UNL A   1      47.358  37.320  28.603  1.00  0.00    -0.237 OA
ATOM     72  O   UNL A   1      45.350  37.320  27.156  1.00  0.00    -0.237 OA
ATOM     73  O   UNL A   1      45.102  37.433  29.605  1.00  0.00    -0.744 OA
ENDBRANCH  69  70
ENDBRANCH  48  62
BRANCH  49  74
ATOM     74  C   UNL A   1      37.598  30.583  29.883  1.00  0.00     0.058 A 
ATOM     75  C   UNL A   1      36.709  31.199  30.785  1.00  0.00     0.135 A 
ATOM     76  C   UNL A   1      37.302  30.755  28.515  1.00  0.00     0.135 A 
ATOM     77  F   UNL A   1      36.923  31.111  32.107  1.00  0.00    -0.206 F 
ATOM     78  C   UNL A   1      35.618  31.971  30.358  1.00  0.00     0.059 A 
ATOM     79  C   UNL A   1      36.218  31.513  28.066  1.00  0.00     0.059 A 
ATOM     80  F   UNL A   1      38.113  30.267  27.566  1.00  0.00    -0.206 F 
ATOM     81  C   UNL A   1      35.392  32.139  28.993  1.00  0.00     0.060 A 
BRANCH  81  82
ATOM     82  S   UNL A   1      34.089  33.264  28.429  1.00  0.00     0.124 S 
ATOM     83  O   UNL A   1      33.157  32.347  27.782  1.00  0.00    -0.237 OA
ATOM     84  O   UNL A   1      33.632  33.860  29.679  1.00  0.00    -0.237 OA
ATOM     85  O   UNL A   1      34.793  34.174  27.529  1.00  0.00    -0.744 OA
ENDBRANCH  81  82
ENDBRANCH  49  74
BRANCH  61  86
ATOM     86  C   UNL A   1      42.463  29.151  33.709  1.00  0.00     0.058 A 
ATOM     87  C   UNL A   1      42.242  27.785  33.449  1.00  0.00     0.135 A 
ATOM     88  C   UNL A   1      42.517  29.542  35.055  1.00  0.00     0.135 A 
ATOM     89  F   UNL A   1      42.273  27.307  32.197  1.00  0.00    -0.206 F 
ATOM     90  C   UNL A   1      42.047  26.861  34.480  1.00  0.00     0.059 A 
ATOM     91  C   UNL A   1      42.359  28.635  36.097  1.00  0.00     0.059 A 
ATOM     92  F   UNL A   1      42.784  30.820  35.373  1.00  0.00    -0.206 F 
ATOM     93  C   UNL A   1      42.110  27.297  35.803  1.00  0.00     0.060 A 
BRANCH  93  94
ATOM     94  S   UNL A   1      41.922  26.099  37.142  1.00  0.00     0.124 S 
ATOM     95  O   UNL A   1      42.924  26.549  38.101  1.00  0.00    -0.237 OA
ATOM     96  O   UNL A   1      40.530  26.285  37.542  1.00  0.00    -0.237 OA
ATOM     97  O   UNL A   1      42.209  24.820  36.497  1.00  0.00    -0.744 OA
ENDBRANCH  93  94
ENDBRANCH  61  86
ENDBRANCH  35  36
ENDBRANCH  27  30
ENDBRANCH  25  26
ENDBRANCH  24  25
ENDBRANCH  23  24
ENDBRANCH   1  23
TORSDOF 20
ENDMDL
MODEL 3
REMARK VINA RESULT:     -10.6      1.440      2.097
REMARK SMILES N#CCSc1nnnn1-c1ccc(C(=O)NCCCCCCNC(=O)c2ccc(-c3c4nc(c(-c5c(F)cc(S(=O)(=O)[O-])cc5F)c5ccc([nH]5)c(-c5c(F)cc(S(=O)(=O)[O-])cc5F)c5nc(c(-c6c(F)cc(S(=O)(=O)[O-])cc6F)c6ccc3[nH]6)C=C5)C=C4)cc2)cc1
REMARK SMILES IDX 19 1 18 2 17 3 16 4 14 5 15 6 13 8 10 9 11 10 93 11 12 12
REMARK SMILES IDX 92 13 9 14 5 15 6 16 7 17 8 18 4 19 3 20 2 21 1 22 20 23
REMARK SMILES IDX 21 24 22 25 23 26 24 27 25 29 26 30 27 31 91 32 28 33 90 34
REMARK SMILES IDX 29 35 30 36 31 37 84 38 32 39 89 40 83 41 85 42 33 43 88 44
REMARK SMILES IDX 82 45 81 46 34 48 68 49 47 50 67 51 48 52 51 53 66 54 86 55
REMARK SMILES IDX 49 56 50 57 65 59 87 60 52 61 35 62 36 63 45 64 37 65 38 66
REMARK SMILES IDX 44 67 46 68 39 69 40 70 41 71 42 72 43 73 69 74 70 75 79 76
REMARK SMILES IDX 71 77 72 78 78 79 80 80 73 81 74 82 75 83 76 84 77 85 53 86
REMARK SMILES IDX 54 87 63 88 55 89 56 90 62 91 64 92 57 93 58 94 59 95 60 96
REMARK SMILES IDX 61 97
REMARK H PARENT 16 7 23 28 85 47 51 58
REMARK Flexibility Score: inf
ROOT
ATOM      1  C   UNL A   1      40.256  21.787  26.139  1.00  0.00     0.002 C 
ENDROOT
BRANCH   1   2
ATOM      2  C   UNL A   1      38.887  22.394  26.481  1.00  0.00     0.021 C 
BRANCH   2   3
ATOM      3  C   UNL A   1      37.914  22.422  25.301  1.00  0.00     0.116 C 
BRANCH   3   4
ATOM      4  N   UNL A   1      37.030  21.266  25.333  1.00  0.00    -0.352 N 
ATOM      5  C   UNL A   1      35.719  21.090  24.971  1.00  0.00     0.251 C 
ATOM      6  O   UNL A   1      35.239  19.960  25.042  1.00  0.00    -0.269 OA
ATOM      7  H   UNL A   1      37.458  20.451  25.684  1.00  0.00     0.163 HD
BRANCH   5   8
ATOM      8  C   UNL A   1      34.909  22.185  24.378  1.00  0.00     0.039 A 
ATOM      9  C   UNL A   1      33.488  24.011  22.849  1.00  0.00     0.069 A 
ATOM     10  C   UNL A   1      32.921  22.764  23.098  1.00  0.00     0.029 A 
ATOM     11  C   UNL A   1      34.644  24.423  23.514  1.00  0.00     0.029 A 
ATOM     12  C   UNL A   1      33.646  21.847  23.862  1.00  0.00     0.016 A 
ATOM     13  C   UNL A   1      35.352  23.506  24.288  1.00  0.00     0.016 A 
BRANCH   9  14
ATOM     14  N   UNL A   1      32.911  24.867  21.909  1.00  0.00    -0.187 N 
ATOM     15  C   UNL A   1      31.903  25.810  22.050  1.00  0.00     0.215 A 
ATOM     16  N   UNL A   1      31.555  26.205  20.841  1.00  0.00    -0.101 NA
ATOM     17  N   UNL A   1      32.377  25.546  19.962  1.00  0.00    -0.022 NA
ATOM     18  N   UNL A   1      33.244  24.778  20.605  1.00  0.00    -0.039 NA
BRANCH  15  19
ATOM     19  S   UNL A   1      31.438  26.722  23.461  1.00  0.00    -0.069 SA
BRANCH  19  20
ATOM     20  C   UNL A   1      31.545  28.493  23.135  1.00  0.00     0.198 C 
BRANCH  20  21
ATOM     21  C   UNL A   1      30.351  29.074  22.396  1.00  0.00     0.074 C 
ATOM     22  N   UNL A   1      29.360  29.556  21.783  1.00  0.00    -0.197 NA
ENDBRANCH  20  21
ENDBRANCH  19  20
ENDBRANCH  15  19
ENDBRANCH   9  14
ENDBRANCH   5   8
ENDBRANCH   3   4
ENDBRANCH   2   3
ENDBRANCH   1   2
BRANCH   1  23
ATOM     23  C   UNL A   1      40.542  20.403  26.745  1.00  0.00     0.002 C 
BRANCH  23  24
ATOM     24  C   UNL A   1      41.360  19.443  25.871  1.00  0.00     0.021 C 
BRANCH  24  25
ATOM     25  C   UNL A   1      42.802  19.283  26.331  1.00  0.00     0.116 C 
BRANCH  25  26
ATOM     26  N   UNL A   1      43.725  19.147  25.206  1.00  0.00    -0.352 N 
ATOM     27  C   UNL A   1      44.259  20.153  24.419  1.00  0.00     0.251 C 
ATOM     28  H   UNL A   1      44.002  18.229  24.981  1.00  0.00     0.163 HD
ATOM     29  O   UNL A   1      44.688  19.920  23.303  1.00  0.00    -0.269 OA
BRANCH  27  30
ATOM     30  C   UNL A   1      44.315  21.512  24.984  1.00  0.00     0.039 A 
ATOM     31  C   UNL A   1      43.387  22.497  24.628  1.00  0.00     0.014 A 
ATOM     32  C   UNL A   1      45.313  21.770  25.918  1.00  0.00     0.014 A 
ATOM     33  C   UNL A   1      43.427  23.725  25.286  1.00  0.00     0.010 A 
ATOM     34  C   UNL A   1      45.260  22.917  26.663  1.00  0.00     0.010 A 
ATOM     35  C   UNL A   1      44.359  23.921  26.316  1.00  0.00    -0.014 A 
BRANCH  35  36
ATOM     36  C   UNL A   1      44.308  25.100  27.180  1.00  0.00     0.031 A 
ATOM     37  C   UNL A   1      45.395  26.088  26.903  1.00  0.00     0.074 A 
ATOM     38  C   UNL A   1      43.204  25.376  27.915  1.00  0.00     0.049 A 
ATOM     39  N   UNL A   1      46.323  26.503  27.703  1.00  0.00    -0.248 NA
ATOM     40  C   UNL A   1      45.578  26.547  25.511  1.00  0.00     0.031 C 
ATOM     41  C   UNL A   1      41.962  24.591  27.986  1.00  0.00     0.029 A 
ATOM     42  N   UNL A   1      42.880  26.484  28.640  1.00  0.00    -0.354 N 
ATOM     43  C   UNL A   1      47.021  27.479  26.992  1.00  0.00     0.074 A 
ATOM     44  C   UNL A   1      46.683  27.288  25.608  1.00  0.00     0.031 C 
ATOM     45  C   UNL A   1      40.962  25.356  28.474  1.00  0.00     0.029 A 
ATOM     46  C   UNL A   1      41.516  26.621  28.910  1.00  0.00     0.049 A 
ATOM     47  H   UNL A   1      43.553  27.133  28.946  1.00  0.00     0.167 HD
ATOM     48  C   UNL A   1      47.567  28.554  27.627  1.00  0.00     0.037 A 
ATOM     49  C   UNL A   1      40.884  27.713  29.420  1.00  0.00     0.037 A 
ATOM     50  C   UNL A   1      47.686  28.305  29.042  1.00  0.00     0.049 A 
ATOM     51  C   UNL A   1      41.932  28.555  30.051  1.00  0.00     0.074 A 
ATOM     52  C   UNL A   1      48.318  27.349  29.813  1.00  0.00     0.029 A 
ATOM     53  N   UNL A   1      46.754  28.893  29.863  1.00  0.00    -0.354 N 
ATOM     54  N   UNL A   1      42.628  28.185  31.093  1.00  0.00    -0.248 NA
ATOM     55  C   UNL A   1      42.543  29.586  29.228  1.00  0.00     0.031 C 
ATOM     56  C   UNL A   1      47.414  27.083  30.883  1.00  0.00     0.029 A 
ATOM     57  C   UNL A   1      46.328  27.951  30.762  1.00  0.00     0.049 A 
ATOM     58  H   UNL A   1      46.447  29.827  29.813  1.00  0.00     0.167 HD
ATOM     59  C   UNL A   1      43.923  28.596  30.817  1.00  0.00     0.074 A 
ATOM     60  C   UNL A   1      43.794  29.520  29.689  1.00  0.00     0.031 C 
ATOM     61  C   UNL A   1      44.998  27.925  31.330  1.00  0.00     0.037 A 
BRANCH  48  62
ATOM     62  C   UNL A   1      47.590  29.960  27.057  1.00  0.00     0.058 A 
ATOM     63  C   UNL A   1      48.779  30.715  27.141  1.00  0.00     0.135 A 
ATOM     64  C   UNL A   1      46.434  30.695  26.708  1.00  0.00     0.135 A 
ATOM     65  F   UNL A   1      49.939  30.126  27.475  1.00  0.00    -0.206 F 
ATOM     66  C   UNL A   1      48.803  32.099  26.969  1.00  0.00     0.059 A 
ATOM     67  C   UNL A   1      46.445  32.066  26.478  1.00  0.00     0.059 A 
ATOM     68  F   UNL A   1      45.215  30.146  26.666  1.00  0.00    -0.206 F 
ATOM     69  C   UNL A   1      47.625  32.768  26.650  1.00  0.00     0.060 A 
BRANCH  69  70
ATOM     70  S   UNL A   1      47.630  34.563  26.511  1.00  0.00     0.124 S 
ATOM     71  O   UNL A   1      47.158  34.749  25.144  1.00  0.00    -0.237 OA
ATOM     72  O   UNL A   1      46.700  34.947  27.568  1.00  0.00    -0.237 OA
ATOM     73  O   UNL A   1      49.026  34.913  26.754  1.00  0.00    -0.744 OA
ENDBRANCH  69  70
ENDBRANCH  48  62
BRANCH  49  74
ATOM     74  C   UNL A   1      39.526  28.239  29.094  1.00  0.00     0.058 A 
ATOM     75  C   UNL A   1      38.502  28.289  30.059  1.00  0.00     0.135 A 
ATOM     76  C   UNL A   1      39.289  28.965  27.908  1.00  0.00     0.135 A 
ATOM     77  F   UNL A   1      38.648  27.649  31.229  1.00  0.00    -0.206 F 
ATOM     78  C   UNL A   1      37.333  29.045  29.877  1.00  0.00     0.059 A 
ATOM     79  C   UNL A   1      38.130  29.718  27.702  1.00  0.00     0.059 A 
ATOM     80  F   UNL A   1      40.220  29.041  26.947  1.00  0.00    -0.206 F 
ATOM     81  C   UNL A   1      37.165  29.773  28.701  1.00  0.00     0.060 A 
BRANCH  81  82
ATOM     82  S   UNL A   1      35.742  30.879  28.523  1.00  0.00     0.124 S 
ATOM     83  O   UNL A   1      34.766  30.014  27.869  1.00  0.00    -0.237 OA
ATOM     84  O   UNL A   1      35.451  31.234  29.907  1.00  0.00    -0.237 OA
ATOM     85  O   UNL A   1      36.260  31.968  27.699  1.00  0.00    -0.744 OA
ENDBRANCH  81  82
ENDBRANCH  49  74
BRANCH  61  86
ATOM     86  C   UNL A   1      44.763  26.937  32.445  1.00  0.00     0.058 A 
ATOM     87  C   UNL A   1      44.568  27.271  33.799  1.00  0.00     0.135 A 
ATOM     88  C   UNL A   1      44.570  25.595  32.088  1.00  0.00     0.135 A 
ATOM     89  F   UNL A   1      44.634  28.545  34.212  1.00  0.00    -0.206 F 
ATOM     90  C   UNL A   1      44.235  26.308  34.755  1.00  0.00     0.059 A 
ATOM     91  C   UNL A   1      44.207  24.624  33.015  1.00  0.00     0.059 A 
ATOM     92  F   UNL A   1      44.681  25.220  30.802  1.00  0.00    -0.206 F 
ATOM     93  C   UNL A   1      44.054  24.985  34.352  1.00  0.00     0.060 A 
BRANCH  93  94
ATOM     94  S   UNL A   1      43.563  23.745  35.570  1.00  0.00     0.124 S 
ATOM     95  O   UNL A   1      44.435  24.058  36.696  1.00  0.00    -0.237 OA
ATOM     96  O   UNL A   1      42.145  24.036  35.765  1.00  0.00    -0.237 OA
ATOM     97  O   UNL A   1      43.843  22.478  34.900  1.00  0.00    -0.744 OA
ENDBRANCH  93  94
ENDBRANCH  61  86
ENDBRANCH  35  36
ENDBRANCH  27  30
ENDBRANCH  25  26
ENDBRANCH  24  25
ENDBRANCH  23  24
ENDBRANCH   1  23
TORSDOF 20
ENDMDL
