MODEL 1
REMARK VINA RESULT:     -11.3      0.000      0.000
REMARK SMILES CC(=O)NCCc1c[nH]c2ccc(C(=O)NCCCCCCNC(=O)c3ccc(-c4c5nc(c(-c6c(F)cc(S(=O)(=O)[O-])cc6F)c6ccc([nH]6)c(-c6c(F)cc(S(=O)(=O)[O-])cc6F)c6nc(c(-c7c(F)cc(S(=O)(=O)[O-])cc7F)c7ccc4[nH]7)C=C6)C=C5)cc3)cc12
REMARK SMILES IDX 19 1 18 2 17 3 16 4 14 5 15 6 13 8 7 9 8 10 93 11 9 12 10 13
REMARK SMILES IDX 92 14 11 16 12 17 6 18 5 19 4 20 1 21 2 22 3 23 20 25 21 26
REMARK SMILES IDX 22 27 23 28 24 29 25 31 26 32 27 33 91 34 28 35 90 36 29 37
REMARK SMILES IDX 30 38 31 39 84 40 32 41 89 42 83 43 85 44 33 45 88 46 82 47
REMARK SMILES IDX 81 48 34 50 68 51 47 52 67 53 48 54 51 55 66 56 86 57 49 58
REMARK SMILES IDX 50 59 65 61 87 62 52 63 35 64 36 65 45 66 37 67 38 68 44 69
REMARK SMILES IDX 46 70 39 71 40 72 41 73 42 74 43 75 69 76 70 77 79 78 71 79
REMARK SMILES IDX 72 80 78 81 80 82 73 83 74 84 75 85 76 86 77 87 53 88 54 89
REMARK SMILES IDX 63 90 55 91 56 92 62 93 64 94 57 95 58 96 59 97 60 98 61 99
REMARK H PARENT 16 7 9 15 4 24 23 30 85 49 51 60
REMARK Flexibility Score: inf
ROOT
ATOM      1  C   UNL A   1      34.110  25.671  25.687  1.00  0.00     0.002 C 
ENDROOT
BRANCH   1   2
ATOM      2  C   UNL A   1      34.241  24.140  25.687  1.00  0.00     0.021 C 
BRANCH   2   3
ATOM      3  C   UNL A   1      33.946  23.519  24.320  1.00  0.00     0.116 C 
BRANCH   3   4
ATOM      4  N   UNL A   1      34.216  24.494  23.286  1.00  0.00    -0.352 N 
ATOM      5  C   UNL A   1      33.427  25.341  22.559  1.00  0.00     0.251 C 
ATOM      6  O   UNL A   1      33.974  25.932  21.625  1.00  0.00    -0.269 OA
ATOM      7  H   UNL A   1      35.173  24.563  23.058  1.00  0.00     0.163 HD
BRANCH   5   8
ATOM      8  C   UNL A   1      31.996  25.638  22.860  1.00  0.00     0.040 A 
ATOM      9  C   UNL A   1      29.555  28.591  22.594  1.00  0.00    -0.021 A 
ATOM     10  C   UNL A   1      28.293  28.417  23.132  1.00  0.00     0.087 A 
ATOM     11  C   UNL A   1      30.267  27.372  22.820  1.00  0.00     0.003 A 
ATOM     12  N   UNL A   1      28.216  27.150  23.650  1.00  0.00    -0.361 N 
ATOM     13  C   UNL A   1      29.399  26.481  23.443  1.00  0.00     0.046 A 
ATOM     14  C   UNL A   1      31.578  26.943  22.538  1.00  0.00     0.024 A 
ATOM     15  H   UNL A   1      27.428  26.774  24.104  1.00  0.00     0.166 HD
ATOM     16  C   UNL A   1      29.762  25.164  23.738  1.00  0.00     0.027 A 
ATOM     17  C   UNL A   1      31.062  24.752  23.402  1.00  0.00     0.016 A 
BRANCH   9  18
ATOM     18  C   UNL A   1      30.072  29.806  21.885  1.00  0.00     0.059 C 
BRANCH  18  19
ATOM     19  C   UNL A   1      28.966  30.705  21.326  1.00  0.00     0.120 C 
BRANCH  19  20
ATOM     20  N   UNL A   1      29.066  32.085  21.776  1.00  0.00    -0.356 N 
ATOM     21  C   UNL A   1      27.572  31.856  23.720  1.00  0.00     0.114 C 
ATOM     22  C   UNL A   1      28.473  32.685  22.846  1.00  0.00     0.216 C 
ATOM     23  O   UNL A   1      28.695  33.868  23.087  1.00  0.00    -0.275 OA
ATOM     24  H   UNL A   1      29.643  32.667  21.232  1.00  0.00     0.163 HD
ENDBRANCH  19  20
ENDBRANCH  18  19
ENDBRANCH   9  18
ENDBRANCH   5   8
ENDBRANCH   3   4
ENDBRANCH   2   3
ENDBRANCH   1   2
BRANCH   1  25
ATOM     25  C   UNL A   1      32.828  26.203  26.343  1.00  0.00     0.002 C 
BRANCH  25  26
ATOM     26  C   UNL A   1      32.737  27.730  26.425  1.00  0.00     0.021 C 
BRANCH  26  27
ATOM     27  C   UNL A   1      34.090  28.432  26.452  1.00  0.00     0.116 C 
BRANCH  27  28
ATOM     28  N   UNL A   1      33.939  29.870  26.610  1.00  0.00    -0.352 N 
ATOM     29  C   UNL A   1      34.629  30.728  27.429  1.00  0.00     0.251 C 
ATOM     30  H   UNL A   1      33.242  30.286  26.051  1.00  0.00     0.163 HD
ATOM     31  O   UNL A   1      34.205  31.862  27.627  1.00  0.00    -0.269 OA
BRANCH  29  32
ATOM     32  C   UNL A   1      35.879  30.276  28.075  1.00  0.00     0.039 A 
ATOM     33  C   UNL A   1      37.091  30.448  27.403  1.00  0.00     0.014 A 
ATOM     34  C   UNL A   1      35.850  29.666  29.333  1.00  0.00     0.014 A 
ATOM     35  C   UNL A   1      38.281  30.051  28.015  1.00  0.00     0.010 A 
ATOM     36  C   UNL A   1      37.043  29.338  29.971  1.00  0.00     0.010 A 
ATOM     37  C   UNL A   1      38.270  29.519  29.316  1.00  0.00    -0.014 A 
BRANCH  37  38
ATOM     38  C   UNL A   1      39.530  29.142  30.002  1.00  0.00     0.031 A 
ATOM     39  C   UNL A   1      39.995  29.909  31.210  1.00  0.00     0.074 A 
ATOM     40  C   UNL A   1      40.286  28.144  29.500  1.00  0.00     0.049 A 
ATOM     41  N   UNL A   1      41.089  29.763  31.910  1.00  0.00    -0.248 NA
ATOM     42  C   UNL A   1      39.126  31.003  31.675  1.00  0.00     0.031 C 
ATOM     43  C   UNL A   1      39.966  27.362  28.303  1.00  0.00     0.029 A 
ATOM     44  N   UNL A   1      41.480  27.623  29.927  1.00  0.00    -0.354 N 
ATOM     45  C   UNL A   1      41.049  30.751  32.887  1.00  0.00     0.074 A 
ATOM     46  C   UNL A   1      39.849  31.524  32.657  1.00  0.00     0.031 C 
ATOM     47  C   UNL A   1      40.929  26.448  28.105  1.00  0.00     0.029 A 
ATOM     48  C   UNL A   1      41.951  26.601  29.137  1.00  0.00     0.049 A 
ATOM     49  H   UNL A   1      41.958  27.950  30.723  1.00  0.00     0.167 HD
ATOM     50  C   UNL A   1      41.921  30.976  33.900  1.00  0.00     0.037 A 
ATOM     51  C   UNL A   1      43.081  25.873  29.227  1.00  0.00     0.037 A 
ATOM     52  C   UNL A   1      43.101  30.186  34.136  1.00  0.00     0.049 A 
ATOM     53  C   UNL A   1      44.032  26.139  30.362  1.00  0.00     0.074 A 
ATOM     54  C   UNL A   1      44.014  30.291  35.170  1.00  0.00     0.029 A 
ATOM     55  N   UNL A   1      43.534  29.146  33.325  1.00  0.00    -0.354 N 
ATOM     56  N   UNL A   1      43.943  27.032  31.320  1.00  0.00    -0.248 NA
ATOM     57  C   UNL A   1      45.233  25.297  30.434  1.00  0.00     0.031 C 
ATOM     58  C   UNL A   1      45.025  29.346  34.959  1.00  0.00     0.029 A 
ATOM     59  C   UNL A   1      44.715  28.617  33.822  1.00  0.00     0.049 A 
ATOM     60  H   UNL A   1      43.070  28.831  32.516  1.00  0.00     0.167 HD
ATOM     61  C   UNL A   1      45.063  26.843  32.121  1.00  0.00     0.074 A 
ATOM     62  C   UNL A   1      45.807  25.742  31.544  1.00  0.00     0.031 C 
ATOM     63  C   UNL A   1      45.444  27.521  33.232  1.00  0.00     0.037 A 
BRANCH  50  64
ATOM     64  C   UNL A   1      41.630  32.125  34.829  1.00  0.00     0.058 A 
ATOM     65  C   UNL A   1      42.208  33.391  34.641  1.00  0.00     0.135 A 
ATOM     66  C   UNL A   1      40.739  31.967  35.903  1.00  0.00     0.135 A 
ATOM     67  F   UNL A   1      43.079  33.595  33.639  1.00  0.00    -0.206 F 
ATOM     68  C   UNL A   1      41.940  34.450  35.503  1.00  0.00     0.059 A 
ATOM     69  C   UNL A   1      40.433  33.020  36.760  1.00  0.00     0.059 A 
ATOM     70  F   UNL A   1      40.157  30.779  36.130  1.00  0.00    -0.206 F 
ATOM     71  C   UNL A   1      41.051  34.254  36.560  1.00  0.00     0.060 A 
BRANCH  71  72
ATOM     72  S   UNL A   1      40.712  35.638  37.669  1.00  0.00     0.124 S 
ATOM     73  O   UNL A   1      39.764  36.418  36.879  1.00  0.00    -0.237 OA
ATOM     74  O   UNL A   1      40.159  34.969  38.842  1.00  0.00    -0.237 OA
ATOM     75  O   UNL A   1      42.023  36.251  37.859  1.00  0.00    -0.744 OA
ENDBRANCH  71  72
ENDBRANCH  50  64
BRANCH  51  76
ATOM     76  C   UNL A   1      43.361  24.810  28.226  1.00  0.00     0.058 A 
ATOM     77  C   UNL A   1      42.973  23.482  28.454  1.00  0.00     0.135 A 
ATOM     78  C   UNL A   1      44.001  25.104  27.011  1.00  0.00     0.135 A 
ATOM     79  F   UNL A   1      42.361  23.150  29.602  1.00  0.00    -0.206 F 
ATOM     80  C   UNL A   1      43.222  22.479  27.523  1.00  0.00     0.059 A 
ATOM     81  C   UNL A   1      44.238  24.124  26.054  1.00  0.00     0.059 A 
ATOM     82  F   UNL A   1      44.377  26.364  26.737  1.00  0.00    -0.206 F 
ATOM     83  C   UNL A   1      43.852  22.812  26.323  1.00  0.00     0.060 A 
BRANCH  83  84
ATOM     84  S   UNL A   1      44.124  21.513  25.098  1.00  0.00     0.124 S 
ATOM     85  O   UNL A   1      43.021  20.603  25.384  1.00  0.00    -0.237 OA
ATOM     86  O   UNL A   1      44.035  22.252  23.842  1.00  0.00    -0.237 OA
ATOM     87  O   UNL A   1      45.457  21.015  25.429  1.00  0.00    -0.744 OA
ENDBRANCH  83  84
ENDBRANCH  51  76
BRANCH  63  88
ATOM     88  C   UNL A   1      46.708  27.076  33.914  1.00  0.00     0.058 A 
ATOM     89  C   UNL A   1      47.953  27.641  33.598  1.00  0.00     0.135 A 
ATOM     90  C   UNL A   1      46.668  26.104  34.926  1.00  0.00     0.135 A 
ATOM     91  F   UNL A   1      48.049  28.571  32.633  1.00  0.00    -0.206 F 
ATOM     92  C   UNL A   1      49.118  27.240  34.244  1.00  0.00     0.059 A 
ATOM     93  C   UNL A   1      47.816  25.708  35.606  1.00  0.00     0.059 A 
ATOM     94  F   UNL A   1      45.501  25.538  35.274  1.00  0.00    -0.206 F 
ATOM     95  C   UNL A   1      49.039  26.273  35.248  1.00  0.00     0.060 A 
BRANCH  95  96
ATOM     96  S   UNL A   1      50.553  25.782  36.097  1.00  0.00     0.124 S 
ATOM     97  O   UNL A   1      50.280  24.382  36.400  1.00  0.00    -0.237 OA
ATOM     98  O   UNL A   1      51.573  26.024  35.081  1.00  0.00    -0.237 OA
ATOM     99  O   UNL A   1      50.603  26.677  37.249  1.00  0.00    -0.744 OA
ENDBRANCH  95  96
ENDBRANCH  63  88
ENDBRANCH  37  38
ENDBRANCH  29  32
ENDBRANCH  27  28
ENDBRANCH  26  27
ENDBRANCH  25  26
ENDBRANCH   1  25
TORSDOF 19
ENDMDL
MODEL 2
REMARK VINA RESULT:     -11.2      4.891     10.933
REMARK SMILES CC(=O)NCCc1c[nH]c2ccc(C(=O)NCCCCCCNC(=O)c3ccc(-c4c5nc(c(-c6c(F)cc(S(=O)(=O)[O-])cc6F)c6ccc([nH]6)c(-c6c(F)cc(S(=O)(=O)[O-])cc6F)c6nc(c(-c7c(F)cc(S(=O)(=O)[O-])cc7F)c7ccc4[nH]7)C=C6)C=C5)cc3)cc12
REMARK SMILES IDX 19 1 18 2 17 3 16 4 14 5 15 6 13 8 7 9 8 10 93 11 9 12 10 13
REMARK SMILES IDX 92 14 11 16 12 17 6 18 5 19 4 20 1 21 2 22 3 23 20 25 21 26
REMARK SMILES IDX 22 27 23 28 24 29 25 31 26 32 27 33 91 34 28 35 90 36 29 37
REMARK SMILES IDX 30 38 31 39 84 40 32 41 89 42 83 43 85 44 33 45 88 46 82 47
REMARK SMILES IDX 81 48 34 50 68 51 47 52 67 53 48 54 51 55 66 56 86 57 49 58
REMARK SMILES IDX 50 59 65 61 87 62 52 63 35 64 36 65 45 66 37 67 38 68 44 69
REMARK SMILES IDX 46 70 39 71 40 72 41 73 42 74 43 75 69 76 70 77 79 78 71 79
REMARK SMILES IDX 72 80 78 81 80 82 73 83 74 84 75 85 76 86 77 87 53 88 54 89
REMARK SMILES IDX 63 90 55 91 56 92 62 93 64 94 57 95 58 96 59 97 60 98 61 99
REMARK H PARENT 16 7 9 15 4 24 23 30 85 49 51 60
REMARK Flexibility Score: inf
ROOT
ATOM      1  C   UNL A   1      46.340  21.928  25.182  1.00  0.00     0.002 C 
ENDROOT
BRANCH   1   2
ATOM      2  C   UNL A   1      45.938  20.445  25.204  1.00  0.00     0.021 C 
BRANCH   2   3
ATOM      3  C   UNL A   1      44.647  20.167  24.431  1.00  0.00     0.116 C 
BRANCH   3   4
ATOM      4  N   UNL A   1      43.959  19.050  25.040  1.00  0.00    -0.352 N 
ATOM      5  C   UNL A   1      42.915  18.950  25.918  1.00  0.00     0.251 C 
ATOM      6  O   UNL A   1      42.684  17.825  26.366  1.00  0.00    -0.269 OA
ATOM      7  H   UNL A   1      44.318  18.175  24.763  1.00  0.00     0.163 HD
BRANCH   5   8
ATOM      8  C   UNL A   1      42.019  20.078  26.305  1.00  0.00     0.040 A 
ATOM      9  C   UNL A   1      38.418  21.245  25.650  1.00  0.00    -0.021 A 
ATOM     10  C   UNL A   1      38.052  22.477  26.159  1.00  0.00     0.087 A 
ATOM     11  C   UNL A   1      39.786  21.041  26.016  1.00  0.00     0.003 A 
ATOM     12  N   UNL A   1      39.128  23.007  26.823  1.00  0.00    -0.361 N 
ATOM     13  C   UNL A   1      40.190  22.134  26.777  1.00  0.00     0.046 A 
ATOM     14  C   UNL A   1      40.717  20.013  25.775  1.00  0.00     0.024 A 
ATOM     15  H   UNL A   1      39.139  23.885  27.268  1.00  0.00     0.166 HD
ATOM     16  C   UNL A   1      41.458  22.215  27.357  1.00  0.00     0.027 A 
ATOM     17  C   UNL A   1      42.349  21.151  27.137  1.00  0.00     0.016 A 
BRANCH   9  18
ATOM     18  C   UNL A   1      37.549  20.290  24.889  1.00  0.00     0.059 C 
BRANCH  18  19
ATOM     19  C   UNL A   1      36.053  20.582  25.029  1.00  0.00     0.120 C 
BRANCH  19  20
ATOM     20  N   UNL A   1      35.230  19.382  25.007  1.00  0.00    -0.356 N 
ATOM     21  C   UNL A   1      33.189  20.454  24.144  1.00  0.00     0.114 C 
ATOM     22  C   UNL A   1      33.931  19.237  24.621  1.00  0.00     0.216 C 
ATOM     23  O   UNL A   1      33.403  18.128  24.649  1.00  0.00    -0.275 OA
ATOM     24  H   UNL A   1      35.674  18.559  25.315  1.00  0.00     0.163 HD
ENDBRANCH  19  20
ENDBRANCH  18  19
ENDBRANCH   9  18
ENDBRANCH   5   8
ENDBRANCH   3   4
ENDBRANCH   2   3
ENDBRANCH   1   2
BRANCH   1  25
ATOM     25  C   UNL A   1      45.507  22.830  26.102  1.00  0.00     0.002 C 
BRANCH  25  26
ATOM     26  C   UNL A   1      45.079  24.161  25.478  1.00  0.00     0.021 C 
BRANCH  26  27
ATOM     27  C   UNL A   1      43.961  24.871  26.234  1.00  0.00     0.116 C 
BRANCH  27  28
ATOM     28  N   UNL A   1      42.746  24.945  25.439  1.00  0.00    -0.352 N 
ATOM     29  C   UNL A   1      41.524  25.474  25.772  1.00  0.00     0.251 C 
ATOM     30  H   UNL A   1      42.808  24.562  24.533  1.00  0.00     0.163 HD
ATOM     31  O   UNL A   1      40.539  25.226  25.084  1.00  0.00    -0.269 OA
BRANCH  29  32
ATOM     32  C   UNL A   1      41.401  26.334  26.968  1.00  0.00     0.039 A 
ATOM     33  C   UNL A   1      42.046  27.573  26.982  1.00  0.00     0.014 A 
ATOM     34  C   UNL A   1      40.666  25.909  28.078  1.00  0.00     0.014 A 
ATOM     35  C   UNL A   1      41.913  28.406  28.093  1.00  0.00     0.010 A 
ATOM     36  C   UNL A   1      40.475  26.771  29.155  1.00  0.00     0.010 A 
ATOM     37  C   UNL A   1      41.104  28.024  29.177  1.00  0.00    -0.014 A 
BRANCH  37  38
ATOM     38  C   UNL A   1      40.910  28.922  30.343  1.00  0.00     0.031 A 
ATOM     39  C   UNL A   1      41.752  28.752  31.579  1.00  0.00     0.074 A 
ATOM     40  C   UNL A   1      39.934  29.852  30.309  1.00  0.00     0.049 A 
ATOM     41  N   UNL A   1      41.695  29.402  32.712  1.00  0.00    -0.248 NA
ATOM     42  C   UNL A   1      42.775  27.694  31.544  1.00  0.00     0.031 C 
ATOM     43  C   UNL A   1      39.019  30.075  29.188  1.00  0.00     0.029 A 
ATOM     44  N   UNL A   1      39.543  30.775  31.245  1.00  0.00    -0.354 N 
ATOM     45  C   UNL A   1      42.661  28.826  33.529  1.00  0.00     0.074 A 
ATOM     46  C   UNL A   1      43.252  27.738  32.781  1.00  0.00     0.031 C 
ATOM     47  C   UNL A   1      38.189  31.085  29.492  1.00  0.00     0.029 A 
ATOM     48  C   UNL A   1      38.487  31.556  30.841  1.00  0.00     0.049 A 
ATOM     49  H   UNL A   1      39.977  30.869  32.123  1.00  0.00     0.167 HD
ATOM     50  C   UNL A   1      43.037  29.186  34.779  1.00  0.00     0.037 A 
ATOM     51  C   UNL A   1      37.826  32.537  31.487  1.00  0.00     0.037 A 
ATOM     52  C   UNL A   1      42.460  30.285  35.507  1.00  0.00     0.049 A 
ATOM     53  C   UNL A   1      38.265  32.923  32.874  1.00  0.00     0.074 A 
ATOM     54  C   UNL A   1      42.813  30.773  36.753  1.00  0.00     0.029 A 
ATOM     55  N   UNL A   1      41.404  31.067  35.058  1.00  0.00    -0.354 N 
ATOM     56  N   UNL A   1      39.229  32.413  33.605  1.00  0.00    -0.248 NA
ATOM     57  C   UNL A   1      37.533  34.020  33.521  1.00  0.00     0.031 C 
ATOM     58  C   UNL A   1      41.941  31.819  37.077  1.00  0.00     0.029 A 
ATOM     59  C   UNL A   1      41.077  32.017  36.012  1.00  0.00     0.049 A 
ATOM     60  H   UNL A   1      40.954  30.961  34.189  1.00  0.00     0.167 HD
ATOM     61  C   UNL A   1      39.233  33.142  34.788  1.00  0.00     0.074 A 
ATOM     62  C   UNL A   1      38.188  34.138  34.669  1.00  0.00     0.031 C 
ATOM     63  C   UNL A   1      40.030  33.000  35.877  1.00  0.00     0.037 A 
BRANCH  50  64
ATOM     64  C   UNL A   1      44.126  28.383  35.440  1.00  0.00     0.058 A 
ATOM     65  C   UNL A   1      43.837  27.284  36.264  1.00  0.00     0.135 A 
ATOM     66  C   UNL A   1      45.478  28.697  35.221  1.00  0.00     0.135 A 
ATOM     67  F   UNL A   1      42.561  26.948  36.520  1.00  0.00    -0.206 F 
ATOM     68  C   UNL A   1      44.845  26.546  36.876  1.00  0.00     0.059 A 
ATOM     69  C   UNL A   1      46.503  27.953  35.798  1.00  0.00     0.059 A 
ATOM     70  F   UNL A   1      45.813  29.736  34.442  1.00  0.00    -0.206 F 
ATOM     71  C   UNL A   1      46.176  26.888  36.637  1.00  0.00     0.060 A 
BRANCH  71  72
ATOM     72  S   UNL A   1      47.472  25.920  37.436  1.00  0.00     0.124 S 
ATOM     73  O   UNL A   1      47.721  26.706  38.641  1.00  0.00    -0.237 OA
ATOM     74  O   UNL A   1      46.817  24.633  37.644  1.00  0.00    -0.237 OA
ATOM     75  O   UNL A   1      48.552  25.919  36.454  1.00  0.00    -0.744 OA
ENDBRANCH  71  72
ENDBRANCH  50  64
BRANCH  51  76
ATOM     76  C   UNL A   1      36.697  33.236  30.818  1.00  0.00     0.058 A 
ATOM     77  C   UNL A   1      35.371  33.005  31.209  1.00  0.00     0.135 A 
ATOM     78  C   UNL A   1      36.923  34.168  29.792  1.00  0.00     0.135 A 
ATOM     79  F   UNL A   1      35.104  32.120  32.182  1.00  0.00    -0.206 F 
ATOM     80  C   UNL A   1      34.305  33.657  30.597  1.00  0.00     0.059 A 
ATOM     81  C   UNL A   1      35.876  34.852  29.183  1.00  0.00     0.059 A 
ATOM     82  F   UNL A   1      38.176  34.439  29.393  1.00  0.00    -0.206 F 
ATOM     83  C   UNL A   1      34.570  34.583  29.587  1.00  0.00     0.060 A 
BRANCH  83  84
ATOM     84  S   UNL A   1      33.184  35.463  28.835  1.00  0.00     0.124 S 
ATOM     85  O   UNL A   1      33.872  36.478  28.047  1.00  0.00    -0.237 OA
ATOM     86  O   UNL A   1      32.523  34.404  28.078  1.00  0.00    -0.237 OA
ATOM     87  O   UNL A   1      32.436  35.957  29.988  1.00  0.00    -0.744 OA
ENDBRANCH  83  84
ENDBRANCH  51  76
BRANCH  63  88
ATOM     88  C   UNL A   1      39.820  33.958  37.017  1.00  0.00     0.058 A 
ATOM     89  C   UNL A   1      40.516  35.174  37.095  1.00  0.00     0.135 A 
ATOM     90  C   UNL A   1      38.877  33.677  38.019  1.00  0.00     0.135 A 
ATOM     91  F   UNL A   1      41.434  35.489  36.166  1.00  0.00    -0.206 F 
ATOM     92  C   UNL A   1      40.305  36.066  38.141  1.00  0.00     0.059 A 
ATOM     93  C   UNL A   1      38.628  34.568  39.059  1.00  0.00     0.059 A 
ATOM     94  F   UNL A   1      38.176  32.533  37.986  1.00  0.00    -0.206 F 
ATOM     95  C   UNL A   1      39.357  35.755  39.118  1.00  0.00     0.060 A 
BRANCH  95  96
ATOM     96  S   UNL A   1      39.073  36.933  40.455  1.00  0.00     0.124 S 
ATOM     97  O   UNL A   1      38.159  37.878  39.824  1.00  0.00    -0.237 OA
ATOM     98  O   UNL A   1      38.494  36.090  41.496  1.00  0.00    -0.237 OA
ATOM     99  O   UNL A   1      40.408  37.447  40.745  1.00  0.00    -0.744 OA
ENDBRANCH  95  96
ENDBRANCH  63  88
ENDBRANCH  37  38
ENDBRANCH  29  32
ENDBRANCH  27  28
ENDBRANCH  26  27
ENDBRANCH  25  26
ENDBRANCH   1  25
TORSDOF 19
ENDMDL
MODEL 3
REMARK VINA RESULT:     -11.0      3.466      9.280
REMARK SMILES CC(=O)NCCc1c[nH]c2ccc(C(=O)NCCCCCCNC(=O)c3ccc(-c4c5nc(c(-c6c(F)cc(S(=O)(=O)[O-])cc6F)c6ccc([nH]6)c(-c6c(F)cc(S(=O)(=O)[O-])cc6F)c6nc(c(-c7c(F)cc(S(=O)(=O)[O-])cc7F)c7ccc4[nH]7)C=C6)C=C5)cc3)cc12
REMARK SMILES IDX 19 1 18 2 17 3 16 4 14 5 15 6 13 8 7 9 8 10 93 11 9 12 10 13
REMARK SMILES IDX 92 14 11 16 12 17 6 18 5 19 4 20 1 21 2 22 3 23 20 25 21 26
REMARK SMILES IDX 22 27 23 28 24 29 25 31 26 32 27 33 91 34 28 35 90 36 29 37
REMARK SMILES IDX 30 38 31 39 84 40 32 41 89 42 83 43 85 44 33 45 88 46 82 47
REMARK SMILES IDX 81 48 34 50 68 51 47 52 67 53 48 54 51 55 66 56 86 57 49 58
REMARK SMILES IDX 50 59 65 61 87 62 52 63 35 64 36 65 45 66 37 67 38 68 44 69
REMARK SMILES IDX 46 70 39 71 40 72 41 73 42 74 43 75 69 76 70 77 79 78 71 79
REMARK SMILES IDX 72 80 78 81 80 82 73 83 74 84 75 85 76 86 77 87 53 88 54 89
REMARK SMILES IDX 63 90 55 91 56 92 62 93 64 94 57 95 58 96 59 97 60 98 61 99
REMARK H PARENT 16 7 9 15 4 24 23 30 85 49 51 60
REMARK Flexibility Score: inf
ROOT
ATOM      1  C   UNL A   1      38.872  23.180  26.501  1.00  0.00     0.002 C 
ENDROOT
BRANCH   1   2
ATOM      2  C   UNL A   1      37.569  23.236  25.688  1.00  0.00     0.021 C 
BRANCH   2   3
ATOM      3  C   UNL A   1      36.856  21.884  25.614  1.00  0.00     0.116 C 
BRANCH   3   4
ATOM      4  N   UNL A   1      35.714  21.899  26.501  1.00  0.00    -0.352 N 
ATOM      5  C   UNL A   1      34.451  22.414  26.404  1.00  0.00     0.251 C 
ATOM      6  O   UNL A   1      33.770  22.391  27.431  1.00  0.00    -0.269 OA
ATOM      7  H   UNL A   1      35.881  21.441  27.357  1.00  0.00     0.163 HD
BRANCH   5   8
ATOM      8  C   UNL A   1      33.839  22.929  25.144  1.00  0.00     0.040 A 
ATOM      9  C   UNL A   1      33.194  26.308  23.435  1.00  0.00    -0.021 A 
ATOM     10  C   UNL A   1      32.454  26.293  22.267  1.00  0.00     0.087 A 
ATOM     11  C   UNL A   1      33.291  24.951  23.875  1.00  0.00     0.003 A 
ATOM     12  N   UNL A   1      32.121  24.994  21.983  1.00  0.00    -0.361 N 
ATOM     13  C   UNL A   1      32.648  24.152  22.934  1.00  0.00     0.046 A 
ATOM     14  C   UNL A   1      33.881  24.328  24.991  1.00  0.00     0.024 A 
ATOM     15  H   UNL A   1      31.583  24.705  21.212  1.00  0.00     0.166 HD
ATOM     16  C   UNL A   1      32.624  22.757  23.027  1.00  0.00     0.027 A 
ATOM     17  C   UNL A   1      33.262  22.163  24.129  1.00  0.00     0.016 A 
BRANCH   9  18
ATOM     18  C   UNL A   1      33.805  27.505  24.099  1.00  0.00     0.059 C 
BRANCH  18  19
ATOM     19  C   UNL A   1      32.865  28.711  24.169  1.00  0.00     0.120 C 
BRANCH  19  20
ATOM     20  N   UNL A   1      33.279  29.703  25.150  1.00  0.00    -0.356 N 
ATOM     21  C   UNL A   1      31.804  28.935  26.966  1.00  0.00     0.114 C 
ATOM     22  C   UNL A   1      32.852  29.873  26.433  1.00  0.00     0.216 C 
ATOM     23  O   UNL A   1      33.337  30.761  27.128  1.00  0.00    -0.275 OA
ATOM     24  H   UNL A   1      33.961  30.342  24.844  1.00  0.00     0.163 HD
ENDBRANCH  19  20
ENDBRANCH  18  19
ENDBRANCH   9  18
ENDBRANCH   5   8
ENDBRANCH   3   4
ENDBRANCH   2   3
ENDBRANCH   1   2
BRANCH   1  25
ATOM     25  C   UNL A   1      39.592  21.827  26.462  1.00  0.00     0.002 C 
BRANCH  25  26
ATOM     26  C   UNL A   1      41.121  21.913  26.503  1.00  0.00     0.021 C 
BRANCH  26  27
ATOM     27  C   UNL A   1      41.655  23.254  26.995  1.00  0.00     0.116 C 
BRANCH  27  28
ATOM     28  N   UNL A   1      42.036  24.113  25.886  1.00  0.00    -0.352 N 
ATOM     29  C   UNL A   1      41.996  25.482  25.798  1.00  0.00     0.251 C 
ATOM     30  H   UNL A   1      42.370  23.647  25.084  1.00  0.00     0.163 HD
ATOM     31  O   UNL A   1      42.111  26.031  24.706  1.00  0.00    -0.269 OA
BRANCH  29  32
ATOM     32  C   UNL A   1      41.807  26.288  27.022  1.00  0.00     0.039 A 
ATOM     33  C   UNL A   1      42.682  27.344  27.282  1.00  0.00     0.014 A 
ATOM     34  C   UNL A   1      40.777  25.988  27.919  1.00  0.00     0.014 A 
ATOM     35  C   UNL A   1      42.496  28.130  28.419  1.00  0.00     0.010 A 
ATOM     36  C   UNL A   1      40.549  26.818  29.015  1.00  0.00     0.010 A 
ATOM     37  C   UNL A   1      41.411  27.891  29.280  1.00  0.00    -0.014 A 
BRANCH  37  38
ATOM     38  C   UNL A   1      41.168  28.751  30.465  1.00  0.00     0.031 A 
ATOM     39  C   UNL A   1      41.989  28.571  31.714  1.00  0.00     0.074 A 
ATOM     40  C   UNL A   1      40.168  29.655  30.435  1.00  0.00     0.049 A 
ATOM     41  N   UNL A   1      41.890  29.188  32.863  1.00  0.00    -0.248 NA
ATOM     42  C   UNL A   1      43.040  27.541  31.674  1.00  0.00     0.031 C 
ATOM     43  C   UNL A   1      39.271  29.884  29.300  1.00  0.00     0.029 A 
ATOM     44  N   UNL A   1      39.733  30.542  31.386  1.00  0.00    -0.354 N 
ATOM     45  C   UNL A   1      42.853  28.616  33.684  1.00  0.00     0.074 A 
ATOM     46  C   UNL A   1      43.490  27.565  32.921  1.00  0.00     0.031 C 
ATOM     47  C   UNL A   1      38.407  30.863  29.613  1.00  0.00     0.029 A 
ATOM     48  C   UNL A   1      38.664  31.305  30.980  1.00  0.00     0.049 A 
ATOM     49  H   UNL A   1      40.145  30.624  32.276  1.00  0.00     0.167 HD
ATOM     50  C   UNL A   1      43.193  28.952  34.952  1.00  0.00     0.037 A 
ATOM     51  C   UNL A   1      37.964  32.250  31.637  1.00  0.00     0.037 A 
ATOM     52  C   UNL A   1      42.571  30.015  35.696  1.00  0.00     0.049 A 
ATOM     53  C   UNL A   1      38.362  32.610  33.043  1.00  0.00     0.074 A 
ATOM     54  C   UNL A   1      42.884  30.479  36.962  1.00  0.00     0.029 A 
ATOM     55  N   UNL A   1      41.504  30.781  35.245  1.00  0.00    -0.354 N 
ATOM     56  N   UNL A   1      39.324  32.107  33.781  1.00  0.00    -0.248 NA
ATOM     57  C   UNL A   1      37.587  33.669  33.702  1.00  0.00     0.031 C 
ATOM     58  C   UNL A   1      41.978  31.491  37.294  1.00  0.00     0.029 A 
ATOM     59  C   UNL A   1      41.131  31.695  36.217  1.00  0.00     0.049 A 
ATOM     60  H   UNL A   1      41.075  30.686  34.364  1.00  0.00     0.167 HD
ATOM     61  C   UNL A   1      39.283  32.803  34.983  1.00  0.00     0.074 A 
ATOM     62  C   UNL A   1      38.214  33.773  34.868  1.00  0.00     0.031 C 
ATOM     63  C   UNL A   1      40.060  32.653  36.085  1.00  0.00     0.037 A 
BRANCH  50  64
ATOM     64  C   UNL A   1      44.290  28.161  35.614  1.00  0.00     0.058 A 
ATOM     65  C   UNL A   1      44.015  27.016  36.380  1.00  0.00     0.135 A 
ATOM     66  C   UNL A   1      45.635  28.534  35.457  1.00  0.00     0.135 A 
ATOM     67  F   UNL A   1      42.746  26.621  36.576  1.00  0.00    -0.206 F 
ATOM     68  C   UNL A   1      45.030  26.288  36.993  1.00  0.00     0.059 A 
ATOM     69  C   UNL A   1      46.668  27.803  36.037  1.00  0.00     0.059 A 
ATOM     70  F   UNL A   1      45.956  29.619  34.737  1.00  0.00    -0.206 F 
ATOM     71  C   UNL A   1      46.354  26.690  36.816  1.00  0.00     0.060 A 
BRANCH  71  72
ATOM     72  S   UNL A   1      47.660  25.735  37.618  1.00  0.00     0.124 S 
ATOM     73  O   UNL A   1      47.043  24.415  37.703  1.00  0.00    -0.237 OA
ATOM     74  O   UNL A   1      48.762  25.859  36.671  1.00  0.00    -0.237 OA
ATOM     75  O   UNL A   1      47.850  26.421  38.892  1.00  0.00    -0.744 OA
ENDBRANCH  71  72
ENDBRANCH  50  64
BRANCH  51  76
ATOM     76  C   UNL A   1      36.830  32.937  30.963  1.00  0.00     0.058 A 
ATOM     77  C   UNL A   1      37.055  33.933  30.003  1.00  0.00     0.135 A 
ATOM     78  C   UNL A   1      35.498  32.594  31.248  1.00  0.00     0.135 A 
ATOM     79  F   UNL A   1      38.311  34.299  29.699  1.00  0.00    -0.206 F 
ATOM     80  C   UNL A   1      36.004  34.578  29.359  1.00  0.00     0.059 A 
ATOM     81  C   UNL A   1      34.431  33.206  30.599  1.00  0.00     0.059 A 
ATOM     82  F   UNL A   1      35.229  31.633  32.147  1.00  0.00    -0.206 F 
ATOM     83  C   UNL A   1      34.694  34.203  29.662  1.00  0.00     0.060 A 
BRANCH  83  84
ATOM     84  S   UNL A   1      33.338  35.009  28.784  1.00  0.00     0.124 S 
ATOM     85  O   UNL A   1      32.523  35.502  29.888  1.00  0.00    -0.237 OA
ATOM     86  O   UNL A   1      34.040  36.024  28.003  1.00  0.00    -0.237 OA
ATOM     87  O   UNL A   1      32.754  33.923  28.001  1.00  0.00    -0.744 OA
ENDBRANCH  83  84
ENDBRANCH  51  76
BRANCH  63  88
ATOM     88  C   UNL A   1      39.800  33.574  37.245  1.00  0.00     0.058 A 
ATOM     89  C   UNL A   1      40.468  34.801  37.375  1.00  0.00     0.135 A 
ATOM     90  C   UNL A   1      38.838  33.245  38.213  1.00  0.00     0.135 A 
ATOM     91  F   UNL A   1      41.403  35.161  36.480  1.00  0.00    -0.206 F 
ATOM     92  C   UNL A   1      40.211  35.659  38.440  1.00  0.00     0.059 A 
ATOM     93  C   UNL A   1      38.543  34.101  39.271  1.00  0.00     0.059 A 
ATOM     94  F   UNL A   1      38.163  32.088  38.130  1.00  0.00    -0.206 F 
ATOM     95  C   UNL A   1      39.245  35.300  39.382  1.00  0.00     0.060 A 
BRANCH  95  96
ATOM     96  S   UNL A   1      38.901  36.434  40.743  1.00  0.00     0.124 S 
ATOM     97  O   UNL A   1      37.879  35.703  41.484  1.00  0.00    -0.237 OA
ATOM     98  O   UNL A   1      40.202  36.542  41.396  1.00  0.00    -0.237 OA
ATOM     99  O   UNL A   1      38.444  37.645  40.069  1.00  0.00    -0.744 OA
ENDBRANCH  95  96
ENDBRANCH  63  88
ENDBRANCH  37  38
ENDBRANCH  29  32
ENDBRANCH  27  28
ENDBRANCH  26  27
ENDBRANCH  25  26
ENDBRANCH   1  25
TORSDOF 19
ENDMDL
