MODEL 1
REMARK VINA RESULT:     -13.0      0.000      0.000
REMARK SMILES Cc1oc2cc3c(cc2c1C)[C@H](C)[C@@H](CC(=O)N[C@H](CC1=c2ccccc2=NC1)C(=O)NCCCCCCNC(=O)c1ccc(-c2c4nc(c(-c5c(F)cc(S(=O)(=O)[O-])cc5F)c5ccc([nH]5)c(-c5c(F)cc(S(=O)(=O)[O-])cc5F)c5nc(c(-c6c(F)cc(S(=O)(=O)[O-])cc6F)c6ccc2[nH]6)C=C5)C=C4)cc1)C(=O)O3
REMARK SMILES IDX 35 1 34 2 33 3 32 4 30 5 31 6 19 8 18 9 16 10 17 11 15 13
REMARK SMILES IDX 14 14 1 15 2 16 3 17 10 18 4 19 9 20 11 21 5 22 8 23 6 24
REMARK SMILES IDX 7 25 110 26 12 27 108 28 13 29 109 30 20 31 21 32 22 33
REMARK SMILES IDX 29 34 23 35 27 36 28 37 24 38 26 39 25 40 36 41 37 42 38 43
REMARK SMILES IDX 39 44 40 45 41 47 42 48 43 49 107 50 44 51 106 52 45 53
REMARK SMILES IDX 46 54 47 55 100 56 48 57 105 58 99 59 101 60 49 61 104 62
REMARK SMILES IDX 98 63 97 64 50 66 84 67 63 68 83 69 64 70 67 71 82 72 102 73
REMARK SMILES IDX 65 74 66 75 81 77 103 78 68 79 51 80 52 81 61 82 53 83 54 84
REMARK SMILES IDX 60 85 62 86 55 87 56 88 57 89 58 90 59 91 85 92 86 93 95 94
REMARK SMILES IDX 87 95 88 96 94 97 96 98 89 99 90 100 91 101 92 102 93 103
REMARK SMILES IDX 69 104 70 105 79 106 71 107 72 108 78 109 80 110 73 111
REMARK SMILES IDX 74 112 75 113 76 114 77 115
REMARK H PARENT 32 7 18 12 39 46 101 65 67 76
REMARK Flexibility Score: inf
ROOT
ATOM      1  C   UNL A   1      34.206  28.894  27.134  1.00  0.00     0.002 C 
ENDROOT
BRANCH   1   2
ATOM      2  C   UNL A   1      33.714  29.144  25.702  1.00  0.00     0.021 C 
BRANCH   2   3
ATOM      3  C   UNL A   1      34.469  28.078  24.669  1.00  0.00     0.116 C 
BRANCH   3   4
ATOM      4  N   UNL A   1      33.738  27.125  23.030  1.00  0.00    -0.354 N 
ATOM      5  C   UNL A   1      33.059  26.086  22.365  1.00  0.00     0.242 C 
ATOM      6  O   UNL A   1      33.217  26.153  21.130  1.00  0.00    -0.273 OA
ATOM      7  H   UNL A   1      34.011  27.716  22.292  1.00  0.00     0.163 HD
BRANCH   5   8
ATOM      8  C   UNL A   1      32.141  24.927  22.898  1.00  0.00     0.175 C 
BRANCH   8   9
ATOM      9  N   UNL A   1      32.408  23.548  22.440  1.00  0.00    -0.344 N 
ATOM     10  C   UNL A   1      31.974  22.356  22.909  1.00  0.00     0.221 C 
ATOM     11  O   UNL A   1      32.065  21.357  22.203  1.00  0.00    -0.275 OA
ATOM     12  H   UNL A   1      33.003  23.487  21.659  1.00  0.00     0.164 HD
BRANCH  10  13
ATOM     13  C   UNL A   1      31.422  22.297  24.294  1.00  0.00     0.116 C 
BRANCH  13  14
ATOM     14  C   UNL A   1      32.490  21.860  25.312  1.00  0.00     0.116 C 
ATOM     15  C   UNL A   1      41.387  22.323  27.305  1.00  0.00     0.088 C 
ATOM     16  C   UNL A   1      40.044  22.532  26.722  1.00  0.00     0.105 A 
ATOM     17  O   UNL A   1      39.550  21.466  26.052  1.00  0.00    -0.461 OA
ATOM     18  C   UNL A   1      39.120  23.561  26.739  1.00  0.00    -0.002 A 
ATOM     19  C   UNL A   1      38.277  21.755  25.668  1.00  0.00     0.138 A 
ATOM     20  C   UNL A   1      37.953  23.080  26.029  1.00  0.00     0.024 A 
ATOM     21  C   UNL A   1      39.252  24.865  27.438  1.00  0.00     0.049 C 
ATOM     22  C   UNL A   1      37.469  20.763  25.098  1.00  0.00     0.095 A 
ATOM     23  C   UNL A   1      36.655  23.659  25.801  1.00  0.00     0.020 A 
ATOM     24  C   UNL A   1      36.185  21.235  24.948  1.00  0.00     0.138 A 
ATOM     25  C   UNL A   1      35.686  22.795  25.314  1.00  0.00    -0.001 A 
ATOM     26  O   UNL A   1      34.929  19.919  24.905  1.00  0.00    -0.426 OA
ATOM     27  C   UNL A   1      33.845  23.284  25.349  1.00  0.00     0.035 C 
ATOM     28  C   UNL A   1      33.157  19.988  25.162  1.00  0.00     0.315 C 
ATOM     29  C   UNL A   1      33.496  24.287  26.462  1.00  0.00     0.014 C 
ATOM     30  O   UNL A   1      32.551  18.940  25.388  1.00  0.00    -0.251 OA
ENDBRANCH  13  14
ENDBRANCH  10  13
ENDBRANCH   8   9
BRANCH   8  31
ATOM     31  C   UNL A   1      30.593  25.120  22.889  1.00  0.00     0.068 C 
BRANCH  31  32
ATOM     32  C   UNL A   1      29.821  26.112  23.734  1.00  0.00    -0.037 C 
ATOM     33  C   UNL A   1      29.604  27.366  23.335  1.00  0.00     0.001 A 
ATOM     34  C   UNL A   1      30.280  26.148  25.174  1.00  0.00     0.174 C 
ATOM     35  C   UNL A   1      28.346  28.011  23.071  1.00  0.00     0.010 A 
ATOM     36  C   UNL A   1      30.414  28.124  24.313  1.00  0.00     0.065 A 
ATOM     37  N   UNL A   1      30.873  27.497  25.349  1.00  0.00    -0.280 NA
ATOM     38  C   UNL A   1      28.326  29.352  22.997  1.00  0.00     0.001 A 
ATOM     39  C   UNL A   1      30.570  29.550  23.945  1.00  0.00     0.028 A 
ATOM     40  C   UNL A   1      29.555  30.098  23.247  1.00  0.00     0.002 A 
ENDBRANCH  31  32
ENDBRANCH   8  31
ENDBRANCH   5   8
ENDBRANCH   3   4
ENDBRANCH   2   3
ENDBRANCH   1   2
BRANCH   1  41
ATOM     41  C   UNL A   1      35.125  30.000  27.626  1.00  0.00     0.002 C 
BRANCH  41  42
ATOM     42  C   UNL A   1      36.594  29.693  27.348  1.00  0.00     0.021 C 
BRANCH  42  43
ATOM     43  C   UNL A   1      37.445  29.689  28.623  1.00  0.00     0.116 C 
BRANCH  43  44
ATOM     44  N   UNL A   1      36.633  29.685  29.843  1.00  0.00    -0.352 N 
ATOM     45  C   UNL A   1      37.077  29.581  31.145  1.00  0.00     0.251 C 
ATOM     46  H   UNL A   1      35.660  29.768  29.718  1.00  0.00     0.163 HD
ATOM     47  O   UNL A   1      36.310  29.418  32.083  1.00  0.00    -0.269 OA
BRANCH  45  48
ATOM     48  C   UNL A   1      38.536  29.632  31.331  1.00  0.00     0.039 A 
ATOM     49  C   UNL A   1      39.090  30.881  31.617  1.00  0.00     0.014 A 
ATOM     50  C   UNL A   1      39.311  28.567  30.862  1.00  0.00     0.014 A 
ATOM     51  C   UNL A   1      40.378  31.140  31.193  1.00  0.00     0.010 A 
ATOM     52  C   UNL A   1      40.634  28.816  30.507  1.00  0.00     0.010 A 
ATOM     53  C   UNL A   1      41.129  30.124  30.591  1.00  0.00    -0.014 A 
BRANCH  53  54
ATOM     54  C   UNL A   1      42.477  30.518  30.182  1.00  0.00     0.031 A 
ATOM     55  C   UNL A   1      43.463  30.240  31.259  1.00  0.00     0.074 A 
ATOM     56  C   UNL A   1      42.894  30.572  28.902  1.00  0.00     0.049 A 
ATOM     57  N   UNL A   1      43.948  29.050  31.443  1.00  0.00    -0.248 NA
ATOM     58  C   UNL A   1      43.668  31.153  32.383  1.00  0.00     0.031 C 
ATOM     59  C   UNL A   1      42.455  29.668  27.832  1.00  0.00     0.029 A 
ATOM     60  N   UNL A   1      43.942  31.270  28.351  1.00  0.00    -0.354 N 
ATOM     61  C   UNL A   1      44.471  29.022  32.718  1.00  0.00     0.074 A 
ATOM     62  C   UNL A   1      44.277  30.347  33.266  1.00  0.00     0.031 C 
ATOM     63  C   UNL A   1      43.358  29.722  26.830  1.00  0.00     0.029 A 
ATOM     64  C   UNL A   1      44.336  30.769  27.112  1.00  0.00     0.049 A 
ATOM     65  H   UNL A   1      44.369  32.043  28.786  1.00  0.00     0.167 HD
ATOM     66  C   UNL A   1      45.020  27.904  33.255  1.00  0.00     0.037 A 
ATOM     67  C   UNL A   1      45.620  30.792  26.660  1.00  0.00     0.037 A 
ATOM     68  C   UNL A   1      45.081  26.766  32.388  1.00  0.00     0.049 A 
ATOM     69  C   UNL A   1      46.239  29.729  27.541  1.00  0.00     0.074 A 
ATOM     70  C   UNL A   1      44.374  25.602  32.183  1.00  0.00     0.029 A 
ATOM     71  N   UNL A   1      46.055  26.764  31.416  1.00  0.00    -0.354 N 
ATOM     72  N   UNL A   1      46.140  28.437  27.369  1.00  0.00    -0.248 NA
ATOM     73  C   UNL A   1      46.675  30.128  28.884  1.00  0.00     0.031 C 
ATOM     74  C   UNL A   1      44.681  25.199  30.844  1.00  0.00     0.029 A 
ATOM     75  C   UNL A   1      45.520  26.172  30.301  1.00  0.00     0.049 A 
ATOM     76  H   UNL A   1      46.968  27.122  31.506  1.00  0.00     0.167 HD
ATOM     77  C   UNL A   1      46.227  27.881  28.649  1.00  0.00     0.074 A 
ATOM     78  C   UNL A   1      46.586  28.973  29.529  1.00  0.00     0.031 C 
ATOM     79  C   UNL A   1      45.822  26.615  28.956  1.00  0.00     0.037 A 
BRANCH  66  80
ATOM     80  C   UNL A   1      45.707  27.869  34.556  1.00  0.00     0.058 A 
ATOM     81  C   UNL A   1      47.070  28.196  34.575  1.00  0.00     0.135 A 
ATOM     82  C   UNL A   1      45.127  27.342  35.714  1.00  0.00     0.135 A 
ATOM     83  F   UNL A   1      47.651  28.715  33.480  1.00  0.00    -0.206 F 
ATOM     84  C   UNL A   1      47.858  27.941  35.684  1.00  0.00     0.059 A 
ATOM     85  C   UNL A   1      45.898  27.086  36.845  1.00  0.00     0.059 A 
ATOM     86  F   UNL A   1      43.822  27.026  35.738  1.00  0.00    -0.206 F 
ATOM     87  C   UNL A   1      47.268  27.359  36.804  1.00  0.00     0.060 A 
BRANCH  87  88
ATOM     88  S   UNL A   1      48.348  26.917  38.182  1.00  0.00     0.124 S 
ATOM     89  O   UNL A   1      47.596  25.840  38.815  1.00  0.00    -0.237 OA
ATOM     90  O   UNL A   1      49.570  26.520  37.490  1.00  0.00    -0.237 OA
ATOM     91  O   UNL A   1      48.441  28.155  38.950  1.00  0.00    -0.744 OA
ENDBRANCH  87  88
ENDBRANCH  66  80
BRANCH  67  92
ATOM     92  C   UNL A   1      46.179  32.175  26.480  1.00  0.00     0.058 A 
ATOM     93  C   UNL A   1      45.302  33.192  26.038  1.00  0.00     0.135 A 
ATOM     94  C   UNL A   1      47.495  32.578  26.750  1.00  0.00     0.135 A 
ATOM     95  F   UNL A   1      44.061  32.883  25.626  1.00  0.00    -0.206 F 
ATOM     96  C   UNL A   1      45.653  34.538  26.039  1.00  0.00     0.059 A 
ATOM     97  C   UNL A   1      47.867  33.925  26.783  1.00  0.00     0.059 A 
ATOM     98  F   UNL A   1      48.452  31.680  27.022  1.00  0.00    -0.206 F 
ATOM     99  C   UNL A   1      46.926  34.900  26.466  1.00  0.00     0.060 A 
BRANCH  99 100
ATOM    100  S   UNL A   1      47.296  36.654  26.672  1.00  0.00     0.124 S 
ATOM    101  O   UNL A   1      48.073  36.659  27.906  1.00  0.00    -0.237 OA
ATOM    102  O   UNL A   1      48.038  36.946  25.449  1.00  0.00    -0.237 OA
ATOM    103  O   UNL A   1      45.975  37.270  26.756  1.00  0.00    -0.744 OA
ENDBRANCH  99 100
ENDBRANCH  67  92
BRANCH  79 104
ATOM    104  C   UNL A   1      45.473  25.740  27.799  1.00  0.00     0.058 A 
ATOM    105  C   UNL A   1      46.451  24.920  27.222  1.00  0.00     0.135 A 
ATOM    106  C   UNL A   1      44.160  25.642  27.311  1.00  0.00     0.135 A 
ATOM    107  F   UNL A   1      47.721  24.969  27.660  1.00  0.00    -0.206 F 
ATOM    108  C   UNL A   1      46.134  24.003  26.226  1.00  0.00     0.059 A 
ATOM    109  C   UNL A   1      43.815  24.713  26.332  1.00  0.00     0.059 A 
ATOM    110  F   UNL A   1      43.182  26.418  27.807  1.00  0.00    -0.206 F 
ATOM    111  C   UNL A   1      44.808  23.893  25.801  1.00  0.00     0.060 A 
BRANCH 111 112
ATOM    112  S   UNL A   1      44.389  22.605  24.609  1.00  0.00     0.124 S 
ATOM    113  O   UNL A   1      42.985  22.889  24.334  1.00  0.00    -0.237 OA
ATOM    114  O   UNL A   1      45.318  22.877  23.516  1.00  0.00    -0.237 OA
ATOM    115  O   UNL A   1      44.644  21.366  25.339  1.00  0.00    -0.744 OA
ENDBRANCH 111 112
ENDBRANCH  79 104
ENDBRANCH  53  54
ENDBRANCH  45  48
ENDBRANCH  43  44
ENDBRANCH  42  43
ENDBRANCH  41  42
ENDBRANCH   1  41
TORSDOF 21
ENDMDL
MODEL 2
REMARK VINA RESULT:     -12.9      2.442      7.562
REMARK SMILES Cc1oc2cc3c(cc2c1C)[C@H](C)[C@@H](CC(=O)N[C@H](CC1=c2ccccc2=NC1)C(=O)NCCCCCCNC(=O)c1ccc(-c2c4nc(c(-c5c(F)cc(S(=O)(=O)[O-])cc5F)c5ccc([nH]5)c(-c5c(F)cc(S(=O)(=O)[O-])cc5F)c5nc(c(-c6c(F)cc(S(=O)(=O)[O-])cc6F)c6ccc2[nH]6)C=C5)C=C4)cc1)C(=O)O3
REMARK SMILES IDX 35 1 34 2 33 3 32 4 30 5 31 6 19 8 18 9 16 10 17 11 15 13
REMARK SMILES IDX 14 14 1 15 2 16 3 17 10 18 4 19 9 20 11 21 5 22 8 23 6 24
REMARK SMILES IDX 7 25 110 26 12 27 108 28 13 29 109 30 20 31 21 32 22 33
REMARK SMILES IDX 29 34 23 35 27 36 28 37 24 38 26 39 25 40 36 41 37 42 38 43
REMARK SMILES IDX 39 44 40 45 41 47 42 48 43 49 107 50 44 51 106 52 45 53
REMARK SMILES IDX 46 54 47 55 100 56 48 57 105 58 99 59 101 60 49 61 104 62
REMARK SMILES IDX 98 63 97 64 50 66 84 67 63 68 83 69 64 70 67 71 82 72 102 73
REMARK SMILES IDX 65 74 66 75 81 77 103 78 68 79 51 80 52 81 61 82 53 83 54 84
REMARK SMILES IDX 60 85 62 86 55 87 56 88 57 89 58 90 59 91 85 92 86 93 95 94
REMARK SMILES IDX 87 95 88 96 94 97 96 98 89 99 90 100 91 101 92 102 93 103
REMARK SMILES IDX 69 104 70 105 79 106 71 107 72 108 78 109 80 110 73 111
REMARK SMILES IDX 74 112 75 113 76 114 77 115
REMARK H PARENT 32 7 18 12 39 46 101 65 67 76
REMARK Flexibility Score: inf
ROOT
ATOM      1  C   UNL A   1      36.341  30.792  27.979  1.00  0.00     0.002 C 
ENDROOT
BRANCH   1   2
ATOM      2  C   UNL A   1      36.048  29.395  27.415  1.00  0.00     0.021 C 
BRANCH   2   3
ATOM      3  C   UNL A   1      34.423  29.068  27.578  1.00  0.00     0.116 C 
BRANCH   3   4
ATOM      4  N   UNL A   1      32.869  29.590  26.378  1.00  0.00    -0.354 N 
ATOM      5  C   UNL A   1      31.890  29.350  25.396  1.00  0.00     0.242 C 
ATOM      6  O   UNL A   1      31.345  30.408  25.025  1.00  0.00    -0.273 OA
ATOM      7  H   UNL A   1      32.717  30.534  26.614  1.00  0.00     0.163 HD
BRANCH   5   8
ATOM      8  C   UNL A   1      31.365  28.019  24.744  1.00  0.00     0.175 C 
BRANCH   8   9
ATOM      9  N   UNL A   1      32.064  27.494  23.553  1.00  0.00    -0.344 N 
ATOM     10  C   UNL A   1      33.220  26.803  23.434  1.00  0.00     0.221 C 
ATOM     11  O   UNL A   1      33.463  26.201  22.392  1.00  0.00    -0.275 OA
ATOM     12  H   UNL A   1      31.610  27.679  22.700  1.00  0.00     0.164 HD
BRANCH  10  13
ATOM     13  C   UNL A   1      34.181  26.822  24.576  1.00  0.00     0.116 C 
BRANCH  13  14
ATOM     14  C   UNL A   1      34.003  25.595  25.487  1.00  0.00     0.116 C 
ATOM     15  C   UNL A   1      32.818  16.543  25.498  1.00  0.00     0.088 C 
ATOM     16  C   UNL A   1      33.093  17.944  25.113  1.00  0.00     0.105 A 
ATOM     17  O   UNL A   1      32.026  18.771  25.202  1.00  0.00    -0.461 OA
ATOM     18  C   UNL A   1      34.218  18.648  24.723  1.00  0.00    -0.002 A 
ATOM     19  C   UNL A   1      32.444  20.038  24.929  1.00  0.00     0.138 A 
ATOM     20  C   UNL A   1      33.808  20.030  24.573  1.00  0.00     0.024 A 
ATOM     21  C   UNL A   1      35.598  18.117  24.588  1.00  0.00     0.049 C 
ATOM     22  C   UNL A   1      31.576  21.122  25.111  1.00  0.00     0.095 A 
ATOM     23  C   UNL A   1      34.549  21.229  24.279  1.00  0.00     0.020 A 
ATOM     24  C   UNL A   1      32.260  22.303  24.937  1.00  0.00     0.138 A 
ATOM     25  C   UNL A   1      33.873  22.421  24.487  1.00  0.00    -0.001 A 
ATOM     26  O   UNL A   1      31.503  23.714  25.800  1.00  0.00    -0.426 OA
ATOM     27  C   UNL A   1      34.818  24.074  24.545  1.00  0.00     0.035 C 
ATOM     28  C   UNL A   1      32.187  25.307  26.256  1.00  0.00     0.315 C 
ATOM     29  C   UNL A   1      36.284  23.930  24.990  1.00  0.00     0.014 C 
ATOM     30  O   UNL A   1      31.597  25.984  27.098  1.00  0.00    -0.251 OA
ENDBRANCH  13  14
ENDBRANCH  10  13
ENDBRANCH   8   9
BRANCH   8  31
ATOM     31  C   UNL A   1      29.836  27.851  24.487  1.00  0.00     0.068 C 
BRANCH  31  32
ATOM     32  C   UNL A   1      29.083  28.365  23.277  1.00  0.00    -0.037 C 
ATOM     33  C   UNL A   1      29.086  29.654  22.934  1.00  0.00     0.001 A 
ATOM     34  C   UNL A   1      27.659  27.862  23.207  1.00  0.00     0.174 C 
ATOM     35  C   UNL A   1      29.590  30.252  21.727  1.00  0.00     0.010 A 
ATOM     36  C   UNL A   1      27.675  30.021  23.180  1.00  0.00     0.065 A 
ATOM     37  N   UNL A   1      26.820  29.072  23.392  1.00  0.00    -0.280 NA
ATOM     38  C   UNL A   1      29.208  31.507  21.436  1.00  0.00     0.001 A 
ATOM     39  C   UNL A   1      27.447  31.483  23.129  1.00  0.00     0.028 A 
ATOM     40  C   UNL A   1      28.259  32.184  22.312  1.00  0.00     0.002 A 
ENDBRANCH  31  32
ENDBRANCH   8  31
ENDBRANCH   5   8
ENDBRANCH   3   4
ENDBRANCH   2   3
ENDBRANCH   1   2
BRANCH   1  41
ATOM     41  C   UNL A   1      35.128  31.399  28.666  1.00  0.00     0.002 C 
BRANCH  41  42
ATOM     42  C   UNL A   1      34.843  32.817  28.181  1.00  0.00     0.021 C 
BRANCH  42  43
ATOM     43  C   UNL A   1      35.971  33.795  28.529  1.00  0.00     0.116 C 
BRANCH  43  44
ATOM     44  N   UNL A   1      35.781  34.434  29.833  1.00  0.00    -0.352 N 
ATOM     45  C   UNL A   1      36.340  34.062  31.039  1.00  0.00     0.251 C 
ATOM     46  H   UNL A   1      35.187  35.219  29.851  1.00  0.00     0.163 HD
ATOM     47  O   UNL A   1      35.987  34.557  32.100  1.00  0.00    -0.269 OA
BRANCH  45  48
ATOM     48  C   UNL A   1      37.356  33.000  30.974  1.00  0.00     0.039 A 
ATOM     49  C   UNL A   1      37.289  32.005  31.950  1.00  0.00     0.014 A 
ATOM     50  C   UNL A   1      38.513  33.221  30.220  1.00  0.00     0.014 A 
ATOM     51  C   UNL A   1      38.462  31.396  32.349  1.00  0.00     0.010 A 
ATOM     52  C   UNL A   1      39.676  32.545  30.577  1.00  0.00     0.010 A 
ATOM     53  C   UNL A   1      39.662  31.706  31.698  1.00  0.00    -0.014 A 
BRANCH  53  54
ATOM     54  C   UNL A   1      40.836  30.999  32.210  1.00  0.00     0.031 A 
ATOM     55  C   UNL A   1      40.896  29.612  31.680  1.00  0.00     0.074 A 
ATOM     56  C   UNL A   1      41.973  31.607  32.601  1.00  0.00     0.049 A 
ATOM     57  N   UNL A   1      41.354  29.360  30.491  1.00  0.00    -0.248 NA
ATOM     58  C   UNL A   1      40.130  28.517  32.273  1.00  0.00     0.031 C 
ATOM     59  C   UNL A   1      42.532  32.823  31.998  1.00  0.00     0.029 A 
ATOM     60  N   UNL A   1      42.965  31.154  33.437  1.00  0.00    -0.354 N 
ATOM     61  C   UNL A   1      40.899  28.106  30.143  1.00  0.00     0.074 A 
ATOM     62  C   UNL A   1      40.144  27.618  31.278  1.00  0.00     0.031 C 
ATOM     63  C   UNL A   1      43.839  32.900  32.326  1.00  0.00     0.029 A 
ATOM     64  C   UNL A   1      44.164  31.846  33.282  1.00  0.00     0.049 A 
ATOM     65  H   UNL A   1      42.842  30.417  34.078  1.00  0.00     0.167 HD
ATOM     66  C   UNL A   1      41.157  27.548  28.935  1.00  0.00     0.037 A 
ATOM     67  C   UNL A   1      45.392  31.279  33.445  1.00  0.00     0.037 A 
ATOM     68  C   UNL A   1      41.991  28.319  28.062  1.00  0.00     0.049 A 
ATOM     69  C   UNL A   1      45.463  30.421  32.201  1.00  0.00     0.074 A 
ATOM     70  C   UNL A   1      41.834  29.153  26.978  1.00  0.00     0.029 A 
ATOM     71  N   UNL A   1      43.339  28.336  28.330  1.00  0.00    -0.354 N 
ATOM     72  N   UNL A   1      45.751  30.838  30.996  1.00  0.00    -0.248 NA
ATOM     73  C   UNL A   1      44.819  29.103  32.246  1.00  0.00     0.031 C 
ATOM     74  C   UNL A   1      43.017  29.958  26.942  1.00  0.00     0.029 A 
ATOM     75  C   UNL A   1      43.799  29.595  28.038  1.00  0.00     0.049 A 
ATOM     76  H   UNL A   1      43.876  27.583  28.668  1.00  0.00     0.167 HD
ATOM     77  C   UNL A   1      45.076  29.973  30.129  1.00  0.00     0.074 A 
ATOM     78  C   UNL A   1      44.549  28.913  30.961  1.00  0.00     0.031 C 
ATOM     79  C   UNL A   1      44.821  30.258  28.819  1.00  0.00     0.037 A 
BRANCH  66  80
ATOM     80  C   UNL A   1      40.805  26.164  28.577  1.00  0.00     0.058 A 
ATOM     81  C   UNL A   1      41.781  25.178  28.776  1.00  0.00     0.135 A 
ATOM     82  C   UNL A   1      39.645  25.828  27.874  1.00  0.00     0.135 A 
ATOM     83  F   UNL A   1      42.902  25.471  29.458  1.00  0.00    -0.206 F 
ATOM     84  C   UNL A   1      41.649  23.912  28.233  1.00  0.00     0.059 A 
ATOM     85  C   UNL A   1      39.484  24.557  27.327  1.00  0.00     0.059 A 
ATOM     86  F   UNL A   1      38.683  26.742  27.671  1.00  0.00    -0.206 F 
ATOM     87  C   UNL A   1      40.509  23.620  27.486  1.00  0.00     0.060 A 
BRANCH  87  88
ATOM     88  S   UNL A   1      40.429  22.006  26.682  1.00  0.00     0.124 S 
ATOM     89  O   UNL A   1      39.096  22.034  26.091  1.00  0.00    -0.237 OA
ATOM     90  O   UNL A   1      41.544  22.081  25.744  1.00  0.00    -0.237 OA
ATOM     91  O   UNL A   1      40.606  21.068  27.787  1.00  0.00    -0.744 OA
ENDBRANCH  87  88
ENDBRANCH  66  80
BRANCH  67  92
ATOM     92  C   UNL A   1      45.653  30.778  34.837  1.00  0.00     0.058 A 
ATOM     93  C   UNL A   1      45.303  31.617  35.920  1.00  0.00     0.135 A 
ATOM     94  C   UNL A   1      46.179  29.524  35.181  1.00  0.00     0.135 A 
ATOM     95  F   UNL A   1      44.918  32.885  35.696  1.00  0.00    -0.206 F 
ATOM     96  C   UNL A   1      45.303  31.178  37.240  1.00  0.00     0.059 A 
ATOM     97  C   UNL A   1      46.167  29.049  36.495  1.00  0.00     0.059 A 
ATOM     98  F   UNL A   1      46.691  28.709  34.248  1.00  0.00    -0.206 F 
ATOM     99  C   UNL A   1      45.688  29.870  37.512  1.00  0.00     0.060 A 
BRANCH  99 100
ATOM    100  S   UNL A   1      45.475  29.245  39.192  1.00  0.00     0.124 S 
ATOM    101  O   UNL A   1      44.894  27.928  38.956  1.00  0.00    -0.237 OA
ATOM    102  O   UNL A   1      46.848  29.256  39.687  1.00  0.00    -0.237 OA
ATOM    103  O   UNL A   1      44.586  30.226  39.806  1.00  0.00    -0.744 OA
ENDBRANCH  99 100
ENDBRANCH  67  92
BRANCH  79 104
ATOM    104  C   UNL A   1      45.498  31.469  28.268  1.00  0.00     0.058 A 
ATOM    105  C   UNL A   1      46.738  31.347  27.628  1.00  0.00     0.135 A 
ATOM    106  C   UNL A   1      44.891  32.734  28.291  1.00  0.00     0.135 A 
ATOM    107  F   UNL A   1      47.356  30.155  27.571  1.00  0.00    -0.206 F 
ATOM    108  C   UNL A   1      47.337  32.430  26.996  1.00  0.00     0.059 A 
ATOM    109  C   UNL A   1      45.461  33.827  27.642  1.00  0.00     0.059 A 
ATOM    110  F   UNL A   1      43.712  32.921  28.909  1.00  0.00    -0.206 F 
ATOM    111  C   UNL A   1      46.681  33.662  26.991  1.00  0.00     0.060 A 
BRANCH 111 112
ATOM    112  S   UNL A   1      47.404  35.021  26.049  1.00  0.00     0.124 S 
ATOM    113  O   UNL A   1      48.239  34.313  25.084  1.00  0.00    -0.237 OA
ATOM    114  O   UNL A   1      46.223  35.683  25.501  1.00  0.00    -0.237 OA
ATOM    115  O   UNL A   1      48.129  35.790  27.057  1.00  0.00    -0.744 OA
ENDBRANCH 111 112
ENDBRANCH  79 104
ENDBRANCH  53  54
ENDBRANCH  45  48
ENDBRANCH  43  44
ENDBRANCH  42  43
ENDBRANCH  41  42
ENDBRANCH   1  41
TORSDOF 21
ENDMDL
MODEL 3
REMARK VINA RESULT:     -12.5      7.509     15.939
REMARK SMILES Cc1oc2cc3c(cc2c1C)[C@H](C)[C@@H](CC(=O)N[C@H](CC1=c2ccccc2=NC1)C(=O)NCCCCCCNC(=O)c1ccc(-c2c4nc(c(-c5c(F)cc(S(=O)(=O)[O-])cc5F)c5ccc([nH]5)c(-c5c(F)cc(S(=O)(=O)[O-])cc5F)c5nc(c(-c6c(F)cc(S(=O)(=O)[O-])cc6F)c6ccc2[nH]6)C=C5)C=C4)cc1)C(=O)O3
REMARK SMILES IDX 35 1 34 2 33 3 32 4 30 5 31 6 19 8 18 9 16 10 17 11 15 13
REMARK SMILES IDX 14 14 1 15 2 16 3 17 10 18 4 19 9 20 11 21 5 22 8 23 6 24
REMARK SMILES IDX 7 25 110 26 12 27 108 28 13 29 109 30 20 31 21 32 22 33
REMARK SMILES IDX 29 34 23 35 27 36 28 37 24 38 26 39 25 40 36 41 37 42 38 43
REMARK SMILES IDX 39 44 40 45 41 47 42 48 43 49 107 50 44 51 106 52 45 53
REMARK SMILES IDX 46 54 47 55 100 56 48 57 105 58 99 59 101 60 49 61 104 62
REMARK SMILES IDX 98 63 97 64 50 66 84 67 63 68 83 69 64 70 67 71 82 72 102 73
REMARK SMILES IDX 65 74 66 75 81 77 103 78 68 79 51 80 52 81 61 82 53 83 54 84
REMARK SMILES IDX 60 85 62 86 55 87 56 88 57 89 58 90 59 91 85 92 86 93 95 94
REMARK SMILES IDX 87 95 88 96 94 97 96 98 89 99 90 100 91 101 92 102 93 103
REMARK SMILES IDX 69 104 70 105 79 106 71 107 72 108 78 109 80 110 73 111
REMARK SMILES IDX 74 112 75 113 76 114 77 115
REMARK H PARENT 32 7 18 12 39 46 101 65 67 76
REMARK Flexibility Score: inf
ROOT
ATOM      1  C   UNL A   1      41.880  40.924  25.512  1.00  0.00     0.002 C 
ENDROOT
BRANCH   1   2
ATOM      2  C   UNL A   1      41.561  41.964  24.430  1.00  0.00     0.021 C 
BRANCH   2   3
ATOM      3  C   UNL A   1      42.749  41.923  23.264  1.00  0.00     0.116 C 
BRANCH   3   4
ATOM      4  N   UNL A   1      42.716  42.621  21.356  1.00  0.00    -0.354 N 
ATOM      5  C   UNL A   1      43.259  43.284  20.240  1.00  0.00     0.242 C 
ATOM      6  O   UNL A   1      42.400  43.470  19.355  1.00  0.00    -0.273 OA
ATOM      7  H   UNL A   1      41.830  42.339  21.035  1.00  0.00     0.163 HD
BRANCH   5   8
ATOM      8  C   UNL A   1      44.718  43.776  19.921  1.00  0.00     0.175 C 
BRANCH   8   9
ATOM      9  N   UNL A   1      45.815  42.787  19.939  1.00  0.00    -0.344 N 
ATOM     10  C   UNL A   1      46.619  42.370  20.944  1.00  0.00     0.221 C 
ATOM     11  O   UNL A   1      47.255  41.328  20.819  1.00  0.00    -0.275 OA
ATOM     12  H   UNL A   1      45.991  42.358  19.071  1.00  0.00     0.164 HD
BRANCH  10  13
ATOM     13  C   UNL A   1      46.725  43.218  22.167  1.00  0.00     0.116 C 
BRANCH  13  14
ATOM     14  C   UNL A   1      46.011  42.572  23.368  1.00  0.00     0.116 C 
ATOM     15  C   UNL A   1      44.961  43.019  32.425  1.00  0.00     0.088 C 
ATOM     16  C   UNL A   1      45.303  43.301  31.014  1.00  0.00     0.105 A 
ATOM     17  O   UNL A   1      46.205  42.450  30.474  1.00  0.00    -0.461 OA
ATOM     18  C   UNL A   1      44.874  44.215  30.068  1.00  0.00    -0.002 A 
ATOM     19  C   UNL A   1      46.342  42.754  29.154  1.00  0.00     0.138 A 
ATOM     20  C   UNL A   1      45.564  43.888  28.837  1.00  0.00     0.024 A 
ATOM     21  C   UNL A   1      43.833  45.259  30.246  1.00  0.00     0.049 C 
ATOM     22  C   UNL A   1      47.092  41.924  28.312  1.00  0.00     0.095 A 
ATOM     23  C   UNL A   1      45.462  44.420  27.503  1.00  0.00     0.020 A 
ATOM     24  C   UNL A   1      46.951  42.331  27.005  1.00  0.00     0.138 A 
ATOM     25  C   UNL A   1      46.078  43.677  26.508  1.00  0.00    -0.001 A 
ATOM     26  O   UNL A   1      47.251  41.007  25.796  1.00  0.00    -0.426 OA
ATOM     27  C   UNL A   1      45.695  44.009  24.672  1.00  0.00     0.035 C 
ATOM     28  C   UNL A   1      46.791  40.878  24.068  1.00  0.00     0.315 C 
ATOM     29  C   UNL A   1      44.300  44.611  24.433  1.00  0.00     0.014 C 
ATOM     30  O   UNL A   1      46.828  39.772  23.528  1.00  0.00    -0.251 OA
ENDBRANCH  13  14
ENDBRANCH  10  13
ENDBRANCH   8   9
BRANCH   8  31
ATOM     31  C   UNL A   1      45.254  45.065  20.618  1.00  0.00     0.068 C 
BRANCH  31  32
ATOM     32  C   UNL A   1      45.742  46.312  19.911  1.00  0.00    -0.037 C 
ATOM     33  C   UNL A   1      44.959  47.377  19.729  1.00  0.00     0.001 A 
ATOM     34  C   UNL A   1      46.448  46.018  18.608  1.00  0.00     0.174 C 
ATOM     35  C   UNL A   1      45.135  48.710  20.241  1.00  0.00     0.010 A 
ATOM     36  C   UNL A   1      44.800  47.371  18.259  1.00  0.00     0.065 A 
ATOM     37  N   UNL A   1      45.567  46.594  17.561  1.00  0.00    -0.280 NA
ATOM     38  C   UNL A   1      44.422  49.701  19.682  1.00  0.00     0.001 A 
ATOM     39  C   UNL A   1      43.751  48.305  17.793  1.00  0.00     0.028 A 
ATOM     40  C   UNL A   1      43.552  49.402  18.550  1.00  0.00     0.002 A 
ENDBRANCH  31  32
ENDBRANCH   8  31
ENDBRANCH   5   8
ENDBRANCH   3   4
ENDBRANCH   2   3
ENDBRANCH   1   2
BRANCH   1  41
ATOM     41  C   UNL A   1      43.330  40.992  25.965  1.00  0.00     0.002 C 
BRANCH  41  42
ATOM     42  C   UNL A   1      43.547  40.299  27.306  1.00  0.00     0.021 C 
BRANCH  42  43
ATOM     43  C   UNL A   1      42.823  38.951  27.394  1.00  0.00     0.116 C 
BRANCH  43  44
ATOM     44  N   UNL A   1      43.524  37.886  26.673  1.00  0.00    -0.352 N 
ATOM     45  C   UNL A   1      43.708  36.579  27.078  1.00  0.00     0.251 C 
ATOM     46  H   UNL A   1      43.907  38.130  25.799  1.00  0.00     0.163 HD
ATOM     47  O   UNL A   1      44.452  35.812  26.482  1.00  0.00    -0.269 OA
BRANCH  45  48
ATOM     48  C   UNL A   1      42.989  36.179  28.297  1.00  0.00     0.039 A 
ATOM     49  C   UNL A   1      43.733  36.126  29.477  1.00  0.00     0.014 A 
ATOM     50  C   UNL A   1      41.756  35.531  28.169  1.00  0.00     0.014 A 
ATOM     51  C   UNL A   1      43.363  35.215  30.446  1.00  0.00     0.010 A 
ATOM     52  C   UNL A   1      41.350  34.671  29.185  1.00  0.00     0.010 A 
ATOM     53  C   UNL A   1      42.202  34.451  30.275  1.00  0.00    -0.014 A 
BRANCH  53  54
ATOM     54  C   UNL A   1      41.915  33.520  31.366  1.00  0.00     0.031 A 
ATOM     55  C   UNL A   1      40.478  33.566  31.741  1.00  0.00     0.074 A 
ATOM     56  C   UNL A   1      42.628  32.405  31.615  1.00  0.00     0.049 A 
ATOM     57  N   UNL A   1      39.579  32.925  31.057  1.00  0.00    -0.248 NA
ATOM     58  C   UNL A   1      39.937  34.589  32.634  1.00  0.00     0.031 C 
ATOM     59  C   UNL A   1      43.263  31.562  30.595  1.00  0.00     0.029 A 
ATOM     60  N   UNL A   1      42.737  31.676  32.775  1.00  0.00    -0.354 N 
ATOM     61  C   UNL A   1      38.359  33.486  31.373  1.00  0.00     0.074 A 
ATOM     62  C   UNL A   1      38.627  34.513  32.356  1.00  0.00     0.031 C 
ATOM     63  C   UNL A   1      43.506  30.348  31.134  1.00  0.00     0.029 A 
ATOM     64  C   UNL A   1      43.201  30.380  32.561  1.00  0.00     0.049 A 
ATOM     65  H   UNL A   1      42.511  32.032  33.665  1.00  0.00     0.167 HD
ATOM     66  C   UNL A   1      37.201  33.081  30.796  1.00  0.00     0.037 A 
ATOM     67  C   UNL A   1      42.825  29.307  33.312  1.00  0.00     0.037 A 
ATOM     68  C   UNL A   1      37.315  31.986  29.880  1.00  0.00     0.049 A 
ATOM     69  C   UNL A   1      41.403  29.122  32.829  1.00  0.00     0.074 A 
ATOM     70  C   UNL A   1      37.366  31.799  28.517  1.00  0.00     0.029 A 
ATOM     71  N   UNL A   1      37.474  30.729  30.415  1.00  0.00    -0.354 N 
ATOM     72  N   UNL A   1      41.040  28.543  31.714  1.00  0.00    -0.248 NA
ATOM     73  C   UNL A   1      40.362  29.952  33.444  1.00  0.00     0.031 C 
ATOM     74  C   UNL A   1      37.991  30.525  28.329  1.00  0.00     0.029 A 
ATOM     75  C   UNL A   1      38.326  30.037  29.593  1.00  0.00     0.049 A 
ATOM     76  H   UNL A   1      37.053  30.389  31.238  1.00  0.00     0.167 HD
ATOM     77  C   UNL A   1      39.838  29.155  31.348  1.00  0.00     0.074 A 
ATOM     78  C   UNL A   1      39.463  29.989  32.470  1.00  0.00     0.031 C 
ATOM     79  C   UNL A   1      39.312  29.102  30.090  1.00  0.00     0.037 A 
BRANCH  66  80
ATOM     80  C   UNL A   1      35.870  33.558  31.202  1.00  0.00     0.058 A 
ATOM     81  C   UNL A   1      35.149  34.326  30.277  1.00  0.00     0.135 A 
ATOM     82  C   UNL A   1      35.386  33.457  32.510  1.00  0.00     0.135 A 
ATOM     83  F   UNL A   1      35.584  34.432  29.009  1.00  0.00    -0.206 F 
ATOM     84  C   UNL A   1      34.020  35.034  30.650  1.00  0.00     0.059 A 
ATOM     85  C   UNL A   1      34.247  34.152  32.907  1.00  0.00     0.059 A 
ATOM     86  F   UNL A   1      36.044  32.723  33.423  1.00  0.00    -0.206 F 
ATOM     87  C   UNL A   1      33.593  34.963  31.975  1.00  0.00     0.060 A 
BRANCH  87  88
ATOM     88  S   UNL A   1      32.199  36.002  32.459  1.00  0.00     0.124 S 
ATOM     89  O   UNL A   1      31.952  36.757  31.236  1.00  0.00    -0.237 OA
ATOM     90  O   UNL A   1      31.189  35.006  32.807  1.00  0.00    -0.237 OA
ATOM     91  O   UNL A   1      32.724  36.774  33.581  1.00  0.00    -0.744 OA
ENDBRANCH  87  88
ENDBRANCH  66  80
BRANCH  67  92
ATOM     92  C   UNL A   1      43.223  29.404  34.757  1.00  0.00     0.058 A 
ATOM     93  C   UNL A   1      44.048  28.385  35.287  1.00  0.00     0.135 A 
ATOM     94  C   UNL A   1      42.891  30.442  35.640  1.00  0.00     0.135 A 
ATOM     95  F   UNL A   1      44.311  27.283  34.564  1.00  0.00    -0.206 F 
ATOM     96  C   UNL A   1      44.646  28.479  36.540  1.00  0.00     0.059 A 
ATOM     97  C   UNL A   1      43.496  30.574  36.893  1.00  0.00     0.059 A 
ATOM     98  F   UNL A   1      41.993  31.377  35.302  1.00  0.00    -0.206 F 
ATOM     99  C   UNL A   1      44.405  29.608  37.316  1.00  0.00     0.060 A 
BRANCH  99 100
ATOM    100  S   UNL A   1      45.353  29.822  38.836  1.00  0.00     0.124 S 
ATOM    101  O   UNL A   1      44.830  31.085  39.346  1.00  0.00    -0.237 OA
ATOM    102  O   UNL A   1      44.982  28.627  39.587  1.00  0.00    -0.237 OA
ATOM    103  O   UNL A   1      46.736  29.856  38.369  1.00  0.00    -0.744 OA
ENDBRANCH  99 100
ENDBRANCH  67  92
BRANCH  79 104
ATOM    104  C   UNL A   1      39.972  28.156  29.143  1.00  0.00     0.058 A 
ATOM    105  C   UNL A   1      40.999  28.609  28.305  1.00  0.00     0.135 A 
ATOM    106  C   UNL A   1      39.656  26.789  29.118  1.00  0.00     0.135 A 
ATOM    107  F   UNL A   1      41.346  29.907  28.298  1.00  0.00    -0.206 F 
ATOM    108  C   UNL A   1      41.718  27.732  27.501  1.00  0.00     0.059 A 
ATOM    109  C   UNL A   1      40.380  25.889  28.340  1.00  0.00     0.059 A 
ATOM    110  F   UNL A   1      38.665  26.297  29.881  1.00  0.00    -0.206 F 
ATOM    111  C   UNL A   1      41.415  26.370  27.541  1.00  0.00     0.060 A 
BRANCH 111 112
ATOM    112  S   UNL A   1      42.448  25.228  26.599  1.00  0.00     0.124 S 
ATOM    113  O   UNL A   1      43.790  25.602  27.032  1.00  0.00    -0.237 OA
ATOM    114  O   UNL A   1      41.972  23.926  27.058  1.00  0.00    -0.237 OA
ATOM    115  O   UNL A   1      42.128  25.545  25.209  1.00  0.00    -0.744 OA
ENDBRANCH 111 112
ENDBRANCH  79 104
ENDBRANCH  53  54
ENDBRANCH  45  48
ENDBRANCH  43  44
ENDBRANCH  42  43
ENDBRANCH  41  42
ENDBRANCH   1  41
TORSDOF 21
ENDMDL
