MODEL 1
REMARK VINA RESULT:     -12.2      0.000      0.000
REMARK SMILES C=CC[C@]1(C(=O)NCCCCCCNC(=O)c2ccc(-c3c4nc(c(-c5c(F)cc(S(=O)(=O)[O-])cc5F)c5ccc([nH]5)c(-c5c(F)cc(S(=O)(=O)[O-])cc5F)c5nc(c(-c6c(F)cc(S(=O)(=O)[O-])cc6F)c6ccc3[nH]6)C=C5)C=C4)cc2)c2ccccc2C(=O)N1Cc1ccc([N+](=O)[O-])cc1
REMARK SMILES IDX 10 1 9 2 8 3 7 4 5 5 6 6 4 8 83 9 91 10 84 11 88 12 89 13
REMARK SMILES IDX 85 14 87 15 90 16 86 17 3 18 2 19 1 20 92 21 93 22 94 23
REMARK SMILES IDX 101 24 95 25 100 26 96 27 97 28 98 29 99 30 11 31 12 32
REMARK SMILES IDX 13 33 14 34 15 35 16 37 17 38 18 39 82 40 19 41 81 42 20 43
REMARK SMILES IDX 21 44 22 45 75 46 23 47 80 48 74 49 76 50 24 51 79 52 73 53
REMARK SMILES IDX 72 54 25 56 59 57 38 58 58 59 39 60 42 61 57 62 77 63 40 64
REMARK SMILES IDX 41 65 56 67 78 68 43 69 26 70 27 71 36 72 28 73 29 74 35 75
REMARK SMILES IDX 37 76 30 77 31 78 32 79 33 80 34 81 60 82 61 83 70 84 62 85
REMARK SMILES IDX 63 86 69 87 71 88 64 89 65 90 66 91 67 92 68 93 44 94 45 95
REMARK SMILES IDX 54 96 46 97 47 98 53 99 55 100 48 101 49 102 50 103 51 104
REMARK SMILES IDX 52 105
REMARK H PARENT 7 7 14 36 76 55 42 66
REMARK Flexibility Score: inf
ROOT
ATOM      1  C   UNL A   1      32.368  29.600  26.925  1.00  0.00     0.002 C 
ENDROOT
BRANCH   1   2
ATOM      2  C   UNL A   1      31.585  28.331  27.271  1.00  0.00     0.021 C 
BRANCH   2   3
ATOM      3  C   UNL A   1      32.323  27.044  26.919  1.00  0.00     0.116 C 
BRANCH   3   4
ATOM      4  N   UNL A   1      31.399  25.936  26.762  1.00  0.00    -0.354 N 
ATOM      5  C   UNL A   1      31.473  24.810  25.993  1.00  0.00     0.251 C 
ATOM      6  O   UNL A   1      30.457  24.101  25.972  1.00  0.00    -0.272 OA
ATOM      7  H   UNL A   1      30.580  26.009  27.302  1.00  0.00     0.163 HD
BRANCH   5   8
ATOM      8  C   UNL A   1      32.707  24.481  25.084  1.00  0.00     0.151 C 
ATOM      9  C   UNL A   1      32.587  23.048  24.594  1.00  0.00     0.000 A 
ATOM     10  N   UNL A   1      32.754  25.237  23.808  1.00  0.00    -0.315 N 
ATOM     11  C   UNL A   1      32.388  21.880  25.317  1.00  0.00     0.007 A 
ATOM     12  C   UNL A   1      32.666  23.014  23.202  1.00  0.00     0.046 A 
ATOM     13  C   UNL A   1      32.808  24.392  22.706  1.00  0.00     0.255 C 
ATOM     14  C   UNL A   1      32.252  20.682  24.610  1.00  0.00     0.000 A 
ATOM     15  C   UNL A   1      32.533  21.841  22.484  1.00  0.00     0.014 A 
ATOM     16  O   UNL A   1      32.917  24.696  21.534  1.00  0.00    -0.269 OA
ATOM     17  C   UNL A   1      32.321  20.663  23.205  1.00  0.00     0.001 A 
BRANCH   8  18
ATOM     18  C   UNL A   1      34.028  24.650  25.906  1.00  0.00     0.070 C 
BRANCH  18  19
ATOM     19  C   UNL A   1      35.307  24.234  25.208  1.00  0.00    -0.031 C 
ATOM     20  C   UNL A   1      36.422  23.829  25.825  1.00  0.00     0.004 C 
ENDBRANCH  18  19
ENDBRANCH   8  18
BRANCH  10  21
ATOM     21  C   UNL A   1      32.964  26.680  23.699  1.00  0.00     0.157 C 
BRANCH  21  22
ATOM     22  C   UNL A   1      31.753  27.476  23.259  1.00  0.00    -0.028 A 
ATOM     23  C   UNL A   1      30.457  26.967  23.446  1.00  0.00     0.012 A 
ATOM     24  C   UNL A   1      31.899  28.744  22.673  1.00  0.00     0.012 A 
ATOM     25  C   UNL A   1      29.331  27.726  23.102  1.00  0.00     0.086 A 
ATOM     26  C   UNL A   1      30.784  29.527  22.363  1.00  0.00     0.086 A 
ATOM     27  C   UNL A   1      29.502  29.015  22.586  1.00  0.00     0.269 A 
BRANCH  27  28
ATOM     28  N   UNL A   1      28.333  29.848  22.289  1.00  0.00     0.062 N 
ATOM     29  O   UNL A   1      27.705  30.323  23.245  1.00  0.00    -0.258 OA
ATOM     30  O   UNL A   1      28.047  30.032  21.096  1.00  0.00    -0.258 OA
ENDBRANCH  27  28
ENDBRANCH  21  22
ENDBRANCH  10  21
ENDBRANCH   5   8
ENDBRANCH   3   4
ENDBRANCH   2   3
ENDBRANCH   1   2
BRANCH   1  31
ATOM     31  C   UNL A   1      33.843  29.372  26.573  1.00  0.00     0.002 C 
BRANCH  31  32
ATOM     32  C   UNL A   1      34.798  29.315  27.769  1.00  0.00     0.021 C 
BRANCH  32  33
ATOM     33  C   UNL A   1      35.482  30.636  28.104  1.00  0.00     0.116 C 
BRANCH  33  34
ATOM     34  N   UNL A   1      35.429  30.934  29.526  1.00  0.00    -0.352 N 
ATOM     35  C   UNL A   1      36.404  30.784  30.479  1.00  0.00     0.251 C 
ATOM     36  H   UNL A   1      34.572  31.295  29.851  1.00  0.00     0.163 HD
ATOM     37  O   UNL A   1      36.127  30.914  31.668  1.00  0.00    -0.269 OA
BRANCH  35  38
ATOM     38  C   UNL A   1      37.783  30.446  30.068  1.00  0.00     0.039 A 
ATOM     39  C   UNL A   1      38.721  30.123  31.051  1.00  0.00     0.014 A 
ATOM     40  C   UNL A   1      38.149  30.454  28.719  1.00  0.00     0.014 A 
ATOM     41  C   UNL A   1      40.014  29.755  30.676  1.00  0.00     0.010 A 
ATOM     42  C   UNL A   1      39.419  30.025  28.344  1.00  0.00     0.010 A 
ATOM     43  C   UNL A   1      40.366  29.676  29.319  1.00  0.00    -0.014 A 
BRANCH  43  44
ATOM     44  C   UNL A   1      41.719  29.232  28.901  1.00  0.00     0.031 A 
ATOM     45  C   UNL A   1      42.848  30.222  28.821  1.00  0.00     0.074 A 
ATOM     46  C   UNL A   1      41.913  27.950  28.530  1.00  0.00     0.049 A 
ATOM     47  N   UNL A   1      44.078  30.042  28.413  1.00  0.00    -0.248 NA
ATOM     48  C   UNL A   1      42.548  31.606  29.226  1.00  0.00     0.031 C 
ATOM     49  C   UNL A   1      40.883  26.908  28.518  1.00  0.00     0.029 A 
ATOM     50  N   UNL A   1      43.038  27.306  28.081  1.00  0.00    -0.354 N 
ATOM     51  C   UNL A   1      44.692  31.287  28.493  1.00  0.00     0.074 A 
ATOM     52  C   UNL A   1      43.687  32.224  28.947  1.00  0.00     0.031 C 
ATOM     53  C   UNL A   1      41.429  25.754  28.100  1.00  0.00     0.029 A 
ATOM     54  C   UNL A   1      42.835  25.980  27.781  1.00  0.00     0.049 A 
ATOM     55  H   UNL A   1      43.910  27.753  27.981  1.00  0.00     0.167 HD
ATOM     56  C   UNL A   1      45.980  31.613  28.233  1.00  0.00     0.037 A 
ATOM     57  C   UNL A   1      43.684  25.053  27.297  1.00  0.00     0.037 A 
ATOM     58  C   UNL A   1      46.982  30.666  27.817  1.00  0.00     0.049 A 
ATOM     59  C   UNL A   1      45.113  25.439  27.026  1.00  0.00     0.074 A 
ATOM     60  C   UNL A   1      48.331  30.882  27.602  1.00  0.00     0.029 A 
ATOM     61  N   UNL A   1      46.744  29.326  27.551  1.00  0.00    -0.354 N 
ATOM     62  N   UNL A   1      45.695  26.605  27.180  1.00  0.00    -0.248 NA
ATOM     63  C   UNL A   1      46.003  24.385  26.520  1.00  0.00     0.031 C 
ATOM     64  C   UNL A   1      48.901  29.682  27.163  1.00  0.00     0.029 A 
ATOM     65  C   UNL A   1      47.917  28.708  27.151  1.00  0.00     0.049 A 
ATOM     66  H   UNL A   1      45.870  28.880  27.634  1.00  0.00     0.167 HD
ATOM     67  C   UNL A   1      47.025  26.417  26.819  1.00  0.00     0.074 A 
ATOM     68  C   UNL A   1      47.164  25.023  26.448  1.00  0.00     0.031 C 
ATOM     69  C   UNL A   1      48.040  27.315  26.796  1.00  0.00     0.037 A 
BRANCH  56  70
ATOM     70  C   UNL A   1      46.385  33.053  28.391  1.00  0.00     0.058 A 
ATOM     71  C   UNL A   1      46.850  33.559  29.615  1.00  0.00     0.135 A 
ATOM     72  C   UNL A   1      46.349  33.928  27.293  1.00  0.00     0.135 A 
ATOM     73  F   UNL A   1      46.889  32.773  30.702  1.00  0.00    -0.206 F 
ATOM     74  C   UNL A   1      47.241  34.887  29.751  1.00  0.00     0.059 A 
ATOM     75  C   UNL A   1      46.764  35.252  27.399  1.00  0.00     0.059 A 
ATOM     76  F   UNL A   1      45.913  33.496  26.098  1.00  0.00    -0.206 F 
ATOM     77  C   UNL A   1      47.196  35.727  28.636  1.00  0.00     0.060 A 
BRANCH  77  78
ATOM     78  S   UNL A   1      47.718  37.444  28.827  1.00  0.00     0.124 S 
ATOM     79  O   UNL A   1      48.055  37.800  27.452  1.00  0.00    -0.237 OA
ATOM     80  O   UNL A   1      46.521  38.076  29.371  1.00  0.00    -0.237 OA
ATOM     81  O   UNL A   1      48.849  37.355  29.747  1.00  0.00    -0.744 OA
ENDBRANCH  77  78
ENDBRANCH  56  70
BRANCH  57  82
ATOM     82  C   UNL A   1      43.212  23.663  27.054  1.00  0.00     0.058 A 
ATOM     83  C   UNL A   1      43.014  22.773  28.119  1.00  0.00     0.135 A 
ATOM     84  C   UNL A   1      42.949  23.198  25.756  1.00  0.00     0.135 A 
ATOM     85  F   UNL A   1      43.257  23.170  29.379  1.00  0.00    -0.206 F 
ATOM     86  C   UNL A   1      42.595  21.464  27.908  1.00  0.00     0.059 A 
ATOM     87  C   UNL A   1      42.504  21.901  25.521  1.00  0.00     0.059 A 
ATOM     88  F   UNL A   1      43.105  24.015  24.704  1.00  0.00    -0.206 F 
ATOM     89  C   UNL A   1      42.343  21.036  26.603  1.00  0.00     0.060 A 
BRANCH  89  90
ATOM     90  S   UNL A   1      41.767  19.345  26.341  1.00  0.00     0.124 S 
ATOM     91  O   UNL A   1      42.257  18.679  27.542  1.00  0.00    -0.237 OA
ATOM     92  O   UNL A   1      40.321  19.523  26.254  1.00  0.00    -0.237 OA
ATOM     93  O   UNL A   1      42.419  18.959  25.094  1.00  0.00    -0.744 OA
ENDBRANCH  89  90
ENDBRANCH  57  82
BRANCH  69  94
ATOM     94  C   UNL A   1      49.399  26.815  26.395  1.00  0.00     0.058 A 
ATOM     95  C   UNL A   1      49.889  26.977  25.090  1.00  0.00     0.135 A 
ATOM     96  C   UNL A   1      50.243  26.213  27.344  1.00  0.00     0.135 A 
ATOM     97  F   UNL A   1      49.121  27.539  24.144  1.00  0.00    -0.206 F 
ATOM     98  C   UNL A   1      51.161  26.541  24.734  1.00  0.00     0.059 A 
ATOM     99  C   UNL A   1      51.528  25.795  27.016  1.00  0.00     0.059 A 
ATOM    100  F   UNL A   1      49.825  26.045  28.609  1.00  0.00    -0.206 F 
ATOM    101  C   UNL A   1      51.974  25.953  25.704  1.00  0.00     0.060 A 
BRANCH 101 102
ATOM    102  S   UNL A   1      53.636  25.424  25.240  1.00  0.00     0.124 S 
ATOM    103  O   UNL A   1      53.638  24.035  25.685  1.00  0.00    -0.237 OA
ATOM    104  O   UNL A   1      53.636  25.626  23.793  1.00  0.00    -0.237 OA
ATOM    105  O   UNL A   1      54.503  26.327  25.992  1.00  0.00    -0.744 OA
ENDBRANCH 101 102
ENDBRANCH  69  94
ENDBRANCH  43  44
ENDBRANCH  35  38
ENDBRANCH  33  34
ENDBRANCH  32  33
ENDBRANCH  31  32
ENDBRANCH   1  31
TORSDOF 21
ENDMDL
MODEL 2
REMARK VINA RESULT:     -11.9      0.597      7.867
REMARK SMILES C=CC[C@]1(C(=O)NCCCCCCNC(=O)c2ccc(-c3c4nc(c(-c5c(F)cc(S(=O)(=O)[O-])cc5F)c5ccc([nH]5)c(-c5c(F)cc(S(=O)(=O)[O-])cc5F)c5nc(c(-c6c(F)cc(S(=O)(=O)[O-])cc6F)c6ccc3[nH]6)C=C5)C=C4)cc2)c2ccccc2C(=O)N1Cc1ccc([N+](=O)[O-])cc1
REMARK SMILES IDX 10 1 9 2 8 3 7 4 5 5 6 6 4 8 83 9 91 10 84 11 88 12 89 13
REMARK SMILES IDX 85 14 87 15 90 16 86 17 3 18 2 19 1 20 92 21 93 22 94 23
REMARK SMILES IDX 101 24 95 25 100 26 96 27 97 28 98 29 99 30 11 31 12 32
REMARK SMILES IDX 13 33 14 34 15 35 16 37 17 38 18 39 82 40 19 41 81 42 20 43
REMARK SMILES IDX 21 44 22 45 75 46 23 47 80 48 74 49 76 50 24 51 79 52 73 53
REMARK SMILES IDX 72 54 25 56 59 57 38 58 58 59 39 60 42 61 57 62 77 63 40 64
REMARK SMILES IDX 41 65 56 67 78 68 43 69 26 70 27 71 36 72 28 73 29 74 35 75
REMARK SMILES IDX 37 76 30 77 31 78 32 79 33 80 34 81 60 82 61 83 70 84 62 85
REMARK SMILES IDX 63 86 69 87 71 88 64 89 65 90 66 91 67 92 68 93 44 94 45 95
REMARK SMILES IDX 54 96 46 97 47 98 53 99 55 100 48 101 49 102 50 103 51 104
REMARK SMILES IDX 52 105
REMARK H PARENT 7 7 14 36 76 55 42 66
REMARK Flexibility Score: inf
ROOT
ATOM      1  C   UNL A   1      32.540  29.681  27.274  1.00  0.00     0.002 C 
ENDROOT
BRANCH   1   2
ATOM      2  C   UNL A   1      31.579  28.510  27.049  1.00  0.00     0.021 C 
BRANCH   2   3
ATOM      3  C   UNL A   1      32.259  27.147  27.091  1.00  0.00     0.116 C 
BRANCH   3   4
ATOM      4  N   UNL A   1      31.301  26.076  26.889  1.00  0.00    -0.354 N 
ATOM      5  C   UNL A   1      31.338  24.981  26.074  1.00  0.00     0.251 C 
ATOM      6  O   UNL A   1      30.299  24.306  26.026  1.00  0.00    -0.272 OA
ATOM      7  H   UNL A   1      30.484  26.153  27.433  1.00  0.00     0.163 HD
BRANCH   5   8
ATOM      8  C   UNL A   1      32.560  24.650  25.150  1.00  0.00     0.151 C 
ATOM      9  C   UNL A   1      32.501  23.182  24.766  1.00  0.00     0.000 A 
ATOM     10  N   UNL A   1      32.529  25.315  23.823  1.00  0.00    -0.315 N 
ATOM     11  C   UNL A   1      32.386  22.060  25.575  1.00  0.00     0.007 A 
ATOM     12  C   UNL A   1      32.541  23.052  23.378  1.00  0.00     0.046 A 
ATOM     13  C   UNL A   1      32.595  24.397  22.783  1.00  0.00     0.255 C 
ATOM     14  C   UNL A   1      32.293  20.810  24.959  1.00  0.00     0.000 A 
ATOM     15  C   UNL A   1      32.449  21.825  22.749  1.00  0.00     0.014 A 
ATOM     16  O   UNL A   1      32.653  24.620  21.589  1.00  0.00    -0.269 OA
ATOM     17  C   UNL A   1      32.321  20.694  23.558  1.00  0.00     0.001 A 
BRANCH   8  18
ATOM     18  C   UNL A   1      33.894  24.945  25.913  1.00  0.00     0.070 C 
BRANCH  18  19
ATOM     19  C   UNL A   1      35.032  23.976  25.668  1.00  0.00    -0.031 C 
ATOM     20  C   UNL A   1      35.846  23.999  24.607  1.00  0.00     0.004 C 
ENDBRANCH  18  19
ENDBRANCH   8  18
BRANCH  10  21
ATOM     21  C   UNL A   1      32.659  26.754  23.607  1.00  0.00     0.157 C 
BRANCH  21  22
ATOM     22  C   UNL A   1      31.370  27.475  23.275  1.00  0.00    -0.028 A 
ATOM     23  C   UNL A   1      30.127  26.908  23.609  1.00  0.00     0.012 A 
ATOM     24  C   UNL A   1      31.387  28.730  22.645  1.00  0.00     0.012 A 
ATOM     25  C   UNL A   1      28.934  27.600  23.364  1.00  0.00     0.086 A 
ATOM     26  C   UNL A   1      30.207  29.447  22.433  1.00  0.00     0.086 A 
ATOM     27  C   UNL A   1      28.983  28.879  22.801  1.00  0.00     0.269 A 
BRANCH  27  28
ATOM     28  N   UNL A   1      27.748  29.643  22.606  1.00  0.00     0.062 N 
ATOM     29  O   UNL A   1      26.747  29.298  23.249  1.00  0.00    -0.258 OA
ATOM     30  O   UNL A   1      27.780  30.595  21.811  1.00  0.00    -0.258 OA
ENDBRANCH  27  28
ENDBRANCH  21  22
ENDBRANCH  10  21
ENDBRANCH   5   8
ENDBRANCH   3   4
ENDBRANCH   2   3
ENDBRANCH   1   2
BRANCH   1  31
ATOM     31  C   UNL A   1      33.908  29.531  26.597  1.00  0.00     0.002 C 
BRANCH  31  32
ATOM     32  C   UNL A   1      35.086  29.315  27.551  1.00  0.00     0.021 C 
BRANCH  32  33
ATOM     33  C   UNL A   1      35.620  30.585  28.208  1.00  0.00     0.116 C 
BRANCH  33  34
ATOM     34  N   UNL A   1      35.554  30.518  29.658  1.00  0.00    -0.352 N 
ATOM     35  C   UNL A   1      36.523  30.142  30.553  1.00  0.00     0.251 C 
ATOM     36  H   UNL A   1      34.691  30.781  30.055  1.00  0.00     0.163 HD
ATOM     37  O   UNL A   1      36.236  29.971  31.734  1.00  0.00    -0.269 OA
BRANCH  35  38
ATOM     38  C   UNL A   1      37.907  29.927  30.083  1.00  0.00     0.039 A 
ATOM     39  C   UNL A   1      38.838  29.364  30.959  1.00  0.00     0.014 A 
ATOM     40  C   UNL A   1      38.286  30.283  28.785  1.00  0.00     0.014 A 
ATOM     41  C   UNL A   1      40.138  29.110  30.516  1.00  0.00     0.010 A 
ATOM     42  C   UNL A   1      39.562  29.970  28.326  1.00  0.00     0.010 A 
ATOM     43  C   UNL A   1      40.502  29.384  29.188  1.00  0.00    -0.014 A 
BRANCH  43  44
ATOM     44  C   UNL A   1      41.862  29.067  28.683  1.00  0.00     0.031 A 
ATOM     45  C   UNL A   1      42.184  27.678  28.204  1.00  0.00     0.074 A 
ATOM     46  C   UNL A   1      42.822  30.013  28.719  1.00  0.00     0.049 A 
ATOM     47  N   UNL A   1      43.326  27.191  27.793  1.00  0.00    -0.248 NA
ATOM     48  C   UNL A   1      41.084  26.700  28.213  1.00  0.00     0.031 C 
ATOM     49  C   UNL A   1      42.643  31.382  29.209  1.00  0.00     0.029 A 
ATOM     50  N   UNL A   1      44.142  29.966  28.349  1.00  0.00    -0.354 N 
ATOM     51  C   UNL A   1      43.089  25.850  27.515  1.00  0.00     0.074 A 
ATOM     52  C   UNL A   1      41.705  25.588  27.845  1.00  0.00     0.031 C 
ATOM     53  C   UNL A   1      43.804  32.047  29.092  1.00  0.00     0.029 A 
ATOM     54  C   UNL A   1      44.818  31.145  28.555  1.00  0.00     0.049 A 
ATOM     55  H   UNL A   1      44.567  29.161  27.973  1.00  0.00     0.167 HD
ATOM     56  C   UNL A   1      43.942  24.927  27.010  1.00  0.00     0.037 A 
ATOM     57  C   UNL A   1      46.109  31.462  28.342  1.00  0.00     0.037 A 
ATOM     58  C   UNL A   1      45.309  25.205  26.651  1.00  0.00     0.049 A 
ATOM     59  C   UNL A   1      47.034  30.421  27.770  1.00  0.00     0.074 A 
ATOM     60  C   UNL A   1      46.231  24.359  26.061  1.00  0.00     0.029 A 
ATOM     61  N   UNL A   1      45.949  26.419  26.848  1.00  0.00    -0.354 N 
ATOM     62  N   UNL A   1      46.773  29.178  27.442  1.00  0.00    -0.248 NA
ATOM     63  C   UNL A   1      48.427  30.826  27.536  1.00  0.00     0.031 C 
ATOM     64  C   UNL A   1      47.443  25.049  25.943  1.00  0.00     0.029 A 
ATOM     65  C   UNL A   1      47.261  26.339  26.413  1.00  0.00     0.049 A 
ATOM     66  H   UNL A   1      45.531  27.221  27.239  1.00  0.00     0.167 HD
ATOM     67  C   UNL A   1      47.960  28.661  26.935  1.00  0.00     0.074 A 
ATOM     68  C   UNL A   1      48.937  29.729  26.990  1.00  0.00     0.031 C 
ATOM     69  C   UNL A   1      48.219  27.416  26.465  1.00  0.00     0.037 A 
BRANCH  56  70
ATOM     70  C   UNL A   1      43.427  23.528  26.814  1.00  0.00     0.058 A 
ATOM     71  C   UNL A   1      43.096  23.034  25.543  1.00  0.00     0.135 A 
ATOM     72  C   UNL A   1      43.303  22.654  27.907  1.00  0.00     0.135 A 
ATOM     73  F   UNL A   1      43.179  23.830  24.465  1.00  0.00    -0.206 F 
ATOM     74  C   UNL A   1      42.638  21.732  25.364  1.00  0.00     0.059 A 
ATOM     75  C   UNL A   1      42.875  21.339  27.748  1.00  0.00     0.059 A 
ATOM     76  F   UNL A   1      43.606  23.074  29.146  1.00  0.00    -0.206 F 
ATOM     77  C   UNL A   1      42.531  20.891  26.473  1.00  0.00     0.060 A 
BRANCH  77  78
ATOM     78  S   UNL A   1      41.946  19.202  26.222  1.00  0.00     0.124 S 
ATOM     79  O   UNL A   1      42.756  18.781  25.083  1.00  0.00    -0.237 OA
ATOM     80  O   UNL A   1      42.267  18.568  27.497  1.00  0.00    -0.237 OA
ATOM     81  O   UNL A   1      40.522  19.373  25.952  1.00  0.00    -0.744 OA
ENDBRANCH  77  78
ENDBRANCH  56  70
BRANCH  57  82
ATOM     82  C   UNL A   1      46.603  32.831  28.651  1.00  0.00     0.058 A 
ATOM     83  C   UNL A   1      47.065  33.157  29.934  1.00  0.00     0.135 A 
ATOM     84  C   UNL A   1      46.623  33.838  27.674  1.00  0.00     0.135 A 
ATOM     85  F   UNL A   1      47.060  32.230  30.905  1.00  0.00    -0.206 F 
ATOM     86  C   UNL A   1      47.509  34.438  30.246  1.00  0.00     0.059 A 
ATOM     87  C   UNL A   1      47.087  35.120  27.953  1.00  0.00     0.059 A 
ATOM     88  F   UNL A   1      46.209  33.572  26.425  1.00  0.00    -0.206 F 
ATOM     89  C   UNL A   1      47.515  35.414  29.247  1.00  0.00     0.060 A 
BRANCH  89  90
ATOM     90  S   UNL A   1      48.125  37.065  29.653  1.00  0.00     0.124 S 
ATOM     91  O   UNL A   1      49.311  36.753  30.442  1.00  0.00    -0.237 OA
ATOM     92  O   UNL A   1      48.367  37.637  28.333  1.00  0.00    -0.237 OA
ATOM     93  O   UNL A   1      47.013  37.659  30.390  1.00  0.00    -0.744 OA
ENDBRANCH  89  90
ENDBRANCH  57  82
BRANCH  69  94
ATOM     94  C   UNL A   1      49.600  27.148  25.937  1.00  0.00     0.058 A 
ATOM     95  C   UNL A   1      49.919  27.323  24.582  1.00  0.00     0.135 A 
ATOM     96  C   UNL A   1      50.631  26.761  26.810  1.00  0.00     0.135 A 
ATOM     97  F   UNL A   1      48.969  27.685  23.706  1.00  0.00    -0.206 F 
ATOM     98  C   UNL A   1      51.207  27.105  24.106  1.00  0.00     0.059 A 
ATOM     99  C   UNL A   1      51.932  26.564  26.360  1.00  0.00     0.059 A 
ATOM    100  F   UNL A   1      50.380  26.590  28.118  1.00  0.00    -0.206 F 
ATOM    101  C   UNL A   1      52.208  26.728  25.003  1.00  0.00     0.060 A 
BRANCH 101 102
ATOM    102  S   UNL A   1      53.884  26.483  24.380  1.00  0.00     0.124 S 
ATOM    103  O   UNL A   1      54.643  27.414  25.208  1.00  0.00    -0.237 OA
ATOM    104  O   UNL A   1      54.114  25.066  24.647  1.00  0.00    -0.237 OA
ATOM    105  O   UNL A   1      53.778  26.840  22.969  1.00  0.00    -0.744 OA
ENDBRANCH 101 102
ENDBRANCH  69  94
ENDBRANCH  43  44
ENDBRANCH  35  38
ENDBRANCH  33  34
ENDBRANCH  32  33
ENDBRANCH  31  32
ENDBRANCH   1  31
TORSDOF 21
ENDMDL
MODEL 3
REMARK VINA RESULT:     -11.5      5.548      9.887
REMARK SMILES C=CC[C@]1(C(=O)NCCCCCCNC(=O)c2ccc(-c3c4nc(c(-c5c(F)cc(S(=O)(=O)[O-])cc5F)c5ccc([nH]5)c(-c5c(F)cc(S(=O)(=O)[O-])cc5F)c5nc(c(-c6c(F)cc(S(=O)(=O)[O-])cc6F)c6ccc3[nH]6)C=C5)C=C4)cc2)c2ccccc2C(=O)N1Cc1ccc([N+](=O)[O-])cc1
REMARK SMILES IDX 10 1 9 2 8 3 7 4 5 5 6 6 4 8 83 9 91 10 84 11 88 12 89 13
REMARK SMILES IDX 85 14 87 15 90 16 86 17 3 18 2 19 1 20 92 21 93 22 94 23
REMARK SMILES IDX 101 24 95 25 100 26 96 27 97 28 98 29 99 30 11 31 12 32
REMARK SMILES IDX 13 33 14 34 15 35 16 37 17 38 18 39 82 40 19 41 81 42 20 43
REMARK SMILES IDX 21 44 22 45 75 46 23 47 80 48 74 49 76 50 24 51 79 52 73 53
REMARK SMILES IDX 72 54 25 56 59 57 38 58 58 59 39 60 42 61 57 62 77 63 40 64
REMARK SMILES IDX 41 65 56 67 78 68 43 69 26 70 27 71 36 72 28 73 29 74 35 75
REMARK SMILES IDX 37 76 30 77 31 78 32 79 33 80 34 81 60 82 61 83 70 84 62 85
REMARK SMILES IDX 63 86 69 87 71 88 64 89 65 90 66 91 67 92 68 93 44 94 45 95
REMARK SMILES IDX 54 96 46 97 47 98 53 99 55 100 48 101 49 102 50 103 51 104
REMARK SMILES IDX 52 105
REMARK H PARENT 7 7 14 36 76 55 42 66
REMARK Flexibility Score: inf
ROOT
ATOM      1  C   UNL A   1      31.906  28.906  26.033  1.00  0.00     0.002 C 
ENDROOT
BRANCH   1   2
ATOM      2  C   UNL A   1      33.257  28.476  26.610  1.00  0.00     0.021 C 
BRANCH   2   3
ATOM      3  C   UNL A   1      33.667  27.063  26.215  1.00  0.00     0.116 C 
BRANCH   3   4
ATOM      4  N   UNL A   1      32.536  26.155  26.263  1.00  0.00    -0.354 N 
ATOM      5  C   UNL A   1      32.318  24.959  25.641  1.00  0.00     0.251 C 
ATOM      6  O   UNL A   1      31.186  24.474  25.780  1.00  0.00    -0.272 OA
ATOM      7  H   UNL A   1      31.800  26.453  26.844  1.00  0.00     0.163 HD
BRANCH   5   8
ATOM      8  C   UNL A   1      33.375  24.286  24.699  1.00  0.00     0.151 C 
ATOM      9  C   UNL A   1      33.015  22.821  24.525  1.00  0.00     0.000 A 
ATOM     10  N   UNL A   1      33.354  24.775  23.298  1.00  0.00    -0.315 N 
ATOM     11  C   UNL A   1      32.765  21.852  25.487  1.00  0.00     0.007 A 
ATOM     12  C   UNL A   1      32.912  22.515  23.168  1.00  0.00     0.046 A 
ATOM     13  C   UNL A   1      33.160  23.740  22.391  1.00  0.00     0.255 C 
ATOM     14  C   UNL A   1      32.392  20.576  25.056  1.00  0.00     0.000 A 
ATOM     15  C   UNL A   1      32.542  21.261  22.721  1.00  0.00     0.014 A 
ATOM     16  O   UNL A   1      33.156  23.798  21.177  1.00  0.00    -0.269 OA
ATOM     17  C   UNL A   1      32.278  20.284  23.685  1.00  0.00     0.001 A 
BRANCH   8  18
ATOM     18  C   UNL A   1      34.801  24.410  25.332  1.00  0.00     0.070 C 
BRANCH  18  19
ATOM     19  C   UNL A   1      35.800  23.342  24.940  1.00  0.00    -0.031 C 
ATOM     20  C   UNL A   1      36.470  23.302  23.783  1.00  0.00     0.004 C 
ENDBRANCH  18  19
ENDBRANCH   8  18
BRANCH  10  21
ATOM     21  C   UNL A   1      33.727  26.124  22.877  1.00  0.00     0.157 C 
BRANCH  21  22
ATOM     22  C   UNL A   1      32.583  27.113  22.794  1.00  0.00    -0.028 A 
ATOM     23  C   UNL A   1      32.835  28.486  22.627  1.00  0.00     0.012 A 
ATOM     24  C   UNL A   1      31.249  26.679  22.866  1.00  0.00     0.012 A 
ATOM     25  C   UNL A   1      31.781  29.396  22.484  1.00  0.00     0.086 A 
ATOM     26  C   UNL A   1      30.190  27.572  22.684  1.00  0.00     0.086 A 
ATOM     27  C   UNL A   1      30.462  28.929  22.487  1.00  0.00     0.269 A 
BRANCH  27  28
ATOM     28  N   UNL A   1      29.353  29.861  22.267  1.00  0.00     0.062 N 
ATOM     29  O   UNL A   1      28.757  29.805  21.182  1.00  0.00    -0.258 OA
ATOM     30  O   UNL A   1      29.073  30.649  23.184  1.00  0.00    -0.258 OA
ENDBRANCH  27  28
ENDBRANCH  21  22
ENDBRANCH  10  21
ENDBRANCH   5   8
ENDBRANCH   3   4
ENDBRANCH   2   3
ENDBRANCH   1   2
BRANCH   1  31
ATOM     31  C   UNL A   1      31.724  30.422  25.878  1.00  0.00     0.002 C 
BRANCH  31  32
ATOM     32  C   UNL A   1      31.956  31.239  27.151  1.00  0.00     0.021 C 
BRANCH  32  33
ATOM     33  C   UNL A   1      33.116  32.228  27.075  1.00  0.00     0.116 C 
BRANCH  33  34
ATOM     34  N   UNL A   1      32.754  33.536  27.595  1.00  0.00    -0.352 N 
ATOM     35  C   UNL A   1      33.298  34.231  28.645  1.00  0.00     0.251 C 
ATOM     36  H   UNL A   1      32.014  33.988  27.126  1.00  0.00     0.163 HD
ATOM     37  O   UNL A   1      32.747  35.246  29.061  1.00  0.00    -0.269 OA
BRANCH  35  38
ATOM     38  C   UNL A   1      34.537  33.741  29.282  1.00  0.00     0.039 A 
ATOM     39  C   UNL A   1      35.760  34.299  28.902  1.00  0.00     0.014 A 
ATOM     40  C   UNL A   1      34.494  32.731  30.248  1.00  0.00     0.014 A 
ATOM     41  C   UNL A   1      36.935  33.881  29.529  1.00  0.00     0.010 A 
ATOM     42  C   UNL A   1      35.658  32.362  30.917  1.00  0.00     0.010 A 
ATOM     43  C   UNL A   1      36.890  32.930  30.560  1.00  0.00    -0.014 A 
BRANCH  43  44
ATOM     44  C   UNL A   1      38.123  32.516  31.278  1.00  0.00     0.031 A 
ATOM     45  C   UNL A   1      39.007  31.444  30.702  1.00  0.00     0.074 A 
ATOM     46  C   UNL A   1      38.408  33.059  32.478  1.00  0.00     0.049 A 
ATOM     47  N   UNL A   1      40.082  30.900  31.209  1.00  0.00    -0.248 NA
ATOM     48  C   UNL A   1      38.615  30.889  29.395  1.00  0.00     0.031 C 
ATOM     49  C   UNL A   1      37.600  34.072  33.161  1.00  0.00     0.029 A 
ATOM     50  N   UNL A   1      39.448  32.830  33.342  1.00  0.00    -0.354 N 
ATOM     51  C   UNL A   1      40.484  29.929  30.299  1.00  0.00     0.074 A 
ATOM     52  C   UNL A   1      39.512  29.928  29.227  1.00  0.00     0.031 C 
ATOM     53  C   UNL A   1      38.184  34.388  34.329  1.00  0.00     0.029 A 
ATOM     54  C   UNL A   1      39.386  33.576  34.495  1.00  0.00     0.049 A 
ATOM     55  H   UNL A   1      40.172  32.189  33.155  1.00  0.00     0.167 HD
ATOM     56  C   UNL A   1      41.575  29.129  30.342  1.00  0.00     0.037 A 
ATOM     57  C   UNL A   1      40.201  33.599  35.567  1.00  0.00     0.037 A 
ATOM     58  C   UNL A   1      42.557  29.162  31.395  1.00  0.00     0.049 A 
ATOM     59  C   UNL A   1      41.412  32.706  35.585  1.00  0.00     0.074 A 
ATOM     60  C   UNL A   1      43.737  28.446  31.492  1.00  0.00     0.029 A 
ATOM     61  N   UNL A   1      42.474  29.952  32.531  1.00  0.00    -0.354 N 
ATOM     62  N   UNL A   1      41.818  31.849  34.679  1.00  0.00    -0.248 NA
ATOM     63  C   UNL A   1      42.280  32.787  36.769  1.00  0.00     0.031 C 
ATOM     64  C   UNL A   1      44.345  28.770  32.710  1.00  0.00     0.029 A 
ATOM     65  C   UNL A   1      43.569  29.723  33.348  1.00  0.00     0.049 A 
ATOM     66  H   UNL A   1      41.743  30.582  32.729  1.00  0.00     0.167 HD
ATOM     67  C   UNL A   1      43.002  31.310  35.169  1.00  0.00     0.074 A 
ATOM     68  C   UNL A   1      43.254  31.946  36.446  1.00  0.00     0.031 C 
ATOM     69  C   UNL A   1      43.810  30.374  34.612  1.00  0.00     0.037 A 
BRANCH  56  70
ATOM     70  C   UNL A   1      41.770  28.146  29.220  1.00  0.00     0.058 A 
ATOM     71  C   UNL A   1      42.717  28.362  28.206  1.00  0.00     0.135 A 
ATOM     72  C   UNL A   1      41.031  26.952  29.181  1.00  0.00     0.135 A 
ATOM     73  F   UNL A   1      43.439  29.492  28.184  1.00  0.00    -0.206 F 
ATOM     74  C   UNL A   1      42.906  27.441  27.180  1.00  0.00     0.059 A 
ATOM     75  C   UNL A   1      41.224  26.004  28.181  1.00  0.00     0.059 A 
ATOM     76  F   UNL A   1      40.111  26.696  30.126  1.00  0.00    -0.206 F 
ATOM     77  C   UNL A   1      42.156  26.263  27.177  1.00  0.00     0.060 A 
BRANCH  77  78
ATOM     78  S   UNL A   1      42.423  25.074  25.846  1.00  0.00     0.124 S 
ATOM     79  O   UNL A   1      41.231  24.239  25.958  1.00  0.00    -0.237 OA
ATOM     80  O   UNL A   1      42.486  25.933  24.667  1.00  0.00    -0.237 OA
ATOM     81  O   UNL A   1      43.679  24.428  26.214  1.00  0.00    -0.744 OA
ENDBRANCH  77  78
ENDBRANCH  56  70
BRANCH  57  82
ATOM     82  C   UNL A   1      39.911  34.512  36.706  1.00  0.00     0.058 A 
ATOM     83  C   UNL A   1      40.348  35.844  36.690  1.00  0.00     0.135 A 
ATOM     84  C   UNL A   1      39.192  34.073  37.828  1.00  0.00     0.135 A 
ATOM     85  F   UNL A   1      41.044  36.310  35.641  1.00  0.00    -0.206 F 
ATOM     86  C   UNL A   1      40.105  36.704  37.756  1.00  0.00     0.059 A 
ATOM     87  C   UNL A   1      38.913  34.921  38.896  1.00  0.00     0.059 A 
ATOM     88  F   UNL A   1      38.735  32.813  37.884  1.00  0.00    -0.206 F 
ATOM     89  C   UNL A   1      39.386  36.232  38.856  1.00  0.00     0.060 A 
BRANCH  89  90
ATOM     90  S   UNL A   1      39.046  37.366  40.220  1.00  0.00     0.124 S 
ATOM     91  O   UNL A   1      40.391  37.791  40.590  1.00  0.00    -0.237 OA
ATOM     92  O   UNL A   1      38.210  38.376  39.579  1.00  0.00    -0.237 OA
ATOM     93  O   UNL A   1      38.360  36.521  41.193  1.00  0.00    -0.744 OA
ENDBRANCH  89  90
ENDBRANCH  57  82
BRANCH  69  94
ATOM     94  C   UNL A   1      45.062  30.007  35.358  1.00  0.00     0.058 A 
ATOM     95  C   UNL A   1      46.263  30.708  35.174  1.00  0.00     0.135 A 
ATOM     96  C   UNL A   1      45.043  28.973  36.310  1.00  0.00     0.135 A 
ATOM     97  F   UNL A   1      46.336  31.699  34.273  1.00  0.00    -0.206 F 
ATOM     98  C   UNL A   1      47.410  30.384  35.893  1.00  0.00     0.059 A 
ATOM     99  C   UNL A   1      46.170  28.651  37.058  1.00  0.00     0.059 A 
ATOM    100  F   UNL A   1      43.915  28.279  36.531  1.00  0.00    -0.206 F 
ATOM    101  C   UNL A   1      47.353  29.354  36.834  1.00  0.00     0.060 A 
BRANCH 101 102
ATOM    102  S   UNL A   1      48.836  28.968  37.787  1.00  0.00     0.124 S 
ATOM    103  O   UNL A   1      48.682  27.533  38.000  1.00  0.00    -0.237 OA
ATOM    104  O   UNL A   1      49.906  29.361  36.874  1.00  0.00    -0.237 OA
ATOM    105  O   UNL A   1      48.701  29.799  38.980  1.00  0.00    -0.744 OA
ENDBRANCH 101 102
ENDBRANCH  69  94
ENDBRANCH  43  44
ENDBRANCH  35  38
ENDBRANCH  33  34
ENDBRANCH  32  33
ENDBRANCH  31  32
ENDBRANCH   1  31
TORSDOF 21
ENDMDL
