MODEL 1
REMARK VINA RESULT:     -10.5      0.000      0.000
REMARK SMILES O=C(NCCCCCCNC(=O)[C@H](CCC(F)(F)F)Cc1ccccc1)c1ccc(-c2c3nc(c(-c4c(F)cc(S(=O)(=O)[O-])cc4F)c4ccc([nH]4)c(-c4c(F)cc(S(=O)(=O)[O-])cc4F)c4nc(c(-c5c(F)cc(S(=O)(=O)[O-])cc5F)c5ccc2[nH]5)C=C4)C=C3)cc1
REMARK SMILES IDX 6 1 5 2 4 3 3 4 1 5 2 6 27 8 28 9 92 10 29 11 91 12 30 13
REMARK SMILES IDX 31 14 32 15 85 16 33 17 90 18 84 19 86 20 34 21 89 22 83 23
REMARK SMILES IDX 82 24 35 26 69 27 48 28 68 29 49 30 52 31 67 32 87 33 50 34
REMARK SMILES IDX 51 35 66 37 88 38 53 39 36 40 37 41 46 42 38 43 39 44 45 45
REMARK SMILES IDX 47 46 40 47 41 48 42 49 43 50 44 51 70 52 71 53 80 54 72 55
REMARK SMILES IDX 73 56 79 57 81 58 74 59 75 60 76 61 77 62 78 63 54 64 55 65
REMARK SMILES IDX 64 66 56 67 57 68 63 69 65 70 58 71 59 72 60 73 61 74 62 75
REMARK SMILES IDX 7 76 8 77 9 78 10 79 11 80 12 82 13 83 20 84 21 85 22 86
REMARK SMILES IDX 26 87 23 88 25 89 24 90 14 91 15 92 16 93 17 94 18 95 19 96
REMARK H PARENT 3 7 86 25 52 36 10 81
REMARK Flexibility Score: inf
ROOT
ATOM      1  C   UNL A   1      33.581  26.858  24.895  1.00  0.00     0.002 C 
ENDROOT
BRANCH   1   2
ATOM      2  C   UNL A   1      32.963  27.676  26.030  1.00  0.00     0.021 C 
BRANCH   2   3
ATOM      3  C   UNL A   1      33.979  28.218  27.030  1.00  0.00     0.116 C 
BRANCH   3   4
ATOM      4  N   UNL A   1      33.740  29.624  27.308  1.00  0.00    -0.352 N 
ATOM      5  O   UNL A   1      34.069  31.551  28.442  1.00  0.00    -0.269 OA
ATOM      6  C   UNL A   1      34.524  30.484  28.031  1.00  0.00     0.251 C 
ATOM      7  H   UNL A   1      32.914  30.006  26.930  1.00  0.00     0.163 HD
BRANCH   6   8
ATOM      8  C   UNL A   1      35.921  30.107  28.311  1.00  0.00     0.039 A 
ATOM      9  C   UNL A   1      36.878  30.175  27.292  1.00  0.00     0.014 A 
ATOM     10  C   UNL A   1      36.277  29.685  29.593  1.00  0.00     0.014 A 
ATOM     11  C   UNL A   1      38.172  29.727  27.528  1.00  0.00     0.010 A 
ATOM     12  C   UNL A   1      37.594  29.304  29.847  1.00  0.00     0.010 A 
ATOM     13  C   UNL A   1      38.547  29.310  28.814  1.00  0.00    -0.014 A 
BRANCH  13  14
ATOM     14  C   UNL A   1      39.959  28.961  29.100  1.00  0.00     0.031 A 
ATOM     15  C   UNL A   1      40.918  29.995  29.611  1.00  0.00     0.074 A 
ATOM     16  C   UNL A   1      40.379  27.708  28.837  1.00  0.00     0.049 A 
ATOM     17  N   UNL A   1      42.208  29.897  29.805  1.00  0.00    -0.248 NA
ATOM     18  C   UNL A   1      40.357  31.314  29.936  1.00  0.00     0.031 C 
ATOM     19  C   UNL A   1      39.529  26.627  28.331  1.00  0.00     0.029 A 
ATOM     20  N   UNL A   1      41.621  27.138  28.935  1.00  0.00    -0.354 N 
ATOM     21  C   UNL A   1      42.621  31.147  30.248  1.00  0.00     0.074 A 
ATOM     22  C   UNL A   1      41.446  31.992  30.275  1.00  0.00     0.031 C 
ATOM     23  C   UNL A   1      40.274  25.527  28.160  1.00  0.00     0.029 A 
ATOM     24  C   UNL A   1      41.662  25.843  28.477  1.00  0.00     0.049 A 
ATOM     25  H   UNL A   1      42.406  27.609  29.298  1.00  0.00     0.167 HD
ATOM     26  C   UNL A   1      43.869  31.547  30.595  1.00  0.00     0.037 A 
ATOM     27  C   UNL A   1      42.704  25.013  28.285  1.00  0.00     0.037 A 
ATOM     28  C   UNL A   1      45.026  30.688  30.553  1.00  0.00     0.049 A 
ATOM     29  C   UNL A   1      44.083  25.484  28.640  1.00  0.00     0.074 A 
ATOM     30  C   UNL A   1      46.327  30.979  30.923  1.00  0.00     0.029 A 
ATOM     31  N   UNL A   1      45.025  29.376  30.096  1.00  0.00    -0.354 N 
ATOM     32  N   UNL A   1      44.456  26.655  29.100  1.00  0.00    -0.248 NA
ATOM     33  C   UNL A   1      45.183  24.530  28.456  1.00  0.00     0.031 C 
ATOM     34  C   UNL A   1      47.122  29.865  30.634  1.00  0.00     0.029 A 
ATOM     35  C   UNL A   1      46.307  28.855  30.146  1.00  0.00     0.049 A 
ATOM     36  H   UNL A   1      44.229  28.889  29.782  1.00  0.00     0.167 HD
ATOM     37  C   UNL A   1      45.829  26.572  29.286  1.00  0.00     0.074 A 
ATOM     38  C   UNL A   1      46.222  25.234  28.887  1.00  0.00     0.031 C 
ATOM     39  C   UNL A   1      46.682  27.516  29.754  1.00  0.00     0.037 A 
BRANCH  26  40
ATOM     40  C   UNL A   1      44.050  32.985  31.004  1.00  0.00     0.058 A 
ATOM     41  C   UNL A   1      43.943  33.400  32.342  1.00  0.00     0.135 A 
ATOM     42  C   UNL A   1      44.330  33.967  30.040  1.00  0.00     0.135 A 
ATOM     43  F   UNL A   1      43.669  32.507  33.307  1.00  0.00    -0.206 F 
ATOM     44  C   UNL A   1      44.052  34.740  32.700  1.00  0.00     0.059 A 
ATOM     45  C   UNL A   1      44.475  35.309  30.378  1.00  0.00     0.059 A 
ATOM     46  F   UNL A   1      44.453  33.628  28.746  1.00  0.00    -0.206 F 
ATOM     47  C   UNL A   1      44.307  35.689  31.708  1.00  0.00     0.060 A 
BRANCH  47  48
ATOM     48  S   UNL A   1      44.387  37.430  32.180  1.00  0.00     0.124 S 
ATOM     49  O   UNL A   1      45.785  37.554  32.584  1.00  0.00    -0.237 OA
ATOM     50  O   UNL A   1      44.026  38.107  30.939  1.00  0.00    -0.237 OA
ATOM     51  O   UNL A   1      43.410  37.537  33.258  1.00  0.00    -0.744 OA
ENDBRANCH  47  48
ENDBRANCH  26  40
BRANCH  27  52
ATOM     52  C   UNL A   1      42.452  23.666  27.712  1.00  0.00     0.058 A 
ATOM     53  C   UNL A   1      42.470  23.455  26.328  1.00  0.00     0.135 A 
ATOM     54  C   UNL A   1      42.294  22.546  28.546  1.00  0.00     0.135 A 
ATOM     55  F   UNL A   1      42.616  24.494  25.491  1.00  0.00    -0.206 F 
ATOM     56  C   UNL A   1      42.353  22.178  25.788  1.00  0.00     0.059 A 
ATOM     57  C   UNL A   1      42.201  21.259  28.031  1.00  0.00     0.059 A 
ATOM     58  F   UNL A   1      42.292  22.697  29.880  1.00  0.00    -0.206 F 
ATOM     59  C   UNL A   1      42.233  21.084  26.648  1.00  0.00     0.060 A 
BRANCH  59  60
ATOM     60  S   UNL A   1      42.189  19.425  25.937  1.00  0.00     0.124 S 
ATOM     61  O   UNL A   1      40.760  19.245  25.702  1.00  0.00    -0.237 OA
ATOM     62  O   UNL A   1      43.017  19.582  24.746  1.00  0.00    -0.237 OA
ATOM     63  O   UNL A   1      42.766  18.593  26.988  1.00  0.00    -0.744 OA
ENDBRANCH  59  60
ENDBRANCH  27  52
BRANCH  39  64
ATOM     64  C   UNL A   1      48.128  27.136  29.912  1.00  0.00     0.058 A 
ATOM     65  C   UNL A   1      49.079  27.413  28.919  1.00  0.00     0.135 A 
ATOM     66  C   UNL A   1      48.581  26.586  31.122  1.00  0.00     0.135 A 
ATOM     67  F   UNL A   1      48.697  27.926  27.739  1.00  0.00    -0.206 F 
ATOM     68  C   UNL A   1      50.433  27.164  29.124  1.00  0.00     0.059 A 
ATOM     69  C   UNL A   1      49.931  26.354  31.358  1.00  0.00     0.059 A 
ATOM     70  F   UNL A   1      47.710  26.306  32.104  1.00  0.00    -0.206 F 
ATOM     71  C   UNL A   1      50.851  26.648  30.352  1.00  0.00     0.060 A 
BRANCH  71  72
ATOM     72  S   UNL A   1      52.618  26.417  30.640  1.00  0.00     0.124 S 
ATOM     73  O   UNL A   1      52.623  25.271  31.544  1.00  0.00    -0.237 OA
ATOM     74  O   UNL A   1      53.122  26.165  29.293  1.00  0.00    -0.237 OA
ATOM     75  O   UNL A   1      53.036  27.685  31.231  1.00  0.00    -0.744 OA
ENDBRANCH  71  72
ENDBRANCH  39  64
ENDBRANCH  13  14
ENDBRANCH   6   8
ENDBRANCH   3   4
ENDBRANCH   2   3
ENDBRANCH   1   2
BRANCH   1  76
ATOM     76  C   UNL A   1      34.128  25.496  25.324  1.00  0.00     0.002 C 
BRANCH  76  77
ATOM     77  C   UNL A   1      33.174  24.693  26.211  1.00  0.00     0.021 C 
BRANCH  77  78
ATOM     78  C   UNL A   1      33.782  23.407  26.773  1.00  0.00     0.116 C 
BRANCH  78  79
ATOM     79  N   UNL A   1      34.805  22.871  25.896  1.00  0.00    -0.356 N 
ATOM     80  C   UNL A   1      34.757  21.859  24.987  1.00  0.00     0.223 C 
ATOM     81  H   UNL A   1      35.681  23.315  25.969  1.00  0.00     0.163 HD
ATOM     82  O   UNL A   1      35.790  21.604  24.366  1.00  0.00    -0.275 OA
BRANCH  80  83
ATOM     83  C   UNL A   1      33.446  21.117  24.716  1.00  0.00     0.083 C 
BRANCH  83  84
ATOM     84  C   UNL A   1      32.978  21.368  23.265  1.00  0.00     0.049 C 
BRANCH  84  85
ATOM     85  C   UNL A   1      32.423  22.755  23.012  1.00  0.00    -0.047 A 
ATOM     86  C   UNL A   1      31.211  23.144  23.601  1.00  0.00     0.004 A 
ATOM     87  C   UNL A   1      33.085  23.665  22.175  1.00  0.00     0.004 A 
ATOM     88  C   UNL A   1      30.698  24.424  23.390  1.00  0.00     0.000 A 
ATOM     89  C   UNL A   1      32.578  24.950  21.974  1.00  0.00     0.000 A 
ATOM     90  C   UNL A   1      31.387  25.330  22.585  1.00  0.00     0.000 A 
ENDBRANCH  84  85
ENDBRANCH  83  84
BRANCH  83  91
ATOM     91  C   UNL A   1      33.421  19.620  25.087  1.00  0.00     0.023 C 
BRANCH  91  92
ATOM     92  C   UNL A   1      32.528  18.616  24.342  1.00  0.00     0.116 C 
BRANCH  92  93
ATOM     93  C   UNL A   1      33.148  17.530  23.488  1.00  0.00     0.389 C 
ATOM     94  F   UNL A   1      34.487  17.630  23.413  1.00  0.00    -0.171 F 
ATOM     95  F   UNL A   1      32.871  16.317  24.024  1.00  0.00    -0.171 F 
ATOM     96  F   UNL A   1      32.642  17.535  22.240  1.00  0.00    -0.171 F 
ENDBRANCH  92  93
ENDBRANCH  91  92
ENDBRANCH  83  91
ENDBRANCH  80  83
ENDBRANCH  78  79
ENDBRANCH  77  78
ENDBRANCH  76  77
ENDBRANCH   1  76
TORSDOF 21
ENDMDL
MODEL 2
REMARK VINA RESULT:     -10.0      2.714      3.526
REMARK SMILES O=C(NCCCCCCNC(=O)[C@H](CCC(F)(F)F)Cc1ccccc1)c1ccc(-c2c3nc(c(-c4c(F)cc(S(=O)(=O)[O-])cc4F)c4ccc([nH]4)c(-c4c(F)cc(S(=O)(=O)[O-])cc4F)c4nc(c(-c5c(F)cc(S(=O)(=O)[O-])cc5F)c5ccc2[nH]5)C=C4)C=C3)cc1
REMARK SMILES IDX 6 1 5 2 4 3 3 4 1 5 2 6 27 8 28 9 92 10 29 11 91 12 30 13
REMARK SMILES IDX 31 14 32 15 85 16 33 17 90 18 84 19 86 20 34 21 89 22 83 23
REMARK SMILES IDX 82 24 35 26 69 27 48 28 68 29 49 30 52 31 67 32 87 33 50 34
REMARK SMILES IDX 51 35 66 37 88 38 53 39 36 40 37 41 46 42 38 43 39 44 45 45
REMARK SMILES IDX 47 46 40 47 41 48 42 49 43 50 44 51 70 52 71 53 80 54 72 55
REMARK SMILES IDX 73 56 79 57 81 58 74 59 75 60 76 61 77 62 78 63 54 64 55 65
REMARK SMILES IDX 64 66 56 67 57 68 63 69 65 70 58 71 59 72 60 73 61 74 62 75
REMARK SMILES IDX 7 76 8 77 9 78 10 79 11 80 12 82 13 83 20 84 21 85 22 86
REMARK SMILES IDX 26 87 23 88 25 89 24 90 14 91 15 92 16 93 17 94 18 95 19 96
REMARK H PARENT 3 7 86 25 52 36 10 81
REMARK Flexibility Score: inf
ROOT
ATOM      1  C   UNL A   1      33.364  27.058  24.295  1.00  0.00     0.002 C 
ENDROOT
BRANCH   1   2
ATOM      2  C   UNL A   1      33.009  27.741  25.617  1.00  0.00     0.021 C 
BRANCH   2   3
ATOM      3  C   UNL A   1      34.182  28.455  26.282  1.00  0.00     0.116 C 
BRANCH   3   4
ATOM      4  N   UNL A   1      33.889  29.865  26.480  1.00  0.00    -0.352 N 
ATOM      5  O   UNL A   1      33.900  31.790  27.664  1.00  0.00    -0.269 OA
ATOM      6  C   UNL A   1      34.441  30.716  27.401  1.00  0.00     0.251 C 
ATOM      7  H   UNL A   1      33.213  30.256  25.881  1.00  0.00     0.163 HD
BRANCH   6   8
ATOM      8  C   UNL A   1      35.693  30.323  28.073  1.00  0.00     0.039 A 
ATOM      9  C   UNL A   1      36.921  30.536  27.437  1.00  0.00     0.014 A 
ATOM     10  C   UNL A   1      35.640  29.739  29.339  1.00  0.00     0.014 A 
ATOM     11  C   UNL A   1      38.093  30.076  28.025  1.00  0.00     0.010 A 
ATOM     12  C   UNL A   1      36.825  29.344  29.960  1.00  0.00     0.010 A 
ATOM     13  C   UNL A   1      38.058  29.498  29.303  1.00  0.00    -0.014 A 
BRANCH  13  14
ATOM     14  C   UNL A   1      39.320  29.132  29.988  1.00  0.00     0.031 A 
ATOM     15  C   UNL A   1      39.834  29.944  31.139  1.00  0.00     0.074 A 
ATOM     16  C   UNL A   1      40.026  28.085  29.520  1.00  0.00     0.049 A 
ATOM     17  N   UNL A   1      40.969  29.839  31.779  1.00  0.00    -0.248 NA
ATOM     18  C   UNL A   1      38.963  31.023  31.628  1.00  0.00     0.031 C 
ATOM     19  C   UNL A   1      39.620  27.231  28.401  1.00  0.00     0.029 A 
ATOM     20  N   UNL A   1      41.238  27.575  29.905  1.00  0.00    -0.354 N 
ATOM     21  C   UNL A   1      40.966  30.854  32.728  1.00  0.00     0.074 A 
ATOM     22  C   UNL A   1      39.721  31.576  32.565  1.00  0.00     0.031 C 
ATOM     23  C   UNL A   1      40.565  26.307  28.188  1.00  0.00     0.029 A 
ATOM     24  C   UNL A   1      41.673  26.544  29.106  1.00  0.00     0.049 A 
ATOM     25  H   UNL A   1      41.747  27.912  30.678  1.00  0.00     0.167 HD
ATOM     26  C   UNL A   1      41.919  31.152  33.645  1.00  0.00     0.037 A 
ATOM     27  C   UNL A   1      42.850  25.891  29.080  1.00  0.00     0.037 A 
ATOM     28  C   UNL A   1      43.154  30.423  33.783  1.00  0.00     0.049 A 
ATOM     29  C   UNL A   1      43.908  26.258  30.078  1.00  0.00     0.074 A 
ATOM     30  C   UNL A   1      44.168  30.614  34.705  1.00  0.00     0.029 A 
ATOM     31  N   UNL A   1      43.553  29.374  32.963  1.00  0.00    -0.354 N 
ATOM     32  N   UNL A   1      43.875  27.191  31.000  1.00  0.00    -0.248 NA
ATOM     33  C   UNL A   1      45.157  25.490  30.041  1.00  0.00     0.031 C 
ATOM     34  C   UNL A   1      45.203  29.722  34.406  1.00  0.00     0.029 A 
ATOM     35  C   UNL A   1      44.809  28.929  33.339  1.00  0.00     0.049 A 
ATOM     36  H   UNL A   1      43.020  29.003  32.223  1.00  0.00     0.167 HD
ATOM     37  C   UNL A   1      45.088  27.107  31.671  1.00  0.00     0.074 A 
ATOM     38  C   UNL A   1      45.833  26.030  31.047  1.00  0.00     0.031 C 
ATOM     39  C   UNL A   1      45.536  27.848  32.714  1.00  0.00     0.037 A 
BRANCH  26  40
ATOM     40  C   UNL A   1      41.679  32.344  34.535  1.00  0.00     0.058 A 
ATOM     41  C   UNL A   1      40.953  32.246  35.733  1.00  0.00     0.135 A 
ATOM     42  C   UNL A   1      42.180  33.607  34.179  1.00  0.00     0.135 A 
ATOM     43  F   UNL A   1      40.443  31.066  36.121  1.00  0.00    -0.206 F 
ATOM     44  C   UNL A   1      40.687  33.365  36.516  1.00  0.00     0.059 A 
ATOM     45  C   UNL A   1      41.953  34.734  34.962  1.00  0.00     0.059 A 
ATOM     46  F   UNL A   1      42.889  33.759  33.049  1.00  0.00    -0.206 F 
ATOM     47  C   UNL A   1      41.181  34.608  36.116  1.00  0.00     0.060 A 
BRANCH  47  48
ATOM     48  S   UNL A   1      40.777  36.059  37.111  1.00  0.00     0.124 S 
ATOM     49  O   UNL A   1      42.077  36.718  37.200  1.00  0.00    -0.237 OA
ATOM     50  O   UNL A   1      39.781  36.737  36.286  1.00  0.00    -0.237 OA
ATOM     51  O   UNL A   1      40.274  35.489  38.356  1.00  0.00    -0.744 OA
ENDBRANCH  47  48
ENDBRANCH  26  40
BRANCH  27  52
ATOM     52  C   UNL A   1      43.065  24.842  28.051  1.00  0.00     0.058 A 
ATOM     53  C   UNL A   1      43.594  25.160  26.794  1.00  0.00     0.135 A 
ATOM     54  C   UNL A   1      42.843  23.487  28.347  1.00  0.00     0.135 A 
ATOM     55  F   UNL A   1      43.820  26.441  26.465  1.00  0.00    -0.206 F 
ATOM     56  C   UNL A   1      43.909  24.170  25.868  1.00  0.00     0.059 A 
ATOM     57  C   UNL A   1      43.174  22.479  27.448  1.00  0.00     0.059 A 
ATOM     58  F   UNL A   1      42.357  23.131  29.547  1.00  0.00    -0.206 F 
ATOM     59  C   UNL A   1      43.708  22.831  26.210  1.00  0.00     0.060 A 
BRANCH  59  60
ATOM     60  S   UNL A   1      44.220  21.554  25.041  1.00  0.00     0.124 S 
ATOM     61  O   UNL A   1      45.566  21.247  25.512  1.00  0.00    -0.237 OA
ATOM     62  O   UNL A   1      43.215  20.519  25.262  1.00  0.00    -0.237 OA
ATOM     63  O   UNL A   1      44.140  22.229  23.749  1.00  0.00    -0.744 OA
ENDBRANCH  59  60
ENDBRANCH  27  52
BRANCH  39  64
ATOM     64  C   UNL A   1      46.879  27.502  33.292  1.00  0.00     0.058 A 
ATOM     65  C   UNL A   1      48.052  28.156  32.886  1.00  0.00     0.135 A 
ATOM     66  C   UNL A   1      46.973  26.578  34.345  1.00  0.00     0.135 A 
ATOM     67  F   UNL A   1      48.019  29.037  31.874  1.00  0.00    -0.206 F 
ATOM     68  C   UNL A   1      49.271  27.911  33.510  1.00  0.00     0.059 A 
ATOM     69  C   UNL A   1      48.175  26.337  35.001  1.00  0.00     0.059 A 
ATOM     70  F   UNL A   1      45.878  25.928  34.773  1.00  0.00    -0.206 F 
ATOM     71  C   UNL A   1      49.320  27.010  34.577  1.00  0.00     0.060 A 
BRANCH  71  72
ATOM     72  S   UNL A   1      50.888  26.772  35.439  1.00  0.00     0.124 S 
ATOM     73  O   UNL A   1      51.157  25.361  35.177  1.00  0.00    -0.237 OA
ATOM     74  O   UNL A   1      51.764  27.721  34.760  1.00  0.00    -0.237 OA
ATOM     75  O   UNL A   1      50.569  27.103  36.824  1.00  0.00    -0.744 OA
ENDBRANCH  71  72
ENDBRANCH  39  64
ENDBRANCH  13  14
ENDBRANCH   6   8
ENDBRANCH   3   4
ENDBRANCH   2   3
ENDBRANCH   1   2
BRANCH   1  76
ATOM     76  C   UNL A   1      33.341  25.531  24.347  1.00  0.00     0.002 C 
BRANCH  76  77
ATOM     77  C   UNL A   1      33.774  24.856  23.044  1.00  0.00     0.021 C 
BRANCH  77  78
ATOM     78  C   UNL A   1      32.979  23.595  22.702  1.00  0.00     0.116 C 
BRANCH  78  79
ATOM     79  N   UNL A   1      32.074  23.227  23.774  1.00  0.00    -0.356 N 
ATOM     80  C   UNL A   1      32.035  22.120  24.565  1.00  0.00     0.223 C 
ATOM     81  H   UNL A   1      31.370  23.889  23.962  1.00  0.00     0.163 HD
ATOM     82  O   UNL A   1      31.143  22.058  25.412  1.00  0.00    -0.275 OA
BRANCH  80  83
ATOM     83  C   UNL A   1      33.104  21.031  24.433  1.00  0.00     0.083 C 
BRANCH  83  84
ATOM     84  C   UNL A   1      33.947  20.948  25.726  1.00  0.00     0.049 C 
BRANCH  84  85
ATOM     85  C   UNL A   1      35.272  21.681  25.662  1.00  0.00    -0.047 A 
ATOM     86  C   UNL A   1      35.365  23.003  26.121  1.00  0.00     0.004 A 
ATOM     87  C   UNL A   1      36.417  21.075  25.125  1.00  0.00     0.004 A 
ATOM     88  C   UNL A   1      36.583  23.684  26.082  1.00  0.00     0.000 A 
ATOM     89  C   UNL A   1      37.637  21.751  25.099  1.00  0.00     0.000 A 
ATOM     90  C   UNL A   1      37.720  23.054  25.581  1.00  0.00     0.000 A 
ENDBRANCH  84  85
ENDBRANCH  83  84
BRANCH  83  91
ATOM     91  C   UNL A   1      32.611  19.645  23.969  1.00  0.00     0.023 C 
BRANCH  91  92
ATOM     92  C   UNL A   1      33.418  18.366  24.238  1.00  0.00     0.116 C 
BRANCH  92  93
ATOM     93  C   UNL A   1      33.353  17.204  23.269  1.00  0.00     0.389 C 
ATOM     94  F   UNL A   1      34.524  16.979  22.648  1.00  0.00    -0.171 F 
ATOM     95  F   UNL A   1      33.037  16.071  23.941  1.00  0.00    -0.171 F 
ATOM     96  F   UNL A   1      32.397  17.390  22.339  1.00  0.00    -0.171 F 
ENDBRANCH  92  93
ENDBRANCH  91  92
ENDBRANCH  83  91
ENDBRANCH  80  83
ENDBRANCH  78  79
ENDBRANCH  77  78
ENDBRANCH  76  77
ENDBRANCH   1  76
TORSDOF 21
ENDMDL
MODEL 3
REMARK VINA RESULT:      -9.9      3.100      4.150
REMARK SMILES O=C(NCCCCCCNC(=O)[C@H](CCC(F)(F)F)Cc1ccccc1)c1ccc(-c2c3nc(c(-c4c(F)cc(S(=O)(=O)[O-])cc4F)c4ccc([nH]4)c(-c4c(F)cc(S(=O)(=O)[O-])cc4F)c4nc(c(-c5c(F)cc(S(=O)(=O)[O-])cc5F)c5ccc2[nH]5)C=C4)C=C3)cc1
REMARK SMILES IDX 6 1 5 2 4 3 3 4 1 5 2 6 27 8 28 9 92 10 29 11 91 12 30 13
REMARK SMILES IDX 31 14 32 15 85 16 33 17 90 18 84 19 86 20 34 21 89 22 83 23
REMARK SMILES IDX 82 24 35 26 69 27 48 28 68 29 49 30 52 31 67 32 87 33 50 34
REMARK SMILES IDX 51 35 66 37 88 38 53 39 36 40 37 41 46 42 38 43 39 44 45 45
REMARK SMILES IDX 47 46 40 47 41 48 42 49 43 50 44 51 70 52 71 53 80 54 72 55
REMARK SMILES IDX 73 56 79 57 81 58 74 59 75 60 76 61 77 62 78 63 54 64 55 65
REMARK SMILES IDX 64 66 56 67 57 68 63 69 65 70 58 71 59 72 60 73 61 74 62 75
REMARK SMILES IDX 7 76 8 77 9 78 10 79 11 80 12 82 13 83 20 84 21 85 22 86
REMARK SMILES IDX 26 87 23 88 25 89 24 90 14 91 15 92 16 93 17 94 18 95 19 96
REMARK H PARENT 3 7 86 25 52 36 10 81
REMARK Flexibility Score: inf
ROOT
ATOM      1  C   UNL A   1      33.267  26.139  25.748  1.00  0.00     0.002 C 
ENDROOT
BRANCH   1   2
ATOM      2  C   UNL A   1      33.203  27.510  26.425  1.00  0.00     0.021 C 
BRANCH   2   3
ATOM      3  C   UNL A   1      34.239  28.505  25.911  1.00  0.00     0.116 C 
BRANCH   3   4
ATOM      4  N   UNL A   1      33.858  29.869  26.235  1.00  0.00    -0.352 N 
ATOM      5  O   UNL A   1      33.709  31.661  27.604  1.00  0.00    -0.269 OA
ATOM      6  C   UNL A   1      34.322  30.650  27.260  1.00  0.00     0.251 C 
ATOM      7  H   UNL A   1      33.184  30.283  25.647  1.00  0.00     0.163 HD
BRANCH   6   8
ATOM      8  C   UNL A   1      35.567  30.258  27.946  1.00  0.00     0.039 A 
ATOM      9  C   UNL A   1      36.805  30.583  27.381  1.00  0.00     0.014 A 
ATOM     10  C   UNL A   1      35.497  29.564  29.155  1.00  0.00     0.014 A 
ATOM     11  C   UNL A   1      37.976  30.128  27.975  1.00  0.00     0.010 A 
ATOM     12  C   UNL A   1      36.676  29.172  29.787  1.00  0.00     0.010 A 
ATOM     13  C   UNL A   1      37.923  29.440  29.196  1.00  0.00    -0.014 A 
BRANCH  13  14
ATOM     14  C   UNL A   1      39.176  29.074  29.897  1.00  0.00     0.031 A 
ATOM     15  C   UNL A   1      39.664  29.875  31.068  1.00  0.00     0.074 A 
ATOM     16  C   UNL A   1      39.898  28.038  29.428  1.00  0.00     0.049 A 
ATOM     17  N   UNL A   1      40.790  29.770  31.725  1.00  0.00    -0.248 NA
ATOM     18  C   UNL A   1      38.778  30.941  31.555  1.00  0.00     0.031 C 
ATOM     19  C   UNL A   1      39.517  27.196  28.291  1.00  0.00     0.029 A 
ATOM     20  N   UNL A   1      41.107  27.532  29.827  1.00  0.00    -0.354 N 
ATOM     21  C   UNL A   1      40.763  30.773  32.686  1.00  0.00     0.074 A 
ATOM     22  C   UNL A   1      39.516  31.487  32.512  1.00  0.00     0.031 C 
ATOM     23  C   UNL A   1      40.473  26.281  28.083  1.00  0.00     0.029 A 
ATOM     24  C   UNL A   1      41.563  26.515  29.023  1.00  0.00     0.049 A 
ATOM     25  H   UNL A   1      41.600  27.863  30.612  1.00  0.00     0.167 HD
ATOM     26  C   UNL A   1      41.698  31.066  33.623  1.00  0.00     0.037 A 
ATOM     27  C   UNL A   1      42.745  25.871  29.008  1.00  0.00     0.037 A 
ATOM     28  C   UNL A   1      42.936  30.343  33.773  1.00  0.00     0.049 A 
ATOM     29  C   UNL A   1      43.783  26.233  30.029  1.00  0.00     0.074 A 
ATOM     30  C   UNL A   1      43.933  30.530  34.714  1.00  0.00     0.029 A 
ATOM     31  N   UNL A   1      43.357  29.308  32.946  1.00  0.00    -0.354 N 
ATOM     32  N   UNL A   1      43.728  27.153  30.962  1.00  0.00    -0.248 NA
ATOM     33  C   UNL A   1      45.039  25.474  30.003  1.00  0.00     0.031 C 
ATOM     34  C   UNL A   1      44.980  29.650  34.421  1.00  0.00     0.029 A 
ATOM     35  C   UNL A   1      44.610  28.867  33.338  1.00  0.00     0.049 A 
ATOM     36  H   UNL A   1      42.839  28.943  32.193  1.00  0.00     0.167 HD
ATOM     37  C   UNL A   1      44.930  27.069  31.652  1.00  0.00     0.074 A 
ATOM     38  C   UNL A   1      45.694  26.006  31.027  1.00  0.00     0.031 C 
ATOM     39  C   UNL A   1      45.354  27.800  32.712  1.00  0.00     0.037 A 
BRANCH  26  40
ATOM     40  C   UNL A   1      41.434  32.244  34.524  1.00  0.00     0.058 A 
ATOM     41  C   UNL A   1      40.750  32.113  35.743  1.00  0.00     0.135 A 
ATOM     42  C   UNL A   1      41.870  33.528  34.157  1.00  0.00     0.135 A 
ATOM     43  F   UNL A   1      40.302  30.912  36.142  1.00  0.00    -0.206 F 
ATOM     44  C   UNL A   1      40.459  33.218  36.538  1.00  0.00     0.059 A 
ATOM     45  C   UNL A   1      41.619  34.643  34.951  1.00  0.00     0.059 A 
ATOM     46  F   UNL A   1      42.538  33.713  33.007  1.00  0.00    -0.206 F 
ATOM     47  C   UNL A   1      40.888  34.481  36.127  1.00  0.00     0.060 A 
BRANCH  47  48
ATOM     48  S   UNL A   1      40.453  35.912  37.138  1.00  0.00     0.124 S 
ATOM     49  O   UNL A   1      41.764  36.329  37.626  1.00  0.00    -0.237 OA
ATOM     50  O   UNL A   1      39.827  36.804  36.166  1.00  0.00    -0.237 OA
ATOM     51  O   UNL A   1      39.555  35.357  38.145  1.00  0.00    -0.744 OA
ENDBRANCH  47  48
ENDBRANCH  26  40
BRANCH  27  52
ATOM     52  C   UNL A   1      42.985  24.836  27.970  1.00  0.00     0.058 A 
ATOM     53  C   UNL A   1      43.572  25.168  26.742  1.00  0.00     0.135 A 
ATOM     54  C   UNL A   1      42.728  23.480  28.231  1.00  0.00     0.135 A 
ATOM     55  F   UNL A   1      43.832  26.450  26.446  1.00  0.00    -0.206 F 
ATOM     56  C   UNL A   1      43.908  24.189  25.812  1.00  0.00     0.059 A 
ATOM     57  C   UNL A   1      43.079  22.483  27.329  1.00  0.00     0.059 A 
ATOM     58  F   UNL A   1      42.187  23.112  29.404  1.00  0.00    -0.206 F 
ATOM     59  C   UNL A   1      43.671  22.847  26.120  1.00  0.00     0.060 A 
BRANCH  59  60
ATOM     60  S   UNL A   1      44.209  21.582  24.950  1.00  0.00     0.124 S 
ATOM     61  O   UNL A   1      44.066  22.281  23.677  1.00  0.00    -0.237 OA
ATOM     62  O   UNL A   1      45.578  21.326  25.387  1.00  0.00    -0.237 OA
ATOM     63  O   UNL A   1      43.270  20.489  25.180  1.00  0.00    -0.744 OA
ENDBRANCH  59  60
ENDBRANCH  27  52
BRANCH  39  64
ATOM     64  C   UNL A   1      46.691  27.456  33.308  1.00  0.00     0.058 A 
ATOM     65  C   UNL A   1      46.849  26.392  34.208  1.00  0.00     0.135 A 
ATOM     66  C   UNL A   1      47.844  28.137  32.885  1.00  0.00     0.135 A 
ATOM     67  F   UNL A   1      45.778  25.718  34.655  1.00  0.00    -0.206 F 
ATOM     68  C   UNL A   1      48.107  26.008  34.662  1.00  0.00     0.059 A 
ATOM     69  C   UNL A   1      49.113  27.755  33.306  1.00  0.00     0.059 A 
ATOM     70  F   UNL A   1      47.745  29.161  32.023  1.00  0.00    -0.206 F 
ATOM     71  C   UNL A   1      49.235  26.687  34.194  1.00  0.00     0.060 A 
BRANCH  71  72
ATOM     72  S   UNL A   1      50.867  26.120  34.717  1.00  0.00     0.124 S 
ATOM     73  O   UNL A   1      51.705  26.572  33.610  1.00  0.00    -0.237 OA
ATOM     74  O   UNL A   1      51.051  26.827  35.981  1.00  0.00    -0.237 OA
ATOM     75  O   UNL A   1      50.705  24.675  34.833  1.00  0.00    -0.744 OA
ENDBRANCH  71  72
ENDBRANCH  39  64
ENDBRANCH  13  14
ENDBRANCH   6   8
ENDBRANCH   3   4
ENDBRANCH   2   3
ENDBRANCH   1   2
BRANCH   1  76
ATOM     76  C   UNL A   1      32.591  25.015  26.533  1.00  0.00     0.002 C 
BRANCH  76  77
ATOM     77  C   UNL A   1      31.792  24.042  25.665  1.00  0.00     0.021 C 
BRANCH  77  78
ATOM     78  C   UNL A   1      31.741  22.615  26.216  1.00  0.00     0.116 C 
BRANCH  78  79
ATOM     79  N   UNL A   1      31.860  21.630  25.158  1.00  0.00    -0.356 N 
ATOM     80  C   UNL A   1      32.863  21.397  24.268  1.00  0.00     0.223 C 
ATOM     81  H   UNL A   1      31.085  21.029  25.068  1.00  0.00     0.163 HD
ATOM     82  O   UNL A   1      32.703  20.482  23.458  1.00  0.00    -0.275 OA
BRANCH  80  83
ATOM     83  C   UNL A   1      34.159  22.210  24.325  1.00  0.00     0.083 C 
BRANCH  83  84
ATOM     84  C   UNL A   1      35.359  21.286  24.634  1.00  0.00     0.049 C 
BRANCH  84  85
ATOM     85  C   UNL A   1      36.552  21.987  25.252  1.00  0.00    -0.047 A 
ATOM     86  C   UNL A   1      37.774  21.312  25.377  1.00  0.00     0.004 A 
ATOM     87  C   UNL A   1      36.459  23.303  25.730  1.00  0.00     0.004 A 
ATOM     88  C   UNL A   1      38.885  21.952  25.930  1.00  0.00     0.000 A 
ATOM     89  C   UNL A   1      37.573  23.947  26.270  1.00  0.00     0.000 A 
ATOM     90  C   UNL A   1      38.787  23.272  26.365  1.00  0.00     0.000 A 
ENDBRANCH  84  85
ENDBRANCH  83  84
BRANCH  83  91
ATOM     91  C   UNL A   1      34.433  23.141  23.126  1.00  0.00     0.023 C 
BRANCH  91  92
ATOM     92  C   UNL A   1      33.331  23.515  22.124  1.00  0.00     0.116 C 
BRANCH  92  93
ATOM     93  C   UNL A   1      32.960  24.967  21.905  1.00  0.00     0.389 C 
ATOM     94  F   UNL A   1      33.904  25.817  22.345  1.00  0.00    -0.171 F 
ATOM     95  F   UNL A   1      32.804  25.200  20.579  1.00  0.00    -0.171 F 
ATOM     96  F   UNL A   1      31.791  25.273  22.498  1.00  0.00    -0.171 F 
ENDBRANCH  92  93
ENDBRANCH  91  92
ENDBRANCH  83  91
ENDBRANCH  80  83
ENDBRANCH  78  79
ENDBRANCH  77  78
ENDBRANCH  76  77
ENDBRANCH   1  76
TORSDOF 21
ENDMDL
