MODEL 1
REMARK VINA RESULT:     -11.7      0.000      0.000
REMARK SMILES Cc1cc(C)c2c(c1)C=C(C(=O)NCCCCCCNC(=O)c1ccc(-c3c4nc(c(-c5c(F)cc(S(=O)(=O)[O-])cc5F)c5ccc([nH]5)c(-c5c(F)cc(S(=O)(=O)[O-])cc5F)c5nc(c(-c6c(F)cc(S(=O)(=O)[O-])cc6F)c6ccc3[nH]6)C=C5)C=C4)cc1)[C@@H](C(F)(F)F)O2
REMARK SMILES IDX 17 1 16 2 15 3 14 4 13 5 11 6 12 7 10 9 1 10 2 11 3 12 8 13
REMARK SMILES IDX 4 14 7 15 5 16 6 17 9 18 94 19 89 20 90 21 91 22 92 23 93 24
REMARK SMILES IDX 18 25 19 26 20 27 21 28 22 30 23 31 24 32 88 33 25 34 87 35
REMARK SMILES IDX 26 36 27 37 28 38 81 39 29 40 86 41 80 42 82 43 30 44 85 45
REMARK SMILES IDX 79 46 78 47 31 49 65 50 44 51 64 52 45 53 48 54 63 55 83 56
REMARK SMILES IDX 46 57 47 58 62 60 84 61 49 62 32 63 33 64 42 65 34 66 35 67
REMARK SMILES IDX 41 68 43 69 36 70 37 71 38 72 39 73 40 74 66 75 67 76 76 77
REMARK SMILES IDX 68 78 69 79 75 80 77 81 70 82 71 83 72 84 73 85 74 86 50 87
REMARK SMILES IDX 51 88 60 89 52 90 53 91 59 92 61 93 54 94 55 95 56 96 57 97
REMARK SMILES IDX 58 98
REMARK H PARENT 13 8 20 29 82 48 48 59
REMARK Flexibility Score: inf
ROOT
ATOM      1  C   UNL A   1      31.815  28.226  25.407  1.00  0.00     0.002 C 
ENDROOT
BRANCH   1   2
ATOM      2  C   UNL A   1      31.470  29.336  24.405  1.00  0.00     0.002 C 
BRANCH   2   3
ATOM      3  C   UNL A   1      30.685  28.872  23.176  1.00  0.00     0.021 C 
BRANCH   3   4
ATOM      4  C   UNL A   1      30.643  27.355  23.024  1.00  0.00     0.116 C 
BRANCH   4   5
ATOM      5  N   UNL A   1      31.603  26.887  22.041  1.00  0.00    -0.352 N 
ATOM      6  C   UNL A   1      32.590  25.962  21.981  1.00  0.00     0.251 C 
ATOM      7  O   UNL A   1      33.169  25.877  20.893  1.00  0.00    -0.270 OA
ATOM      8  H   UNL A   1      31.513  27.373  21.189  1.00  0.00     0.163 HD
BRANCH   6   9
ATOM      9  C   UNL A   1      33.004  25.076  23.108  1.00  0.00     0.067 C 
ATOM     10  C   UNL A   1      37.780  21.649  25.031  1.00  0.00     0.044 C 
ATOM     11  C   UNL A   1      36.429  22.295  25.107  1.00  0.00    -0.050 A 
ATOM     12  C   UNL A   1      35.621  22.123  26.240  1.00  0.00     0.010 A 
ATOM     13  C   UNL A   1      35.985  23.118  24.063  1.00  0.00     0.015 A 
ATOM     14  C   UNL A   1      34.373  22.746  26.329  1.00  0.00    -0.008 A 
ATOM     15  C   UNL A   1      34.738  23.744  24.135  1.00  0.00     0.018 A 
ATOM     16  C   UNL A   1      33.502  22.559  27.539  1.00  0.00     0.048 C 
ATOM     17  C   UNL A   1      33.941  23.545  25.264  1.00  0.00     0.130 A 
ATOM     18  C   UNL A   1      34.274  24.631  23.074  1.00  0.00     0.025 C 
ATOM     19  O   UNL A   1      32.732  24.156  25.416  1.00  0.00    -0.475 OA
ATOM     20  C   UNL A   1      32.086  24.644  24.216  1.00  0.00     0.314 C 
BRANCH  20  21
ATOM     21  C   UNL A   1      31.035  23.619  23.753  1.00  0.00     0.429 C 
ATOM     22  F   UNL A   1      29.999  24.244  23.143  1.00  0.00    -0.167 F 
ATOM     23  F   UNL A   1      31.530  22.735  22.855  1.00  0.00    -0.167 F 
ATOM     24  F   UNL A   1      30.531  22.895  24.776  1.00  0.00    -0.167 F 
ENDBRANCH  20  21
ENDBRANCH   6   9
ENDBRANCH   4   5
ENDBRANCH   3   4
ENDBRANCH   2   3
ENDBRANCH   1   2
BRANCH   1  25
ATOM     25  C   UNL A   1      33.311  27.953  25.586  1.00  0.00     0.021 C 
BRANCH  25  26
ATOM     26  C   UNL A   1      33.836  28.230  26.989  1.00  0.00     0.116 C 
BRANCH  26  27
ATOM     27  N   UNL A   1      33.651  29.622  27.364  1.00  0.00    -0.352 N 
ATOM     28  C   UNL A   1      34.489  30.446  28.068  1.00  0.00     0.251 C 
ATOM     29  H   UNL A   1      32.804  30.030  27.071  1.00  0.00     0.163 HD
ATOM     30  O   UNL A   1      34.076  31.517  28.506  1.00  0.00    -0.269 OA
BRANCH  28  31
ATOM     31  C   UNL A   1      35.886  30.031  28.303  1.00  0.00     0.039 A 
ATOM     32  C   UNL A   1      36.803  30.109  27.254  1.00  0.00     0.014 A 
ATOM     33  C   UNL A   1      36.283  29.561  29.559  1.00  0.00     0.014 A 
ATOM     34  C   UNL A   1      38.134  29.755  27.477  1.00  0.00     0.010 A 
ATOM     35  C   UNL A   1      37.624  29.279  29.800  1.00  0.00     0.010 A 
ATOM     36  C   UNL A   1      38.560  29.361  28.757  1.00  0.00    -0.014 A 
BRANCH  36  37
ATOM     37  C   UNL A   1      39.976  29.005  29.014  1.00  0.00     0.031 A 
ATOM     38  C   UNL A   1      40.903  30.017  29.630  1.00  0.00     0.074 A 
ATOM     39  C   UNL A   1      40.430  27.785  28.665  1.00  0.00     0.049 A 
ATOM     40  N   UNL A   1      42.178  29.912  29.895  1.00  0.00    -0.248 NA
ATOM     41  C   UNL A   1      40.325  31.329  29.971  1.00  0.00     0.031 C 
ATOM     42  C   UNL A   1      39.630  26.734  28.032  1.00  0.00     0.029 A 
ATOM     43  N   UNL A   1      41.675  27.222  28.792  1.00  0.00    -0.354 N 
ATOM     44  C   UNL A   1      42.555  31.136  30.433  1.00  0.00     0.074 A 
ATOM     45  C   UNL A   1      41.390  31.992  30.400  1.00  0.00     0.031 C 
ATOM     46  C   UNL A   1      40.395  25.646  27.854  1.00  0.00     0.029 A 
ATOM     47  C   UNL A   1      41.749  25.931  28.323  1.00  0.00     0.049 A 
ATOM     48  H   UNL A   1      42.443  27.697  29.183  1.00  0.00     0.167 HD
ATOM     49  C   UNL A   1      43.756  31.503  30.938  1.00  0.00     0.037 A 
ATOM     50  C   UNL A   1      42.789  25.077  28.274  1.00  0.00     0.037 A 
ATOM     51  C   UNL A   1      44.903  30.634  30.991  1.00  0.00     0.049 A 
ATOM     52  C   UNL A   1      44.122  25.520  28.816  1.00  0.00     0.074 A 
ATOM     53  C   UNL A   1      46.152  30.897  31.522  1.00  0.00     0.029 A 
ATOM     54  N   UNL A   1      44.940  29.339  30.497  1.00  0.00    -0.354 N 
ATOM     55  N   UNL A   1      44.447  26.665  29.367  1.00  0.00    -0.248 NA
ATOM     56  C   UNL A   1      45.229  24.558  28.732  1.00  0.00     0.031 C 
ATOM     57  C   UNL A   1      46.962  29.778  31.307  1.00  0.00     0.029 A 
ATOM     58  C   UNL A   1      46.200  28.797  30.690  1.00  0.00     0.049 A 
ATOM     59  H   UNL A   1      44.184  28.873  30.073  1.00  0.00     0.167 HD
ATOM     60  C   UNL A   1      45.790  26.552  29.716  1.00  0.00     0.074 A 
ATOM     61  C   UNL A   1      46.209  25.221  29.329  1.00  0.00     0.031 C 
ATOM     62  C   UNL A   1      46.600  27.468  30.302  1.00  0.00     0.037 A 
BRANCH  49  63
ATOM     63  C   UNL A   1      43.893  32.893  31.494  1.00  0.00     0.058 A 
ATOM     64  C   UNL A   1      43.657  33.165  32.852  1.00  0.00     0.135 A 
ATOM     65  C   UNL A   1      44.336  33.949  30.682  1.00  0.00     0.135 A 
ATOM     66  F   UNL A   1      43.214  32.196  33.669  1.00  0.00    -0.206 F 
ATOM     67  C   UNL A   1      43.846  34.437  33.382  1.00  0.00     0.059 A 
ATOM     68  C   UNL A   1      44.558  35.223  31.197  1.00  0.00     0.059 A 
ATOM     69  F   UNL A   1      44.570  33.745  29.376  1.00  0.00    -0.206 F 
ATOM     70  C   UNL A   1      44.304  35.458  32.548  1.00  0.00     0.060 A 
BRANCH  70  71
ATOM     71  S   UNL A   1      44.581  37.091  33.265  1.00  0.00     0.124 S 
ATOM     72  O   UNL A   1      43.968  36.939  34.582  1.00  0.00    -0.237 OA
ATOM     73  O   UNL A   1      46.036  37.191  33.253  1.00  0.00    -0.237 OA
ATOM     74  O   UNL A   1      43.883  37.989  32.350  1.00  0.00    -0.744 OA
ENDBRANCH  70  71
ENDBRANCH  49  63
BRANCH  50  75
ATOM     75  C   UNL A   1      42.607  23.711  27.711  1.00  0.00     0.058 A 
ATOM     76  C   UNL A   1      42.428  22.603  28.551  1.00  0.00     0.135 A 
ATOM     77  C   UNL A   1      42.596  23.488  26.325  1.00  0.00     0.135 A 
ATOM     78  F   UNL A   1      42.438  22.763  29.883  1.00  0.00    -0.206 F 
ATOM     79  C   UNL A   1      42.260  21.320  28.041  1.00  0.00     0.059 A 
ATOM     80  C   UNL A   1      42.402  22.218  25.789  1.00  0.00     0.059 A 
ATOM     81  F   UNL A   1      42.747  24.516  25.476  1.00  0.00    -0.206 F 
ATOM     82  C   UNL A   1      42.244  21.138  26.657  1.00  0.00     0.060 A 
BRANCH  82  83
ATOM     83  S   UNL A   1      41.984  19.474  26.007  1.00  0.00     0.124 S 
ATOM     84  O   UNL A   1      42.831  19.483  24.821  1.00  0.00    -0.237 OA
ATOM     85  O   UNL A   1      42.444  18.640  27.114  1.00  0.00    -0.237 OA
ATOM     86  O   UNL A   1      40.546  19.431  25.756  1.00  0.00    -0.744 OA
ENDBRANCH  82  83
ENDBRANCH  50  75
BRANCH  62  87
ATOM     87  C   UNL A   1      48.022  27.065  30.579  1.00  0.00     0.058 A 
ATOM     88  C   UNL A   1      49.053  27.339  29.668  1.00  0.00     0.135 A 
ATOM     89  C   UNL A   1      48.369  26.475  31.806  1.00  0.00     0.135 A 
ATOM     90  F   UNL A   1      48.774  27.898  28.480  1.00  0.00    -0.206 F 
ATOM     91  C   UNL A   1      50.378  27.028  29.956  1.00  0.00     0.059 A 
ATOM     92  C   UNL A   1      49.690  26.183  32.127  1.00  0.00     0.059 A 
ATOM     93  F   UNL A   1      47.421  26.202  32.717  1.00  0.00    -0.206 F 
ATOM     94  C   UNL A   1      50.687  26.458  31.193  1.00  0.00     0.060 A 
BRANCH  94  95
ATOM     95  S   UNL A   1      52.417  26.107  31.568  1.00  0.00     0.124 S 
ATOM     96  O   UNL A   1      52.328  24.770  32.146  1.00  0.00    -0.237 OA
ATOM     97  O   UNL A   1      53.042  26.189  30.252  1.00  0.00    -0.237 OA
ATOM     98  O   UNL A   1      52.787  27.169  32.499  1.00  0.00    -0.744 OA
ENDBRANCH  94  95
ENDBRANCH  62  87
ENDBRANCH  36  37
ENDBRANCH  28  31
ENDBRANCH  26  27
ENDBRANCH  25  26
ENDBRANCH   1  25
TORSDOF 17
ENDMDL
MODEL 2
REMARK VINA RESULT:     -11.6      1.379      2.151
REMARK SMILES Cc1cc(C)c2c(c1)C=C(C(=O)NCCCCCCNC(=O)c1ccc(-c3c4nc(c(-c5c(F)cc(S(=O)(=O)[O-])cc5F)c5ccc([nH]5)c(-c5c(F)cc(S(=O)(=O)[O-])cc5F)c5nc(c(-c6c(F)cc(S(=O)(=O)[O-])cc6F)c6ccc3[nH]6)C=C5)C=C4)cc1)[C@@H](C(F)(F)F)O2
REMARK SMILES IDX 17 1 16 2 15 3 14 4 13 5 11 6 12 7 10 9 1 10 2 11 3 12 8 13
REMARK SMILES IDX 4 14 7 15 5 16 6 17 9 18 94 19 89 20 90 21 91 22 92 23 93 24
REMARK SMILES IDX 18 25 19 26 20 27 21 28 22 30 23 31 24 32 88 33 25 34 87 35
REMARK SMILES IDX 26 36 27 37 28 38 81 39 29 40 86 41 80 42 82 43 30 44 85 45
REMARK SMILES IDX 79 46 78 47 31 49 65 50 44 51 64 52 45 53 48 54 63 55 83 56
REMARK SMILES IDX 46 57 47 58 62 60 84 61 49 62 32 63 33 64 42 65 34 66 35 67
REMARK SMILES IDX 41 68 43 69 36 70 37 71 38 72 39 73 40 74 66 75 67 76 76 77
REMARK SMILES IDX 68 78 69 79 75 80 77 81 70 82 71 83 72 84 73 85 74 86 50 87
REMARK SMILES IDX 51 88 60 89 52 90 53 91 59 92 61 93 54 94 55 95 56 96 57 97
REMARK SMILES IDX 58 98
REMARK H PARENT 13 8 20 29 82 48 48 59
REMARK Flexibility Score: inf
ROOT
ATOM      1  C   UNL A   1      31.621  27.064  26.233  1.00  0.00     0.002 C 
ENDROOT
BRANCH   1   2
ATOM      2  C   UNL A   1      31.181  28.197  25.296  1.00  0.00     0.002 C 
BRANCH   2   3
ATOM      3  C   UNL A   1      30.898  27.767  23.855  1.00  0.00     0.021 C 
BRANCH   3   4
ATOM      4  C   UNL A   1      31.139  26.281  23.611  1.00  0.00     0.116 C 
BRANCH   4   5
ATOM      5  N   UNL A   1      31.851  26.050  22.366  1.00  0.00    -0.352 N 
ATOM      6  C   UNL A   1      32.771  25.173  21.899  1.00  0.00     0.251 C 
ATOM      7  O   UNL A   1      33.100  25.332  20.719  1.00  0.00    -0.270 OA
ATOM      8  H   UNL A   1      31.597  26.706  21.678  1.00  0.00     0.163 HD
BRANCH   6   9
ATOM      9  C   UNL A   1      33.386  24.070  22.695  1.00  0.00     0.067 C 
ATOM     10  C   UNL A   1      32.301  18.256  24.501  1.00  0.00     0.044 C 
ATOM     11  C   UNL A   1      33.079  19.528  24.348  1.00  0.00    -0.050 A 
ATOM     12  C   UNL A   1      34.372  19.639  24.878  1.00  0.00     0.010 A 
ATOM     13  C   UNL A   1      32.534  20.602  23.630  1.00  0.00     0.015 A 
ATOM     14  C   UNL A   1      35.113  20.813  24.715  1.00  0.00    -0.008 A 
ATOM     15  C   UNL A   1      33.261  21.783  23.462  1.00  0.00     0.018 A 
ATOM     16  C   UNL A   1      36.497  20.938  25.287  1.00  0.00     0.048 C 
ATOM     17  C   UNL A   1      34.540  21.880  24.013  1.00  0.00     0.130 A 
ATOM     18  C   UNL A   1      32.725  22.898  22.688  1.00  0.00     0.025 C 
ATOM     19  O   UNL A   1      35.318  22.989  23.853  1.00  0.00    -0.475 OA
ATOM     20  C   UNL A   1      34.644  24.220  23.503  1.00  0.00     0.314 C 
BRANCH  20  21
ATOM     21  C   UNL A   1      34.438  25.065  24.773  1.00  0.00     0.429 C 
ATOM     22  F   UNL A   1      34.298  26.375  24.454  1.00  0.00    -0.167 F 
ATOM     23  F   UNL A   1      33.322  24.716  25.455  1.00  0.00    -0.167 F 
ATOM     24  F   UNL A   1      35.472  24.963  25.637  1.00  0.00    -0.167 F 
ENDBRANCH  20  21
ENDBRANCH   6   9
ENDBRANCH   4   5
ENDBRANCH   3   4
ENDBRANCH   2   3
ENDBRANCH   1   2
BRANCH   1  25
ATOM     25  C   UNL A   1      32.424  27.509  27.459  1.00  0.00     0.021 C 
BRANCH  25  26
ATOM     26  C   UNL A   1      33.681  28.304  27.131  1.00  0.00     0.116 C 
BRANCH  26  27
ATOM     27  N   UNL A   1      33.517  29.715  27.438  1.00  0.00    -0.352 N 
ATOM     28  C   UNL A   1      34.377  30.564  28.083  1.00  0.00     0.251 C 
ATOM     29  H   UNL A   1      32.668  30.116  27.143  1.00  0.00     0.163 HD
ATOM     30  O   UNL A   1      33.985  31.660  28.474  1.00  0.00    -0.269 OA
BRANCH  28  31
ATOM     31  C   UNL A   1      35.776  30.147  28.310  1.00  0.00     0.039 A 
ATOM     32  C   UNL A   1      36.679  30.191  27.246  1.00  0.00     0.014 A 
ATOM     33  C   UNL A   1      36.187  29.708  29.572  1.00  0.00     0.014 A 
ATOM     34  C   UNL A   1      38.010  29.835  27.461  1.00  0.00     0.010 A 
ATOM     35  C   UNL A   1      37.530  29.424  29.802  1.00  0.00     0.010 A 
ATOM     36  C   UNL A   1      38.451  29.473  28.745  1.00  0.00    -0.014 A 
BRANCH  36  37
ATOM     37  C   UNL A   1      39.869  29.114  28.992  1.00  0.00     0.031 A 
ATOM     38  C   UNL A   1      40.806  30.132  29.580  1.00  0.00     0.074 A 
ATOM     39  C   UNL A   1      40.314  27.887  28.657  1.00  0.00     0.049 A 
ATOM     40  N   UNL A   1      42.084  30.026  29.834  1.00  0.00    -0.248 NA
ATOM     41  C   UNL A   1      40.238  31.452  29.907  1.00  0.00     0.031 C 
ATOM     42  C   UNL A   1      39.503  26.829  28.049  1.00  0.00     0.029 A 
ATOM     43  N   UNL A   1      41.558  27.320  28.779  1.00  0.00    -0.354 N 
ATOM     44  C   UNL A   1      42.472  31.257  30.348  1.00  0.00     0.074 A 
ATOM     45  C   UNL A   1      41.311  32.117  30.314  1.00  0.00     0.031 C 
ATOM     46  C   UNL A   1      40.261  25.735  27.881  1.00  0.00     0.029 A 
ATOM     47  C   UNL A   1      41.621  26.022  28.330  1.00  0.00     0.049 A 
ATOM     48  H   UNL A   1      42.332  27.799  29.154  1.00  0.00     0.167 HD
ATOM     49  C   UNL A   1      43.680  31.626  30.833  1.00  0.00     0.037 A 
ATOM     50  C   UNL A   1      42.657  25.163  28.283  1.00  0.00     0.037 A 
ATOM     51  C   UNL A   1      44.824  30.754  30.887  1.00  0.00     0.049 A 
ATOM     52  C   UNL A   1      43.998  25.609  28.803  1.00  0.00     0.074 A 
ATOM     53  C   UNL A   1      46.080  31.019  31.400  1.00  0.00     0.029 A 
ATOM     54  N   UNL A   1      44.850  29.451  30.414  1.00  0.00    -0.354 N 
ATOM     55  N   UNL A   1      44.334  26.761  29.333  1.00  0.00    -0.248 NA
ATOM     56  C   UNL A   1      45.100  24.641  28.722  1.00  0.00     0.031 C 
ATOM     57  C   UNL A   1      46.883  29.894  31.194  1.00  0.00     0.029 A 
ATOM     58  C   UNL A   1      46.110  28.906  30.601  1.00  0.00     0.049 A 
ATOM     59  H   UNL A   1      44.088  28.981  30.006  1.00  0.00     0.167 HD
ATOM     60  C   UNL A   1      45.680  26.648  29.668  1.00  0.00     0.074 A 
ATOM     61  C   UNL A   1      46.090  25.310  29.297  1.00  0.00     0.031 C 
ATOM     62  C   UNL A   1      46.500  27.569  30.230  1.00  0.00     0.037 A 
BRANCH  49  63
ATOM     63  C   UNL A   1      43.829  33.024  31.366  1.00  0.00     0.058 A 
ATOM     64  C   UNL A   1      44.190  34.093  30.529  1.00  0.00     0.135 A 
ATOM     65  C   UNL A   1      43.539  33.314  32.708  1.00  0.00     0.135 A 
ATOM     66  F   UNL A   1      44.497  33.869  29.241  1.00  0.00    -0.206 F 
ATOM     67  C   UNL A   1      44.265  35.397  31.006  1.00  0.00     0.059 A 
ATOM     68  C   UNL A   1      43.581  34.615  33.200  1.00  0.00     0.059 A 
ATOM     69  F   UNL A   1      43.196  32.329  33.554  1.00  0.00    -0.206 F 
ATOM     70  C   UNL A   1      43.951  35.649  32.341  1.00  0.00     0.060 A 
BRANCH  70  71
ATOM     71  S   UNL A   1      44.017  37.354  32.930  1.00  0.00     0.124 S 
ATOM     72  O   UNL A   1      45.349  37.407  33.525  1.00  0.00    -0.237 OA
ATOM     73  O   UNL A   1      43.845  38.114  31.696  1.00  0.00    -0.237 OA
ATOM     74  O   UNL A   1      42.906  37.433  33.874  1.00  0.00    -0.744 OA
ENDBRANCH  70  71
ENDBRANCH  49  63
BRANCH  50  75
ATOM     75  C   UNL A   1      42.463  23.789  27.744  1.00  0.00     0.058 A 
ATOM     76  C   UNL A   1      42.459  23.550  26.362  1.00  0.00     0.135 A 
ATOM     77  C   UNL A   1      42.293  22.687  28.598  1.00  0.00     0.135 A 
ATOM     78  F   UNL A   1      42.610  24.571  25.506  1.00  0.00    -0.206 F 
ATOM     79  C   UNL A   1      42.276  22.273  25.843  1.00  0.00     0.059 A 
ATOM     80  C   UNL A   1      42.136  21.395  28.103  1.00  0.00     0.059 A 
ATOM     81  F   UNL A   1      42.306  22.858  29.928  1.00  0.00    -0.206 F 
ATOM     82  C   UNL A   1      42.120  21.200  26.724  1.00  0.00     0.060 A 
BRANCH  82  83
ATOM     83  S   UNL A   1      41.925  19.541  26.037  1.00  0.00     0.124 S 
ATOM     84  O   UNL A   1      42.359  18.707  27.151  1.00  0.00    -0.237 OA
ATOM     85  O   UNL A   1      40.499  19.505  25.729  1.00  0.00    -0.237 OA
ATOM     86  O   UNL A   1      42.810  19.552  24.875  1.00  0.00    -0.744 OA
ENDBRANCH  82  83
ENDBRANCH  50  75
BRANCH  62  87
ATOM     87  C   UNL A   1      47.924  27.165  30.498  1.00  0.00     0.058 A 
ATOM     88  C   UNL A   1      48.968  27.549  29.644  1.00  0.00     0.135 A 
ATOM     89  C   UNL A   1      48.255  26.458  31.666  1.00  0.00     0.135 A 
ATOM     90  F   UNL A   1      48.704  28.221  28.512  1.00  0.00    -0.206 F 
ATOM     91  C   UNL A   1      50.292  27.233  29.929  1.00  0.00     0.059 A 
ATOM     92  C   UNL A   1      49.575  26.158  31.986  1.00  0.00     0.059 A 
ATOM     93  F   UNL A   1      47.294  26.077  32.522  1.00  0.00    -0.206 F 
ATOM     94  C   UNL A   1      50.586  26.544  31.108  1.00  0.00     0.060 A 
BRANCH  94  95
ATOM     95  S   UNL A   1      52.315  26.186  31.486  1.00  0.00     0.124 S 
ATOM     96  O   UNL A   1      52.871  25.976  30.154  1.00  0.00    -0.237 OA
ATOM     97  O   UNL A   1      52.741  27.405  32.166  1.00  0.00    -0.237 OA
ATOM     98  O   UNL A   1      52.240  24.998  32.330  1.00  0.00    -0.744 OA
ENDBRANCH  94  95
ENDBRANCH  62  87
ENDBRANCH  36  37
ENDBRANCH  28  31
ENDBRANCH  26  27
ENDBRANCH  25  26
ENDBRANCH   1  25
TORSDOF 17
ENDMDL
MODEL 3
REMARK VINA RESULT:     -11.6      2.688      3.618
REMARK SMILES Cc1cc(C)c2c(c1)C=C(C(=O)NCCCCCCNC(=O)c1ccc(-c3c4nc(c(-c5c(F)cc(S(=O)(=O)[O-])cc5F)c5ccc([nH]5)c(-c5c(F)cc(S(=O)(=O)[O-])cc5F)c5nc(c(-c6c(F)cc(S(=O)(=O)[O-])cc6F)c6ccc3[nH]6)C=C5)C=C4)cc1)[C@@H](C(F)(F)F)O2
REMARK SMILES IDX 17 1 16 2 15 3 14 4 13 5 11 6 12 7 10 9 1 10 2 11 3 12 8 13
REMARK SMILES IDX 4 14 7 15 5 16 6 17 9 18 94 19 89 20 90 21 91 22 92 23 93 24
REMARK SMILES IDX 18 25 19 26 20 27 21 28 22 30 23 31 24 32 88 33 25 34 87 35
REMARK SMILES IDX 26 36 27 37 28 38 81 39 29 40 86 41 80 42 82 43 30 44 85 45
REMARK SMILES IDX 79 46 78 47 31 49 65 50 44 51 64 52 45 53 48 54 63 55 83 56
REMARK SMILES IDX 46 57 47 58 62 60 84 61 49 62 32 63 33 64 42 65 34 66 35 67
REMARK SMILES IDX 41 68 43 69 36 70 37 71 38 72 39 73 40 74 66 75 67 76 76 77
REMARK SMILES IDX 68 78 69 79 75 80 77 81 70 82 71 83 72 84 73 85 74 86 50 87
REMARK SMILES IDX 51 88 60 89 52 90 53 91 59 92 61 93 54 94 55 95 56 96 57 97
REMARK SMILES IDX 58 98
REMARK H PARENT 13 8 20 29 82 48 48 59
REMARK Flexibility Score: inf
ROOT
ATOM      1  C   UNL A   1      32.732  29.763  27.163  1.00  0.00     0.002 C 
ENDROOT
BRANCH   1   2
ATOM      2  C   UNL A   1      31.830  29.569  25.936  1.00  0.00     0.002 C 
BRANCH   2   3
ATOM      3  C   UNL A   1      32.534  28.995  24.705  1.00  0.00     0.021 C 
BRANCH   3   4
ATOM      4  C   UNL A   1      31.779  27.835  24.065  1.00  0.00     0.116 C 
BRANCH   4   5
ATOM      5  N   UNL A   1      30.929  27.153  25.025  1.00  0.00    -0.352 N 
ATOM      6  C   UNL A   1      30.913  25.957  25.660  1.00  0.00     0.251 C 
ATOM      7  O   UNL A   1      29.975  25.790  26.447  1.00  0.00    -0.270 OA
ATOM      8  H   UNL A   1      30.158  27.708  25.283  1.00  0.00     0.163 HD
BRANCH   6   9
ATOM      9  C   UNL A   1      31.921  24.873  25.473  1.00  0.00     0.067 C 
ATOM     10  C   UNL A   1      37.987  23.797  26.015  1.00  0.00     0.044 C 
ATOM     11  C   UNL A   1      36.548  23.468  25.756  1.00  0.00    -0.050 A 
ATOM     12  C   UNL A   1      36.166  22.161  25.421  1.00  0.00     0.010 A 
ATOM     13  C   UNL A   1      35.565  24.459  25.895  1.00  0.00     0.015 A 
ATOM     14  C   UNL A   1      34.822  21.842  25.206  1.00  0.00    -0.008 A 
ATOM     15  C   UNL A   1      34.219  24.156  25.679  1.00  0.00     0.018 A 
ATOM     16  C   UNL A   1      34.410  20.444  24.840  1.00  0.00     0.048 C 
ATOM     17  C   UNL A   1      33.862  22.852  25.329  1.00  0.00     0.130 A 
ATOM     18  C   UNL A   1      33.179  25.164  25.853  1.00  0.00     0.025 C 
ATOM     19  O   UNL A   1      32.563  22.481  25.141  1.00  0.00    -0.475 OA
ATOM     20  C   UNL A   1      31.610  23.535  24.866  1.00  0.00     0.314 C 
BRANCH  20  21
ATOM     21  C   UNL A   1      31.365  23.612  23.348  1.00  0.00     0.429 C 
ATOM     22  F   UNL A   1      30.058  23.862  23.091  1.00  0.00    -0.167 F 
ATOM     23  F   UNL A   1      32.067  24.608  22.757  1.00  0.00    -0.167 F 
ATOM     24  F   UNL A   1      31.696  22.468  22.710  1.00  0.00    -0.167 F 
ENDBRANCH  20  21
ENDBRANCH   6   9
ENDBRANCH   4   5
ENDBRANCH   3   4
ENDBRANCH   2   3
ENDBRANCH   1   2
BRANCH   1  25
ATOM     25  C   UNL A   1      34.001  28.906  27.180  1.00  0.00     0.021 C 
BRANCH  25  26
ATOM     26  C   UNL A   1      35.276  29.680  27.488  1.00  0.00     0.116 C 
BRANCH  26  27
ATOM     27  N   UNL A   1      35.258  30.226  28.835  1.00  0.00    -0.352 N 
ATOM     28  C   UNL A   1      36.226  30.171  29.803  1.00  0.00     0.251 C 
ATOM     29  H   UNL A   1      34.434  30.701  29.088  1.00  0.00     0.163 HD
ATOM     30  O   UNL A   1      35.957  30.470  30.963  1.00  0.00    -0.269 OA
BRANCH  28  31
ATOM     31  C   UNL A   1      37.592  29.740  29.440  1.00  0.00     0.039 A 
ATOM     32  C   UNL A   1      38.001  29.829  28.109  1.00  0.00     0.014 A 
ATOM     33  C   UNL A   1      38.460  29.243  30.417  1.00  0.00     0.014 A 
ATOM     34  C   UNL A   1      39.300  29.460  27.763  1.00  0.00     0.010 A 
ATOM     35  C   UNL A   1      39.777  28.945  30.084  1.00  0.00     0.010 A 
ATOM     36  C   UNL A   1      40.206  29.039  28.752  1.00  0.00    -0.014 A 
BRANCH  36  37
ATOM     37  C   UNL A   1      41.598  28.665  28.402  1.00  0.00     0.031 A 
ATOM     38  C   UNL A   1      42.677  29.714  28.402  1.00  0.00     0.074 A 
ATOM     39  C   UNL A   1      41.880  27.394  28.056  1.00  0.00     0.049 A 
ATOM     40  N   UNL A   1      43.940  29.596  28.089  1.00  0.00    -0.248 NA
ATOM     41  C   UNL A   1      42.279  31.080  28.784  1.00  0.00     0.031 C 
ATOM     42  C   UNL A   1      40.908  26.300  27.988  1.00  0.00     0.029 A 
ATOM     43  N   UNL A   1      43.066  26.805  27.694  1.00  0.00    -0.354 N 
ATOM     44  C   UNL A   1      44.487  30.865  28.235  1.00  0.00     0.074 A 
ATOM     45  C   UNL A   1      43.407  31.753  28.605  1.00  0.00     0.031 C 
ATOM     46  C   UNL A   1      41.541  25.170  27.639  1.00  0.00     0.029 A 
ATOM     47  C   UNL A   1      42.955  25.462  27.419  1.00  0.00     0.049 A 
ATOM     48  H   UNL A   1      43.916  27.298  27.638  1.00  0.00     0.167 HD
ATOM     49  C   UNL A   1      45.778  31.248  28.103  1.00  0.00     0.037 A 
ATOM     50  C   UNL A   1      43.886  24.570  27.031  1.00  0.00     0.037 A 
ATOM     51  C   UNL A   1      46.850  30.351  27.760  1.00  0.00     0.049 A 
ATOM     52  C   UNL A   1      45.310  25.029  26.863  1.00  0.00     0.074 A 
ATOM     53  C   UNL A   1      48.199  30.633  27.644  1.00  0.00     0.029 A 
ATOM     54  N   UNL A   1      46.696  29.002  27.480  1.00  0.00    -0.354 N 
ATOM     55  N   UNL A   1      45.819  26.223  27.055  1.00  0.00    -0.248 NA
ATOM     56  C   UNL A   1      46.289  24.023  26.428  1.00  0.00     0.031 C 
ATOM     57  C   UNL A   1      48.856  29.465  27.246  1.00  0.00     0.029 A 
ATOM     58  C   UNL A   1      47.924  28.442  27.167  1.00  0.00     0.049 A 
ATOM     59  H   UNL A   1      45.842  28.514  27.500  1.00  0.00     0.167 HD
ATOM     60  C   UNL A   1      47.179  26.106  26.786  1.00  0.00     0.074 A 
ATOM     61  C   UNL A   1      47.416  24.721  26.436  1.00  0.00     0.031 C 
ATOM     62  C   UNL A   1      48.143  27.059  26.825  1.00  0.00     0.037 A 
BRANCH  49  63
ATOM     63  C   UNL A   1      46.113  32.693  28.349  1.00  0.00     0.058 A 
ATOM     64  C   UNL A   1      46.061  33.643  27.317  1.00  0.00     0.135 A 
ATOM     65  C   UNL A   1      46.419  33.146  29.642  1.00  0.00     0.135 A 
ATOM     66  F   UNL A   1      45.792  33.261  26.058  1.00  0.00    -0.206 F 
ATOM     67  C   UNL A   1      46.308  34.991  27.556  1.00  0.00     0.059 A 
ATOM     68  C   UNL A   1      46.643  34.494  29.909  1.00  0.00     0.059 A 
ATOM     69  F   UNL A   1      46.489  32.279  30.664  1.00  0.00    -0.206 F 
ATOM     70  C   UNL A   1      46.590  35.408  28.857  1.00  0.00     0.060 A 
BRANCH  70  71
ATOM     71  S   UNL A   1      46.869  37.167  29.152  1.00  0.00     0.124 S 
ATOM     72  O   UNL A   1      48.318  37.262  29.002  1.00  0.00    -0.237 OA
ATOM     73  O   UNL A   1      46.080  37.786  28.092  1.00  0.00    -0.237 OA
ATOM     74  O   UNL A   1      46.365  37.370  30.508  1.00  0.00    -0.744 OA
ENDBRANCH  70  71
ENDBRANCH  49  63
BRANCH  50  75
ATOM     75  C   UNL A   1      43.507  23.150  26.795  1.00  0.00     0.058 A 
ATOM     76  C   UNL A   1      43.480  22.616  25.499  1.00  0.00     0.135 A 
ATOM     77  C   UNL A   1      43.179  22.296  27.860  1.00  0.00     0.135 A 
ATOM     78  F   UNL A   1      43.779  23.394  24.447  1.00  0.00    -0.206 F 
ATOM     79  C   UNL A   1      43.125  21.292  25.262  1.00  0.00     0.059 A 
ATOM     80  C   UNL A   1      42.847  20.960  27.651  1.00  0.00     0.059 A 
ATOM     81  F   UNL A   1      43.206  22.751  29.121  1.00  0.00    -0.206 F 
ATOM     82  C   UNL A   1      42.814  20.470  26.347  1.00  0.00     0.060 A 
BRANCH  82  83
ATOM     83  S   UNL A   1      42.396  18.743  26.028  1.00  0.00     0.124 S 
ATOM     84  O   UNL A   1      43.312  18.412  24.944  1.00  0.00    -0.237 OA
ATOM     85  O   UNL A   1      42.680  18.119  27.317  1.00  0.00    -0.237 OA
ATOM     86  O   UNL A   1      40.983  18.800  25.665  1.00  0.00    -0.744 OA
ENDBRANCH  82  83
ENDBRANCH  50  75
BRANCH  62  87
ATOM     87  C   UNL A   1      49.550  26.642  26.497  1.00  0.00     0.058 A 
ATOM     88  C   UNL A   1      50.377  26.036  27.453  1.00  0.00     0.135 A 
ATOM     89  C   UNL A   1      50.044  26.775  25.188  1.00  0.00     0.135 A 
ATOM     90  F   UNL A   1      49.954  25.891  28.719  1.00  0.00    -0.206 F 
ATOM     91  C   UNL A   1      51.654  25.588  27.129  1.00  0.00     0.059 A 
ATOM     92  C   UNL A   1      51.306  26.307  24.835  1.00  0.00     0.059 A 
ATOM     93  F   UNL A   1      49.288  27.338  24.233  1.00  0.00    -0.206 F 
ATOM     94  C   UNL A   1      52.106  25.721  25.814  1.00  0.00     0.060 A 
BRANCH  94  95
ATOM     95  S   UNL A   1      53.745  25.090  25.401  1.00  0.00     0.124 S 
ATOM     96  O   UNL A   1      53.930  25.610  24.050  1.00  0.00    -0.237 OA
ATOM     97  O   UNL A   1      54.579  25.697  26.434  1.00  0.00    -0.237 OA
ATOM     98  O   UNL A   1      53.589  23.642  25.500  1.00  0.00    -0.744 OA
ENDBRANCH  94  95
ENDBRANCH  62  87
ENDBRANCH  36  37
ENDBRANCH  28  31
ENDBRANCH  26  27
ENDBRANCH  25  26
ENDBRANCH   1  25
TORSDOF 17
ENDMDL
