MODEL 1
REMARK VINA RESULT:     -11.6      0.000      0.000
REMARK SMILES COc1cc2cc(C(=O)NCCCCCCNC(=O)c3ccc(-c4c5nc(c(-c6c(F)cc(S(=O)(=O)[O-])cc6F)c6ccc([nH]6)c(-c6c(F)cc(S(=O)(=O)[O-])cc6F)c6nc(c(-c7c(F)cc(S(=O)(=O)[O-])cc7F)c7ccc4[nH]7)C=C6)C=C5)cc3)n(Cc3ccccc3)c2c(OC)c1OC
REMARK SMILES IDX 14 1 13 2 12 3 11 4 10 5 8 6 9 7 7 9 3 10 4 11 98 12 5 13
REMARK SMILES IDX 95 14 6 15 94 16 86 17 2 18 1 19 99 20 100 21 96 22 97 23
REMARK SMILES IDX 87 24 88 25 89 26 93 27 90 28 92 29 91 30 15 31 16 32 17 33
REMARK SMILES IDX 18 34 19 36 20 37 21 38 85 39 22 40 84 41 23 42 24 43 25 44
REMARK SMILES IDX 78 45 26 46 83 47 77 48 79 49 27 50 82 51 76 52 75 53 28 55
REMARK SMILES IDX 62 56 41 57 61 58 42 59 45 60 60 61 80 62 43 63 44 64 59 66
REMARK SMILES IDX 81 67 46 68 29 69 30 70 39 71 31 72 32 73 38 74 40 75 33 76
REMARK SMILES IDX 34 77 35 78 36 79 37 80 63 81 64 82 73 83 65 84 66 85 72 86
REMARK SMILES IDX 74 87 67 88 68 89 69 90 70 91 71 92 47 93 48 94 57 95 49 96
REMARK SMILES IDX 50 97 56 98 58 99 51 100 52 101 53 102 54 103 55 104
REMARK H PARENT 10 8 17 35 79 54 45 65
REMARK Flexibility Score: inf
ROOT
ATOM      1  C   UNL A   1      36.146  33.284  28.295  1.00  0.00     0.002 C 
ENDROOT
BRANCH   1   2
ATOM      2  C   UNL A   1      36.472  31.801  28.145  1.00  0.00     0.002 C 
BRANCH   2   3
ATOM      3  C   UNL A   1      35.344  30.850  28.550  1.00  0.00     0.021 C 
BRANCH   3   4
ATOM      4  C   UNL A   1      34.696  30.044  27.422  1.00  0.00     0.116 C 
BRANCH   4   5
ATOM      5  N   UNL A   1      33.400  30.601  27.096  1.00  0.00    -0.351 N 
ATOM      6  C   UNL A   1      32.258  30.152  26.500  1.00  0.00     0.267 C 
ATOM      7  O   UNL A   1      31.364  31.008  26.462  1.00  0.00    -0.268 OA
ATOM      8  H   UNL A   1      33.323  31.541  27.377  1.00  0.00     0.163 HD
BRANCH   6   9
ATOM      9  C   UNL A   1      31.996  28.809  25.980  1.00  0.00     0.108 A 
ATOM     10  C   UNL A   1      31.521  24.201  25.539  1.00  0.00     0.165 A 
ATOM     11  C   UNL A   1      31.522  25.191  26.523  1.00  0.00     0.061 A 
ATOM     12  C   UNL A   1      31.597  24.521  24.174  1.00  0.00     0.205 A 
ATOM     13  C   UNL A   1      31.660  26.533  26.139  1.00  0.00     0.008 A 
ATOM     14  C   UNL A   1      31.763  25.865  23.768  1.00  0.00     0.189 A 
ATOM     15  C   UNL A   1      31.831  27.734  26.857  1.00  0.00     0.042 A 
ATOM     16  C   UNL A   1      31.725  26.863  24.789  1.00  0.00     0.096 A 
ATOM     17  N   UNL A   1      31.678  28.273  24.734  1.00  0.00    -0.329 N 
BRANCH  10  18
ATOM     18  O   UNL A   1      31.470  22.902  25.985  1.00  0.00    -0.493 OA
ATOM     19  C   UNL A   1      32.528  22.655  26.916  1.00  0.00     0.278 C 
ENDBRANCH  10  18
BRANCH  12  20
ATOM     20  O   UNL A   1      31.620  23.522  23.227  1.00  0.00    -0.490 OA
ATOM     21  C   UNL A   1      32.892  22.890  23.079  1.00  0.00     0.278 C 
ENDBRANCH  12  20
BRANCH  14  22
ATOM     22  O   UNL A   1      32.012  26.314  22.502  1.00  0.00    -0.491 OA
ATOM     23  C   UNL A   1      33.339  26.386  22.010  1.00  0.00     0.278 C 
ENDBRANCH  14  22
BRANCH  17  24
ATOM     24  C   UNL A   1      31.279  28.955  23.503  1.00  0.00     0.158 C 
BRANCH  24  25
ATOM     25  C   UNL A   1      29.836  29.353  23.290  1.00  0.00    -0.028 A 
ATOM     26  C   UNL A   1      28.789  28.501  22.923  1.00  0.00     0.005 A 
ATOM     27  C   UNL A   1      29.521  30.696  23.592  1.00  0.00     0.005 A 
ATOM     28  C   UNL A   1      27.464  28.945  22.976  1.00  0.00     0.000 A 
ATOM     29  C   UNL A   1      28.204  31.147  23.613  1.00  0.00     0.000 A 
ATOM     30  C   UNL A   1      27.171  30.260  23.334  1.00  0.00     0.000 A 
ENDBRANCH  24  25
ENDBRANCH  17  24
ENDBRANCH   6   9
ENDBRANCH   4   5
ENDBRANCH   3   4
ENDBRANCH   2   3
ENDBRANCH   1   2
BRANCH   1  31
ATOM     31  C   UNL A   1      34.682  33.608  28.610  1.00  0.00     0.021 C 
BRANCH  31  32
ATOM     32  C   UNL A   1      34.464  34.715  29.644  1.00  0.00     0.116 C 
BRANCH  32  33
ATOM     33  N   UNL A   1      33.936  34.267  30.916  1.00  0.00    -0.352 N 
ATOM     34  C   UNL A   1      34.455  33.574  31.975  1.00  0.00     0.251 C 
ATOM     35  H   UNL A   1      32.993  34.518  31.048  1.00  0.00     0.163 HD
ATOM     36  O   UNL A   1      33.729  33.463  32.966  1.00  0.00    -0.269 OA
BRANCH  34  37
ATOM     37  C   UNL A   1      35.778  32.896  31.970  1.00  0.00     0.039 A 
ATOM     38  C   UNL A   1      37.014  33.533  31.863  1.00  0.00     0.014 A 
ATOM     39  C   UNL A   1      35.747  31.492  32.040  1.00  0.00     0.014 A 
ATOM     40  C   UNL A   1      38.173  32.791  31.675  1.00  0.00     0.010 A 
ATOM     41  C   UNL A   1      36.909  30.745  31.904  1.00  0.00     0.010 A 
ATOM     42  C   UNL A   1      38.113  31.396  31.656  1.00  0.00    -0.014 A 
BRANCH  42  43
ATOM     43  C   UNL A   1      39.362  30.651  31.510  1.00  0.00     0.031 A 
ATOM     44  C   UNL A   1      40.128  30.477  32.780  1.00  0.00     0.074 A 
ATOM     45  C   UNL A   1      39.732  30.060  30.355  1.00  0.00     0.049 A 
ATOM     46  N   UNL A   1      41.320  30.895  33.055  1.00  0.00    -0.248 NA
ATOM     47  C   UNL A   1      39.424  29.892  33.935  1.00  0.00     0.031 C 
ATOM     48  C   UNL A   1      38.968  29.955  29.108  1.00  0.00     0.029 A 
ATOM     49  N   UNL A   1      40.846  29.327  30.082  1.00  0.00    -0.354 N 
ATOM     50  C   UNL A   1      41.599  30.447  34.346  1.00  0.00     0.074 A 
ATOM     51  C   UNL A   1      40.352  29.980  34.889  1.00  0.00     0.031 C 
ATOM     52  C   UNL A   1      39.527  29.011  28.318  1.00  0.00     0.029 A 
ATOM     53  C   UNL A   1      40.751  28.538  28.940  1.00  0.00     0.049 A 
ATOM     54  H   UNL A   1      41.653  29.353  30.645  1.00  0.00     0.167 HD
ATOM     55  C   UNL A   1      42.878  30.307  34.796  1.00  0.00     0.037 A 
ATOM     56  C   UNL A   1      41.584  27.529  28.568  1.00  0.00     0.037 A 
ATOM     57  C   UNL A   1      43.806  31.037  33.975  1.00  0.00     0.049 A 
ATOM     58  C   UNL A   1      42.866  27.732  29.294  1.00  0.00     0.074 A 
ATOM     59  C   UNL A   1      43.969  32.370  33.654  1.00  0.00     0.029 A 
ATOM     60  N   UNL A   1      44.533  30.334  33.045  1.00  0.00    -0.354 N 
ATOM     61  N   UNL A   1      43.671  28.735  29.063  1.00  0.00    -0.248 NA
ATOM     62  C   UNL A   1      43.010  27.110  30.604  1.00  0.00     0.031 C 
ATOM     63  C   UNL A   1      44.356  32.372  32.284  1.00  0.00     0.029 A 
ATOM     64  C   UNL A   1      44.477  31.045  31.872  1.00  0.00     0.049 A 
ATOM     65  H   UNL A   1      45.005  29.483  33.191  1.00  0.00     0.167 HD
ATOM     66  C   UNL A   1      44.102  29.142  30.318  1.00  0.00     0.074 A 
ATOM     67  C   UNL A   1      43.723  28.057  31.221  1.00  0.00     0.031 C 
ATOM     68  C   UNL A   1      44.466  30.436  30.561  1.00  0.00     0.037 A 
BRANCH  55  69
ATOM     69  C   UNL A   1      43.332  29.242  35.764  1.00  0.00     0.058 A 
ATOM     70  C   UNL A   1      44.112  29.605  36.882  1.00  0.00     0.135 A 
ATOM     71  C   UNL A   1      43.286  27.860  35.475  1.00  0.00     0.135 A 
ATOM     72  F   UNL A   1      44.227  30.891  37.248  1.00  0.00    -0.206 F 
ATOM     73  C   UNL A   1      44.860  28.673  37.604  1.00  0.00     0.059 A 
ATOM     74  C   UNL A   1      43.982  26.910  36.214  1.00  0.00     0.059 A 
ATOM     75  F   UNL A   1      42.648  27.377  34.403  1.00  0.00    -0.206 F 
ATOM     76  C   UNL A   1      44.802  27.330  37.248  1.00  0.00     0.060 A 
BRANCH  76  77
ATOM     77  S   UNL A   1      45.860  26.142  38.093  1.00  0.00     0.124 S 
ATOM     78  O   UNL A   1      47.179  26.520  37.590  1.00  0.00    -0.237 OA
ATOM     79  O   UNL A   1      45.600  26.454  39.497  1.00  0.00    -0.237 OA
ATOM     80  O   UNL A   1      45.355  24.855  37.638  1.00  0.00    -0.744 OA
ENDBRANCH  76  77
ENDBRANCH  55  69
BRANCH  56  81
ATOM     81  C   UNL A   1      41.227  26.255  27.881  1.00  0.00     0.058 A 
ATOM     82  C   UNL A   1      42.087  25.639  26.951  1.00  0.00     0.135 A 
ATOM     83  C   UNL A   1      40.133  25.475  28.311  1.00  0.00     0.135 A 
ATOM     84  F   UNL A   1      43.175  26.286  26.507  1.00  0.00    -0.206 F 
ATOM     85  C   UNL A   1      41.887  24.326  26.498  1.00  0.00     0.059 A 
ATOM     86  C   UNL A   1      39.908  24.171  27.866  1.00  0.00     0.059 A 
ATOM     87  F   UNL A   1      39.290  25.923  29.252  1.00  0.00    -0.206 F 
ATOM     88  C   UNL A   1      40.799  23.594  26.975  1.00  0.00     0.060 A 
BRANCH  88  89
ATOM     89  S   UNL A   1      40.611  21.855  26.507  1.00  0.00     0.124 S 
ATOM     90  O   UNL A   1      40.705  21.180  27.797  1.00  0.00    -0.237 OA
ATOM     91  O   UNL A   1      39.295  21.847  25.877  1.00  0.00    -0.237 OA
ATOM     92  O   UNL A   1      41.733  21.623  25.601  1.00  0.00    -0.744 OA
ENDBRANCH  88  89
ENDBRANCH  56  81
BRANCH  68  93
ATOM     93  C   UNL A   1      44.630  31.373  29.391  1.00  0.00     0.058 A 
ATOM     94  C   UNL A   1      45.778  31.433  28.580  1.00  0.00     0.135 A 
ATOM     95  C   UNL A   1      43.507  32.098  28.962  1.00  0.00     0.135 A 
ATOM     96  F   UNL A   1      46.855  30.687  28.856  1.00  0.00    -0.206 F 
ATOM     97  C   UNL A   1      45.818  32.202  27.417  1.00  0.00     0.059 A 
ATOM     98  C   UNL A   1      43.513  32.845  27.788  1.00  0.00     0.059 A 
ATOM     99  F   UNL A   1      42.358  32.029  29.656  1.00  0.00    -0.206 F 
ATOM    100  C   UNL A   1      44.677  32.902  27.025  1.00  0.00     0.060 A 
BRANCH 100 101
ATOM    101  S   UNL A   1      44.703  33.821  25.471  1.00  0.00     0.124 S 
ATOM    102  O   UNL A   1      43.880  34.982  25.787  1.00  0.00    -0.237 OA
ATOM    103  O   UNL A   1      46.127  34.084  25.282  1.00  0.00    -0.237 OA
ATOM    104  O   UNL A   1      44.120  32.886  24.510  1.00  0.00    -0.744 OA
ENDBRANCH 100 101
ENDBRANCH  68  93
ENDBRANCH  42  43
ENDBRANCH  34  37
ENDBRANCH  32  33
ENDBRANCH  31  32
ENDBRANCH   1  31
TORSDOF 21
ENDMDL
MODEL 2
REMARK VINA RESULT:      -9.5      8.352     15.669
REMARK SMILES COc1cc2cc(C(=O)NCCCCCCNC(=O)c3ccc(-c4c5nc(c(-c6c(F)cc(S(=O)(=O)[O-])cc6F)c6ccc([nH]6)c(-c6c(F)cc(S(=O)(=O)[O-])cc6F)c6nc(c(-c7c(F)cc(S(=O)(=O)[O-])cc7F)c7ccc4[nH]7)C=C6)C=C5)cc3)n(Cc3ccccc3)c2c(OC)c1OC
REMARK SMILES IDX 14 1 13 2 12 3 11 4 10 5 8 6 9 7 7 9 3 10 4 11 98 12 5 13
REMARK SMILES IDX 95 14 6 15 94 16 86 17 2 18 1 19 99 20 100 21 96 22 97 23
REMARK SMILES IDX 87 24 88 25 89 26 93 27 90 28 92 29 91 30 15 31 16 32 17 33
REMARK SMILES IDX 18 34 19 36 20 37 21 38 85 39 22 40 84 41 23 42 24 43 25 44
REMARK SMILES IDX 78 45 26 46 83 47 77 48 79 49 27 50 82 51 76 52 75 53 28 55
REMARK SMILES IDX 62 56 41 57 61 58 42 59 45 60 60 61 80 62 43 63 44 64 59 66
REMARK SMILES IDX 81 67 46 68 29 69 30 70 39 71 31 72 32 73 38 74 40 75 33 76
REMARK SMILES IDX 34 77 35 78 36 79 37 80 63 81 64 82 73 83 65 84 66 85 72 86
REMARK SMILES IDX 74 87 67 88 68 89 69 90 70 91 71 92 47 93 48 94 57 95 49 96
REMARK SMILES IDX 50 97 56 98 58 99 51 100 52 101 53 102 54 103 55 104
REMARK H PARENT 10 8 17 35 79 54 45 65
REMARK Flexibility Score: inf
ROOT
ATOM      1  C   UNL A   1      52.121  20.283  34.047  1.00  0.00     0.002 C 
ENDROOT
BRANCH   1   2
ATOM      2  C   UNL A   1      50.758  19.728  34.449  1.00  0.00     0.002 C 
BRANCH   2   3
ATOM      3  C   UNL A   1      49.559  20.467  33.852  1.00  0.00     0.021 C 
BRANCH   3   4
ATOM      4  C   UNL A   1      48.275  19.653  33.677  1.00  0.00     0.116 C 
BRANCH   4   5
ATOM      5  N   UNL A   1      47.120  20.517  33.801  1.00  0.00    -0.351 N 
ATOM      6  C   UNL A   1      46.285  20.905  34.808  1.00  0.00     0.267 C 
ATOM      7  O   UNL A   1      45.420  21.709  34.436  1.00  0.00    -0.268 OA
ATOM      8  H   UNL A   1      46.876  20.930  32.942  1.00  0.00     0.163 HD
BRANCH   6   9
ATOM      9  C   UNL A   1      46.353  20.517  36.218  1.00  0.00     0.108 A 
ATOM     10  C   UNL A   1      45.919  18.240  40.253  1.00  0.00     0.165 A 
ATOM     11  C   UNL A   1      45.935  17.996  38.879  1.00  0.00     0.061 A 
ATOM     12  C   UNL A   1      46.181  19.517  40.776  1.00  0.00     0.205 A 
ATOM     13  C   UNL A   1      46.162  19.066  38.000  1.00  0.00     0.008 A 
ATOM     14  C   UNL A   1      46.385  20.613  39.906  1.00  0.00     0.189 A 
ATOM     15  C   UNL A   1      46.112  19.193  36.597  1.00  0.00     0.042 A 
ATOM     16  C   UNL A   1      46.433  20.332  38.507  1.00  0.00     0.096 A 
ATOM     17  N   UNL A   1      46.787  21.126  37.393  1.00  0.00    -0.329 N 
BRANCH  10  18
ATOM     18  O   UNL A   1      45.606  17.170  41.056  1.00  0.00    -0.493 OA
ATOM     19  C   UNL A   1      46.774  16.388  41.321  1.00  0.00     0.278 C 
ENDBRANCH  10  18
BRANCH  12  20
ATOM     20  O   UNL A   1      46.132  19.735  42.135  1.00  0.00    -0.490 OA
ATOM     21  C   UNL A   1      44.816  19.954  42.642  1.00  0.00     0.278 C 
ENDBRANCH  12  20
BRANCH  14  22
ATOM     22  O   UNL A   1      46.490  21.929  40.257  1.00  0.00    -0.491 OA
ATOM     23  C   UNL A   1      45.356  22.779  40.213  1.00  0.00     0.278 C 
ENDBRANCH  14  22
BRANCH  17  24
ATOM     24  C   UNL A   1      47.555  22.358  37.574  1.00  0.00     0.158 C 
BRANCH  24  25
ATOM     25  C   UNL A   1      48.998  22.424  37.128  1.00  0.00    -0.028 A 
ATOM     26  C   UNL A   1      49.506  23.207  36.086  1.00  0.00     0.005 A 
ATOM     27  C   UNL A   1      49.915  21.694  37.915  1.00  0.00     0.005 A 
ATOM     28  C   UNL A   1      50.887  23.350  35.918  1.00  0.00     0.000 A 
ATOM     29  C   UNL A   1      51.290  21.812  37.726  1.00  0.00     0.000 A 
ATOM     30  C   UNL A   1      51.777  22.666  36.745  1.00  0.00     0.000 A 
ENDBRANCH  24  25
ENDBRANCH  17  24
ENDBRANCH   6   9
ENDBRANCH   4   5
ENDBRANCH   3   4
ENDBRANCH   2   3
ENDBRANCH   1   2
BRANCH   1  31
ATOM     31  C   UNL A   1      52.107  21.292  32.894  1.00  0.00     0.021 C 
BRANCH  31  32
ATOM     32  C   UNL A   1      53.404  22.078  32.695  1.00  0.00     0.116 C 
BRANCH  32  33
ATOM     33  N   UNL A   1      53.473  23.336  33.410  1.00  0.00    -0.352 N 
ATOM     34  C   UNL A   1      52.859  24.550  33.268  1.00  0.00     0.251 C 
ATOM     35  H   UNL A   1      54.103  23.312  34.167  1.00  0.00     0.163 HD
ATOM     36  O   UNL A   1      53.083  25.384  34.149  1.00  0.00    -0.269 OA
BRANCH  34  37
ATOM     37  C   UNL A   1      52.023  24.940  32.103  1.00  0.00     0.039 A 
ATOM     38  C   UNL A   1      52.448  25.717  31.025  1.00  0.00     0.014 A 
ATOM     39  C   UNL A   1      50.685  24.508  32.136  1.00  0.00     0.014 A 
ATOM     40  C   UNL A   1      51.533  26.181  30.089  1.00  0.00     0.010 A 
ATOM     41  C   UNL A   1      49.776  24.927  31.174  1.00  0.00     0.010 A 
ATOM     42  C   UNL A   1      50.189  25.816  30.187  1.00  0.00    -0.014 A 
BRANCH  42  43
ATOM     43  C   UNL A   1      49.269  26.281  29.152  1.00  0.00     0.031 A 
ATOM     44  C   UNL A   1      48.197  27.196  29.645  1.00  0.00     0.074 A 
ATOM     45  C   UNL A   1      49.444  26.013  27.841  1.00  0.00     0.049 A 
ATOM     46  N   UNL A   1      46.917  27.019  29.605  1.00  0.00    -0.248 NA
ATOM     47  C   UNL A   1      48.606  28.388  30.408  1.00  0.00     0.031 C 
ATOM     48  C   UNL A   1      50.571  25.329  27.201  1.00  0.00     0.029 A 
ATOM     49  N   UNL A   1      48.685  26.391  26.776  1.00  0.00    -0.354 N 
ATOM     50  C   UNL A   1      46.349  28.171  30.150  1.00  0.00     0.074 A 
ATOM     51  C   UNL A   1      47.427  28.899  30.765  1.00  0.00     0.031 C 
ATOM     52  C   UNL A   1      50.539  25.561  25.869  1.00  0.00     0.029 A 
ATOM     53  C   UNL A   1      49.329  26.295  25.546  1.00  0.00     0.049 A 
ATOM     54  H   UNL A   1      47.757  26.708  26.867  1.00  0.00     0.167 HD
ATOM     55  C   UNL A   1      45.065  28.537  29.876  1.00  0.00     0.037 A 
ATOM     56  C   UNL A   1      48.925  26.833  24.364  1.00  0.00     0.037 A 
ATOM     57  C   UNL A   1      44.308  27.436  29.344  1.00  0.00     0.049 A 
ATOM     58  C   UNL A   1      47.468  27.104  24.484  1.00  0.00     0.074 A 
ATOM     59  C   UNL A   1      43.947  26.192  29.823  1.00  0.00     0.029 A 
ATOM     60  N   UNL A   1      44.110  27.388  27.985  1.00  0.00    -0.354 N 
ATOM     61  N   UNL A   1      46.567  26.162  24.578  1.00  0.00    -0.248 NA
ATOM     62  C   UNL A   1      47.059  28.405  24.995  1.00  0.00     0.031 C 
ATOM     63  C   UNL A   1      44.035  25.327  28.697  1.00  0.00     0.029 A 
ATOM     64  C   UNL A   1      44.372  26.102  27.587  1.00  0.00     0.049 A 
ATOM     65  H   UNL A   1      43.832  28.135  27.407  1.00  0.00     0.167 HD
ATOM     66  C   UNL A   1      45.670  26.621  25.531  1.00  0.00     0.074 A 
ATOM     67  C   UNL A   1      45.982  28.040  25.696  1.00  0.00     0.031 C 
ATOM     68  C   UNL A   1      44.951  25.756  26.308  1.00  0.00     0.037 A 
BRANCH  55  69
ATOM     69  C   UNL A   1      44.588  29.964  29.764  1.00  0.00     0.058 A 
ATOM     70  C   UNL A   1      45.169  30.818  28.803  1.00  0.00     0.135 A 
ATOM     71  C   UNL A   1      43.808  30.602  30.754  1.00  0.00     0.135 A 
ATOM     72  F   UNL A   1      45.931  30.319  27.816  1.00  0.00    -0.206 F 
ATOM     73  C   UNL A   1      45.053  32.207  28.871  1.00  0.00     0.059 A 
ATOM     74  C   UNL A   1      43.637  31.981  30.810  1.00  0.00     0.059 A 
ATOM     75  F   UNL A   1      43.258  29.929  31.772  1.00  0.00    -0.206 F 
ATOM     76  C   UNL A   1      44.300  32.779  29.892  1.00  0.00     0.060 A 
BRANCH  76  77
ATOM     77  S   UNL A   1      44.250  34.571  30.060  1.00  0.00     0.124 S 
ATOM     78  O   UNL A   1      45.105  34.990  28.951  1.00  0.00    -0.237 OA
ATOM     79  O   UNL A   1      42.824  34.848  29.906  1.00  0.00    -0.237 OA
ATOM     80  O   UNL A   1      44.788  34.801  31.393  1.00  0.00    -0.744 OA
ENDBRANCH  76  77
ENDBRANCH  55  69
BRANCH  56  81
ATOM     81  C   UNL A   1      49.776  27.404  23.281  1.00  0.00     0.058 A 
ATOM     82  C   UNL A   1      49.419  27.316  21.922  1.00  0.00     0.135 A 
ATOM     83  C   UNL A   1      50.845  28.276  23.576  1.00  0.00     0.135 A 
ATOM     84  F   UNL A   1      48.391  26.540  21.544  1.00  0.00    -0.206 F 
ATOM     85  C   UNL A   1      50.064  28.063  20.925  1.00  0.00     0.059 A 
ATOM     86  C   UNL A   1      51.510  29.021  22.601  1.00  0.00     0.059 A 
ATOM     87  F   UNL A   1      51.226  28.502  24.841  1.00  0.00    -0.206 F 
ATOM     88  C   UNL A   1      51.101  28.927  21.278  1.00  0.00     0.060 A 
BRANCH  88  89
ATOM     89  S   UNL A   1      51.846  30.000  20.024  1.00  0.00     0.124 S 
ATOM     90  O   UNL A   1      53.187  30.206  20.557  1.00  0.00    -0.237 OA
ATOM     91  O   UNL A   1      51.755  29.177  18.823  1.00  0.00    -0.237 OA
ATOM     92  O   UNL A   1      50.985  31.180  20.033  1.00  0.00    -0.744 OA
ENDBRANCH  88  89
ENDBRANCH  56  81
BRANCH  68  93
ATOM     93  C   UNL A   1      44.958  24.291  25.955  1.00  0.00     0.058 A 
ATOM     94  C   UNL A   1      44.094  23.700  25.015  1.00  0.00     0.135 A 
ATOM     95  C   UNL A   1      46.007  23.497  26.445  1.00  0.00     0.135 A 
ATOM     96  F   UNL A   1      43.135  24.416  24.415  1.00  0.00    -0.206 F 
ATOM     97  C   UNL A   1      44.246  22.373  24.608  1.00  0.00     0.059 A 
ATOM     98  C   UNL A   1      46.197  22.183  26.028  1.00  0.00     0.059 A 
ATOM     99  F   UNL A   1      46.906  24.023  27.294  1.00  0.00    -0.206 F 
ATOM    100  C   UNL A   1      45.305  21.624  25.116  1.00  0.00     0.060 A 
BRANCH 100 101
ATOM    101  S   UNL A   1      45.553  19.938  24.517  1.00  0.00     0.124 S 
ATOM    102  O   UNL A   1      45.161  19.140  25.673  1.00  0.00    -0.237 OA
ATOM    103  O   UNL A   1      44.656  19.875  23.367  1.00  0.00    -0.237 OA
ATOM    104  O   UNL A   1      46.977  19.899  24.186  1.00  0.00    -0.744 OA
ENDBRANCH 100 101
ENDBRANCH  68  93
ENDBRANCH  42  43
ENDBRANCH  34  37
ENDBRANCH  32  33
ENDBRANCH  31  32
ENDBRANCH   1  31
TORSDOF 21
ENDMDL
MODEL 3
REMARK VINA RESULT:      -9.4      8.021     15.394
REMARK SMILES COc1cc2cc(C(=O)NCCCCCCNC(=O)c3ccc(-c4c5nc(c(-c6c(F)cc(S(=O)(=O)[O-])cc6F)c6ccc([nH]6)c(-c6c(F)cc(S(=O)(=O)[O-])cc6F)c6nc(c(-c7c(F)cc(S(=O)(=O)[O-])cc7F)c7ccc4[nH]7)C=C6)C=C5)cc3)n(Cc3ccccc3)c2c(OC)c1OC
REMARK SMILES IDX 14 1 13 2 12 3 11 4 10 5 8 6 9 7 7 9 3 10 4 11 98 12 5 13
REMARK SMILES IDX 95 14 6 15 94 16 86 17 2 18 1 19 99 20 100 21 96 22 97 23
REMARK SMILES IDX 87 24 88 25 89 26 93 27 90 28 92 29 91 30 15 31 16 32 17 33
REMARK SMILES IDX 18 34 19 36 20 37 21 38 85 39 22 40 84 41 23 42 24 43 25 44
REMARK SMILES IDX 78 45 26 46 83 47 77 48 79 49 27 50 82 51 76 52 75 53 28 55
REMARK SMILES IDX 62 56 41 57 61 58 42 59 45 60 60 61 80 62 43 63 44 64 59 66
REMARK SMILES IDX 81 67 46 68 29 69 30 70 39 71 31 72 32 73 38 74 40 75 33 76
REMARK SMILES IDX 34 77 35 78 36 79 37 80 63 81 64 82 73 83 65 84 66 85 72 86
REMARK SMILES IDX 74 87 67 88 68 89 69 90 70 91 71 92 47 93 48 94 57 95 49 96
REMARK SMILES IDX 50 97 56 98 58 99 51 100 52 101 53 102 54 103 55 104
REMARK H PARENT 10 8 17 35 79 54 45 65
REMARK Flexibility Score: inf
ROOT
ATOM      1  C   UNL A   1      51.995  20.504  34.220  1.00  0.00     0.002 C 
ENDROOT
BRANCH   1   2
ATOM      2  C   UNL A   1      50.542  20.948  34.074  1.00  0.00     0.002 C 
BRANCH   2   3
ATOM      3  C   UNL A   1      49.506  19.849  34.318  1.00  0.00     0.021 C 
BRANCH   3   4
ATOM      4  C   UNL A   1      48.204  19.952  33.519  1.00  0.00     0.116 C 
BRANCH   4   5
ATOM      5  N   UNL A   1      47.175  19.148  34.143  1.00  0.00    -0.351 N 
ATOM      6  C   UNL A   1      46.232  19.335  35.111  1.00  0.00     0.267 C 
ATOM      7  O   UNL A   1      45.531  18.333  35.303  1.00  0.00    -0.268 OA
ATOM      8  H   UNL A   1      47.149  18.235  33.777  1.00  0.00     0.163 HD
BRANCH   6   9
ATOM      9  C   UNL A   1      45.959  20.563  35.860  1.00  0.00     0.108 A 
ATOM     10  C   UNL A   1      44.810  24.914  37.044  1.00  0.00     0.165 A 
ATOM     11  C   UNL A   1      44.580  23.981  36.032  1.00  0.00     0.061 A 
ATOM     12  C   UNL A   1      45.536  24.582  38.200  1.00  0.00     0.205 A 
ATOM     13  C   UNL A   1      45.139  22.699  36.149  1.00  0.00     0.008 A 
ATOM     14  C   UNL A   1      46.129  23.304  38.323  1.00  0.00     0.189 A 
ATOM     15  C   UNL A   1      45.216  21.593  35.277  1.00  0.00     0.042 A 
ATOM     16  C   UNL A   1      45.851  22.356  37.293  1.00  0.00     0.096 A 
ATOM     17  N   UNL A   1      46.117  20.973  37.182  1.00  0.00    -0.329 N 
BRANCH  10  18
ATOM     18  O   UNL A   1      44.310  26.176  36.831  1.00  0.00    -0.493 OA
ATOM     19  C   UNL A   1      42.899  26.198  37.064  1.00  0.00     0.278 C 
ENDBRANCH  10  18
BRANCH  12  20
ATOM     20  O   UNL A   1      45.769  25.531  39.170  1.00  0.00    -0.490 OA
ATOM     21  C   UNL A   1      44.866  25.469  40.274  1.00  0.00     0.278 C 
ENDBRANCH  12  20
BRANCH  14  22
ATOM     22  O   UNL A   1      46.989  22.892  39.301  1.00  0.00    -0.491 OA
ATOM     23  C   UNL A   1      48.344  23.310  39.294  1.00  0.00     0.278 C 
ENDBRANCH  14  22
BRANCH  17  24
ATOM     24  C   UNL A   1      46.440  20.181  38.369  1.00  0.00     0.158 C 
BRANCH  24  25
ATOM     25  C   UNL A   1      47.842  19.653  38.569  1.00  0.00    -0.028 A 
ATOM     26  C   UNL A   1      48.956  19.942  37.774  1.00  0.00     0.005 A 
ATOM     27  C   UNL A   1      48.042  18.875  39.731  1.00  0.00     0.005 A 
ATOM     28  C   UNL A   1      50.238  19.571  38.191  1.00  0.00     0.000 A 
ATOM     29  C   UNL A   1      49.316  18.478  40.129  1.00  0.00     0.000 A 
ATOM     30  C   UNL A   1      50.419  18.854  39.373  1.00  0.00     0.000 A 
ENDBRANCH  24  25
ENDBRANCH  17  24
ENDBRANCH   6   9
ENDBRANCH   4   5
ENDBRANCH   3   4
ENDBRANCH   2   3
ENDBRANCH   1   2
BRANCH   1  31
ATOM     31  C   UNL A   1      52.826  20.539  32.934  1.00  0.00     0.021 C 
BRANCH  31  32
ATOM     32  C   UNL A   1      52.938  21.909  32.262  1.00  0.00     0.116 C 
BRANCH  32  33
ATOM     33  N   UNL A   1      53.115  23.023  33.170  1.00  0.00    -0.352 N 
ATOM     34  C   UNL A   1      52.507  24.239  33.318  1.00  0.00     0.251 C 
ATOM     35  H   UNL A   1      53.833  22.872  33.827  1.00  0.00     0.163 HD
ATOM     36  O   UNL A   1      52.852  24.910  34.296  1.00  0.00    -0.269 OA
BRANCH  34  37
ATOM     37  C   UNL A   1      51.540  24.821  32.351  1.00  0.00     0.039 A 
ATOM     38  C   UNL A   1      50.159  24.617  32.364  1.00  0.00     0.014 A 
ATOM     39  C   UNL A   1      52.095  25.606  31.325  1.00  0.00     0.014 A 
ATOM     40  C   UNL A   1      49.375  25.050  31.303  1.00  0.00     0.010 A 
ATOM     41  C   UNL A   1      51.307  26.085  30.287  1.00  0.00     0.010 A 
ATOM     42  C   UNL A   1      49.957  25.751  30.245  1.00  0.00    -0.014 A 
BRANCH  42  43
ATOM     43  C   UNL A   1      49.089  26.236  29.175  1.00  0.00     0.031 A 
ATOM     44  C   UNL A   1      47.986  27.130  29.634  1.00  0.00     0.074 A 
ATOM     45  C   UNL A   1      49.335  26.002  27.869  1.00  0.00     0.049 A 
ATOM     46  N   UNL A   1      46.711  26.946  29.523  1.00  0.00    -0.248 NA
ATOM     47  C   UNL A   1      48.344  28.305  30.447  1.00  0.00     0.031 C 
ATOM     48  C   UNL A   1      50.500  25.343  27.272  1.00  0.00     0.029 A 
ATOM     49  N   UNL A   1      48.629  26.403  26.775  1.00  0.00    -0.354 N 
ATOM     50  C   UNL A   1      46.105  28.079  30.066  1.00  0.00     0.074 A 
ATOM     51  C   UNL A   1      47.144  28.799  30.755  1.00  0.00     0.031 C 
ATOM     52  C   UNL A   1      50.535  25.608  25.947  1.00  0.00     0.029 A 
ATOM     53  C   UNL A   1      49.338  26.342  25.579  1.00  0.00     0.049 A 
ATOM     54  H   UNL A   1      47.695  26.711  26.826  1.00  0.00     0.167 HD
ATOM     55  C   UNL A   1      44.835  28.443  29.735  1.00  0.00     0.037 A 
ATOM     56  C   UNL A   1      48.992  26.907  24.391  1.00  0.00     0.037 A 
ATOM     57  C   UNL A   1      44.116  27.351  29.136  1.00  0.00     0.049 A 
ATOM     58  C   UNL A   1      47.528  27.165  24.441  1.00  0.00     0.074 A 
ATOM     59  C   UNL A   1      43.741  26.093  29.564  1.00  0.00     0.029 A 
ATOM     60  N   UNL A   1      43.989  27.336  27.767  1.00  0.00    -0.354 N 
ATOM     61  N   UNL A   1      46.631  26.215  24.464  1.00  0.00    -0.248 NA
ATOM     62  C   UNL A   1      47.082  28.450  24.963  1.00  0.00     0.031 C 
ATOM     63  C   UNL A   1      43.895  25.257  28.422  1.00  0.00     0.029 A 
ATOM     64  C   UNL A   1      44.283  26.062  27.351  1.00  0.00     0.049 A 
ATOM     65  H   UNL A   1      43.736  28.096  27.194  1.00  0.00     0.167 HD
ATOM     66  C   UNL A   1      45.682  26.643  25.380  1.00  0.00     0.074 A 
ATOM     67  C   UNL A   1      45.973  28.059  25.597  1.00  0.00     0.031 C 
ATOM     68  C   UNL A   1      44.931  25.754  26.096  1.00  0.00     0.037 A 
BRANCH  55  69
ATOM     69  C   UNL A   1      44.353  29.869  29.634  1.00  0.00     0.058 A 
ATOM     70  C   UNL A   1      44.906  30.723  28.656  1.00  0.00     0.135 A 
ATOM     71  C   UNL A   1      43.598  30.507  30.643  1.00  0.00     0.135 A 
ATOM     72  F   UNL A   1      45.643  30.225  27.650  1.00  0.00    -0.206 F 
ATOM     73  C   UNL A   1      44.790  32.112  28.726  1.00  0.00     0.059 A 
ATOM     74  C   UNL A   1      43.426  31.886  30.702  1.00  0.00     0.059 A 
ATOM     75  F   UNL A   1      43.077  29.834  31.676  1.00  0.00    -0.206 F 
ATOM     76  C   UNL A   1      44.063  32.683  29.765  1.00  0.00     0.060 A 
BRANCH  76  77
ATOM     77  S   UNL A   1      44.015  34.476  29.933  1.00  0.00     0.124 S 
ATOM     78  O   UNL A   1      43.916  34.895  28.536  1.00  0.00    -0.237 OA
ATOM     79  O   UNL A   1      42.814  34.669  30.743  1.00  0.00    -0.237 OA
ATOM     80  O   UNL A   1      45.271  34.788  30.599  1.00  0.00    -0.744 OA
ENDBRANCH  76  77
ENDBRANCH  55  69
BRANCH  56  81
ATOM     81  C   UNL A   1      49.894  27.512  23.369  1.00  0.00     0.058 A 
ATOM     82  C   UNL A   1      49.608  27.457  21.992  1.00  0.00     0.135 A 
ATOM     83  C   UNL A   1      50.940  28.382  23.742  1.00  0.00     0.135 A 
ATOM     84  F   UNL A   1      48.607  26.686  21.541  1.00  0.00    -0.206 F 
ATOM     85  C   UNL A   1      50.298  28.235  21.049  1.00  0.00     0.059 A 
ATOM     86  C   UNL A   1      51.648  29.156  22.822  1.00  0.00     0.059 A 
ATOM     87  F   UNL A   1      51.253  28.577  25.031  1.00  0.00    -0.206 F 
ATOM     88  C   UNL A   1      51.309  29.095  21.478  1.00  0.00     0.060 A 
BRANCH  88  89
ATOM     89  S   UNL A   1      52.110  30.205  20.293  1.00  0.00     0.124 S 
ATOM     90  O   UNL A   1      52.126  29.396  19.080  1.00  0.00    -0.237 OA
ATOM     91  O   UNL A   1      51.206  31.350  20.286  1.00  0.00    -0.237 OA
ATOM     92  O   UNL A   1      53.419  30.453  20.892  1.00  0.00    -0.744 OA
ENDBRANCH  88  89
ENDBRANCH  56  81
BRANCH  68  93
ATOM     93  C   UNL A   1      44.968  24.298  25.707  1.00  0.00     0.058 A 
ATOM     94  C   UNL A   1      45.918  23.377  26.184  1.00  0.00     0.135 A 
ATOM     95  C   UNL A   1      43.887  23.780  24.977  1.00  0.00     0.135 A 
ATOM     96  F   UNL A   1      46.921  23.770  26.979  1.00  0.00    -0.206 F 
ATOM     97  C   UNL A   1      45.815  22.010  25.919  1.00  0.00     0.059 A 
ATOM     98  C   UNL A   1      43.746  22.418  24.730  1.00  0.00     0.059 A 
ATOM     99  F   UNL A   1      42.911  24.599  24.551  1.00  0.00    -0.206 F 
ATOM    100  C   UNL A   1      44.722  21.538  25.196  1.00  0.00     0.060 A 
BRANCH 100 101
ATOM    101  S   UNL A   1      44.543  19.760  24.935  1.00  0.00     0.124 S 
ATOM    102  O   UNL A   1      45.765  19.237  25.535  1.00  0.00    -0.237 OA
ATOM    103  O   UNL A   1      43.305  19.459  25.649  1.00  0.00    -0.237 OA
ATOM    104  O   UNL A   1      44.458  19.634  23.481  1.00  0.00    -0.744 OA
ENDBRANCH 100 101
ENDBRANCH  68  93
ENDBRANCH  42  43
ENDBRANCH  34  37
ENDBRANCH  32  33
ENDBRANCH  31  32
ENDBRANCH   1  31
TORSDOF 21
ENDMDL
