MODEL 1
REMARK VINA RESULT:      -9.7      0.000      0.000
REMARK SMILES CC(C)C[C@H](NC(=O)[C@H](C)NC(=O)[C@@H](NC(=O)CNC(=O)OCc1ccccc1)C(C)C)C(=O)NCCCCCCNC(=O)c1ccc(-c2c3nc(c(-c4c(F)cc(S(=O)(=O)[O-])cc4F)c4ccc([nH]4)c(-c4c(F)cc(S(=O)(=O)[O-])cc4F)c4nc(c(-c5c(F)cc(S(=O)(=O)[O-])cc5F)c5ccc2[nH]5)C=C4)C=C3)cc1
REMARK SMILES IDX 33 1 34 2 35 3 5 5 4 6 2 7 1 8 3 9 6 10 7 11 8 13 9 14 10 15
REMARK SMILES IDX 11 16 12 17 13 19 14 20 15 21 16 22 17 24 18 25 19 26 20 27
REMARK SMILES IDX 21 29 22 30 23 31 24 32 25 33 29 34 26 35 28 36 27 37 30 38
REMARK SMILES IDX 31 39 32 40 36 41 37 42 38 43 39 44 40 45 41 46 42 47 43 48
REMARK SMILES IDX 44 50 45 51 46 52 110 53 47 54 109 55 48 56 49 57 50 58
REMARK SMILES IDX 103 59 51 60 108 61 102 62 104 63 52 64 107 65 101 66 100 67
REMARK SMILES IDX 53 69 87 70 66 71 86 72 67 73 70 74 85 75 105 76 68 77 69 78
REMARK SMILES IDX 84 80 106 81 71 82 54 83 55 84 64 85 56 86 57 87 63 88 65 89
REMARK SMILES IDX 58 90 59 91 60 92 61 93 62 94 88 95 89 96 98 97 90 98 91 99
REMARK SMILES IDX 97 100 99 101 92 102 93 103 94 104 95 105 96 106 72 107
REMARK SMILES IDX 73 108 82 109 74 110 75 111 81 112 83 113 76 114 77 115
REMARK SMILES IDX 78 116 79 117 80 118
REMARK H PARENT 35 4 6 12 11 18 15 23 19 28 42 49 104 68 70 79
REMARK Flexibility Score: inf
ROOT
ATOM      1  C   UNL A   1      39.003  31.769  34.126  1.00  0.00     0.242 C 
ATOM      2  O   UNL A   1      38.838  31.258  35.269  1.00  0.00    -0.273 OA
ATOM      3  N   UNL A   1      38.200  32.891  34.004  1.00  0.00    -0.354 N 
ATOM      4  H   UNL A   1      37.784  33.105  34.870  1.00  0.00     0.163 HD
ENDROOT
BRANCH   1   5
ATOM      5  C   UNL A   1      40.202  30.857  33.172  1.00  0.00     0.171 C 
BRANCH   5   6
ATOM      6  C   UNL A   1      41.500  30.868  32.019  1.00  0.00     0.038 C 
BRANCH   6   7
ATOM      7  C   UNL A   1      42.681  31.959  31.411  1.00  0.00    -0.015 C 
ATOM      8  C   UNL A   1      43.300  32.943  32.424  1.00  0.00     0.007 C 
ATOM      9  C   UNL A   1      43.909  31.429  30.602  1.00  0.00     0.007 C 
ENDBRANCH   6   7
ENDBRANCH   5   6
BRANCH   5  10
ATOM     10  N   UNL A   1      39.418  29.567  33.118  1.00  0.00    -0.343 N 
ATOM     11  C   UNL A   1      38.153  29.293  32.667  1.00  0.00     0.242 C 
ATOM     12  H   UNL A   1      39.901  28.784  33.468  1.00  0.00     0.164 HD
ATOM     13  O   UNL A   1      37.465  28.518  33.341  1.00  0.00    -0.273 OA
BRANCH  11  14
ATOM     14  C   UNL A   1      37.762  29.623  31.224  1.00  0.00     0.168 C 
ATOM     15  C   UNL A   1      36.286  29.963  31.063  1.00  0.00     0.041 C 
BRANCH  14  16
ATOM     16  N   UNL A   1      38.038  28.381  30.518  1.00  0.00    -0.343 N 
ATOM     17  C   UNL A   1      38.473  28.127  29.271  1.00  0.00     0.243 C 
ATOM     18  H   UNL A   1      37.875  27.573  31.055  1.00  0.00     0.164 HD
ATOM     19  O   UNL A   1      38.868  26.972  29.061  1.00  0.00    -0.273 OA
BRANCH  17  20
ATOM     20  C   UNL A   1      38.575  29.194  28.151  1.00  0.00     0.174 C 
BRANCH  20  21
ATOM     21  N   UNL A   1      37.460  30.241  28.023  1.00  0.00    -0.343 N 
ATOM     22  C   UNL A   1      36.200  30.663  27.771  1.00  0.00     0.240 C 
ATOM     23  H   UNL A   1      37.925  31.078  28.253  1.00  0.00     0.164 HD
ATOM     24  O   UNL A   1      36.174  31.912  27.751  1.00  0.00    -0.273 OA
BRANCH  22  25
ATOM     25  C   UNL A   1      34.799  29.974  27.484  1.00  0.00     0.219 C 
BRANCH  25  26
ATOM     26  N   UNL A   1      34.724  29.005  26.415  1.00  0.00    -0.312 N 
ATOM     27  C   UNL A   1      33.791  28.460  25.591  1.00  0.00     0.407 C 
ATOM     28  H   UNL A   1      35.613  28.627  26.228  1.00  0.00     0.167 HD
ATOM     29  O   UNL A   1      34.138  27.305  25.364  1.00  0.00    -0.225 OA
BRANCH  27  30
ATOM     30  O   UNL A   1      32.618  29.095  25.204  1.00  0.00    -0.445 OA
BRANCH  30  31
ATOM     31  C   UNL A   1      31.223  28.929  24.313  1.00  0.00     0.270 C 
BRANCH  31  32
ATOM     32  C   UNL A   1      30.014  29.705  23.672  1.00  0.00    -0.011 A 
ATOM     33  C   UNL A   1      28.994  29.069  22.906  1.00  0.00     0.007 A 
ATOM     34  C   UNL A   1      29.698  31.004  24.087  1.00  0.00     0.007 A 
ATOM     35  C   UNL A   1      27.852  29.724  22.420  1.00  0.00     0.000 A 
ATOM     36  C   UNL A   1      28.506  31.644  23.675  1.00  0.00     0.000 A 
ATOM     37  C   UNL A   1      27.606  31.024  22.811  1.00  0.00     0.000 A 
ENDBRANCH  31  32
ENDBRANCH  30  31
ENDBRANCH  27  30
ENDBRANCH  25  26
ENDBRANCH  22  25
ENDBRANCH  20  21
BRANCH  20  38
ATOM     38  C   UNL A   1      40.041  29.528  27.747  1.00  0.00     0.015 C 
ATOM     39  C   UNL A   1      41.142  29.465  28.820  1.00  0.00     0.010 C 
ATOM     40  C   UNL A   1      40.513  28.741  26.519  1.00  0.00     0.010 C 
ENDBRANCH  20  38
ENDBRANCH  17  20
ENDBRANCH  14  16
ENDBRANCH  11  14
ENDBRANCH   5  10
ENDBRANCH   1   5
BRANCH   3  41
ATOM     41  C   UNL A   1      37.770  33.875  32.973  1.00  0.00     0.116 C 
BRANCH  41  42
ATOM     42  C   UNL A   1      37.355  33.456  31.565  1.00  0.00     0.021 C 
BRANCH  42  43
ATOM     43  C   UNL A   1      38.432  33.804  30.493  1.00  0.00     0.002 C 
BRANCH  43  44
ATOM     44  C   UNL A   1      39.903  34.075  30.889  1.00  0.00     0.002 C 
BRANCH  44  45
ATOM     45  C   UNL A   1      40.802  34.884  29.952  1.00  0.00     0.021 C 
BRANCH  45  46
ATOM     46  C   UNL A   1      40.429  34.895  28.475  1.00  0.00     0.116 C 
BRANCH  46  47
ATOM     47  N   UNL A   1      40.904  36.066  27.757  1.00  0.00    -0.352 N 
ATOM     48  C   UNL A   1      42.099  36.280  27.115  1.00  0.00     0.251 C 
ATOM     49  H   UNL A   1      40.273  36.821  27.727  1.00  0.00     0.163 HD
ATOM     50  O   UNL A   1      42.308  37.376  26.593  1.00  0.00    -0.269 OA
BRANCH  48  51
ATOM     51  C   UNL A   1      43.150  35.235  27.081  1.00  0.00     0.039 A 
ATOM     52  C   UNL A   1      43.417  34.603  25.862  1.00  0.00     0.014 A 
ATOM     53  C   UNL A   1      43.860  34.862  28.225  1.00  0.00     0.014 A 
ATOM     54  C   UNL A   1      44.433  33.648  25.777  1.00  0.00     0.010 A 
ATOM     55  C   UNL A   1      44.916  33.956  28.126  1.00  0.00     0.010 A 
ATOM     56  C   UNL A   1      45.214  33.340  26.901  1.00  0.00    -0.014 A 
BRANCH  56  57
ATOM     57  C   UNL A   1      46.342  32.378  26.808  1.00  0.00     0.031 A 
ATOM     58  C   UNL A   1      47.744  32.873  26.580  1.00  0.00     0.074 A 
ATOM     59  C   UNL A   1      46.093  31.055  26.878  1.00  0.00     0.049 A 
ATOM     60  N   UNL A   1      48.848  32.185  26.430  1.00  0.00    -0.248 NA
ATOM     61  C   UNL A   1      47.928  34.330  26.485  1.00  0.00     0.031 C 
ATOM     62  C   UNL A   1      44.768  30.452  27.047  1.00  0.00     0.029 A 
ATOM     63  N   UNL A   1      46.939  29.977  26.807  1.00  0.00    -0.354 N 
ATOM     64  C   UNL A   1      49.852  33.122  26.211  1.00  0.00     0.074 A 
ATOM     65  C   UNL A   1      49.218  34.423  26.199  1.00  0.00     0.031 C 
ATOM     66  C   UNL A   1      44.893  29.117  27.087  1.00  0.00     0.029 A 
ATOM     67  C   UNL A   1      46.299  28.764  26.916  1.00  0.00     0.049 A 
ATOM     68  H   UNL A   1      47.912  30.062  26.690  1.00  0.00     0.167 HD
ATOM     69  C   UNL A   1      51.182  32.918  26.055  1.00  0.00     0.037 A 
ATOM     70  C   UNL A   1      46.789  27.509  26.880  1.00  0.00     0.037 A 
ATOM     71  C   UNL A   1      51.807  31.621  26.093  1.00  0.00     0.049 A 
ATOM     72  C   UNL A   1      48.272  27.309  26.720  1.00  0.00     0.074 A 
ATOM     73  C   UNL A   1      53.153  31.312  26.005  1.00  0.00     0.029 A 
ATOM     74  N   UNL A   1      51.129  30.419  26.231  1.00  0.00    -0.354 N 
ATOM     75  N   UNL A   1      49.215  28.210  26.580  1.00  0.00    -0.248 NA
ATOM     76  C   UNL A   1      48.760  25.923  26.723  1.00  0.00     0.031 C 
ATOM     77  C   UNL A   1      53.285  29.920  26.053  1.00  0.00     0.029 A 
ATOM     78  C   UNL A   1      52.026  29.364  26.214  1.00  0.00     0.049 A 
ATOM     79  H   UNL A   1      50.153  30.329  26.328  1.00  0.00     0.167 HD
ATOM     80  C   UNL A   1      50.408  27.503  26.501  1.00  0.00     0.074 A 
ATOM     81  C   UNL A   1      50.070  26.099  26.622  1.00  0.00     0.031 C 
ATOM     82  C   UNL A   1      51.671  27.972  26.342  1.00  0.00     0.037 A 
BRANCH  69  83
ATOM     83  C   UNL A   1      52.050  34.127  25.837  1.00  0.00     0.058 A 
ATOM     84  C   UNL A   1      52.379  34.573  24.547  1.00  0.00     0.135 A 
ATOM     85  C   UNL A   1      52.536  34.867  26.928  1.00  0.00     0.135 A 
ATOM     86  F   UNL A   1      51.954  33.897  23.469  1.00  0.00    -0.206 F 
ATOM     87  C   UNL A   1      53.185  35.690  24.346  1.00  0.00     0.059 A 
ATOM     88  C   UNL A   1      53.322  36.003  26.750  1.00  0.00     0.059 A 
ATOM     89  F   UNL A   1      52.252  34.486  28.183  1.00  0.00    -0.206 F 
ATOM     90  C   UNL A   1      53.654  36.396  25.454  1.00  0.00     0.060 A 
BRANCH  90  91
ATOM     91  S   UNL A   1      54.699  37.842  25.176  1.00  0.00     0.124 S 
ATOM     92  O   UNL A   1      55.692  37.689  26.235  1.00  0.00    -0.237 OA
ATOM     93  O   UNL A   1      55.184  37.622  23.818  1.00  0.00    -0.237 OA
ATOM     94  O   UNL A   1      53.778  38.963  25.336  1.00  0.00    -0.744 OA
ENDBRANCH  90  91
ENDBRANCH  69  83
BRANCH  70  95
ATOM     95  C   UNL A   1      45.871  26.349  27.028  1.00  0.00     0.058 A 
ATOM     96  C   UNL A   1      45.593  25.806  28.291  1.00  0.00     0.135 A 
ATOM     97  C   UNL A   1      45.238  25.773  25.915  1.00  0.00     0.135 A 
ATOM     98  F   UNL A   1      46.178  26.318  29.384  1.00  0.00    -0.206 F 
ATOM     99  C   UNL A   1      44.731  24.724  28.446  1.00  0.00     0.059 A 
ATOM    100  C   UNL A   1      44.354  24.707  26.047  1.00  0.00     0.059 A 
ATOM    101  F   UNL A   1      45.457  26.268  24.687  1.00  0.00    -0.206 F 
ATOM    102  C   UNL A   1      44.113  24.184  27.317  1.00  0.00     0.060 A 
BRANCH 102 103
ATOM    103  S   UNL A   1      42.953  22.816  27.535  1.00  0.00     0.124 S 
ATOM    104  O   UNL A   1      41.681  23.457  27.223  1.00  0.00    -0.237 OA
ATOM    105  O   UNL A   1      43.436  21.846  26.556  1.00  0.00    -0.237 OA
ATOM    106  O   UNL A   1      43.144  22.434  28.930  1.00  0.00    -0.744 OA
ENDBRANCH 102 103
ENDBRANCH  70  95
BRANCH  82 107
ATOM    107  C   UNL A   1      52.784  26.963  26.320  1.00  0.00     0.058 A 
ATOM    108  C   UNL A   1      53.179  26.328  25.133  1.00  0.00     0.135 A 
ATOM    109  C   UNL A   1      53.498  26.668  27.493  1.00  0.00     0.135 A 
ATOM    110  F   UNL A   1      52.524  26.573  23.986  1.00  0.00    -0.206 F 
ATOM    111  C   UNL A   1      54.231  25.419  25.112  1.00  0.00     0.059 A 
ATOM    112  C   UNL A   1      54.569  25.781  27.489  1.00  0.00     0.059 A 
ATOM    113  F   UNL A   1      53.166  27.256  28.653  1.00  0.00    -0.206 F 
ATOM    114  C   UNL A   1      54.921  25.152  26.296  1.00  0.00     0.060 A 
BRANCH 114 115
ATOM    115  S   UNL A   1      56.306  23.996  26.250  1.00  0.00     0.124 S 
ATOM    116  O   UNL A   1      56.823  24.210  24.902  1.00  0.00    -0.237 OA
ATOM    117  O   UNL A   1      57.153  24.476  27.337  1.00  0.00    -0.237 OA
ATOM    118  O   UNL A   1      55.674  22.700  26.482  1.00  0.00    -0.744 OA
ENDBRANCH 114 115
ENDBRANCH  82 107
ENDBRANCH  56  57
ENDBRANCH  48  51
ENDBRANCH  46  47
ENDBRANCH  45  46
ENDBRANCH  44  45
ENDBRANCH  43  44
ENDBRANCH  42  43
ENDBRANCH  41  42
ENDBRANCH   3  41
TORSDOF 29
ENDMDL
MODEL 2
REMARK VINA RESULT:      -9.6      4.457      8.945
REMARK SMILES CC(C)C[C@H](NC(=O)[C@H](C)NC(=O)[C@@H](NC(=O)CNC(=O)OCc1ccccc1)C(C)C)C(=O)NCCCCCCNC(=O)c1ccc(-c2c3nc(c(-c4c(F)cc(S(=O)(=O)[O-])cc4F)c4ccc([nH]4)c(-c4c(F)cc(S(=O)(=O)[O-])cc4F)c4nc(c(-c5c(F)cc(S(=O)(=O)[O-])cc5F)c5ccc2[nH]5)C=C4)C=C3)cc1
REMARK SMILES IDX 33 1 34 2 35 3 5 5 4 6 2 7 1 8 3 9 6 10 7 11 8 13 9 14 10 15
REMARK SMILES IDX 11 16 12 17 13 19 14 20 15 21 16 22 17 24 18 25 19 26 20 27
REMARK SMILES IDX 21 29 22 30 23 31 24 32 25 33 29 34 26 35 28 36 27 37 30 38
REMARK SMILES IDX 31 39 32 40 36 41 37 42 38 43 39 44 40 45 41 46 42 47 43 48
REMARK SMILES IDX 44 50 45 51 46 52 110 53 47 54 109 55 48 56 49 57 50 58
REMARK SMILES IDX 103 59 51 60 108 61 102 62 104 63 52 64 107 65 101 66 100 67
REMARK SMILES IDX 53 69 87 70 66 71 86 72 67 73 70 74 85 75 105 76 68 77 69 78
REMARK SMILES IDX 84 80 106 81 71 82 54 83 55 84 64 85 56 86 57 87 63 88 65 89
REMARK SMILES IDX 58 90 59 91 60 92 61 93 62 94 88 95 89 96 98 97 90 98 91 99
REMARK SMILES IDX 97 100 99 101 92 102 93 103 94 104 95 105 96 106 72 107
REMARK SMILES IDX 73 108 82 109 74 110 75 111 81 112 83 113 76 114 77 115
REMARK SMILES IDX 78 116 79 117 80 118
REMARK H PARENT 35 4 6 12 11 18 15 23 19 28 42 49 104 68 70 79
REMARK Flexibility Score: inf
ROOT
ATOM      1  C   UNL A   1      33.697  31.778  28.048  1.00  0.00     0.242 C 
ATOM      2  O   UNL A   1      32.855  32.179  27.197  1.00  0.00    -0.273 OA
ATOM      3  N   UNL A   1      33.743  32.671  29.105  1.00  0.00    -0.354 N 
ATOM      4  H   UNL A   1      33.027  33.340  29.014  1.00  0.00     0.163 HD
ENDROOT
BRANCH   1   5
ATOM      5  C   UNL A   1      34.446  30.239  27.548  1.00  0.00     0.171 C 
BRANCH   5   6
ATOM      6  C   UNL A   1      35.783  29.136  27.653  1.00  0.00     0.038 C 
BRANCH   6   7
ATOM      7  C   UNL A   1      37.299  29.013  28.454  1.00  0.00    -0.015 C 
ATOM      8  C   UNL A   1      38.479  29.779  27.825  1.00  0.00     0.007 C 
ATOM      9  C   UNL A   1      37.417  29.327  29.981  1.00  0.00     0.007 C 
ENDBRANCH   6   7
ENDBRANCH   5   6
BRANCH   5  10
ATOM     10  N   UNL A   1      33.749  30.147  26.211  1.00  0.00    -0.343 N 
ATOM     11  C   UNL A   1      33.348  29.065  25.470  1.00  0.00     0.242 C 
ATOM     12  H   UNL A   1      33.546  31.018  25.799  1.00  0.00     0.164 HD
ATOM     13  O   UNL A   1      33.529  29.115  24.248  1.00  0.00    -0.273 OA
BRANCH  11  14
ATOM     14  C   UNL A   1      32.390  28.033  26.072  1.00  0.00     0.168 C 
ATOM     15  C   UNL A   1      31.738  28.499  27.366  1.00  0.00     0.041 C 
BRANCH  14  16
ATOM     16  N   UNL A   1      33.265  26.907  26.364  1.00  0.00    -0.343 N 
ATOM     17  C   UNL A   1      33.196  25.602  26.044  1.00  0.00     0.243 C 
ATOM     18  H   UNL A   1      34.057  27.146  26.897  1.00  0.00     0.164 HD
ATOM     19  O   UNL A   1      34.235  24.949  26.211  1.00  0.00    -0.273 OA
BRANCH  17  20
ATOM     20  C   UNL A   1      31.947  24.922  25.426  1.00  0.00     0.174 C 
BRANCH  20  21
ATOM     21  N   UNL A   1      32.145  23.874  24.323  1.00  0.00    -0.343 N 
ATOM     22  C   UNL A   1      32.468  23.451  23.080  1.00  0.00     0.240 C 
ATOM     23  H   UNL A   1      31.897  23.036  24.777  1.00  0.00     0.164 HD
ATOM     24  O   UNL A   1      32.158  22.248  22.953  1.00  0.00    -0.273 OA
BRANCH  22  25
ATOM     25  C   UNL A   1      33.105  24.103  21.779  1.00  0.00     0.219 C 
BRANCH  25  26
ATOM     26  N   UNL A   1      33.653  25.435  21.885  1.00  0.00    -0.312 N 
ATOM     27  C   UNL A   1      33.217  26.712  22.037  1.00  0.00     0.407 C 
ATOM     28  H   UNL A   1      34.636  25.410  21.828  1.00  0.00     0.167 HD
ATOM     29  O   UNL A   1      34.004  27.438  21.437  1.00  0.00    -0.225 OA
BRANCH  27  30
ATOM     30  O   UNL A   1      32.029  27.067  22.663  1.00  0.00    -0.445 OA
BRANCH  30  31
ATOM     31  C   UNL A   1      30.511  27.703  22.418  1.00  0.00     0.270 C 
BRANCH  31  32
ATOM     32  C   UNL A   1      29.465  28.755  22.942  1.00  0.00    -0.011 A 
ATOM     33  C   UNL A   1      29.764  30.138  23.110  1.00  0.00     0.007 A 
ATOM     34  C   UNL A   1      28.099  28.454  22.964  1.00  0.00     0.007 A 
ATOM     35  C   UNL A   1      28.817  31.109  23.470  1.00  0.00     0.000 A 
ATOM     36  C   UNL A   1      27.126  29.443  23.239  1.00  0.00     0.000 A 
ATOM     37  C   UNL A   1      27.485  30.757  23.533  1.00  0.00     0.000 A 
ENDBRANCH  31  32
ENDBRANCH  30  31
ENDBRANCH  27  30
ENDBRANCH  25  26
ENDBRANCH  22  25
ENDBRANCH  20  21
BRANCH  20  38
ATOM     38  C   UNL A   1      30.741  24.840  26.407  1.00  0.00     0.015 C 
ATOM     39  C   UNL A   1      29.456  25.619  26.075  1.00  0.00     0.010 C 
ATOM     40  C   UNL A   1      30.358  23.397  26.758  1.00  0.00     0.010 C 
ENDBRANCH  20  38
ENDBRANCH  17  20
ENDBRANCH  14  16
ENDBRANCH  11  14
ENDBRANCH   5  10
ENDBRANCH   1   5
BRANCH   3  41
ATOM     41  C   UNL A   1      34.537  32.937  30.337  1.00  0.00     0.116 C 
BRANCH  41  42
ATOM     42  C   UNL A   1      34.648  34.328  30.954  1.00  0.00     0.021 C 
BRANCH  42  43
ATOM     43  C   UNL A   1      34.072  34.392  32.401  1.00  0.00     0.002 C 
BRANCH  43  44
ATOM     44  C   UNL A   1      34.662  33.526  33.540  1.00  0.00     0.002 C 
BRANCH  44  45
ATOM     45  C   UNL A   1      36.170  33.278  33.599  1.00  0.00     0.021 C 
BRANCH  45  46
ATOM     46  C   UNL A   1      36.689  32.013  32.925  1.00  0.00     0.116 C 
BRANCH  46  47
ATOM     47  N   UNL A   1      37.214  31.025  33.851  1.00  0.00    -0.352 N 
ATOM     48  C   UNL A   1      38.514  30.727  34.177  1.00  0.00     0.251 C 
ATOM     49  H   UNL A   1      36.533  30.487  34.316  1.00  0.00     0.163 HD
ATOM     50  O   UNL A   1      38.736  29.815  34.975  1.00  0.00    -0.269 OA
BRANCH  48  51
ATOM     51  C   UNL A   1      39.647  31.450  33.552  1.00  0.00     0.039 A 
ATOM     52  C   UNL A   1      40.822  31.609  34.296  1.00  0.00     0.014 A 
ATOM     53  C   UNL A   1      39.566  31.983  32.263  1.00  0.00     0.014 A 
ATOM     54  C   UNL A   1      41.929  32.243  33.727  1.00  0.00     0.010 A 
ATOM     55  C   UNL A   1      40.693  32.557  31.674  1.00  0.00     0.010 A 
ATOM     56  C   UNL A   1      41.886  32.692  32.399  1.00  0.00    -0.014 A 
BRANCH  56  57
ATOM     57  C   UNL A   1      43.078  33.304  31.759  1.00  0.00     0.031 A 
ATOM     58  C   UNL A   1      43.432  34.741  32.030  1.00  0.00     0.074 A 
ATOM     59  C   UNL A   1      43.811  32.577  30.891  1.00  0.00     0.049 A 
ATOM     60  N   UNL A   1      44.407  35.459  31.532  1.00  0.00    -0.248 NA
ATOM     61  C   UNL A   1      42.564  35.474  32.965  1.00  0.00     0.031 C 
ATOM     62  C   UNL A   1      43.538  31.190  30.509  1.00  0.00     0.029 A 
ATOM     63  N   UNL A   1      44.930  32.904  30.168  1.00  0.00    -0.354 N 
ATOM     64  C   UNL A   1      44.262  36.728  32.083  1.00  0.00     0.074 A 
ATOM     65  C   UNL A   1      43.078  36.694  32.913  1.00  0.00     0.031 C 
ATOM     66  C   UNL A   1      44.473  30.780  29.638  1.00  0.00     0.029 A 
ATOM     67  C   UNL A   1      45.395  31.880  29.376  1.00  0.00     0.049 A 
ATOM     68  H   UNL A   1      45.361  33.788  30.211  1.00  0.00     0.167 HD
ATOM     69  C   UNL A   1      45.056  37.814  31.927  1.00  0.00     0.037 A 
ATOM     70  C   UNL A   1      46.444  31.833  28.531  1.00  0.00     0.037 A 
ATOM     71  C   UNL A   1      46.247  37.832  31.117  1.00  0.00     0.049 A 
ATOM     72  C   UNL A   1      47.319  33.049  28.385  1.00  0.00     0.074 A 
ATOM     73  C   UNL A   1      47.152  38.863  30.939  1.00  0.00     0.029 A 
ATOM     74  N   UNL A   1      46.699  36.768  30.351  1.00  0.00    -0.354 N 
ATOM     75  N   UNL A   1      47.205  34.221  28.964  1.00  0.00    -0.248 NA
ATOM     76  C   UNL A   1      48.470  32.935  27.479  1.00  0.00     0.031 C 
ATOM     77  C   UNL A   1      48.131  38.434  30.037  1.00  0.00     0.029 A 
ATOM     78  C   UNL A   1      47.861  37.122  29.686  1.00  0.00     0.049 A 
ATOM     79  H   UNL A   1      46.259  35.889  30.290  1.00  0.00     0.167 HD
ATOM     80  C   UNL A   1      48.280  34.975  28.512  1.00  0.00     0.074 A 
ATOM     81  C   UNL A   1      49.042  34.124  27.620  1.00  0.00     0.031 C 
ATOM     82  C   UNL A   1      48.609  36.257  28.806  1.00  0.00     0.037 A 
BRANCH  69  83
ATOM     83  C   UNL A   1      44.664  39.072  32.653  1.00  0.00     0.058 A 
ATOM     84  C   UNL A   1      43.849  40.045  32.051  1.00  0.00     0.135 A 
ATOM     85  C   UNL A   1      45.081  39.296  33.975  1.00  0.00     0.135 A 
ATOM     86  F   UNL A   1      43.432  39.889  30.785  1.00  0.00    -0.206 F 
ATOM     87  C   UNL A   1      43.489  41.210  32.723  1.00  0.00     0.059 A 
ATOM     88  C   UNL A   1      44.711  40.442  34.675  1.00  0.00     0.059 A 
ATOM     89  F   UNL A   1      45.861  38.399  34.598  1.00  0.00    -0.206 F 
ATOM     90  C   UNL A   1      43.928  41.401  34.034  1.00  0.00     0.060 A 
BRANCH  90  91
ATOM     91  S   UNL A   1      43.453  42.917  34.890  1.00  0.00     0.124 S 
ATOM     92  O   UNL A   1      43.900  43.935  33.945  1.00  0.00    -0.237 OA
ATOM     93  O   UNL A   1      42.007  42.765  35.019  1.00  0.00    -0.237 OA
ATOM     94  O   UNL A   1      44.201  42.850  36.141  1.00  0.00    -0.744 OA
ENDBRANCH  90  91
ENDBRANCH  69  83
BRANCH  70  95
ATOM     95  C   UNL A   1      46.740  30.583  27.783  1.00  0.00     0.058 A 
ATOM     96  C   UNL A   1      46.261  30.393  26.478  1.00  0.00     0.135 A 
ATOM     97  C   UNL A   1      47.524  29.564  28.345  1.00  0.00     0.135 A 
ATOM     98  F   UNL A   1      45.504  31.337  25.898  1.00  0.00    -0.206 F 
ATOM     99  C   UNL A   1      46.536  29.232  25.762  1.00  0.00     0.059 A 
ATOM    100  C   UNL A   1      47.832  28.404  27.641  1.00  0.00     0.059 A 
ATOM    101  F   UNL A   1      48.021  29.705  29.585  1.00  0.00    -0.206 F 
ATOM    102  C   UNL A   1      47.325  28.244  26.352  1.00  0.00     0.060 A 
BRANCH 102 103
ATOM    103  S   UNL A   1      47.722  26.764  25.395  1.00  0.00     0.124 S 
ATOM    104  O   UNL A   1      46.606  26.712  24.456  1.00  0.00    -0.237 OA
ATOM    105  O   UNL A   1      49.021  27.107  24.823  1.00  0.00    -0.237 OA
ATOM    106  O   UNL A   1      47.749  25.710  26.403  1.00  0.00    -0.744 OA
ENDBRANCH 102 103
ENDBRANCH  70  95
BRANCH  82 107
ATOM    107  C   UNL A   1      49.861  36.810  28.185  1.00  0.00     0.058 A 
ATOM    108  C   UNL A   1      49.848  37.416  26.919  1.00  0.00     0.135 A 
ATOM    109  C   UNL A   1      51.076  36.777  28.887  1.00  0.00     0.135 A 
ATOM    110  F   UNL A   1      48.712  37.466  26.206  1.00  0.00    -0.206 F 
ATOM    111  C   UNL A   1      51.003  37.954  26.362  1.00  0.00     0.059 A 
ATOM    112  C   UNL A   1      52.237  37.331  28.358  1.00  0.00     0.059 A 
ATOM    113  F   UNL A   1      51.139  36.217  30.105  1.00  0.00    -0.206 F 
ATOM    114  C   UNL A   1      52.193  37.907  27.090  1.00  0.00     0.060 A 
BRANCH 114 115
ATOM    115  S   UNL A   1      53.678  38.639  26.370  1.00  0.00     0.124 S 
ATOM    116  O   UNL A   1      53.809  39.866  27.148  1.00  0.00    -0.237 OA
ATOM    117  O   UNL A   1      54.688  37.616  26.625  1.00  0.00    -0.237 OA
ATOM    118  O   UNL A   1      53.321  38.820  24.966  1.00  0.00    -0.744 OA
ENDBRANCH 114 115
ENDBRANCH  82 107
ENDBRANCH  56  57
ENDBRANCH  48  51
ENDBRANCH  46  47
ENDBRANCH  45  46
ENDBRANCH  44  45
ENDBRANCH  43  44
ENDBRANCH  42  43
ENDBRANCH  41  42
ENDBRANCH   3  41
TORSDOF 29
ENDMDL
MODEL 3
REMARK VINA RESULT:      -9.1      4.636     10.255
REMARK SMILES CC(C)C[C@H](NC(=O)[C@H](C)NC(=O)[C@@H](NC(=O)CNC(=O)OCc1ccccc1)C(C)C)C(=O)NCCCCCCNC(=O)c1ccc(-c2c3nc(c(-c4c(F)cc(S(=O)(=O)[O-])cc4F)c4ccc([nH]4)c(-c4c(F)cc(S(=O)(=O)[O-])cc4F)c4nc(c(-c5c(F)cc(S(=O)(=O)[O-])cc5F)c5ccc2[nH]5)C=C4)C=C3)cc1
REMARK SMILES IDX 33 1 34 2 35 3 5 5 4 6 2 7 1 8 3 9 6 10 7 11 8 13 9 14 10 15
REMARK SMILES IDX 11 16 12 17 13 19 14 20 15 21 16 22 17 24 18 25 19 26 20 27
REMARK SMILES IDX 21 29 22 30 23 31 24 32 25 33 29 34 26 35 28 36 27 37 30 38
REMARK SMILES IDX 31 39 32 40 36 41 37 42 38 43 39 44 40 45 41 46 42 47 43 48
REMARK SMILES IDX 44 50 45 51 46 52 110 53 47 54 109 55 48 56 49 57 50 58
REMARK SMILES IDX 103 59 51 60 108 61 102 62 104 63 52 64 107 65 101 66 100 67
REMARK SMILES IDX 53 69 87 70 66 71 86 72 67 73 70 74 85 75 105 76 68 77 69 78
REMARK SMILES IDX 84 80 106 81 71 82 54 83 55 84 64 85 56 86 57 87 63 88 65 89
REMARK SMILES IDX 58 90 59 91 60 92 61 93 62 94 88 95 89 96 98 97 90 98 91 99
REMARK SMILES IDX 97 100 99 101 92 102 93 103 94 104 95 105 96 106 72 107
REMARK SMILES IDX 73 108 82 109 74 110 75 111 81 112 83 113 76 114 77 115
REMARK SMILES IDX 78 116 79 117 80 118
REMARK H PARENT 35 4 6 12 11 18 15 23 19 28 42 49 104 68 70 79
REMARK Flexibility Score: inf
ROOT
ATOM      1  C   UNL A   1      34.989  33.300  28.064  1.00  0.00     0.242 C 
ATOM      2  O   UNL A   1      35.908  33.570  27.243  1.00  0.00    -0.273 OA
ATOM      3  N   UNL A   1      34.202  34.424  28.257  1.00  0.00    -0.354 N 
ATOM      4  H   UNL A   1      34.459  35.130  27.622  1.00  0.00     0.163 HD
ENDROOT
BRANCH   1   5
ATOM      5  C   UNL A   1      35.075  31.604  28.606  1.00  0.00     0.171 C 
BRANCH   5   6
ATOM      6  C   UNL A   1      35.570  30.453  29.808  1.00  0.00     0.038 C 
BRANCH   6   7
ATOM      7  C   UNL A   1      36.771  29.240  30.020  1.00  0.00    -0.015 C 
ATOM      8  C   UNL A   1      37.841  29.125  28.917  1.00  0.00     0.007 C 
ATOM      9  C   UNL A   1      37.589  29.158  31.349  1.00  0.00     0.007 C 
ENDBRANCH   6   7
ENDBRANCH   5   6
BRANCH   5  10
ATOM     10  N   UNL A   1      35.044  30.992  27.226  1.00  0.00    -0.343 N 
ATOM     11  C   UNL A   1      34.172  30.106  26.646  1.00  0.00     0.242 C 
ATOM     12  H   UNL A   1      35.779  31.280  26.637  1.00  0.00     0.164 HD
ATOM     13  O   UNL A   1      34.656  29.211  25.943  1.00  0.00    -0.273 OA
BRANCH  11  14
ATOM     14  C   UNL A   1      32.679  30.438  26.563  1.00  0.00     0.168 C 
ATOM     15  C   UNL A   1      32.300  31.702  27.322  1.00  0.00     0.041 C 
BRANCH  14  16
ATOM     16  N   UNL A   1      32.055  29.294  27.211  1.00  0.00    -0.343 N 
ATOM     17  C   UNL A   1      31.738  28.065  26.766  1.00  0.00     0.243 C 
ATOM     18  H   UNL A   1      31.818  29.450  28.153  1.00  0.00     0.164 HD
ATOM     19  O   UNL A   1      31.462  27.229  27.637  1.00  0.00    -0.273 OA
BRANCH  17  20
ATOM     20  C   UNL A   1      31.778  27.642  25.275  1.00  0.00     0.174 C 
BRANCH  20  21
ATOM     21  N   UNL A   1      32.147  26.194  24.927  1.00  0.00    -0.343 N 
ATOM     22  C   UNL A   1      32.998  25.162  24.725  1.00  0.00     0.240 C 
ATOM     23  H   UNL A   1      31.269  25.785  24.749  1.00  0.00     0.164 HD
ATOM     24  O   UNL A   1      32.376  24.196  24.235  1.00  0.00    -0.273 OA
BRANCH  22  25
ATOM     25  C   UNL A   1      34.550  24.902  24.935  1.00  0.00     0.219 C 
BRANCH  25  26
ATOM     26  N   UNL A   1      35.143  23.760  24.279  1.00  0.00    -0.312 N 
ATOM     27  C   UNL A   1      35.335  22.435  24.506  1.00  0.00     0.407 C 
ATOM     28  H   UNL A   1      35.523  24.020  23.409  1.00  0.00     0.167 HD
ATOM     29  O   UNL A   1      36.393  22.123  23.969  1.00  0.00    -0.225 OA
BRANCH  27  30
ATOM     30  O   UNL A   1      34.515  21.648  25.306  1.00  0.00    -0.445 OA
BRANCH  30  31
ATOM     31  C   UNL A   1      33.569  20.280  25.337  1.00  0.00     0.270 C 
BRANCH  31  32
ATOM     32  C   UNL A   1      33.577  18.715  25.168  1.00  0.00    -0.011 A 
ATOM     33  C   UNL A   1      32.566  17.866  25.705  1.00  0.00     0.007 A 
ATOM     34  C   UNL A   1      34.395  18.104  24.212  1.00  0.00     0.007 A 
ATOM     35  C   UNL A   1      32.496  16.484  25.473  1.00  0.00     0.000 A 
ATOM     36  C   UNL A   1      34.275  16.729  23.905  1.00  0.00     0.000 A 
ATOM     37  C   UNL A   1      33.358  15.912  24.562  1.00  0.00     0.000 A 
ENDBRANCH  31  32
ENDBRANCH  30  31
ENDBRANCH  27  30
ENDBRANCH  25  26
ENDBRANCH  22  25
ENDBRANCH  20  21
BRANCH  20  38
ATOM     38  C   UNL A   1      30.810  28.464  24.374  1.00  0.00     0.015 C 
ATOM     39  C   UNL A   1      31.390  29.268  23.197  1.00  0.00     0.010 C 
ATOM     40  C   UNL A   1      29.627  27.635  23.861  1.00  0.00     0.010 C 
ENDBRANCH  20  38
ENDBRANCH  17  20
ENDBRANCH  14  16
ENDBRANCH  11  14
ENDBRANCH   5  10
ENDBRANCH   1   5
BRANCH   3  41
ATOM     41  C   UNL A   1      33.088  34.898  29.124  1.00  0.00     0.116 C 
BRANCH  41  42
ATOM     42  C   UNL A   1      33.245  36.069  30.089  1.00  0.00     0.021 C 
BRANCH  42  43
ATOM     43  C   UNL A   1      32.476  35.854  31.427  1.00  0.00     0.002 C 
BRANCH  43  44
ATOM     44  C   UNL A   1      33.223  35.762  32.779  1.00  0.00     0.002 C 
BRANCH  44  45
ATOM     45  C   UNL A   1      34.704  36.138  32.852  1.00  0.00     0.021 C 
BRANCH  45  46
ATOM     46  C   UNL A   1      35.704  35.117  32.323  1.00  0.00     0.116 C 
BRANCH  46  47
ATOM     47  N   UNL A   1      35.438  33.756  32.753  1.00  0.00    -0.352 N 
ATOM     48  C   UNL A   1      36.250  32.649  32.724  1.00  0.00     0.251 C 
ATOM     49  H   UNL A   1      34.538  33.603  33.120  1.00  0.00     0.163 HD
ATOM     50  O   UNL A   1      35.803  31.569  33.113  1.00  0.00    -0.269 OA
BRANCH  48  51
ATOM     51  C   UNL A   1      37.631  32.724  32.191  1.00  0.00     0.039 A 
ATOM     52  C   UNL A   1      38.689  32.385  33.043  1.00  0.00     0.014 A 
ATOM     53  C   UNL A   1      37.900  33.134  30.883  1.00  0.00     0.014 A 
ATOM     54  C   UNL A   1      40.002  32.396  32.566  1.00  0.00     0.010 A 
ATOM     55  C   UNL A   1      39.204  33.082  30.389  1.00  0.00     0.010 A 
ATOM     56  C   UNL A   1      40.268  32.713  31.225  1.00  0.00    -0.014 A 
BRANCH  56  57
ATOM     57  C   UNL A   1      41.651  32.661  30.687  1.00  0.00     0.031 A 
ATOM     58  C   UNL A   1      42.132  31.443  29.945  1.00  0.00     0.074 A 
ATOM     59  C   UNL A   1      42.490  33.692  30.913  1.00  0.00     0.049 A 
ATOM     60  N   UNL A   1      43.315  31.197  29.442  1.00  0.00    -0.248 NA
ATOM     61  C   UNL A   1      41.165  30.349  29.768  1.00  0.00     0.031 C 
ATOM     62  C   UNL A   1      42.155  34.905  31.662  1.00  0.00     0.029 A 
ATOM     63  N   UNL A   1      43.797  33.884  30.544  1.00  0.00    -0.354 N 
ATOM     64  C   UNL A   1      43.237  29.919  28.899  1.00  0.00     0.074 A 
ATOM     65  C   UNL A   1      41.907  29.423  29.179  1.00  0.00     0.031 C 
ATOM     66  C   UNL A   1      43.220  35.722  31.680  1.00  0.00     0.029 A 
ATOM     67  C   UNL A   1      44.323  35.080  30.972  1.00  0.00     0.049 A 
ATOM     68  H   UNL A   1      44.312  33.227  30.022  1.00  0.00     0.167 HD
ATOM     69  C   UNL A   1      44.182  29.232  28.212  1.00  0.00     0.037 A 
ATOM     70  C   UNL A   1      45.556  35.602  30.814  1.00  0.00     0.037 A 
ATOM     71  C   UNL A   1      45.495  29.744  27.917  1.00  0.00     0.049 A 
ATOM     72  C   UNL A   1      46.583  34.825  30.036  1.00  0.00     0.074 A 
ATOM     73  C   UNL A   1      46.504  29.152  27.178  1.00  0.00     0.029 A 
ATOM     74  N   UNL A   1      45.981  30.970  28.345  1.00  0.00    -0.354 N 
ATOM     75  N   UNL A   1      46.471  33.645  29.473  1.00  0.00    -0.248 NA
ATOM     76  C   UNL A   1      47.900  35.452  29.861  1.00  0.00     0.031 C 
ATOM     77  C   UNL A   1      47.612  30.004  27.190  1.00  0.00     0.029 A 
ATOM     78  C   UNL A   1      47.280  31.147  27.900  1.00  0.00     0.049 A 
ATOM     79  H   UNL A   1      45.476  31.621  28.885  1.00  0.00     0.167 HD
ATOM     80  C   UNL A   1      47.694  33.399  28.859  1.00  0.00     0.074 A 
ATOM     81  C   UNL A   1      48.526  34.558  29.108  1.00  0.00     0.031 C 
ATOM     82  C   UNL A   1      48.092  32.312  28.153  1.00  0.00     0.037 A 
BRANCH  69  83
ATOM     83  C   UNL A   1      43.823  27.854  27.728  1.00  0.00     0.058 A 
ATOM     84  C   UNL A   1      43.205  27.649  26.483  1.00  0.00     0.135 A 
ATOM     85  C   UNL A   1      44.128  26.721  28.500  1.00  0.00     0.135 A 
ATOM     86  F   UNL A   1      42.879  28.696  25.710  1.00  0.00    -0.206 F 
ATOM     87  C   UNL A   1      42.871  26.374  26.037  1.00  0.00     0.059 A 
ATOM     88  C   UNL A   1      43.827  25.434  28.061  1.00  0.00     0.059 A 
ATOM     89  F   UNL A   1      44.719  26.858  29.697  1.00  0.00    -0.206 F 
ATOM     90  C   UNL A   1      43.183  25.272  26.835  1.00  0.00     0.060 A 
BRANCH  90  91
ATOM     91  S   UNL A   1      42.743  23.625  26.242  1.00  0.00     0.124 S 
ATOM     92  O   UNL A   1      43.088  23.726  24.827  1.00  0.00    -0.237 OA
ATOM     93  O   UNL A   1      43.604  22.762  27.043  1.00  0.00    -0.237 OA
ATOM     94  O   UNL A   1      41.316  23.529  26.535  1.00  0.00    -0.744 OA
ENDBRANCH  90  91
ENDBRANCH  69  83
BRANCH  70  95
ATOM     95  C   UNL A   1      45.875  36.939  31.380  1.00  0.00     0.058 A 
ATOM     96  C   UNL A   1      46.348  37.072  32.694  1.00  0.00     0.135 A 
ATOM     97  C   UNL A   1      45.735  38.108  30.615  1.00  0.00     0.135 A 
ATOM     98  F   UNL A   1      46.494  35.985  33.466  1.00  0.00    -0.206 F 
ATOM     99  C   UNL A   1      46.658  38.316  33.235  1.00  0.00     0.059 A 
ATOM    100  C   UNL A   1      46.060  39.360  31.125  1.00  0.00     0.059 A 
ATOM    101  F   UNL A   1      45.303  38.032  29.346  1.00  0.00    -0.206 F 
ATOM    102  C   UNL A   1      46.513  39.455  32.441  1.00  0.00     0.060 A 
BRANCH 102 103
ATOM    103  S   UNL A   1      46.970  41.059  33.134  1.00  0.00     0.124 S 
ATOM    104  O   UNL A   1      48.204  41.351  32.414  1.00  0.00    -0.237 OA
ATOM    105  O   UNL A   1      45.817  41.884  32.785  1.00  0.00    -0.237 OA
ATOM    106  O   UNL A   1      47.119  40.778  34.559  1.00  0.00    -0.744 OA
ENDBRANCH 102 103
ENDBRANCH  70  95
BRANCH  82 107
ATOM    107  C   UNL A   1      49.478  32.335  27.573  1.00  0.00     0.058 A 
ATOM    108  C   UNL A   1      50.547  31.672  28.196  1.00  0.00     0.135 A 
ATOM    109  C   UNL A   1      49.727  32.986  26.354  1.00  0.00     0.135 A 
ATOM    110  F   UNL A   1      50.362  31.041  29.366  1.00  0.00    -0.206 F 
ATOM    111  C   UNL A   1      51.822  31.670  27.638  1.00  0.00     0.059 A 
ATOM    112  C   UNL A   1      50.988  32.975  25.767  1.00  0.00     0.059 A 
ATOM    113  F   UNL A   1      48.736  33.626  25.715  1.00  0.00    -0.206 F 
ATOM    114  C   UNL A   1      52.032  32.325  26.423  1.00  0.00     0.060 A 
BRANCH 114 115
ATOM    115  S   UNL A   1      53.683  32.286  25.693  1.00  0.00     0.124 S 
ATOM    116  O   UNL A   1      53.678  33.505  24.890  1.00  0.00    -0.237 OA
ATOM    117  O   UNL A   1      54.547  32.305  26.869  1.00  0.00    -0.237 OA
ATOM    118  O   UNL A   1      53.691  31.037  24.938  1.00  0.00    -0.744 OA
ENDBRANCH 114 115
ENDBRANCH  82 107
ENDBRANCH  56  57
ENDBRANCH  48  51
ENDBRANCH  46  47
ENDBRANCH  45  46
ENDBRANCH  44  45
ENDBRANCH  43  44
ENDBRANCH  42  43
ENDBRANCH  41  42
ENDBRANCH   3  41
TORSDOF 29
ENDMDL
