MODEL 1
REMARK VINA RESULT:     -12.1      0.000      0.000
REMARK SMILES C[C@@H](C(=O)NCCCCCCNC(=O)c1ccc(-c2c3nc(c(-c4c(F)cc(S(=O)(=O)[O-])cc4F)c4ccc([nH]4)c(-c4c(F)cc(S(=O)(=O)[O-])cc4F)c4nc(c(-c5c(F)cc(S(=O)(=O)[O-])cc5F)c5ccc2[nH]5)C=C4)C=C3)cc1)c1cc(/C=C/S(C)(=O)=O)cc(C(=O)c2ccccc2)c1
REMARK SMILES IDX 8 1 7 2 6 3 5 4 3 5 4 6 2 8 1 9 81 10 82 11 100 12 83 13
REMARK SMILES IDX 91 14 90 15 84 16 85 17 86 18 87 19 88 20 89 21 92 22 93 23
REMARK SMILES IDX 94 24 95 25 99 26 96 27 98 28 97 29 9 30 10 31 11 32 12 33
REMARK SMILES IDX 13 34 14 36 15 37 16 38 80 39 17 40 79 41 18 42 19 43 20 44
REMARK SMILES IDX 73 45 21 46 78 47 72 48 74 49 22 50 77 51 71 52 70 53 23 55
REMARK SMILES IDX 57 56 36 57 56 58 37 59 40 60 55 61 75 62 38 63 39 64 54 66
REMARK SMILES IDX 76 67 41 68 24 69 25 70 34 71 26 72 27 73 33 74 35 75 28 76
REMARK SMILES IDX 29 77 30 78 31 79 32 80 58 81 59 82 68 83 60 84 61 85 67 86
REMARK SMILES IDX 69 87 62 88 63 89 64 90 65 91 66 92 42 93 43 94 52 95 44 96
REMARK SMILES IDX 45 97 51 98 53 99 46 100 47 101 48 102 49 103 50 104
REMARK H PARENT 5 7 12 35 74 54 40 65
REMARK Flexibility Score: inf
ROOT
ATOM      1  C   UNL A   1      31.641  28.490  27.154  1.00  0.00     0.002 C 
ENDROOT
BRANCH   1   2
ATOM      2  C   UNL A   1      31.430  27.897  25.754  1.00  0.00     0.021 C 
BRANCH   2   3
ATOM      3  C   UNL A   1      30.822  26.494  25.761  1.00  0.00     0.116 C 
BRANCH   3   4
ATOM      4  N   UNL A   1      31.435  25.679  26.785  1.00  0.00    -0.356 N 
ATOM      5  C   UNL A   1      31.576  24.331  26.884  1.00  0.00     0.227 C 
ATOM      6  O   UNL A   1      32.164  23.929  27.891  1.00  0.00    -0.274 OA
ATOM      7  H   UNL A   1      31.816  26.187  27.538  1.00  0.00     0.163 HD
BRANCH   5   8
ATOM      8  C   UNL A   1      31.083  23.410  25.750  1.00  0.00     0.105 C 
ATOM      9  C   UNL A   1      30.031  22.379  26.185  1.00  0.00     0.023 C 
BRANCH   8  10
ATOM     10  C   UNL A   1      32.184  22.602  25.063  1.00  0.00    -0.035 A 
ATOM     11  C   UNL A   1      32.053  21.211  24.955  1.00  0.00     0.012 A 
ATOM     12  C   UNL A   1      33.404  23.187  24.706  1.00  0.00     0.016 A 
ATOM     13  C   UNL A   1      33.123  20.401  24.543  1.00  0.00    -0.024 A 
ATOM     14  C   UNL A   1      34.481  22.415  24.267  1.00  0.00     0.023 A 
ATOM     15  C   UNL A   1      34.333  21.023  24.182  1.00  0.00     0.020 A 
BRANCH  13  16
ATOM     16  C   UNL A   1      33.040  18.926  24.544  1.00  0.00     0.020 C 
ATOM     17  C   UNL A   1      34.102  18.103  24.558  1.00  0.00     0.106 C 
BRANCH  17  18
ATOM     18  S   UNL A   1      33.891  16.384  24.444  1.00  0.00     0.168 S 
ATOM     19  C   UNL A   1      35.319  15.806  25.333  1.00  0.00     0.163 C 
ATOM     20  O   UNL A   1      32.723  16.016  25.225  1.00  0.00    -0.225 OA
ATOM     21  O   UNL A   1      34.032  15.943  23.071  1.00  0.00    -0.225 OA
ENDBRANCH  17  18
ENDBRANCH  13  16
BRANCH  14  22
ATOM     22  C   UNL A   1      35.780  23.055  23.893  1.00  0.00     0.193 C 
ATOM     23  O   UNL A   1      35.870  23.723  22.867  1.00  0.00    -0.289 OA
BRANCH  22  24
ATOM     24  C   UNL A   1      36.972  22.935  24.773  1.00  0.00     0.022 A 
ATOM     25  C   UNL A   1      37.298  24.007  25.608  1.00  0.00     0.012 A 
ATOM     26  C   UNL A   1      37.736  21.760  24.806  1.00  0.00     0.012 A 
ATOM     27  C   UNL A   1      38.354  23.884  26.514  1.00  0.00     0.001 A 
ATOM     28  C   UNL A   1      38.784  21.640  25.720  1.00  0.00     0.001 A 
ATOM     29  C   UNL A   1      39.087  22.698  26.578  1.00  0.00     0.000 A 
ENDBRANCH  22  24
ENDBRANCH  14  22
ENDBRANCH   8  10
ENDBRANCH   5   8
ENDBRANCH   3   4
ENDBRANCH   2   3
ENDBRANCH   1   2
BRANCH   1  30
ATOM     30  C   UNL A   1      32.787  29.502  27.257  1.00  0.00     0.002 C 
BRANCH  30  31
ATOM     31  C   UNL A   1      34.177  28.875  27.370  1.00  0.00     0.021 C 
BRANCH  31  32
ATOM     32  C   UNL A   1      35.300  29.885  27.555  1.00  0.00     0.116 C 
BRANCH  32  33
ATOM     33  N   UNL A   1      35.263  30.496  28.873  1.00  0.00    -0.352 N 
ATOM     34  C   UNL A   1      36.244  30.525  29.832  1.00  0.00     0.251 C 
ATOM     35  H   UNL A   1      34.422  30.947  29.110  1.00  0.00     0.163 HD
ATOM     36  O   UNL A   1      35.974  30.882  30.974  1.00  0.00    -0.269 OA
BRANCH  34  37
ATOM     37  C   UNL A   1      37.619  30.114  29.479  1.00  0.00     0.039 A 
ATOM     38  C   UNL A   1      38.521  29.810  30.502  1.00  0.00     0.014 A 
ATOM     39  C   UNL A   1      38.020  30.039  28.142  1.00  0.00     0.014 A 
ATOM     40  C   UNL A   1      39.816  29.402  30.178  1.00  0.00     0.010 A 
ATOM     41  C   UNL A   1      39.278  29.545  27.821  1.00  0.00     0.010 A 
ATOM     42  C   UNL A   1      40.201  29.250  28.835  1.00  0.00    -0.014 A 
BRANCH  42  43
ATOM     43  C   UNL A   1      41.581  28.839  28.471  1.00  0.00     0.031 A 
ATOM     44  C   UNL A   1      42.686  29.863  28.459  1.00  0.00     0.074 A 
ATOM     45  C   UNL A   1      41.831  27.567  28.109  1.00  0.00     0.049 A 
ATOM     46  N   UNL A   1      43.945  29.717  28.138  1.00  0.00    -0.248 NA
ATOM     47  C   UNL A   1      42.320  31.241  28.828  1.00  0.00     0.031 C 
ATOM     48  C   UNL A   1      40.835  26.494  28.041  1.00  0.00     0.029 A 
ATOM     49  N   UNL A   1      43.000  26.958  27.729  1.00  0.00    -0.354 N 
ATOM     50  C   UNL A   1      44.512  30.982  28.244  1.00  0.00     0.074 A 
ATOM     51  C   UNL A   1      43.449  31.894  28.597  1.00  0.00     0.031 C 
ATOM     52  C   UNL A   1      41.444  25.352  27.681  1.00  0.00     0.029 A 
ATOM     53  C   UNL A   1      42.861  25.617  27.454  1.00  0.00     0.049 A 
ATOM     54  H   UNL A   1      43.858  27.435  27.660  1.00  0.00     0.167 HD
ATOM     55  C   UNL A   1      45.808  31.348  28.086  1.00  0.00     0.037 A 
ATOM     56  C   UNL A   1      43.775  24.707  27.066  1.00  0.00     0.037 A 
ATOM     57  C   UNL A   1      46.865  30.426  27.763  1.00  0.00     0.049 A 
ATOM     58  C   UNL A   1      45.209  25.135  26.898  1.00  0.00     0.074 A 
ATOM     59  C   UNL A   1      48.220  30.678  27.645  1.00  0.00     0.029 A 
ATOM     60  N   UNL A   1      46.686  29.075  27.502  1.00  0.00    -0.354 N 
ATOM     61  N   UNL A   1      45.741  26.321  27.067  1.00  0.00    -0.248 NA
ATOM     62  C   UNL A   1      46.168  24.096  26.499  1.00  0.00     0.031 C 
ATOM     63  C   UNL A   1      48.852  29.494  27.254  1.00  0.00     0.029 A 
ATOM     64  C   UNL A   1      47.902  28.486  27.198  1.00  0.00     0.049 A 
ATOM     65  H   UNL A   1      45.822  28.603  27.529  1.00  0.00     0.167 HD
ATOM     66  C   UNL A   1      47.105  26.163  26.838  1.00  0.00     0.074 A 
ATOM     67  C   UNL A   1      47.311  24.765  26.521  1.00  0.00     0.031 C 
ATOM     68  C   UNL A   1      48.095  27.088  26.895  1.00  0.00     0.037 A 
BRANCH  55  69
ATOM     69  C   UNL A   1      46.145  32.807  28.247  1.00  0.00     0.058 A 
ATOM     70  C   UNL A   1      46.082  33.709  27.172  1.00  0.00     0.135 A 
ATOM     71  C   UNL A   1      46.526  33.314  29.500  1.00  0.00     0.135 A 
ATOM     72  F   UNL A   1      45.738  33.281  25.947  1.00  0.00    -0.206 F 
ATOM     73  C   UNL A   1      46.429  35.048  27.323  1.00  0.00     0.059 A 
ATOM     74  C   UNL A   1      46.842  34.656  29.682  1.00  0.00     0.059 A 
ATOM     75  F   UNL A   1      46.603  32.499  30.564  1.00  0.00    -0.206 F 
ATOM     76  C   UNL A   1      46.811  35.513  28.582  1.00  0.00     0.060 A 
BRANCH  76  77
ATOM     77  S   UNL A   1      47.273  37.248  28.758  1.00  0.00     0.124 S 
ATOM     78  O   UNL A   1      47.349  37.382  30.210  1.00  0.00    -0.237 OA
ATOM     79  O   UNL A   1      48.547  37.304  28.050  1.00  0.00    -0.237 OA
ATOM     80  O   UNL A   1      46.170  37.961  28.120  1.00  0.00    -0.744 OA
ENDBRANCH  76  77
ENDBRANCH  55  69
BRANCH  56  81
ATOM     81  C   UNL A   1      43.371  23.289  26.860  1.00  0.00     0.058 A 
ATOM     82  C   UNL A   1      43.256  22.755  25.567  1.00  0.00     0.135 A 
ATOM     83  C   UNL A   1      43.111  22.435  27.943  1.00  0.00     0.135 A 
ATOM     84  F   UNL A   1      43.489  23.532  24.498  1.00  0.00    -0.206 F 
ATOM     85  C   UNL A   1      42.882  21.433  25.354  1.00  0.00     0.059 A 
ATOM     86  C   UNL A   1      42.762  21.102  27.756  1.00  0.00     0.059 A 
ATOM     87  F   UNL A   1      43.224  22.892  29.201  1.00  0.00    -0.206 F 
ATOM     88  C   UNL A   1      42.642  20.612  26.456  1.00  0.00     0.060 A 
BRANCH  88  89
ATOM     89  S   UNL A   1      42.209  18.883  26.168  1.00  0.00     0.124 S 
ATOM     90  O   UNL A   1      43.091  18.539  25.059  1.00  0.00    -0.237 OA
ATOM     91  O   UNL A   1      42.530  18.271  27.453  1.00  0.00    -0.237 OA
ATOM     92  O   UNL A   1      40.786  18.942  25.848  1.00  0.00    -0.744 OA
ENDBRANCH  88  89
ENDBRANCH  56  81
BRANCH  68  93
ATOM     93  C   UNL A   1      49.506  26.611  26.673  1.00  0.00     0.058 A 
ATOM     94  C   UNL A   1      50.334  26.204  27.731  1.00  0.00     0.135 A 
ATOM     95  C   UNL A   1      50.020  26.523  25.368  1.00  0.00     0.135 A 
ATOM     96  F   UNL A   1      49.894  26.272  28.998  1.00  0.00    -0.206 F 
ATOM     97  C   UNL A   1      51.632  25.759  27.505  1.00  0.00     0.059 A 
ATOM     98  C   UNL A   1      51.303  26.048  25.118  1.00  0.00     0.059 A 
ATOM     99  F   UNL A   1      49.267  26.886  24.318  1.00  0.00    -0.206 F 
ATOM    100  C   UNL A   1      52.107  25.683  26.195  1.00  0.00     0.060 A 
BRANCH 100 101
ATOM    101  S   UNL A   1      53.787  25.085  25.915  1.00  0.00     0.124 S 
ATOM    102  O   UNL A   1      54.294  26.067  24.962  1.00  0.00    -0.237 OA
ATOM    103  O   UNL A   1      54.366  25.144  27.254  1.00  0.00    -0.237 OA
ATOM    104  O   UNL A   1      53.586  23.740  25.384  1.00  0.00    -0.744 OA
ENDBRANCH 100 101
ENDBRANCH  68  93
ENDBRANCH  42  43
ENDBRANCH  34  37
ENDBRANCH  32  33
ENDBRANCH  31  32
ENDBRANCH  30  31
ENDBRANCH   1  30
TORSDOF 21
ENDMDL
MODEL 2
REMARK VINA RESULT:     -11.8      0.730      7.901
REMARK SMILES C[C@@H](C(=O)NCCCCCCNC(=O)c1ccc(-c2c3nc(c(-c4c(F)cc(S(=O)(=O)[O-])cc4F)c4ccc([nH]4)c(-c4c(F)cc(S(=O)(=O)[O-])cc4F)c4nc(c(-c5c(F)cc(S(=O)(=O)[O-])cc5F)c5ccc2[nH]5)C=C4)C=C3)cc1)c1cc(/C=C/S(C)(=O)=O)cc(C(=O)c2ccccc2)c1
REMARK SMILES IDX 8 1 7 2 6 3 5 4 3 5 4 6 2 8 1 9 81 10 82 11 100 12 83 13
REMARK SMILES IDX 91 14 90 15 84 16 85 17 86 18 87 19 88 20 89 21 92 22 93 23
REMARK SMILES IDX 94 24 95 25 99 26 96 27 98 28 97 29 9 30 10 31 11 32 12 33
REMARK SMILES IDX 13 34 14 36 15 37 16 38 80 39 17 40 79 41 18 42 19 43 20 44
REMARK SMILES IDX 73 45 21 46 78 47 72 48 74 49 22 50 77 51 71 52 70 53 23 55
REMARK SMILES IDX 57 56 36 57 56 58 37 59 40 60 55 61 75 62 38 63 39 64 54 66
REMARK SMILES IDX 76 67 41 68 24 69 25 70 34 71 26 72 27 73 33 74 35 75 28 76
REMARK SMILES IDX 29 77 30 78 31 79 32 80 58 81 59 82 68 83 60 84 61 85 67 86
REMARK SMILES IDX 69 87 62 88 63 89 64 90 65 91 66 92 42 93 43 94 52 95 44 96
REMARK SMILES IDX 45 97 51 98 53 99 46 100 47 101 48 102 49 103 50 104
REMARK H PARENT 5 7 12 35 74 54 40 65
REMARK Flexibility Score: inf
ROOT
ATOM      1  C   UNL A   1      31.789  28.271  27.372  1.00  0.00     0.002 C 
ENDROOT
BRANCH   1   2
ATOM      2  C   UNL A   1      31.602  27.763  25.936  1.00  0.00     0.021 C 
BRANCH   2   3
ATOM      3  C   UNL A   1      31.001  26.360  25.847  1.00  0.00     0.116 C 
BRANCH   3   4
ATOM      4  N   UNL A   1      31.574  25.497  26.855  1.00  0.00    -0.356 N 
ATOM      5  C   UNL A   1      31.748  24.150  26.878  1.00  0.00     0.227 C 
ATOM      6  O   UNL A   1      32.285  23.698  27.892  1.00  0.00    -0.274 OA
ATOM      7  H   UNL A   1      31.893  25.965  27.661  1.00  0.00     0.163 HD
BRANCH   5   8
ATOM      8  C   UNL A   1      31.353  23.292  25.659  1.00  0.00     0.105 C 
ATOM      9  C   UNL A   1      30.212  22.299  25.929  1.00  0.00     0.023 C 
BRANCH   8  10
ATOM     10  C   UNL A   1      32.491  22.454  25.075  1.00  0.00    -0.035 A 
ATOM     11  C   UNL A   1      32.361  21.060  25.016  1.00  0.00     0.012 A 
ATOM     12  C   UNL A   1      33.732  23.022  24.769  1.00  0.00     0.016 A 
ATOM     13  C   UNL A   1      33.451  20.232  24.704  1.00  0.00    -0.024 A 
ATOM     14  C   UNL A   1      34.831  22.231  24.429  1.00  0.00     0.023 A 
ATOM     15  C   UNL A   1      34.683  20.837  24.392  1.00  0.00     0.020 A 
BRANCH  13  16
ATOM     16  C   UNL A   1      33.363  18.759  24.761  1.00  0.00     0.020 C 
ATOM     17  C   UNL A   1      34.397  17.925  24.564  1.00  0.00     0.106 C 
BRANCH  17  18
ATOM     18  S   UNL A   1      34.157  16.206  24.543  1.00  0.00     0.168 S 
ATOM     19  C   UNL A   1      32.607  16.068  25.405  1.00  0.00     0.163 C 
ATOM     20  O   UNL A   1      33.921  15.796  23.170  1.00  0.00    -0.225 OA
ATOM     21  O   UNL A   1      35.159  15.541  25.352  1.00  0.00    -0.225 OA
ENDBRANCH  17  18
ENDBRANCH  13  16
BRANCH  14  22
ATOM     22  C   UNL A   1      36.153  22.853  24.109  1.00  0.00     0.193 C 
ATOM     23  O   UNL A   1      36.342  23.380  23.016  1.00  0.00    -0.289 OA
BRANCH  22  24
ATOM     24  C   UNL A   1      37.245  22.887  25.117  1.00  0.00     0.022 A 
ATOM     25  C   UNL A   1      38.098  21.784  25.215  1.00  0.00     0.012 A 
ATOM     26  C   UNL A   1      37.453  24.011  25.927  1.00  0.00     0.012 A 
ATOM     27  C   UNL A   1      39.190  21.827  26.085  1.00  0.00     0.001 A 
ATOM     28  C   UNL A   1      38.551  24.053  26.787  1.00  0.00     0.001 A 
ATOM     29  C   UNL A   1      39.423  22.965  26.860  1.00  0.00     0.000 A 
ENDBRANCH  22  24
ENDBRANCH  14  22
ENDBRANCH   8  10
ENDBRANCH   5   8
ENDBRANCH   3   4
ENDBRANCH   2   3
ENDBRANCH   1   2
BRANCH   1  30
ATOM     30  C   UNL A   1      32.849  29.365  27.534  1.00  0.00     0.002 C 
BRANCH  30  31
ATOM     31  C   UNL A   1      34.066  29.210  26.621  1.00  0.00     0.021 C 
BRANCH  31  32
ATOM     32  C   UNL A   1      35.398  29.215  27.355  1.00  0.00     0.116 C 
BRANCH  32  33
ATOM     33  N   UNL A   1      35.265  29.727  28.708  1.00  0.00    -0.352 N 
ATOM     34  C   UNL A   1      36.212  29.789  29.699  1.00  0.00     0.251 C 
ATOM     35  H   UNL A   1      34.376  30.076  28.946  1.00  0.00     0.163 HD
ATOM     36  O   UNL A   1      35.877  30.039  30.852  1.00  0.00    -0.269 OA
BRANCH  34  37
ATOM     37  C   UNL A   1      37.630  29.540  29.367  1.00  0.00     0.039 A 
ATOM     38  C   UNL A   1      38.490  29.074  30.363  1.00  0.00     0.014 A 
ATOM     39  C   UNL A   1      38.112  29.776  28.075  1.00  0.00     0.014 A 
ATOM     40  C   UNL A   1      39.827  28.818  30.054  1.00  0.00     0.010 A 
ATOM     41  C   UNL A   1      39.418  29.433  27.748  1.00  0.00     0.010 A 
ATOM     42  C   UNL A   1      40.299  28.979  28.741  1.00  0.00    -0.014 A 
BRANCH  42  43
ATOM     43  C   UNL A   1      41.723  28.734  28.397  1.00  0.00     0.031 A 
ATOM     44  C   UNL A   1      42.160  27.359  27.962  1.00  0.00     0.074 A 
ATOM     45  C   UNL A   1      42.624  29.726  28.518  1.00  0.00     0.049 A 
ATOM     46  N   UNL A   1      43.356  26.931  27.654  1.00  0.00    -0.248 NA
ATOM     47  C   UNL A   1      41.119  26.320  27.897  1.00  0.00     0.031 C 
ATOM     48  C   UNL A   1      42.330  31.088  28.968  1.00  0.00     0.029 A 
ATOM     49  N   UNL A   1      43.974  29.744  28.272  1.00  0.00    -0.354 N 
ATOM     50  C   UNL A   1      43.215  25.575  27.381  1.00  0.00     0.074 A 
ATOM     51  C   UNL A   1      41.831  25.238  27.620  1.00  0.00     0.031 C 
ATOM     52  C   UNL A   1      43.457  31.818  28.929  1.00  0.00     0.029 A 
ATOM     53  C   UNL A   1      44.560  30.969  28.491  1.00  0.00     0.049 A 
ATOM     54  H   UNL A   1      44.476  28.954  27.967  1.00  0.00     0.167 HD
ATOM     55  C   UNL A   1      44.148  24.695  26.944  1.00  0.00     0.037 A 
ATOM     56  C   UNL A   1      45.841  31.361  28.351  1.00  0.00     0.037 A 
ATOM     57  C   UNL A   1      45.518  25.049  26.679  1.00  0.00     0.049 A 
ATOM     58  C   UNL A   1      46.861  30.366  27.863  1.00  0.00     0.074 A 
ATOM     59  C   UNL A   1      46.530  24.251  26.172  1.00  0.00     0.029 A 
ATOM     60  N   UNL A   1      46.071  26.301  26.904  1.00  0.00    -0.354 N 
ATOM     61  N   UNL A   1      46.698  29.104  27.546  1.00  0.00    -0.248 NA
ATOM     62  C   UNL A   1      48.238  30.854  27.704  1.00  0.00     0.031 C 
ATOM     63  C   UNL A   1      47.707  25.005  26.148  1.00  0.00     0.029 A 
ATOM     64  C   UNL A   1      47.415  26.292  26.571  1.00  0.00     0.049 A 
ATOM     65  H   UNL A   1      45.580  27.082  27.249  1.00  0.00     0.167 HD
ATOM     66  C   UNL A   1      47.941  28.658  27.106  1.00  0.00     0.074 A 
ATOM     67  C   UNL A   1      48.842  29.788  27.199  1.00  0.00     0.031 C 
ATOM     68  C   UNL A   1      48.299  27.429  26.657  1.00  0.00     0.037 A 
BRANCH  55  69
ATOM     69  C   UNL A   1      43.719  23.265  26.742  1.00  0.00     0.058 A 
ATOM     70  C   UNL A   1      43.604  22.695  25.463  1.00  0.00     0.135 A 
ATOM     71  C   UNL A   1      43.430  22.448  27.847  1.00  0.00     0.135 A 
ATOM     72  F   UNL A   1      43.852  23.430  24.368  1.00  0.00    -0.206 F 
ATOM     73  C   UNL A   1      43.173  21.384  25.286  1.00  0.00     0.059 A 
ATOM     74  C   UNL A   1      43.033  21.123  27.695  1.00  0.00     0.059 A 
ATOM     75  F   UNL A   1      43.524  22.938  29.093  1.00  0.00    -0.206 F 
ATOM     76  C   UNL A   1      42.887  20.606  26.409  1.00  0.00     0.060 A 
BRANCH  76  77
ATOM     77  S   UNL A   1      42.313  18.913  26.163  1.00  0.00     0.124 S 
ATOM     78  O   UNL A   1      40.924  19.131  25.770  1.00  0.00    -0.237 OA
ATOM     79  O   UNL A   1      43.201  18.433  25.110  1.00  0.00    -0.237 OA
ATOM     80  O   UNL A   1      42.504  18.295  27.472  1.00  0.00    -0.744 OA
ENDBRANCH  76  77
ENDBRANCH  55  69
BRANCH  56  81
ATOM     81  C   UNL A   1      46.221  32.773  28.627  1.00  0.00     0.058 A 
ATOM     82  C   UNL A   1      46.148  33.747  27.619  1.00  0.00     0.135 A 
ATOM     83  C   UNL A   1      46.645  33.183  29.900  1.00  0.00     0.135 A 
ATOM     84  F   UNL A   1      45.753  33.404  26.383  1.00  0.00    -0.206 F 
ATOM     85  C   UNL A   1      46.496  35.072  27.857  1.00  0.00     0.059 A 
ATOM     86  C   UNL A   1      46.972  34.508  30.171  1.00  0.00     0.059 A 
ATOM     87  F   UNL A   1      46.715  32.294  30.904  1.00  0.00    -0.206 F 
ATOM     88  C   UNL A   1      46.903  35.444  29.139  1.00  0.00     0.060 A 
BRANCH  88  89
ATOM     89  S   UNL A   1      47.302  37.177  29.451  1.00  0.00     0.124 S 
ATOM     90  O   UNL A   1      46.225  37.859  28.743  1.00  0.00    -0.237 OA
ATOM     91  O   UNL A   1      47.251  37.243  30.908  1.00  0.00    -0.237 OA
ATOM     92  O   UNL A   1      48.633  37.325  28.870  1.00  0.00    -0.744 OA
ENDBRANCH  88  89
ENDBRANCH  56  81
BRANCH  68  93
ATOM     93  C   UNL A   1      49.713  27.252  26.169  1.00  0.00     0.058 A 
ATOM     94  C   UNL A   1      50.777  26.980  27.043  1.00  0.00     0.135 A 
ATOM     95  C   UNL A   1      49.995  27.315  24.794  1.00  0.00     0.135 A 
ATOM     96  F   UNL A   1      50.565  26.913  28.367  1.00  0.00    -0.206 F 
ATOM     97  C   UNL A   1      52.076  26.812  26.573  1.00  0.00     0.059 A 
ATOM     98  C   UNL A   1      51.279  27.115  24.300  1.00  0.00     0.059 A 
ATOM     99  F   UNL A   1      49.011  27.559  23.912  1.00  0.00    -0.206 F 
ATOM    100  C   UNL A   1      52.316  26.880  25.200  1.00  0.00     0.060 A 
BRANCH 100 101
ATOM    101  S   UNL A   1      54.002  26.640  24.602  1.00  0.00     0.124 S 
ATOM    102  O   UNL A   1      54.787  27.156  25.719  1.00  0.00    -0.237 OA
ATOM    103  O   UNL A   1      54.059  25.195  24.401  1.00  0.00    -0.237 OA
ATOM    104  O   UNL A   1      54.048  27.439  23.381  1.00  0.00    -0.744 OA
ENDBRANCH 100 101
ENDBRANCH  68  93
ENDBRANCH  42  43
ENDBRANCH  34  37
ENDBRANCH  32  33
ENDBRANCH  31  32
ENDBRANCH  30  31
ENDBRANCH   1  30
TORSDOF 21
ENDMDL
MODEL 3
REMARK VINA RESULT:     -11.5      4.698      6.466
REMARK SMILES C[C@@H](C(=O)NCCCCCCNC(=O)c1ccc(-c2c3nc(c(-c4c(F)cc(S(=O)(=O)[O-])cc4F)c4ccc([nH]4)c(-c4c(F)cc(S(=O)(=O)[O-])cc4F)c4nc(c(-c5c(F)cc(S(=O)(=O)[O-])cc5F)c5ccc2[nH]5)C=C4)C=C3)cc1)c1cc(/C=C/S(C)(=O)=O)cc(C(=O)c2ccccc2)c1
REMARK SMILES IDX 8 1 7 2 6 3 5 4 3 5 4 6 2 8 1 9 81 10 82 11 100 12 83 13
REMARK SMILES IDX 91 14 90 15 84 16 85 17 86 18 87 19 88 20 89 21 92 22 93 23
REMARK SMILES IDX 94 24 95 25 99 26 96 27 98 28 97 29 9 30 10 31 11 32 12 33
REMARK SMILES IDX 13 34 14 36 15 37 16 38 80 39 17 40 79 41 18 42 19 43 20 44
REMARK SMILES IDX 73 45 21 46 78 47 72 48 74 49 22 50 77 51 71 52 70 53 23 55
REMARK SMILES IDX 57 56 36 57 56 58 37 59 40 60 55 61 75 62 38 63 39 64 54 66
REMARK SMILES IDX 76 67 41 68 24 69 25 70 34 71 26 72 27 73 33 74 35 75 28 76
REMARK SMILES IDX 29 77 30 78 31 79 32 80 58 81 59 82 68 83 60 84 61 85 67 86
REMARK SMILES IDX 69 87 62 88 63 89 64 90 65 91 66 92 42 93 43 94 52 95 44 96
REMARK SMILES IDX 45 97 51 98 53 99 46 100 47 101 48 102 49 103 50 104
REMARK H PARENT 5 7 12 35 74 54 40 65
REMARK Flexibility Score: inf
ROOT
ATOM      1  C   UNL A   1      32.581  24.894  26.117  1.00  0.00     0.002 C 
ENDROOT
BRANCH   1   2
ATOM      2  C   UNL A   1      31.777  23.837  26.888  1.00  0.00     0.021 C 
BRANCH   2   3
ATOM      3  C   UNL A   1      31.040  22.843  25.990  1.00  0.00     0.116 C 
BRANCH   3   4
ATOM      4  N   UNL A   1      31.599  21.518  26.133  1.00  0.00    -0.356 N 
ATOM      5  C   UNL A   1      32.063  20.643  25.202  1.00  0.00     0.227 C 
ATOM      6  O   UNL A   1      32.494  19.575  25.643  1.00  0.00    -0.274 OA
ATOM      7  H   UNL A   1      31.653  21.194  27.061  1.00  0.00     0.163 HD
BRANCH   5   8
ATOM      8  C   UNL A   1      32.099  21.036  23.712  1.00  0.00     0.105 C 
ATOM      9  C   UNL A   1      32.483  19.890  22.765  1.00  0.00     0.023 C 
BRANCH   8  10
ATOM     10  C   UNL A   1      33.061  22.178  23.378  1.00  0.00    -0.035 A 
ATOM     11  C   UNL A   1      34.357  22.166  23.911  1.00  0.00     0.012 A 
ATOM     12  C   UNL A   1      32.625  23.326  22.709  1.00  0.00     0.016 A 
ATOM     13  C   UNL A   1      35.197  23.286  23.825  1.00  0.00    -0.024 A 
ATOM     14  C   UNL A   1      33.443  24.450  22.581  1.00  0.00     0.023 A 
ATOM     15  C   UNL A   1      34.731  24.422  23.136  1.00  0.00     0.020 A 
BRANCH  13  16
ATOM     16  C   UNL A   1      36.516  23.335  24.489  1.00  0.00     0.020 C 
ATOM     17  C   UNL A   1      36.721  23.750  25.750  1.00  0.00     0.106 C 
BRANCH  17  18
ATOM     18  S   UNL A   1      38.328  23.872  26.392  1.00  0.00     0.168 S 
ATOM     19  C   UNL A   1      38.907  22.203  26.182  1.00  0.00     0.163 C 
ATOM     20  O   UNL A   1      39.111  24.711  25.503  1.00  0.00    -0.225 OA
ATOM     21  O   UNL A   1      38.290  24.137  27.816  1.00  0.00    -0.225 OA
ENDBRANCH  17  18
ENDBRANCH  13  16
BRANCH  14  22
ATOM     22  C   UNL A   1      32.961  25.671  21.866  1.00  0.00     0.193 C 
ATOM     23  O   UNL A   1      33.338  25.911  20.723  1.00  0.00    -0.289 OA
BRANCH  22  24
ATOM     24  C   UNL A   1      31.986  26.594  22.504  1.00  0.00     0.022 A 
ATOM     25  C   UNL A   1      32.241  27.968  22.465  1.00  0.00     0.012 A 
ATOM     26  C   UNL A   1      30.810  26.114  23.097  1.00  0.00     0.012 A 
ATOM     27  C   UNL A   1      31.296  28.863  22.971  1.00  0.00     0.001 A 
ATOM     28  C   UNL A   1      29.865  27.014  23.592  1.00  0.00     0.001 A 
ATOM     29  C   UNL A   1      30.104  28.387  23.521  1.00  0.00     0.000 A 
ENDBRANCH  22  24
ENDBRANCH  14  22
ENDBRANCH   8  10
ENDBRANCH   5   8
ENDBRANCH   3   4
ENDBRANCH   2   3
ENDBRANCH   1   2
BRANCH   1  30
ATOM     30  C   UNL A   1      32.273  26.344  26.503  1.00  0.00     0.002 C 
BRANCH  30  31
ATOM     31  C   UNL A   1      33.141  27.386  25.797  1.00  0.00     0.021 C 
BRANCH  31  32
ATOM     32  C   UNL A   1      34.145  28.077  26.707  1.00  0.00     0.116 C 
BRANCH  32  33
ATOM     33  N   UNL A   1      33.890  29.505  26.803  1.00  0.00    -0.352 N 
ATOM     34  C   UNL A   1      34.562  30.448  27.538  1.00  0.00     0.251 C 
ATOM     35  H   UNL A   1      33.133  29.839  26.271  1.00  0.00     0.163 HD
ATOM     36  O   UNL A   1      34.080  31.567  27.687  1.00  0.00    -0.269 OA
BRANCH  34  37
ATOM     37  C   UNL A   1      35.860  30.102  28.155  1.00  0.00     0.039 A 
ATOM     38  C   UNL A   1      37.034  30.299  27.425  1.00  0.00     0.014 A 
ATOM     39  C   UNL A   1      35.916  29.577  29.449  1.00  0.00     0.014 A 
ATOM     40  C   UNL A   1      38.265  29.993  28.006  1.00  0.00     0.010 A 
ATOM     41  C   UNL A   1      37.146  29.361  30.058  1.00  0.00     0.010 A 
ATOM     42  C   UNL A   1      38.333  29.538  29.333  1.00  0.00    -0.014 A 
BRANCH  42  43
ATOM     43  C   UNL A   1      39.632  29.185  29.962  1.00  0.00     0.031 A 
ATOM     44  C   UNL A   1      40.115  29.959  31.162  1.00  0.00     0.074 A 
ATOM     45  C   UNL A   1      40.392  28.208  29.433  1.00  0.00     0.049 A 
ATOM     46  N   UNL A   1      41.230  29.832  31.832  1.00  0.00    -0.248 NA
ATOM     47  C   UNL A   1      39.243  31.038  31.652  1.00  0.00     0.031 C 
ATOM     48  C   UNL A   1      40.051  27.416  28.249  1.00  0.00     0.029 A 
ATOM     49  N   UNL A   1      41.611  27.713  29.822  1.00  0.00    -0.354 N 
ATOM     50  C   UNL A   1      41.203  30.826  32.804  1.00  0.00     0.074 A 
ATOM     51  C   UNL A   1      39.992  31.586  32.598  1.00  0.00     0.031 C 
ATOM     52  C   UNL A   1      41.019  26.511  28.032  1.00  0.00     0.029 A 
ATOM     53  C   UNL A   1      42.067  26.682  29.034  1.00  0.00     0.049 A 
ATOM     54  H   UNL A   1      42.113  28.064  30.593  1.00  0.00     0.167 HD
ATOM     55  C   UNL A   1      42.093  31.067  33.798  1.00  0.00     0.037 A 
ATOM     56  C   UNL A   1      43.199  25.957  29.114  1.00  0.00     0.037 A 
ATOM     57  C   UNL A   1      43.281  30.285  34.013  1.00  0.00     0.049 A 
ATOM     58  C   UNL A   1      44.173  26.242  30.226  1.00  0.00     0.074 A 
ATOM     59  C   UNL A   1      44.216  30.402  35.027  1.00  0.00     0.029 A 
ATOM     60  N   UNL A   1      43.703  29.243  33.200  1.00  0.00    -0.354 N 
ATOM     61  N   UNL A   1      44.101  27.142  31.177  1.00  0.00    -0.248 NA
ATOM     62  C   UNL A   1      45.379  25.404  30.281  1.00  0.00     0.031 C 
ATOM     63  C   UNL A   1      45.233  29.472  34.792  1.00  0.00     0.029 A 
ATOM     64  C   UNL A   1      44.897  28.725  33.673  1.00  0.00     0.049 A 
ATOM     65  H   UNL A   1      43.223  28.918  32.403  1.00  0.00     0.167 HD
ATOM     66  C   UNL A   1      45.227  26.949  31.971  1.00  0.00     0.074 A 
ATOM     67  C   UNL A   1      45.962  25.846  31.386  1.00  0.00     0.031 C 
ATOM     68  C   UNL A   1      45.612  27.618  33.087  1.00  0.00     0.037 A 
BRANCH  55  69
ATOM     69  C   UNL A   1      41.819  32.233  34.712  1.00  0.00     0.058 A 
ATOM     70  C   UNL A   1      40.953  32.129  35.813  1.00  0.00     0.135 A 
ATOM     71  C   UNL A   1      42.443  33.471  34.489  1.00  0.00     0.135 A 
ATOM     72  F   UNL A   1      40.317  30.975  36.069  1.00  0.00    -0.206 F 
ATOM     73  C   UNL A   1      40.681  33.222  36.631  1.00  0.00     0.059 A 
ATOM     74  C   UNL A   1      42.214  34.567  35.315  1.00  0.00     0.059 A 
ATOM     75  F   UNL A   1      43.282  33.629  33.452  1.00  0.00    -0.206 F 
ATOM     76  C   UNL A   1      41.314  34.438  36.372  1.00  0.00     0.060 A 
BRANCH  76  77
ATOM     77  S   UNL A   1      40.937  35.850  37.431  1.00  0.00     0.124 S 
ATOM     78  O   UNL A   1      42.174  36.620  37.339  1.00  0.00    -0.237 OA
ATOM     79  O   UNL A   1      39.776  36.435  36.770  1.00  0.00    -0.237 OA
ATOM     80  O   UNL A   1      40.675  35.240  38.732  1.00  0.00    -0.744 OA
ENDBRANCH  76  77
ENDBRANCH  55  69
BRANCH  56  81
ATOM     81  C   UNL A   1      43.447  24.857  28.143  1.00  0.00     0.058 A 
ATOM     82  C   UNL A   1      42.979  23.557  28.393  1.00  0.00     0.135 A 
ATOM     83  C   UNL A   1      44.137  25.081  26.942  1.00  0.00     0.135 A 
ATOM     84  F   UNL A   1      42.319  23.290  29.530  1.00  0.00    -0.206 F 
ATOM     85  C   UNL A   1      43.200  22.517  27.497  1.00  0.00     0.059 A 
ATOM     86  C   UNL A   1      44.346  24.063  26.017  1.00  0.00     0.059 A 
ATOM     87  F   UNL A   1      44.590  26.310  26.646  1.00  0.00    -0.206 F 
ATOM     88  C   UNL A   1      43.881  22.781  26.308  1.00  0.00     0.060 A 
BRANCH  88  89
ATOM     89  S   UNL A   1      44.114  21.435  25.129  1.00  0.00     0.124 S 
ATOM     90  O   UNL A   1      45.427  20.930  25.513  1.00  0.00    -0.237 OA
ATOM     91  O   UNL A   1      42.982  20.565  25.432  1.00  0.00    -0.237 OA
ATOM     92  O   UNL A   1      44.050  22.107  23.835  1.00  0.00    -0.744 OA
ENDBRANCH  88  89
ENDBRANCH  56  81
BRANCH  68  93
ATOM     93  C   UNL A   1      46.853  27.137  33.792  1.00  0.00     0.058 A 
ATOM     94  C   UNL A   1      46.813  26.142  34.781  1.00  0.00     0.135 A 
ATOM     95  C   UNL A   1      48.109  27.657  33.437  1.00  0.00     0.135 A 
ATOM     96  F   UNL A   1      45.639  25.613  35.162  1.00  0.00    -0.206 F 
ATOM     97  C   UNL A   1      47.971  25.704  35.416  1.00  0.00     0.059 A 
ATOM     98  C   UNL A   1      49.282  27.210  34.034  1.00  0.00     0.059 A 
ATOM     99  F   UNL A   1      48.206  28.601  32.487  1.00  0.00    -0.206 F 
ATOM    100  C   UNL A   1      49.201  26.244  35.036  1.00  0.00     0.060 A 
BRANCH 100 101
ATOM    101  S   UNL A   1      50.697  25.653  35.854  1.00  0.00     0.124 S 
ATOM    102  O   UNL A   1      50.206  25.376  37.200  1.00  0.00    -0.237 OA
ATOM    103  O   UNL A   1      51.049  24.484  35.054  1.00  0.00    -0.237 OA
ATOM    104  O   UNL A   1      51.615  26.783  35.741  1.00  0.00    -0.744 OA
ENDBRANCH 100 101
ENDBRANCH  68  93
ENDBRANCH  42  43
ENDBRANCH  34  37
ENDBRANCH  32  33
ENDBRANCH  31  32
ENDBRANCH  30  31
ENDBRANCH   1  30
TORSDOF 21
ENDMDL
