MODEL 1
REMARK VINA RESULT:     -11.5      0.000      0.000
REMARK SMILES O=C(C[N@H+]1CCC[C@@H]1C(=O)NCCCCCCNC(=O)c1ccc(-c2c3nc(c(-c4c(F)cc(S(=O)(=O)[O-])cc4F)c4ccc([nH]4)c(-c4c(F)cc(S(=O)(=O)[O-])cc4F)c4nc(c(-c5c(F)cc(S(=O)(=O)[O-])cc5F)c5ccc2[nH]5)C=C4)C=C3)cc1)NCc1ccc(Cl)cc1
REMARK SMILES IDX 14 1 13 2 12 3 11 4 9 5 10 6 8 8 4 9 5 10 6 12 7 13 3 14
REMARK SMILES IDX 2 15 1 16 87 17 88 19 89 20 90 21 95 22 91 23 94 24 92 25
REMARK SMILES IDX 93 26 15 27 16 28 17 29 18 30 19 31 20 33 21 34 22 35 86 36
REMARK SMILES IDX 23 37 85 38 24 39 25 40 26 41 79 42 27 43 84 44 78 45 80 46
REMARK SMILES IDX 28 47 83 48 77 49 76 50 29 52 63 53 42 54 62 55 43 56 46 57
REMARK SMILES IDX 61 58 81 59 44 60 45 61 60 63 82 64 47 65 30 66 31 67 40 68
REMARK SMILES IDX 32 69 33 70 39 71 41 72 34 73 35 74 36 75 37 76 38 77 64 78
REMARK SMILES IDX 65 79 74 80 66 81 67 82 73 83 75 84 68 85 69 86 70 87 71 88
REMARK SMILES IDX 72 89 48 90 49 91 58 92 50 93 51 94 57 95 59 96 52 97 53 98
REMARK SMILES IDX 54 99 55 100 56 101
REMARK H PARENT 11 7 4 11 87 18 18 32 80 51 46 62
REMARK Flexibility Score: inf
ROOT
ATOM      1  C   UNL A   1      36.647  23.603  26.090  1.00  0.00     0.002 C 
ENDROOT
BRANCH   1   2
ATOM      2  C   UNL A   1      35.910  23.980  24.808  1.00  0.00     0.021 C 
BRANCH   2   3
ATOM      3  C   UNL A   1      34.419  24.193  25.001  1.00  0.00     0.116 C 
BRANCH   3   4
ATOM      4  N   UNL A   1      33.872  25.132  24.038  1.00  0.00    -0.351 N 
ATOM      5  C   UNL A   1      33.547  26.445  24.221  1.00  0.00     0.278 C 
ATOM      6  O   UNL A   1      33.169  27.095  23.241  1.00  0.00    -0.268 OA
ATOM      7  H   UNL A   1      33.715  24.775  23.134  1.00  0.00     0.163 HD
BRANCH   5   8
ATOM      8  C   UNL A   1      33.605  27.100  25.610  1.00  0.00     0.274 C 
ATOM      9  N   UNL A   1      32.300  27.163  26.272  1.00  0.00    -0.317 N 
ATOM     10  C   UNL A   1      32.383  28.201  27.282  1.00  0.00     0.263 C 
ATOM     11  H   UNL A   1      31.588  27.435  25.594  1.00  0.00     0.349 HD
ATOM     12  C   UNL A   1      33.045  29.306  26.474  1.00  0.00     0.068 C 
ATOM     13  C   UNL A   1      34.021  28.575  25.551  1.00  0.00     0.081 C 
BRANCH   9  14
ATOM     14  C   UNL A   1      31.634  25.913  26.598  1.00  0.00     0.364 C 
BRANCH  14  15
ATOM     15  C   UNL A   1      30.242  25.939  25.944  1.00  0.00     0.275 C 
ATOM     16  O   UNL A   1      29.278  25.331  26.400  1.00  0.00    -0.268 OA
ATOM     17  N   UNL A   1      30.222  26.620  24.749  1.00  0.00    -0.347 N 
ATOM     18  H   UNL A   1      31.019  27.133  24.485  1.00  0.00     0.164 HD
BRANCH  17  19
ATOM     19  C   UNL A   1      29.080  26.614  23.865  1.00  0.00     0.151 C 
BRANCH  19  20
ATOM     20  C   UNL A   1      28.906  27.953  23.200  1.00  0.00    -0.029 A 
ATOM     21  C   UNL A   1      30.004  28.585  22.598  1.00  0.00     0.007 A 
ATOM     22  C   UNL A   1      27.660  28.600  23.191  1.00  0.00     0.007 A 
ATOM     23  C   UNL A   1      29.852  29.828  21.977  1.00  0.00     0.021 A 
ATOM     24  C   UNL A   1      27.506  29.834  22.561  1.00  0.00     0.021 A 
ATOM     25  C   UNL A   1      28.603  30.442  21.954  1.00  0.00     0.041 A 
ATOM     26  Cl  UNL A   1      28.405  31.960  21.170  1.00  0.00    -0.084 Cl
ENDBRANCH  19  20
ENDBRANCH  17  19
ENDBRANCH  14  15
ENDBRANCH   9  14
ENDBRANCH   5   8
ENDBRANCH   3   4
ENDBRANCH   2   3
ENDBRANCH   1   2
BRANCH   1  27
ATOM     27  C   UNL A   1      38.145  23.927  26.090  1.00  0.00     0.002 C 
BRANCH  27  28
ATOM     28  C   UNL A   1      39.066  22.769  26.490  1.00  0.00     0.021 C 
BRANCH  28  29
ATOM     29  C   UNL A   1      40.362  23.196  27.172  1.00  0.00     0.116 C 
BRANCH  29  30
ATOM     30  N   UNL A   1      41.317  23.747  26.223  1.00  0.00    -0.352 N 
ATOM     31  C   UNL A   1      41.812  25.018  26.131  1.00  0.00     0.251 C 
ATOM     32  H   UNL A   1      41.655  23.114  25.549  1.00  0.00     0.163 HD
ATOM     33  O   UNL A   1      42.447  25.358  25.130  1.00  0.00    -0.269 OA
BRANCH  31  34
ATOM     34  C   UNL A   1      41.582  25.983  27.224  1.00  0.00     0.039 A 
ATOM     35  C   UNL A   1      40.523  25.764  28.106  1.00  0.00     0.014 A 
ATOM     36  C   UNL A   1      42.395  27.113  27.366  1.00  0.00     0.014 A 
ATOM     37  C   UNL A   1      40.302  26.656  29.157  1.00  0.00     0.010 A 
ATOM     38  C   UNL A   1      42.220  27.960  28.456  1.00  0.00     0.010 A 
ATOM     39  C   UNL A   1      41.164  27.748  29.354  1.00  0.00    -0.014 A 
BRANCH  39  40
ATOM     40  C   UNL A   1      40.967  28.682  30.492  1.00  0.00     0.031 A 
ATOM     41  C   UNL A   1      41.811  28.551  31.731  1.00  0.00     0.074 A 
ATOM     42  C   UNL A   1      39.994  29.612  30.426  1.00  0.00     0.049 A 
ATOM     43  N   UNL A   1      41.756  29.241  32.842  1.00  0.00    -0.248 NA
ATOM     44  C   UNL A   1      42.830  27.490  31.734  1.00  0.00     0.031 C 
ATOM     45  C   UNL A   1      39.078  29.799  29.297  1.00  0.00     0.029 A 
ATOM     46  N   UNL A   1      39.606  30.569  31.329  1.00  0.00    -0.354 N 
ATOM     47  C   UNL A   1      42.722  28.690  33.677  1.00  0.00     0.074 A 
ATOM     48  C   UNL A   1      43.309  27.575  32.967  1.00  0.00     0.031 C 
ATOM     49  C   UNL A   1      38.252  30.822  29.567  1.00  0.00     0.029 A 
ATOM     50  C   UNL A   1      38.552  31.340  30.898  1.00  0.00     0.049 A 
ATOM     51  H   UNL A   1      40.041  30.692  32.203  1.00  0.00     0.167 HD
ATOM     52  C   UNL A   1      43.100  29.093  34.914  1.00  0.00     0.037 A 
ATOM     53  C   UNL A   1      37.896  32.346  31.509  1.00  0.00     0.037 A 
ATOM     54  C   UNL A   1      42.526  30.221  35.602  1.00  0.00     0.049 A 
ATOM     55  C   UNL A   1      38.340  32.779  32.879  1.00  0.00     0.074 A 
ATOM     56  C   UNL A   1      42.880  30.749  36.831  1.00  0.00     0.029 A 
ATOM     57  N   UNL A   1      41.477  30.992  35.123  1.00  0.00    -0.354 N 
ATOM     58  N   UNL A   1      39.301  32.291  33.628  1.00  0.00    -0.248 NA
ATOM     59  C   UNL A   1      37.620  33.907  33.485  1.00  0.00     0.031 C 
ATOM     60  C   UNL A   1      42.012  31.808  37.119  1.00  0.00     0.029 A 
ATOM     61  C   UNL A   1      41.155  31.977  36.042  1.00  0.00     0.049 A 
ATOM     62  H   UNL A   1      41.026  30.859  34.258  1.00  0.00     0.167 HD
ATOM     63  C   UNL A   1      39.319  33.069  34.781  1.00  0.00     0.074 A 
ATOM     64  C   UNL A   1      38.281  34.069  34.623  1.00  0.00     0.031 C 
ATOM     65  C   UNL A   1      40.121  32.967  35.869  1.00  0.00     0.037 A 
BRANCH  52  66
ATOM     66  C   UNL A   1      44.189  28.314  35.602  1.00  0.00     0.058 A 
ATOM     67  C   UNL A   1      43.909  27.170  36.367  1.00  0.00     0.135 A 
ATOM     68  C   UNL A   1      45.534  28.693  35.463  1.00  0.00     0.135 A 
ATOM     69  F   UNL A   1      42.641  26.769  36.547  1.00  0.00    -0.206 F 
ATOM     70  C   UNL A   1      44.920  26.446  36.992  1.00  0.00     0.059 A 
ATOM     71  C   UNL A   1      46.564  27.967  36.055  1.00  0.00     0.059 A 
ATOM     72  F   UNL A   1      45.861  29.779  34.745  1.00  0.00    -0.206 F 
ATOM     73  C   UNL A   1      46.245  26.853  36.830  1.00  0.00     0.060 A 
BRANCH  73  74
ATOM     74  S   UNL A   1      47.545  25.897  37.639  1.00  0.00     0.124 S 
ATOM     75  O   UNL A   1      48.492  25.709  36.545  1.00  0.00    -0.237 OA
ATOM     76  O   UNL A   1      47.977  26.798  38.703  1.00  0.00    -0.237 OA
ATOM     77  O   UNL A   1      46.855  24.691  38.085  1.00  0.00    -0.744 OA
ENDBRANCH  73  74
ENDBRANCH  52  66
BRANCH  53  78
ATOM     78  C   UNL A   1      36.766  33.021  30.818  1.00  0.00     0.058 A 
ATOM     79  C   UNL A   1      35.439  32.811  31.224  1.00  0.00     0.135 A 
ATOM     80  C   UNL A   1      36.989  33.902  29.748  1.00  0.00     0.135 A 
ATOM     81  F   UNL A   1      35.174  31.973  32.238  1.00  0.00    -0.206 F 
ATOM     82  C   UNL A   1      34.373  33.436  30.585  1.00  0.00     0.059 A 
ATOM     83  C   UNL A   1      35.942  34.560  29.111  1.00  0.00     0.059 A 
ATOM     84  F   UNL A   1      38.240  34.152  29.332  1.00  0.00    -0.206 F 
ATOM     85  C   UNL A   1      34.636  34.312  29.530  1.00  0.00     0.060 A 
BRANCH  85  86
ATOM     86  S   UNL A   1      33.249  35.154  28.738  1.00  0.00     0.124 S 
ATOM     87  O   UNL A   1      33.932  36.199  27.985  1.00  0.00    -0.237 OA
ATOM     88  O   UNL A   1      32.650  34.083  27.948  1.00  0.00    -0.237 OA
ATOM     89  O   UNL A   1      32.446  35.613  29.869  1.00  0.00    -0.744 OA
ENDBRANCH  85  86
ENDBRANCH  53  78
BRANCH  65  90
ATOM     90  C   UNL A   1      39.935  33.985  36.962  1.00  0.00     0.058 A 
ATOM     91  C   UNL A   1      40.597  35.222  36.942  1.00  0.00     0.135 A 
ATOM     92  C   UNL A   1      39.046  33.734  38.020  1.00  0.00     0.135 A 
ATOM     93  F   UNL A   1      41.461  35.512  35.955  1.00  0.00    -0.206 F 
ATOM     94  C   UNL A   1      40.407  36.164  37.948  1.00  0.00     0.059 A 
ATOM     95  C   UNL A   1      38.818  34.673  39.021  1.00  0.00     0.059 A 
ATOM     96  F   UNL A   1      38.379  32.571  38.082  1.00  0.00    -0.206 F 
ATOM     97  C   UNL A   1      39.514  35.880  38.984  1.00  0.00     0.060 A 
BRANCH  97  98
ATOM     98  S   UNL A   1      39.258  37.120  40.270  1.00  0.00     0.124 S 
ATOM     99  O   UNL A   1      38.513  38.145  39.546  1.00  0.00    -0.237 OA
ATOM    100  O   UNL A   1      38.502  36.378  41.274  1.00  0.00    -0.237 OA
ATOM    101  O   UNL A   1      40.616  37.489  40.662  1.00  0.00    -0.744 OA
ENDBRANCH  97  98
ENDBRANCH  65  90
ENDBRANCH  39  40
ENDBRANCH  31  34
ENDBRANCH  29  30
ENDBRANCH  28  29
ENDBRANCH  27  28
ENDBRANCH   1  27
TORSDOF 20
ENDMDL
MODEL 2
REMARK VINA RESULT:     -11.3      6.383     11.971
REMARK SMILES O=C(C[N@H+]1CCC[C@@H]1C(=O)NCCCCCCNC(=O)c1ccc(-c2c3nc(c(-c4c(F)cc(S(=O)(=O)[O-])cc4F)c4ccc([nH]4)c(-c4c(F)cc(S(=O)(=O)[O-])cc4F)c4nc(c(-c5c(F)cc(S(=O)(=O)[O-])cc5F)c5ccc2[nH]5)C=C4)C=C3)cc1)NCc1ccc(Cl)cc1
REMARK SMILES IDX 14 1 13 2 12 3 11 4 9 5 10 6 8 8 4 9 5 10 6 12 7 13 3 14
REMARK SMILES IDX 2 15 1 16 87 17 88 19 89 20 90 21 95 22 91 23 94 24 92 25
REMARK SMILES IDX 93 26 15 27 16 28 17 29 18 30 19 31 20 33 21 34 22 35 86 36
REMARK SMILES IDX 23 37 85 38 24 39 25 40 26 41 79 42 27 43 84 44 78 45 80 46
REMARK SMILES IDX 28 47 83 48 77 49 76 50 29 52 63 53 42 54 62 55 43 56 46 57
REMARK SMILES IDX 61 58 81 59 44 60 45 61 60 63 82 64 47 65 30 66 31 67 40 68
REMARK SMILES IDX 32 69 33 70 39 71 41 72 34 73 35 74 36 75 37 76 38 77 64 78
REMARK SMILES IDX 65 79 74 80 66 81 67 82 73 83 75 84 68 85 69 86 70 87 71 88
REMARK SMILES IDX 72 89 48 90 49 91 58 92 50 93 51 94 57 95 59 96 52 97 53 98
REMARK SMILES IDX 54 99 55 100 56 101
REMARK H PARENT 11 7 4 11 87 18 18 32 80 51 46 62
REMARK Flexibility Score: inf
ROOT
ATOM      1  C   UNL A   1      34.426  30.066  27.398  1.00  0.00     0.002 C 
ENDROOT
BRANCH   1   2
ATOM      2  C   UNL A   1      33.065  29.374  27.404  1.00  0.00     0.021 C 
BRANCH   2   3
ATOM      3  C   UNL A   1      33.069  28.016  26.726  1.00  0.00     0.116 C 
BRANCH   3   4
ATOM      4  N   UNL A   1      33.461  28.101  25.331  1.00  0.00    -0.351 N 
ATOM      5  C   UNL A   1      32.672  28.311  24.237  1.00  0.00     0.278 C 
ATOM      6  O   UNL A   1      33.221  28.433  23.137  1.00  0.00    -0.268 OA
ATOM      7  H   UNL A   1      34.422  27.994  25.150  1.00  0.00     0.163 HD
BRANCH   5   8
ATOM      8  C   UNL A   1      31.140  28.357  24.350  1.00  0.00     0.274 C 
ATOM      9  N   UNL A   1      30.496  27.101  23.954  1.00  0.00    -0.317 N 
ATOM     10  C   UNL A   1      29.119  27.414  23.624  1.00  0.00     0.263 C 
ATOM     11  H   UNL A   1      30.949  26.737  23.116  1.00  0.00     0.349 HD
ATOM     12  C   UNL A   1      29.326  28.642  22.751  1.00  0.00     0.068 C 
ATOM     13  C   UNL A   1      30.507  29.373  23.391  1.00  0.00     0.081 C 
BRANCH   9  14
ATOM     14  C   UNL A   1      30.782  25.908  24.732  1.00  0.00     0.364 C 
BRANCH  14  15
ATOM     15  C   UNL A   1      31.387  24.862  23.781  1.00  0.00     0.275 C 
ATOM     16  O   UNL A   1      30.717  23.992  23.231  1.00  0.00    -0.268 OA
ATOM     17  N   UNL A   1      32.757  24.938  23.698  1.00  0.00    -0.347 N 
ATOM     18  H   UNL A   1      33.214  25.703  24.118  1.00  0.00     0.164 HD
BRANCH  17  19
ATOM     19  C   UNL A   1      33.557  23.943  23.021  1.00  0.00     0.151 C 
BRANCH  19  20
ATOM     20  C   UNL A   1      34.804  23.629  23.803  1.00  0.00    -0.029 A 
ATOM     21  C   UNL A   1      35.866  22.952  23.187  1.00  0.00     0.007 A 
ATOM     22  C   UNL A   1      34.916  23.981  25.158  1.00  0.00     0.007 A 
ATOM     23  C   UNL A   1      37.028  22.656  23.904  1.00  0.00     0.021 A 
ATOM     24  C   UNL A   1      36.081  23.697  25.870  1.00  0.00     0.021 A 
ATOM     25  C   UNL A   1      37.134  23.038  25.239  1.00  0.00     0.041 A 
ATOM     26  Cl  UNL A   1      38.571  22.699  26.120  1.00  0.00    -0.084 Cl
ENDBRANCH  19  20
ENDBRANCH  17  19
ENDBRANCH  14  15
ENDBRANCH   9  14
ENDBRANCH   5   8
ENDBRANCH   3   4
ENDBRANCH   2   3
ENDBRANCH   1   2
BRANCH   1  27
ATOM     27  C   UNL A   1      34.446  31.452  28.051  1.00  0.00     0.002 C 
BRANCH  27  28
ATOM     28  C   UNL A   1      35.751  32.238  27.884  1.00  0.00     0.021 C 
BRANCH  28  29
ATOM     29  C   UNL A   1      36.410  32.661  29.192  1.00  0.00     0.116 C 
BRANCH  29  30
ATOM     30  N   UNL A   1      35.986  31.827  30.306  1.00  0.00    -0.352 N 
ATOM     31  C   UNL A   1      36.532  30.664  30.776  1.00  0.00     0.251 C 
ATOM     32  H   UNL A   1      35.191  32.145  30.792  1.00  0.00     0.163 HD
ATOM     33  O   UNL A   1      35.909  29.981  31.593  1.00  0.00    -0.269 OA
BRANCH  31  34
ATOM     34  C   UNL A   1      37.857  30.224  30.300  1.00  0.00     0.039 A 
ATOM     35  C   UNL A   1      38.019  29.901  28.952  1.00  0.00     0.014 A 
ATOM     36  C   UNL A   1      38.935  30.109  31.185  1.00  0.00     0.014 A 
ATOM     37  C   UNL A   1      39.271  29.502  28.481  1.00  0.00     0.010 A 
ATOM     38  C   UNL A   1      40.197  29.783  30.702  1.00  0.00     0.010 A 
ATOM     39  C   UNL A   1      40.376  29.463  29.348  1.00  0.00    -0.014 A 
BRANCH  39  40
ATOM     40  C   UNL A   1      41.723  29.080  28.853  1.00  0.00     0.031 A 
ATOM     41  C   UNL A   1      42.809  30.116  28.742  1.00  0.00     0.074 A 
ATOM     42  C   UNL A   1      41.948  27.812  28.456  1.00  0.00     0.049 A 
ATOM     43  N   UNL A   1      44.030  29.984  28.291  1.00  0.00    -0.248 NA
ATOM     44  C   UNL A   1      42.472  31.484  29.167  1.00  0.00     0.031 C 
ATOM     45  C   UNL A   1      40.956  26.734  28.468  1.00  0.00     0.029 A 
ATOM     46  N   UNL A   1      43.079  27.216  27.959  1.00  0.00    -0.354 N 
ATOM     47  C   UNL A   1      44.600  31.251  28.367  1.00  0.00     0.074 A 
ATOM     48  C   UNL A   1      43.575  32.147  28.854  1.00  0.00     0.031 C 
ATOM     49  C   UNL A   1      41.530  25.605  28.022  1.00  0.00     0.029 A 
ATOM     50  C   UNL A   1      42.915  25.885  27.658  1.00  0.00     0.049 A 
ATOM     51  H   UNL A   1      43.929  27.697  27.829  1.00  0.00     0.167 HD
ATOM     52  C   UNL A   1      45.870  31.625  28.078  1.00  0.00     0.037 A 
ATOM     53  C   UNL A   1      43.780  24.992  27.140  1.00  0.00     0.037 A 
ATOM     54  C   UNL A   1      46.891  30.719  27.618  1.00  0.00     0.049 A 
ATOM     55  C   UNL A   1      45.186  25.431  26.834  1.00  0.00     0.074 A 
ATOM     56  C   UNL A   1      48.222  30.987  27.356  1.00  0.00     0.029 A 
ATOM     57  N   UNL A   1      46.692  29.373  27.347  1.00  0.00    -0.354 N 
ATOM     58  N   UNL A   1      45.729  26.618  26.976  1.00  0.00    -0.248 NA
ATOM     59  C   UNL A   1      46.103  24.409  26.310  1.00  0.00     0.031 C 
ATOM     60  C   UNL A   1      48.818  29.813  26.879  1.00  0.00     0.029 A 
ATOM     61  C   UNL A   1      47.871  28.801  26.899  1.00  0.00     0.049 A 
ATOM     62  H   UNL A   1      45.839  28.894  27.457  1.00  0.00     0.167 HD
ATOM     63  C   UNL A   1      47.056  26.479  26.584  1.00  0.00     0.074 A 
ATOM     64  C   UNL A   1      47.237  25.090  26.214  1.00  0.00     0.031 C 
ATOM     65  C   UNL A   1      48.036  27.415  26.537  1.00  0.00     0.037 A 
BRANCH  52  66
ATOM     66  C   UNL A   1      46.229  33.077  28.256  1.00  0.00     0.058 A 
ATOM     67  C   UNL A   1      46.096  34.005  27.211  1.00  0.00     0.135 A 
ATOM     68  C   UNL A   1      46.675  33.553  29.499  1.00  0.00     0.135 A 
ATOM     69  F   UNL A   1      45.689  33.604  25.997  1.00  0.00    -0.206 F 
ATOM     70  C   UNL A   1      46.419  35.347  27.384  1.00  0.00     0.059 A 
ATOM     71  C   UNL A   1      46.975  34.898  29.703  1.00  0.00     0.059 A 
ATOM     72  F   UNL A   1      46.822  32.711  30.534  1.00  0.00    -0.206 F 
ATOM     73  C   UNL A   1      46.858  35.784  28.634  1.00  0.00     0.060 A 
BRANCH  73  74
ATOM     74  S   UNL A   1      47.262  37.531  28.844  1.00  0.00     0.124 S 
ATOM     75  O   UNL A   1      48.085  37.496  30.049  1.00  0.00    -0.237 OA
ATOM     76  O   UNL A   1      47.967  37.838  27.603  1.00  0.00    -0.237 OA
ATOM     77  O   UNL A   1      45.958  38.168  28.994  1.00  0.00    -0.744 OA
ENDBRANCH  73  74
ENDBRANCH  52  66
BRANCH  53  78
ATOM     78  C   UNL A   1      43.344  23.590  26.899  1.00  0.00     0.058 A 
ATOM     79  C   UNL A   1      43.234  22.675  27.956  1.00  0.00     0.135 A 
ATOM     80  C   UNL A   1      43.013  23.143  25.610  1.00  0.00     0.135 A 
ATOM     81  F   UNL A   1      43.543  23.053  29.206  1.00  0.00    -0.206 F 
ATOM     82  C   UNL A   1      42.828  21.361  27.744  1.00  0.00     0.059 A 
ATOM     83  C   UNL A   1      42.578  21.842  25.376  1.00  0.00     0.059 A 
ATOM     84  F   UNL A   1      43.085  23.984  24.567  1.00  0.00    -0.206 F 
ATOM     85  C   UNL A   1      42.499  20.955  26.449  1.00  0.00     0.060 A 
BRANCH  85  86
ATOM     86  S   UNL A   1      41.928  19.262  26.191  1.00  0.00     0.124 S 
ATOM     87  O   UNL A   1      42.724  18.856  25.038  1.00  0.00    -0.237 OA
ATOM     88  O   UNL A   1      42.268  18.627  27.460  1.00  0.00    -0.237 OA
ATOM     89  O   UNL A   1      40.498  19.425  25.943  1.00  0.00    -0.744 OA
ENDBRANCH  85  86
ENDBRANCH  53  78
BRANCH  65  90
ATOM     90  C   UNL A   1      49.404  26.962  26.104  1.00  0.00     0.058 A 
ATOM     91  C   UNL A   1      50.281  26.308  26.983  1.00  0.00     0.135 A 
ATOM     92  C   UNL A   1      49.823  27.145  24.776  1.00  0.00     0.135 A 
ATOM     93  F   UNL A   1      49.932  26.111  28.264  1.00  0.00    -0.206 F 
ATOM     94  C   UNL A   1      51.537  25.878  26.569  1.00  0.00     0.059 A 
ATOM     95  C   UNL A   1      51.063  26.696  24.333  1.00  0.00     0.059 A 
ATOM     96  F   UNL A   1      49.019  27.754  23.890  1.00  0.00    -0.206 F 
ATOM     97  C   UNL A   1      51.919  26.076  25.241  1.00  0.00     0.060 A 
BRANCH  97  98
ATOM     98  S   UNL A   1      53.543  25.492  24.711  1.00  0.00     0.124 S 
ATOM     99  O   UNL A   1      54.431  26.393  25.438  1.00  0.00    -0.237 OA
ATOM    100  O   UNL A   1      53.538  24.104  25.164  1.00  0.00    -0.237 OA
ATOM    101  O   UNL A   1      53.513  25.672  23.262  1.00  0.00    -0.744 OA
ENDBRANCH  97  98
ENDBRANCH  65  90
ENDBRANCH  39  40
ENDBRANCH  31  34
ENDBRANCH  29  30
ENDBRANCH  28  29
ENDBRANCH  27  28
ENDBRANCH   1  27
TORSDOF 20
ENDMDL
MODEL 3
REMARK VINA RESULT:     -11.2      2.685      4.097
REMARK SMILES O=C(C[N@H+]1CCC[C@@H]1C(=O)NCCCCCCNC(=O)c1ccc(-c2c3nc(c(-c4c(F)cc(S(=O)(=O)[O-])cc4F)c4ccc([nH]4)c(-c4c(F)cc(S(=O)(=O)[O-])cc4F)c4nc(c(-c5c(F)cc(S(=O)(=O)[O-])cc5F)c5ccc2[nH]5)C=C4)C=C3)cc1)NCc1ccc(Cl)cc1
REMARK SMILES IDX 14 1 13 2 12 3 11 4 9 5 10 6 8 8 4 9 5 10 6 12 7 13 3 14
REMARK SMILES IDX 2 15 1 16 87 17 88 19 89 20 90 21 95 22 91 23 94 24 92 25
REMARK SMILES IDX 93 26 15 27 16 28 17 29 18 30 19 31 20 33 21 34 22 35 86 36
REMARK SMILES IDX 23 37 85 38 24 39 25 40 26 41 79 42 27 43 84 44 78 45 80 46
REMARK SMILES IDX 28 47 83 48 77 49 76 50 29 52 63 53 42 54 62 55 43 56 46 57
REMARK SMILES IDX 61 58 81 59 44 60 45 61 60 63 82 64 47 65 30 66 31 67 40 68
REMARK SMILES IDX 32 69 33 70 39 71 41 72 34 73 35 74 36 75 37 76 38 77 64 78
REMARK SMILES IDX 65 79 74 80 66 81 67 82 73 83 75 84 68 85 69 86 70 87 71 88
REMARK SMILES IDX 72 89 48 90 49 91 58 92 50 93 51 94 57 95 59 96 52 97 53 98
REMARK SMILES IDX 54 99 55 100 56 101
REMARK H PARENT 11 7 4 11 87 18 18 32 80 51 46 62
REMARK Flexibility Score: inf
ROOT
ATOM      1  C   UNL A   1      37.584  21.560  25.414  1.00  0.00     0.002 C 
ENDROOT
BRANCH   1   2
ATOM      2  C   UNL A   1      37.006  21.945  24.055  1.00  0.00     0.021 C 
BRANCH   2   3
ATOM      3  C   UNL A   1      36.511  23.379  23.985  1.00  0.00     0.116 C 
BRANCH   3   4
ATOM      4  N   UNL A   1      35.372  23.522  23.097  1.00  0.00    -0.351 N 
ATOM      5  C   UNL A   1      34.328  24.396  23.187  1.00  0.00     0.278 C 
ATOM      6  O   UNL A   1      33.498  24.409  22.272  1.00  0.00    -0.268 OA
ATOM      7  H   UNL A   1      35.351  22.909  22.327  1.00  0.00     0.163 HD
BRANCH   5   8
ATOM      8  C   UNL A   1      34.153  25.314  24.406  1.00  0.00     0.274 C 
ATOM      9  N   UNL A   1      33.217  24.781  25.400  1.00  0.00    -0.317 N 
ATOM     10  C   UNL A   1      32.764  25.902  26.203  1.00  0.00     0.263 C 
ATOM     11  H   UNL A   1      32.408  24.384  24.923  1.00  0.00     0.349 HD
ATOM     12  C   UNL A   1      32.449  26.906  25.106  1.00  0.00     0.068 C 
ATOM     13  C   UNL A   1      33.523  26.664  24.044  1.00  0.00     0.081 C 
BRANCH   9  14
ATOM     14  C   UNL A   1      33.553  23.531  26.058  1.00  0.00     0.364 C 
BRANCH  14  15
ATOM     15  C   UNL A   1      32.491  22.492  25.661  1.00  0.00     0.275 C 
ATOM     16  O   UNL A   1      31.365  22.467  26.150  1.00  0.00    -0.268 OA
ATOM     17  N   UNL A   1      32.967  21.540  24.790  1.00  0.00    -0.347 N 
ATOM     18  H   UNL A   1      33.860  21.668  24.395  1.00  0.00     0.164 HD
BRANCH  17  19
ATOM     19  C   UNL A   1      32.213  20.363  24.429  1.00  0.00     0.151 C 
BRANCH  19  20
ATOM     20  C   UNL A   1      33.038  19.117  24.613  1.00  0.00    -0.029 A 
ATOM     21  C   UNL A   1      34.434  19.178  24.503  1.00  0.00     0.007 A 
ATOM     22  C   UNL A   1      32.429  17.877  24.868  1.00  0.00     0.007 A 
ATOM     23  C   UNL A   1      35.209  18.027  24.673  1.00  0.00     0.021 A 
ATOM     24  C   UNL A   1      33.202  16.731  25.049  1.00  0.00     0.021 A 
ATOM     25  C   UNL A   1      34.590  16.812  24.954  1.00  0.00     0.041 A 
ATOM     26  Cl  UNL A   1      35.539  15.396  25.188  1.00  0.00    -0.084 Cl
ENDBRANCH  19  20
ENDBRANCH  17  19
ENDBRANCH  14  15
ENDBRANCH   9  14
ENDBRANCH   5   8
ENDBRANCH   3   4
ENDBRANCH   2   3
ENDBRANCH   1   2
BRANCH   1  27
ATOM     27  C   UNL A   1      38.363  22.675  26.121  1.00  0.00     0.002 C 
BRANCH  27  28
ATOM     28  C   UNL A   1      39.741  22.273  26.658  1.00  0.00     0.021 C 
BRANCH  28  29
ATOM     29  C   UNL A   1      40.576  23.431  27.194  1.00  0.00     0.116 C 
BRANCH  29  30
ATOM     30  N   UNL A   1      41.296  24.116  26.133  1.00  0.00    -0.352 N 
ATOM     31  C   UNL A   1      41.576  25.448  25.994  1.00  0.00     0.251 C 
ATOM     32  H   UNL A   1      41.630  23.539  25.408  1.00  0.00     0.163 HD
ATOM     33  O   UNL A   1      42.007  25.876  24.920  1.00  0.00    -0.269 OA
BRANCH  31  34
ATOM     34  C   UNL A   1      41.355  26.371  27.124  1.00  0.00     0.039 A 
ATOM     35  C   UNL A   1      40.381  26.057  28.073  1.00  0.00     0.014 A 
ATOM     36  C   UNL A   1      42.091  27.556  27.236  1.00  0.00     0.014 A 
ATOM     37  C   UNL A   1      40.172  26.910  29.158  1.00  0.00     0.010 A 
ATOM     38  C   UNL A   1      41.934  28.367  28.355  1.00  0.00     0.010 A 
ATOM     39  C   UNL A   1      40.964  28.060  29.320  1.00  0.00    -0.014 A 
BRANCH  39  40
ATOM     40  C   UNL A   1      40.782  28.954  30.492  1.00  0.00     0.031 A 
ATOM     41  C   UNL A   1      41.635  28.776  31.718  1.00  0.00     0.074 A 
ATOM     42  C   UNL A   1      39.814  29.891  30.467  1.00  0.00     0.049 A 
ATOM     43  N   UNL A   1      41.594  29.426  32.853  1.00  0.00    -0.248 NA
ATOM     44  C   UNL A   1      42.648  27.709  31.676  1.00  0.00     0.031 C 
ATOM     45  C   UNL A   1      38.890  30.122  29.353  1.00  0.00     0.029 A 
ATOM     46  N   UNL A   1      39.439  30.818  31.405  1.00  0.00    -0.354 N 
ATOM     47  C   UNL A   1      42.564  28.841  33.660  1.00  0.00     0.074 A 
ATOM     48  C   UNL A   1      43.138  27.748  32.907  1.00  0.00     0.031 C 
ATOM     49  C   UNL A   1      38.072  31.141  29.665  1.00  0.00     0.029 A 
ATOM     50  C   UNL A   1      38.386  31.610  31.011  1.00  0.00     0.049 A 
ATOM     51  H   UNL A   1      39.882  30.909  32.280  1.00  0.00     0.167 HD
ATOM     52  C   UNL A   1      42.954  29.198  34.907  1.00  0.00     0.037 A 
ATOM     53  C   UNL A   1      37.742  32.597  31.663  1.00  0.00     0.037 A 
ATOM     54  C   UNL A   1      42.393  30.305  35.640  1.00  0.00     0.049 A 
ATOM     55  C   UNL A   1      38.199  32.980  33.043  1.00  0.00     0.074 A 
ATOM     56  C   UNL A   1      42.760  30.787  36.883  1.00  0.00     0.029 A 
ATOM     57  N   UNL A   1      41.344  31.098  35.197  1.00  0.00    -0.354 N 
ATOM     58  N   UNL A   1      39.163  32.460  33.766  1.00  0.00    -0.248 NA
ATOM     59  C   UNL A   1      37.491  34.090  33.694  1.00  0.00     0.031 C 
ATOM     60  C   UNL A   1      41.900  31.840  37.215  1.00  0.00     0.029 A 
ATOM     61  C   UNL A   1      41.035  32.052  36.152  1.00  0.00     0.049 A 
ATOM     62  H   UNL A   1      40.886  30.997  34.331  1.00  0.00     0.167 HD
ATOM     63  C   UNL A   1      39.195  33.198  34.945  1.00  0.00     0.074 A 
ATOM     64  C   UNL A   1      38.163  34.208  34.831  1.00  0.00     0.031 C 
ATOM     65  C   UNL A   1      40.006  33.053  36.022  1.00  0.00     0.037 A 
BRANCH  52  66
ATOM     66  C   UNL A   1      44.044  28.389  35.559  1.00  0.00     0.058 A 
ATOM     67  C   UNL A   1      43.757  27.293  36.389  1.00  0.00     0.135 A 
ATOM     68  C   UNL A   1      45.395  28.688  35.318  1.00  0.00     0.135 A 
ATOM     69  F   UNL A   1      42.484  26.970  36.666  1.00  0.00    -0.206 F 
ATOM     70  C   UNL A   1      44.767  26.542  36.979  1.00  0.00     0.059 A 
ATOM     71  C   UNL A   1      46.423  27.932  35.875  1.00  0.00     0.059 A 
ATOM     72  F   UNL A   1      45.729  29.725  34.534  1.00  0.00    -0.206 F 
ATOM     73  C   UNL A   1      46.098  26.869  36.716  1.00  0.00     0.060 A 
BRANCH  73  74
ATOM     74  S   UNL A   1      47.397  25.877  37.482  1.00  0.00     0.124 S 
ATOM     75  O   UNL A   1      48.552  26.225  36.660  1.00  0.00    -0.237 OA
ATOM     76  O   UNL A   1      47.415  26.389  38.849  1.00  0.00    -0.237 OA
ATOM     77  O   UNL A   1      46.913  24.509  37.336  1.00  0.00    -0.744 OA
ENDBRANCH  73  74
ENDBRANCH  52  66
BRANCH  53  78
ATOM     78  C   UNL A   1      36.609  33.303  31.005  1.00  0.00     0.058 A 
ATOM     79  C   UNL A   1      36.827  34.167  29.920  1.00  0.00     0.135 A 
ATOM     80  C   UNL A   1      35.287  33.117  31.437  1.00  0.00     0.135 A 
ATOM     81  F   UNL A   1      38.074  34.381  29.474  1.00  0.00    -0.206 F 
ATOM     82  C   UNL A   1      35.777  34.834  29.298  1.00  0.00     0.059 A 
ATOM     83  C   UNL A   1      34.217  33.752  30.812  1.00  0.00     0.059 A 
ATOM     84  F   UNL A   1      35.023  32.289  32.458  1.00  0.00    -0.206 F 
ATOM     85  C   UNL A   1      34.474  34.617  29.750  1.00  0.00     0.060 A 
BRANCH  85  86
ATOM     86  S   UNL A   1      33.114  35.451  28.904  1.00  0.00     0.124 S 
ATOM     87  O   UNL A   1      33.827  36.451  28.118  1.00  0.00    -0.237 OA
ATOM     88  O   UNL A   1      32.506  34.358  28.151  1.00  0.00    -0.237 OA
ATOM     89  O   UNL A   1      32.305  35.970  30.003  1.00  0.00    -0.744 OA
ENDBRANCH  85  86
ENDBRANCH  53  78
BRANCH  65  90
ATOM     90  C   UNL A   1      39.836  34.033  37.152  1.00  0.00     0.058 A 
ATOM     91  C   UNL A   1      40.562  35.232  37.207  1.00  0.00     0.135 A 
ATOM     92  C   UNL A   1      38.897  33.787  38.168  1.00  0.00     0.135 A 
ATOM     93  F   UNL A   1      41.474  35.515  36.264  1.00  0.00    -0.206 F 
ATOM     94  C   UNL A   1      40.386  36.140  38.247  1.00  0.00     0.059 A 
ATOM     95  C   UNL A   1      38.684  34.695  39.200  1.00  0.00     0.059 A 
ATOM     96  F   UNL A   1      38.168  32.660  38.156  1.00  0.00    -0.206 F 
ATOM     97  C   UNL A   1      39.443  35.862  39.239  1.00  0.00     0.060 A 
BRANCH  97  98
ATOM     98  S   UNL A   1      39.207  37.060  40.569  1.00  0.00     0.124 S 
ATOM     99  O   UNL A   1      40.559  37.586  40.733  1.00  0.00    -0.237 OA
ATOM    100  O   UNL A   1      38.235  37.982  39.990  1.00  0.00    -0.237 OA
ATOM    101  O   UNL A   1      38.710  36.247  41.675  1.00  0.00    -0.744 OA
ENDBRANCH  97  98
ENDBRANCH  65  90
ENDBRANCH  39  40
ENDBRANCH  31  34
ENDBRANCH  29  30
ENDBRANCH  28  29
ENDBRANCH  27  28
ENDBRANCH   1  27
TORSDOF 20
ENDMDL
