MODEL 1
REMARK VINA RESULT:     -10.8      0.000      0.000
REMARK SMILES Cc1ccc(C(C)C)c(OCC(=O)Nc2nc(CC(=O)NCCCCCCNC(=O)c3ccc(-c4c5nc(c(-c6c(F)cc(S(=O)(=O)[O-])cc6F)c6ccc([nH]6)c(-c6c(F)cc(S(=O)(=O)[O-])cc6F)c6nc(c(-c7c(F)cc(S(=O)(=O)[O-])cc7F)c7ccc4[nH]7)C=C6)C=C5)cc3)cs2)c1
REMARK SMILES IDX 23 1 22 2 21 3 19 4 20 5 18 7 17 8 15 9 16 10 98 11 97 12
REMARK SMILES IDX 14 13 12 14 13 15 11 17 10 18 9 19 1 20 2 21 3 22 99 23 4 24
REMARK SMILES IDX 5 25 6 26 7 27 8 28 24 29 25 30 26 31 27 32 28 33 29 34
REMARK SMILES IDX 30 36 31 37 32 38 96 39 33 40 95 41 34 42 35 43 36 44 89 45
REMARK SMILES IDX 37 46 94 47 88 48 90 49 38 50 93 51 87 52 86 53 39 55 73 56
REMARK SMILES IDX 52 57 72 58 53 59 56 60 71 61 91 62 54 63 55 64 70 66 92 67
REMARK SMILES IDX 57 68 40 69 41 70 50 71 42 72 43 73 49 74 51 75 44 76 45 77
REMARK SMILES IDX 46 78 47 79 48 80 74 81 75 82 84 83 76 84 77 85 83 86 85 87
REMARK SMILES IDX 78 88 79 89 80 90 81 91 82 92 58 93 59 94 68 95 60 96 61 97
REMARK SMILES IDX 67 98 69 99 62 100 63 101 64 102 65 103 66 104
REMARK H PARENT 21 6 14 16 28 35 90 54 56 65
REMARK Flexibility Score: inf
ROOT
ATOM      1  C   UNL A   1      37.635  22.805  25.807  1.00  0.00     0.021 C 
ENDROOT
BRANCH   1   2
ATOM      2  C   UNL A   1      36.180  22.351  25.703  1.00  0.00     0.116 C 
BRANCH   2   3
ATOM      3  N   UNL A   1      36.037  21.006  25.175  1.00  0.00    -0.356 N 
ATOM      4  C   UNL A   1      34.925  20.211  25.141  1.00  0.00     0.226 C 
ATOM      5  O   UNL A   1      34.988  19.134  24.543  1.00  0.00    -0.275 OA
ATOM      6  H   UNL A   1      36.853  20.611  24.788  1.00  0.00     0.163 HD
BRANCH   4   7
ATOM      7  C   UNL A   1      33.631  20.661  25.798  1.00  0.00     0.157 C 
BRANCH   7   8
ATOM      8  C   UNL A   1      32.801  21.532  24.912  1.00  0.00     0.063 A 
ATOM      9  C   UNL A   1      32.567  22.819  23.140  1.00  0.00     0.189 A 
ATOM     10  N   UNL A   1      33.328  21.906  23.681  1.00  0.00    -0.224 NA
ATOM     11  S   UNL A   1      31.124  23.193  23.969  1.00  0.00    -0.105 S 
ATOM     12  C   UNL A   1      31.554  22.066  25.187  1.00  0.00     0.093 A 
BRANCH   9  13
ATOM     13  N   UNL A   1      32.765  23.550  22.012  1.00  0.00    -0.299 N 
ATOM     14  C   UNL A   1      33.140  24.855  21.940  1.00  0.00     0.264 C 
ATOM     15  O   UNL A   1      33.188  25.379  20.820  1.00  0.00    -0.271 OA
ATOM     16  H   UNL A   1      32.622  23.086  21.155  1.00  0.00     0.172 HD
BRANCH  14  17
ATOM     17  C   UNL A   1      33.607  25.641  23.176  1.00  0.00     0.329 C 
BRANCH  17  18
ATOM     18  O   UNL A   1      33.256  27.000  23.329  1.00  0.00    -0.483 OA
BRANCH  18  19
ATOM     19  C   UNL A   1      33.038  27.524  24.572  1.00  0.00     0.123 A 
ATOM     20  C   UNL A   1      34.799  29.193  27.515  1.00  0.00     0.044 C 
ATOM     21  C   UNL A   1      33.726  28.609  26.644  1.00  0.00    -0.047 A 
ATOM     22  C   UNL A   1      32.392  28.674  27.048  1.00  0.00     0.004 A 
ATOM     23  C   UNL A   1      34.041  28.019  25.413  1.00  0.00     0.050 A 
ATOM     24  C   UNL A   1      31.389  28.147  26.238  1.00  0.00     0.008 A 
ATOM     25  C   UNL A   1      31.691  27.571  24.991  1.00  0.00    -0.003 A 
BRANCH  25  26
ATOM     26  C   UNL A   1      30.569  27.020  24.119  1.00  0.00     0.017 C 
ATOM     27  C   UNL A   1      29.574  26.199  24.943  1.00  0.00     0.012 C 
ATOM     28  C   UNL A   1      29.839  28.132  23.362  1.00  0.00     0.012 C 
ENDBRANCH  25  26
ENDBRANCH  18  19
ENDBRANCH  17  18
ENDBRANCH  14  17
ENDBRANCH   9  13
ENDBRANCH   7   8
ENDBRANCH   4   7
ENDBRANCH   2   3
ENDBRANCH   1   2
BRANCH   1  29
ATOM     29  C   UNL A   1      37.843  24.174  26.469  1.00  0.00     0.002 C 
BRANCH  29  30
ATOM     30  C   UNL A   1      39.112  24.347  27.325  1.00  0.00     0.002 C 
BRANCH  30  31
ATOM     31  C   UNL A   1      39.965  25.585  27.040  1.00  0.00     0.021 C 
BRANCH  31  32
ATOM     32  C   UNL A   1      40.967  25.399  25.907  1.00  0.00     0.116 C 
BRANCH  32  33
ATOM     33  N   UNL A   1      41.682  24.133  25.956  1.00  0.00    -0.352 N 
ATOM     34  C   UNL A   1      42.982  23.913  26.397  1.00  0.00     0.251 C 
ATOM     35  H   UNL A   1      41.190  23.343  25.639  1.00  0.00     0.163 HD
ATOM     36  O   UNL A   1      43.579  22.885  26.186  1.00  0.00    -0.269 OA
BRANCH  34  37
ATOM     37  C   UNL A   1      43.561  24.965  27.266  1.00  0.00     0.039 A 
ATOM     38  C   UNL A   1      43.250  24.902  28.629  1.00  0.00     0.014 A 
ATOM     39  C   UNL A   1      44.133  26.104  26.707  1.00  0.00     0.014 A 
ATOM     40  C   UNL A   1      43.347  26.054  29.404  1.00  0.00     0.010 A 
ATOM     41  C   UNL A   1      44.150  27.265  27.458  1.00  0.00     0.010 A 
ATOM     42  C   UNL A   1      43.709  27.252  28.790  1.00  0.00    -0.014 A 
BRANCH  42  43
ATOM     43  C   UNL A   1      43.596  28.556  29.437  1.00  0.00     0.031 A 
ATOM     44  C   UNL A   1      42.300  29.273  29.434  1.00  0.00     0.074 A 
ATOM     45  C   UNL A   1      44.651  29.086  30.093  1.00  0.00     0.049 A 
ATOM     46  N   UNL A   1      42.145  30.525  29.708  1.00  0.00    -0.248 NA
ATOM     47  C   UNL A   1      41.060  28.623  29.030  1.00  0.00     0.031 C 
ATOM     48  C   UNL A   1      44.627  30.178  31.061  1.00  0.00     0.029 A 
ATOM     49  N   UNL A   1      46.005  28.871  29.851  1.00  0.00    -0.354 N 
ATOM     50  C   UNL A   1      40.793  30.784  29.785  1.00  0.00     0.074 A 
ATOM     51  C   UNL A   1      40.173  29.593  29.258  1.00  0.00     0.031 C 
ATOM     52  C   UNL A   1      45.860  30.694  31.166  1.00  0.00     0.029 A 
ATOM     53  C   UNL A   1      46.688  30.060  30.156  1.00  0.00     0.049 A 
ATOM     54  H   UNL A   1      46.412  28.036  29.524  1.00  0.00     0.167 HD
ATOM     55  C   UNL A   1      40.372  31.928  30.404  1.00  0.00     0.037 A 
ATOM     56  C   UNL A   1      47.388  30.739  29.199  1.00  0.00     0.037 A 
ATOM     57  C   UNL A   1      41.508  32.825  30.653  1.00  0.00     0.049 A 
ATOM     58  C   UNL A   1      46.861  32.127  28.912  1.00  0.00     0.074 A 
ATOM     59  C   UNL A   1      42.269  33.099  31.778  1.00  0.00     0.029 A 
ATOM     60  N   UNL A   1      42.190  33.385  29.575  1.00  0.00    -0.354 N 
ATOM     61  N   UNL A   1      45.691  32.562  29.296  1.00  0.00    -0.248 NA
ATOM     62  C   UNL A   1      47.603  33.133  28.154  1.00  0.00     0.031 C 
ATOM     63  C   UNL A   1      43.456  33.754  31.357  1.00  0.00     0.029 A 
ATOM     64  C   UNL A   1      43.404  33.905  29.982  1.00  0.00     0.049 A 
ATOM     65  H   UNL A   1      41.853  33.406  28.650  1.00  0.00     0.167 HD
ATOM     66  C   UNL A   1      45.492  33.834  28.826  1.00  0.00     0.074 A 
ATOM     67  C   UNL A   1      46.734  34.160  28.147  1.00  0.00     0.031 C 
ATOM     68  C   UNL A   1      44.319  34.507  29.020  1.00  0.00     0.037 A 
BRANCH  55  69
ATOM     69  C   UNL A   1      38.996  32.124  31.044  1.00  0.00     0.058 A 
ATOM     70  C   UNL A   1      37.874  32.457  30.247  1.00  0.00     0.135 A 
ATOM     71  C   UNL A   1      38.718  32.106  32.427  1.00  0.00     0.135 A 
ATOM     72  F   UNL A   1      37.933  32.431  28.908  1.00  0.00    -0.206 F 
ATOM     73  C   UNL A   1      36.636  32.846  30.778  1.00  0.00     0.059 A 
ATOM     74  C   UNL A   1      37.505  32.522  32.984  1.00  0.00     0.059 A 
ATOM     75  F   UNL A   1      39.587  31.638  33.322  1.00  0.00    -0.206 F 
ATOM     76  C   UNL A   1      36.471  32.910  32.154  1.00  0.00     0.060 A 
BRANCH  76  77
ATOM     77  S   UNL A   1      34.908  33.485  32.840  1.00  0.00     0.124 S 
ATOM     78  O   UNL A   1      33.941  32.651  32.133  1.00  0.00    -0.237 OA
ATOM     79  O   UNL A   1      35.073  33.204  34.261  1.00  0.00    -0.237 OA
ATOM     80  O   UNL A   1      34.879  34.901  32.484  1.00  0.00    -0.744 OA
ENDBRANCH  76  77
ENDBRANCH  55  69
BRANCH  56  81
ATOM     81  C   UNL A   1      48.051  29.842  28.215  1.00  0.00     0.058 A 
ATOM     82  C   UNL A   1      49.195  29.144  28.648  1.00  0.00     0.135 A 
ATOM     83  C   UNL A   1      47.354  29.328  27.113  1.00  0.00     0.135 A 
ATOM     84  F   UNL A   1      49.911  29.609  29.685  1.00  0.00    -0.206 F 
ATOM     85  C   UNL A   1      49.527  27.896  28.133  1.00  0.00     0.059 A 
ATOM     86  C   UNL A   1      47.676  28.080  26.574  1.00  0.00     0.059 A 
ATOM     87  F   UNL A   1      46.261  29.953  26.652  1.00  0.00    -0.206 F 
ATOM     88  C   UNL A   1      48.714  27.343  27.147  1.00  0.00     0.060 A 
BRANCH  88  89
ATOM     89  S   UNL A   1      48.925  25.585  26.773  1.00  0.00     0.124 S 
ATOM     90  O   UNL A   1      50.378  25.454  26.729  1.00  0.00    -0.237 OA
ATOM     91  O   UNL A   1      48.270  24.961  27.921  1.00  0.00    -0.237 OA
ATOM     92  O   UNL A   1      48.238  25.430  25.497  1.00  0.00    -0.744 OA
ENDBRANCH  88  89
ENDBRANCH  56  81
BRANCH  68  93
ATOM     93  C   UNL A   1      43.957  35.834  28.394  1.00  0.00     0.058 A 
ATOM     94  C   UNL A   1      43.134  35.971  27.262  1.00  0.00     0.135 A 
ATOM     95  C   UNL A   1      44.340  37.045  29.018  1.00  0.00     0.135 A 
ATOM     96  F   UNL A   1      42.613  34.898  26.647  1.00  0.00    -0.206 F 
ATOM     97  C   UNL A   1      42.775  37.217  26.742  1.00  0.00     0.059 A 
ATOM     98  C   UNL A   1      43.949  38.297  28.549  1.00  0.00     0.059 A 
ATOM     99  F   UNL A   1      45.106  37.048  30.120  1.00  0.00    -0.206 F 
ATOM    100  C   UNL A   1      43.188  38.376  27.391  1.00  0.00     0.060 A 
BRANCH 100 101
ATOM    101  S   UNL A   1      42.685  39.991  26.766  1.00  0.00     0.124 S 
ATOM    102  O   UNL A   1      43.745  40.274  25.804  1.00  0.00    -0.237 OA
ATOM    103  O   UNL A   1      41.369  39.726  26.192  1.00  0.00    -0.237 OA
ATOM    104  O   UNL A   1      42.680  40.822  27.966  1.00  0.00    -0.744 OA
ENDBRANCH 100 101
ENDBRANCH  68  93
ENDBRANCH  42  43
ENDBRANCH  34  37
ENDBRANCH  32  33
ENDBRANCH  31  32
ENDBRANCH  30  31
ENDBRANCH  29  30
ENDBRANCH   1  29
TORSDOF 22
ENDMDL
MODEL 2
REMARK VINA RESULT:     -10.8      4.914     13.514
REMARK SMILES Cc1ccc(C(C)C)c(OCC(=O)Nc2nc(CC(=O)NCCCCCCNC(=O)c3ccc(-c4c5nc(c(-c6c(F)cc(S(=O)(=O)[O-])cc6F)c6ccc([nH]6)c(-c6c(F)cc(S(=O)(=O)[O-])cc6F)c6nc(c(-c7c(F)cc(S(=O)(=O)[O-])cc7F)c7ccc4[nH]7)C=C6)C=C5)cc3)cs2)c1
REMARK SMILES IDX 23 1 22 2 21 3 19 4 20 5 18 7 17 8 15 9 16 10 98 11 97 12
REMARK SMILES IDX 14 13 12 14 13 15 11 17 10 18 9 19 1 20 2 21 3 22 99 23 4 24
REMARK SMILES IDX 5 25 6 26 7 27 8 28 24 29 25 30 26 31 27 32 28 33 29 34
REMARK SMILES IDX 30 36 31 37 32 38 96 39 33 40 95 41 34 42 35 43 36 44 89 45
REMARK SMILES IDX 37 46 94 47 88 48 90 49 38 50 93 51 87 52 86 53 39 55 73 56
REMARK SMILES IDX 52 57 72 58 53 59 56 60 71 61 91 62 54 63 55 64 70 66 92 67
REMARK SMILES IDX 57 68 40 69 41 70 50 71 42 72 43 73 49 74 51 75 44 76 45 77
REMARK SMILES IDX 46 78 47 79 48 80 74 81 75 82 84 83 76 84 77 85 83 86 85 87
REMARK SMILES IDX 78 88 79 89 80 90 81 91 82 92 58 93 59 94 68 95 60 96 61 97
REMARK SMILES IDX 67 98 69 99 62 100 63 101 64 102 65 103 66 104
REMARK H PARENT 21 6 14 16 28 35 90 54 56 65
REMARK Flexibility Score: inf
ROOT
ATOM      1  C   UNL A   1      39.014  34.444  29.240  1.00  0.00     0.021 C 
ENDROOT
BRANCH   1   2
ATOM      2  C   UNL A   1      39.855  33.558  30.156  1.00  0.00     0.116 C 
BRANCH   2   3
ATOM      3  N   UNL A   1      40.659  34.311  31.101  1.00  0.00    -0.356 N 
ATOM      4  C   UNL A   1      42.018  34.466  31.140  1.00  0.00     0.226 C 
ATOM      5  O   UNL A   1      42.498  35.245  31.967  1.00  0.00    -0.275 OA
ATOM      6  H   UNL A   1      40.159  34.774  31.811  1.00  0.00     0.163 HD
BRANCH   4   7
ATOM      7  C   UNL A   1      42.911  33.718  30.164  1.00  0.00     0.157 C 
BRANCH   7   8
ATOM      8  C   UNL A   1      43.071  34.431  28.860  1.00  0.00     0.063 A 
ATOM      9  C   UNL A   1      42.514  36.032  27.453  1.00  0.00     0.189 A 
ATOM     10  N   UNL A   1      42.439  35.660  28.702  1.00  0.00    -0.224 NA
ATOM     11  S   UNL A   1      43.440  35.041  26.420  1.00  0.00    -0.105 S 
ATOM     12  C   UNL A   1      43.751  33.990  27.739  1.00  0.00     0.093 A 
BRANCH   9  13
ATOM     13  N   UNL A   1      41.933  37.092  26.832  1.00  0.00    -0.299 N 
ATOM     14  C   UNL A   1      42.321  38.393  26.903  1.00  0.00     0.264 C 
ATOM     15  O   UNL A   1      41.615  39.236  26.335  1.00  0.00    -0.271 OA
ATOM     16  H   UNL A   1      41.148  36.898  26.270  1.00  0.00     0.172 HD
BRANCH  14  17
ATOM     17  C   UNL A   1      43.646  38.817  27.559  1.00  0.00     0.329 C 
BRANCH  17  18
ATOM     18  O   UNL A   1      43.655  39.801  28.571  1.00  0.00    -0.483 OA
BRANCH  18  19
ATOM     19  C   UNL A   1      43.766  39.441  29.885  1.00  0.00     0.123 A 
ATOM     20  C   UNL A   1      45.414  36.904  32.209  1.00  0.00     0.044 C 
ATOM     21  C   UNL A   1      44.604  38.067  31.718  1.00  0.00    -0.047 A 
ATOM     22  C   UNL A   1      43.989  38.921  32.634  1.00  0.00     0.004 A 
ATOM     23  C   UNL A   1      44.475  38.325  30.347  1.00  0.00     0.050 A 
ATOM     24  C   UNL A   1      43.247  40.012  32.185  1.00  0.00     0.008 A 
ATOM     25  C   UNL A   1      43.128  40.293  30.812  1.00  0.00    -0.003 A 
BRANCH  25  26
ATOM     26  C   UNL A   1      42.324  41.504  30.353  1.00  0.00     0.017 C 
ATOM     27  C   UNL A   1      40.819  41.233  30.421  1.00  0.00     0.012 C 
ATOM     28  C   UNL A   1      42.674  42.756  31.160  1.00  0.00     0.012 C 
ENDBRANCH  25  26
ENDBRANCH  18  19
ENDBRANCH  17  18
ENDBRANCH  14  17
ENDBRANCH   9  13
ENDBRANCH   7   8
ENDBRANCH   4   7
ENDBRANCH   2   3
ENDBRANCH   1   2
BRANCH   1  29
ATOM     29  C   UNL A   1      37.504  34.167  29.273  1.00  0.00     0.002 C 
BRANCH  29  30
ATOM     30  C   UNL A   1      36.991  33.012  28.393  1.00  0.00     0.002 C 
BRANCH  30  31
ATOM     31  C   UNL A   1      35.495  32.699  28.481  1.00  0.00     0.021 C 
BRANCH  31  32
ATOM     32  C   UNL A   1      35.166  31.485  29.340  1.00  0.00     0.116 C 
BRANCH  32  33
ATOM     33  N   UNL A   1      34.844  30.291  28.573  1.00  0.00    -0.352 N 
ATOM     34  C   UNL A   1      35.732  29.424  27.947  1.00  0.00     0.251 C 
ATOM     35  H   UNL A   1      33.889  30.074  28.486  1.00  0.00     0.163 HD
ATOM     36  O   UNL A   1      35.381  28.598  27.139  1.00  0.00    -0.269 OA
BRANCH  34  37
ATOM     37  C   UNL A   1      37.135  29.472  28.424  1.00  0.00     0.039 A 
ATOM     38  C   UNL A   1      38.109  29.835  27.487  1.00  0.00     0.014 A 
ATOM     39  C   UNL A   1      37.484  28.906  29.646  1.00  0.00     0.014 A 
ATOM     40  C   UNL A   1      39.433  29.464  27.701  1.00  0.00     0.010 A 
ATOM     41  C   UNL A   1      38.784  28.465  29.818  1.00  0.00     0.010 A 
ATOM     42  C   UNL A   1      39.746  28.699  28.824  1.00  0.00    -0.014 A 
BRANCH  42  43
ATOM     43  C   UNL A   1      41.035  28.041  29.017  1.00  0.00     0.031 A 
ATOM     44  C   UNL A   1      41.191  26.607  28.679  1.00  0.00     0.074 A 
ATOM     45  C   UNL A   1      42.104  28.747  29.444  1.00  0.00     0.049 A 
ATOM     46  N   UNL A   1      42.168  25.857  29.066  1.00  0.00    -0.248 NA
ATOM     47  C   UNL A   1      40.181  25.879  27.923  1.00  0.00     0.031 C 
ATOM     48  C   UNL A   1      43.507  28.352  29.367  1.00  0.00     0.029 A 
ATOM     49  N   UNL A   1      42.112  29.892  30.235  1.00  0.00    -0.354 N 
ATOM     50  C   UNL A   1      42.069  24.650  28.407  1.00  0.00     0.074 A 
ATOM     51  C   UNL A   1      40.766  24.687  27.791  1.00  0.00     0.031 C 
ATOM     52  C   UNL A   1      44.214  29.079  30.244  1.00  0.00     0.029 A 
ATOM     53  C   UNL A   1      43.270  29.855  31.029  1.00  0.00     0.049 A 
ATOM     54  H   UNL A   1      41.430  30.602  30.238  1.00  0.00     0.167 HD
ATOM     55  C   UNL A   1      43.161  23.827  28.366  1.00  0.00     0.037 A 
ATOM     56  C   UNL A   1      43.191  29.816  32.393  1.00  0.00     0.037 A 
ATOM     57  C   UNL A   1      44.196  24.300  29.294  1.00  0.00     0.049 A 
ATOM     58  C   UNL A   1      43.765  28.561  33.013  1.00  0.00     0.074 A 
ATOM     59  C   UNL A   1      45.366  25.022  29.121  1.00  0.00     0.029 A 
ATOM     60  N   UNL A   1      43.948  24.284  30.665  1.00  0.00    -0.354 N 
ATOM     61  N   UNL A   1      44.046  27.475  32.345  1.00  0.00    -0.248 NA
ATOM     62  C   UNL A   1      44.051  28.422  34.439  1.00  0.00     0.031 C 
ATOM     63  C   UNL A   1      45.773  25.512  30.389  1.00  0.00     0.029 A 
ATOM     64  C   UNL A   1      44.869  25.065  31.338  1.00  0.00     0.049 A 
ATOM     65  H   UNL A   1      43.215  23.786  31.096  1.00  0.00     0.167 HD
ATOM     66  C   UNL A   1      44.489  26.504  33.204  1.00  0.00     0.074 A 
ATOM     67  C   UNL A   1      44.509  27.159  34.501  1.00  0.00     0.031 C 
ATOM     68  C   UNL A   1      44.788  25.239  32.783  1.00  0.00     0.037 A 
BRANCH  55  69
ATOM     69  C   UNL A   1      43.421  22.767  27.293  1.00  0.00     0.058 A 
ATOM     70  C   UNL A   1      42.647  21.582  27.251  1.00  0.00     0.135 A 
ATOM     71  C   UNL A   1      44.465  22.791  26.346  1.00  0.00     0.135 A 
ATOM     72  F   UNL A   1      41.559  21.428  28.018  1.00  0.00    -0.206 F 
ATOM     73  C   UNL A   1      42.955  20.486  26.432  1.00  0.00     0.059 A 
ATOM     74  C   UNL A   1      44.815  21.701  25.543  1.00  0.00     0.059 A 
ATOM     75  F   UNL A   1      45.183  23.888  26.102  1.00  0.00    -0.206 F 
ATOM     76  C   UNL A   1      44.066  20.541  25.604  1.00  0.00     0.060 A 
BRANCH  76  77
ATOM     77  S   UNL A   1      44.510  19.107  24.609  1.00  0.00     0.124 S 
ATOM     78  O   UNL A   1      43.248  18.795  23.945  1.00  0.00    -0.237 OA
ATOM     79  O   UNL A   1      45.566  19.638  23.755  1.00  0.00    -0.237 OA
ATOM     80  O   UNL A   1      44.944  18.125  25.601  1.00  0.00    -0.744 OA
ENDBRANCH  76  77
ENDBRANCH  55  69
BRANCH  56  81
ATOM     81  C   UNL A   1      42.056  30.611  32.934  1.00  0.00     0.058 A 
ATOM     82  C   UNL A   1      40.849  29.930  33.178  1.00  0.00     0.135 A 
ATOM     83  C   UNL A   1      42.273  31.815  33.619  1.00  0.00     0.135 A 
ATOM     84  F   UNL A   1      40.584  28.784  32.528  1.00  0.00    -0.206 F 
ATOM     85  C   UNL A   1      39.979  30.323  34.188  1.00  0.00     0.059 A 
ATOM     86  C   UNL A   1      41.408  32.234  34.633  1.00  0.00     0.059 A 
ATOM     87  F   UNL A   1      43.402  32.512  33.423  1.00  0.00    -0.206 F 
ATOM     88  C   UNL A   1      40.309  31.436  34.958  1.00  0.00     0.060 A 
BRANCH  88  89
ATOM     89  S   UNL A   1      39.388  31.700  36.493  1.00  0.00     0.124 S 
ATOM     90  O   UNL A   1      38.576  32.867  36.165  1.00  0.00    -0.237 OA
ATOM     91  O   UNL A   1      38.659  30.439  36.617  1.00  0.00    -0.237 OA
ATOM     92  O   UNL A   1      40.439  31.918  37.479  1.00  0.00    -0.744 OA
ENDBRANCH  88  89
ENDBRANCH  56  81
BRANCH  68  93
ATOM     93  C   UNL A   1      45.116  24.070  33.683  1.00  0.00     0.058 A 
ATOM     94  C   UNL A   1      44.171  23.125  34.120  1.00  0.00     0.135 A 
ATOM     95  C   UNL A   1      46.459  23.795  34.032  1.00  0.00     0.135 A 
ATOM     96  F   UNL A   1      42.882  23.212  33.760  1.00  0.00    -0.206 F 
ATOM     97  C   UNL A   1      44.521  22.025  34.907  1.00  0.00     0.059 A 
ATOM     98  C   UNL A   1      46.837  22.676  34.771  1.00  0.00     0.059 A 
ATOM     99  F   UNL A   1      47.458  24.609  33.655  1.00  0.00    -0.206 F 
ATOM    100  C   UNL A   1      45.857  21.808  35.230  1.00  0.00     0.060 A 
BRANCH 100 101
ATOM    101  S   UNL A   1      46.330  20.362  36.197  1.00  0.00     0.124 S 
ATOM    102  O   UNL A   1      47.778  20.526  36.276  1.00  0.00    -0.237 OA
ATOM    103  O   UNL A   1      45.606  20.554  37.451  1.00  0.00    -0.237 OA
ATOM    104  O   UNL A   1      45.861  19.250  35.377  1.00  0.00    -0.744 OA
ENDBRANCH 100 101
ENDBRANCH  68  93
ENDBRANCH  42  43
ENDBRANCH  34  37
ENDBRANCH  32  33
ENDBRANCH  31  32
ENDBRANCH  30  31
ENDBRANCH  29  30
ENDBRANCH   1  29
TORSDOF 22
ENDMDL
MODEL 3
REMARK VINA RESULT:     -10.8      4.781     13.492
REMARK SMILES Cc1ccc(C(C)C)c(OCC(=O)Nc2nc(CC(=O)NCCCCCCNC(=O)c3ccc(-c4c5nc(c(-c6c(F)cc(S(=O)(=O)[O-])cc6F)c6ccc([nH]6)c(-c6c(F)cc(S(=O)(=O)[O-])cc6F)c6nc(c(-c7c(F)cc(S(=O)(=O)[O-])cc7F)c7ccc4[nH]7)C=C6)C=C5)cc3)cs2)c1
REMARK SMILES IDX 23 1 22 2 21 3 19 4 20 5 18 7 17 8 15 9 16 10 98 11 97 12
REMARK SMILES IDX 14 13 12 14 13 15 11 17 10 18 9 19 1 20 2 21 3 22 99 23 4 24
REMARK SMILES IDX 5 25 6 26 7 27 8 28 24 29 25 30 26 31 27 32 28 33 29 34
REMARK SMILES IDX 30 36 31 37 32 38 96 39 33 40 95 41 34 42 35 43 36 44 89 45
REMARK SMILES IDX 37 46 94 47 88 48 90 49 38 50 93 51 87 52 86 53 39 55 73 56
REMARK SMILES IDX 52 57 72 58 53 59 56 60 71 61 91 62 54 63 55 64 70 66 92 67
REMARK SMILES IDX 57 68 40 69 41 70 50 71 42 72 43 73 49 74 51 75 44 76 45 77
REMARK SMILES IDX 46 78 47 79 48 80 74 81 75 82 84 83 76 84 77 85 83 86 85 87
REMARK SMILES IDX 78 88 79 89 80 90 81 91 82 92 58 93 59 94 68 95 60 96 61 97
REMARK SMILES IDX 67 98 69 99 62 100 63 101 64 102 65 103 66 104
REMARK H PARENT 21 6 14 16 28 35 90 54 56 65
REMARK Flexibility Score: inf
ROOT
ATOM      1  C   UNL A   1      38.763  34.439  29.297  1.00  0.00     0.021 C 
ENDROOT
BRANCH   1   2
ATOM      2  C   UNL A   1      40.083  34.040  29.952  1.00  0.00     0.116 C 
BRANCH   2   3
ATOM      3  N   UNL A   1      41.196  34.885  29.558  1.00  0.00    -0.356 N 
ATOM      4  C   UNL A   1      42.523  34.566  29.461  1.00  0.00     0.226 C 
ATOM      5  O   UNL A   1      43.297  35.406  28.996  1.00  0.00    -0.275 OA
ATOM      6  H   UNL A   1      40.965  35.814  29.330  1.00  0.00     0.163 HD
BRANCH   4   7
ATOM      7  C   UNL A   1      43.023  33.195  29.886  1.00  0.00     0.157 C 
BRANCH   7   8
ATOM      8  C   UNL A   1      44.504  33.051  29.753  1.00  0.00     0.063 A 
ATOM      9  C   UNL A   1      46.301  32.581  28.568  1.00  0.00     0.189 A 
ATOM     10  N   UNL A   1      45.037  32.897  28.479  1.00  0.00    -0.224 NA
ATOM     11  S   UNL A   1      46.972  32.579  30.135  1.00  0.00    -0.105 S 
ATOM     12  C   UNL A   1      45.439  33.003  30.773  1.00  0.00     0.093 A 
BRANCH   9  13
ATOM     13  N   UNL A   1      47.172  32.220  27.590  1.00  0.00    -0.299 N 
ATOM     14  C   UNL A   1      48.027  31.163  27.607  1.00  0.00     0.264 C 
ATOM     15  O   UNL A   1      48.810  31.041  26.657  1.00  0.00    -0.271 OA
ATOM     16  H   UNL A   1      47.185  32.782  26.781  1.00  0.00     0.172 HD
BRANCH  14  17
ATOM     17  C   UNL A   1      47.966  30.080  28.697  1.00  0.00     0.329 C 
BRANCH  17  18
ATOM     18  O   UNL A   1      47.461  28.797  28.396  1.00  0.00    -0.483 OA
BRANCH  18  19
ATOM     19  C   UNL A   1      48.189  27.679  28.692  1.00  0.00     0.123 A 
ATOM     20  C   UNL A   1      49.742  25.745  31.590  1.00  0.00     0.044 C 
ATOM     21  C   UNL A   1      49.316  26.133  30.204  1.00  0.00    -0.047 A 
ATOM     22  C   UNL A   1      49.573  25.278  29.133  1.00  0.00     0.004 A 
ATOM     23  C   UNL A   1      48.638  27.338  29.973  1.00  0.00     0.050 A 
ATOM     24  C   UNL A   1      49.167  25.626  27.846  1.00  0.00     0.008 A 
ATOM     25  C   UNL A   1      48.468  26.822  27.605  1.00  0.00    -0.003 A 
BRANCH  25  26
ATOM     26  C   UNL A   1      48.021  27.166  26.189  1.00  0.00     0.017 C 
ATOM     27  C   UNL A   1      49.173  27.748  25.366  1.00  0.00     0.012 C 
ATOM     28  C   UNL A   1      47.418  25.955  25.474  1.00  0.00     0.012 C 
ENDBRANCH  25  26
ENDBRANCH  18  19
ENDBRANCH  17  18
ENDBRANCH  14  17
ENDBRANCH   9  13
ENDBRANCH   7   8
ENDBRANCH   4   7
ENDBRANCH   2   3
ENDBRANCH   1   2
BRANCH   1  29
ATOM     29  C   UNL A   1      37.628  33.415  29.442  1.00  0.00     0.002 C 
BRANCH  29  30
ATOM     30  C   UNL A   1      36.848  33.055  28.164  1.00  0.00     0.002 C 
BRANCH  30  31
ATOM     31  C   UNL A   1      35.373  32.689  28.343  1.00  0.00     0.021 C 
BRANCH  31  32
ATOM     32  C   UNL A   1      35.141  31.477  29.236  1.00  0.00     0.116 C 
BRANCH  32  33
ATOM     33  N   UNL A   1      34.795  30.266  28.507  1.00  0.00    -0.352 N 
ATOM     34  C   UNL A   1      35.662  29.391  27.863  1.00  0.00     0.251 C 
ATOM     35  H   UNL A   1      33.839  30.043  28.464  1.00  0.00     0.163 HD
ATOM     36  O   UNL A   1      35.283  28.548  27.087  1.00  0.00    -0.269 OA
BRANCH  34  37
ATOM     37  C   UNL A   1      37.083  29.456  28.280  1.00  0.00     0.039 A 
ATOM     38  C   UNL A   1      38.026  29.709  27.277  1.00  0.00     0.014 A 
ATOM     39  C   UNL A   1      37.469  29.001  29.537  1.00  0.00     0.014 A 
ATOM     40  C   UNL A   1      39.351  29.333  27.477  1.00  0.00     0.010 A 
ATOM     41  C   UNL A   1      38.768  28.553  29.702  1.00  0.00     0.010 A 
ATOM     42  C   UNL A   1      39.695  28.672  28.655  1.00  0.00    -0.014 A 
BRANCH  42  43
ATOM     43  C   UNL A   1      40.979  28.009  28.863  1.00  0.00     0.031 A 
ATOM     44  C   UNL A   1      41.139  26.581  28.507  1.00  0.00     0.074 A 
ATOM     45  C   UNL A   1      42.041  28.708  29.319  1.00  0.00     0.049 A 
ATOM     46  N   UNL A   1      42.108  25.823  28.902  1.00  0.00    -0.248 NA
ATOM     47  C   UNL A   1      40.142  25.864  27.723  1.00  0.00     0.031 C 
ATOM     48  C   UNL A   1      43.444  28.312  29.262  1.00  0.00     0.029 A 
ATOM     49  N   UNL A   1      42.036  29.842  30.126  1.00  0.00    -0.354 N 
ATOM     50  C   UNL A   1      42.021  24.625  28.225  1.00  0.00     0.074 A 
ATOM     51  C   UNL A   1      40.729  24.673  27.585  1.00  0.00     0.031 C 
ATOM     52  C   UNL A   1      44.136  29.026  30.162  1.00  0.00     0.029 A 
ATOM     53  C   UNL A   1      43.180  29.792  30.940  1.00  0.00     0.049 A 
ATOM     54  H   UNL A   1      41.355  30.553  30.126  1.00  0.00     0.167 HD
ATOM     55  C   UNL A   1      43.112  23.802  28.192  1.00  0.00     0.037 A 
ATOM     56  C   UNL A   1      43.075  29.734  32.302  1.00  0.00     0.037 A 
ATOM     57  C   UNL A   1      44.130  24.261  29.145  1.00  0.00     0.049 A 
ATOM     58  C   UNL A   1      43.636  28.470  32.914  1.00  0.00     0.074 A 
ATOM     59  C   UNL A   1      45.304  24.983  29.003  1.00  0.00     0.029 A 
ATOM     60  N   UNL A   1      43.857  24.226  30.511  1.00  0.00    -0.354 N 
ATOM     61  N   UNL A   1      43.928  27.394  32.236  1.00  0.00    -0.248 NA
ATOM     62  C   UNL A   1      43.896  28.311  34.343  1.00  0.00     0.031 C 
ATOM     63  C   UNL A   1      45.688  25.455  30.286  1.00  0.00     0.029 A 
ATOM     64  C   UNL A   1      44.766  24.996  31.211  1.00  0.00     0.049 A 
ATOM     65  H   UNL A   1      43.116  23.723  30.921  1.00  0.00     0.167 HD
ATOM     66  C   UNL A   1      44.354  26.410  33.090  1.00  0.00     0.074 A 
ATOM     67  C   UNL A   1      44.352  27.046  34.396  1.00  0.00     0.031 C 
ATOM     68  C   UNL A   1      44.659  25.151  32.656  1.00  0.00     0.037 A 
BRANCH  55  69
ATOM     69  C   UNL A   1      43.390  22.757  27.109  1.00  0.00     0.058 A 
ATOM     70  C   UNL A   1      42.674  21.535  27.089  1.00  0.00     0.135 A 
ATOM     71  C   UNL A   1      44.402  22.833  26.130  1.00  0.00     0.135 A 
ATOM     72  F   UNL A   1      41.619  21.328  27.888  1.00  0.00    -0.206 F 
ATOM     73  C   UNL A   1      43.010  20.456  26.258  1.00  0.00     0.059 A 
ATOM     74  C   UNL A   1      44.779  21.762  25.314  1.00  0.00     0.059 A 
ATOM     75  F   UNL A   1      45.057  23.964  25.867  1.00  0.00    -0.206 F 
ATOM     76  C   UNL A   1      44.091  20.566  25.397  1.00  0.00     0.060 A 
BRANCH  76  77
ATOM     77  S   UNL A   1      44.573  19.156  24.385  1.00  0.00     0.124 S 
ATOM     78  O   UNL A   1      45.969  18.971  24.767  1.00  0.00    -0.237 OA
ATOM     79  O   UNL A   1      43.647  18.123  24.835  1.00  0.00    -0.237 OA
ATOM     80  O   UNL A   1      44.363  19.628  23.019  1.00  0.00    -0.744 OA
ENDBRANCH  76  77
ENDBRANCH  55  69
BRANCH  56  81
ATOM     81  C   UNL A   1      41.932  30.524  32.833  1.00  0.00     0.058 A 
ATOM     82  C   UNL A   1      40.733  29.831  33.088  1.00  0.00     0.135 A 
ATOM     83  C   UNL A   1      42.135  31.740  33.501  1.00  0.00     0.135 A 
ATOM     84  F   UNL A   1      40.481  28.673  32.456  1.00  0.00    -0.206 F 
ATOM     85  C   UNL A   1      39.860  30.229  34.094  1.00  0.00     0.059 A 
ATOM     86  C   UNL A   1      41.266  32.163  34.509  1.00  0.00     0.059 A 
ATOM     87  F   UNL A   1      43.255  32.447  33.293  1.00  0.00    -0.206 F 
ATOM     88  C   UNL A   1      40.178  31.356  34.847  1.00  0.00     0.060 A 
BRANCH  88  89
ATOM     89  S   UNL A   1      39.256  31.631  36.380  1.00  0.00     0.124 S 
ATOM     90  O   UNL A   1      38.673  30.316  36.626  1.00  0.00    -0.237 OA
ATOM     91  O   UNL A   1      40.323  32.029  37.296  1.00  0.00    -0.237 OA
ATOM     92  O   UNL A   1      38.312  32.681  36.018  1.00  0.00    -0.744 OA
ENDBRANCH  88  89
ENDBRANCH  56  81
BRANCH  68  93
ATOM     93  C   UNL A   1      44.970  23.969  33.546  1.00  0.00     0.058 A 
ATOM     94  C   UNL A   1      44.023  23.000  33.926  1.00  0.00     0.135 A 
ATOM     95  C   UNL A   1      46.302  23.707  33.945  1.00  0.00     0.135 A 
ATOM     96  F   UNL A   1      42.748  23.075  33.515  1.00  0.00    -0.206 F 
ATOM     97  C   UNL A   1      44.358  21.890  34.705  1.00  0.00     0.059 A 
ATOM     98  C   UNL A   1      46.668  22.579  34.676  1.00  0.00     0.059 A 
ATOM     99  F   UNL A   1      47.302  24.544  33.624  1.00  0.00    -0.206 F 
ATOM    100  C   UNL A   1      45.684  21.687  35.077  1.00  0.00     0.060 A 
BRANCH 100 101
ATOM    101  S   UNL A   1      46.141  20.229  36.034  1.00  0.00     0.124 S 
ATOM    102  O   UNL A   1      45.272  19.213  35.452  1.00  0.00    -0.237 OA
ATOM    103  O   UNL A   1      47.565  20.080  35.745  1.00  0.00    -0.237 OA
ATOM    104  O   UNL A   1      45.827  20.623  37.404  1.00  0.00    -0.744 OA
ENDBRANCH 100 101
ENDBRANCH  68  93
ENDBRANCH  42  43
ENDBRANCH  34  37
ENDBRANCH  32  33
ENDBRANCH  31  32
ENDBRANCH  30  31
ENDBRANCH  29  30
ENDBRANCH   1  29
TORSDOF 22
ENDMDL
