MODEL 1
REMARK VINA RESULT:     -10.6      0.000      0.000
REMARK SMILES CCCC(O)(CCC)[C@@]1(C)CC[C@@H](C(=O)NCCCCCCNC(=O)c2ccc(-c3c4nc(c(-c5c(F)cc(S(=O)(=O)[O-])cc5F)c5ccc([nH]5)c(-c5c(F)cc(S(=O)(=O)[O-])cc5F)c5nc(c(-c6c(F)cc(S(=O)(=O)[O-])cc6F)c6ccc3[nH]6)C=C5)C=C4)cc2)C(C)(C)O1
REMARK SMILES IDX 19 1 18 2 17 3 16 4 14 5 15 6 13 8 9 9 11 10 95 11 10 12
REMARK SMILES IDX 12 13 92 14 93 15 94 16 4 17 3 18 2 19 1 20 5 21 6 23 7 24
REMARK SMILES IDX 8 25 20 26 21 27 22 28 23 29 24 30 25 32 26 33 27 34 91 35
REMARK SMILES IDX 28 36 90 37 29 38 30 39 31 40 84 41 32 42 89 43 83 44 85 45
REMARK SMILES IDX 33 46 88 47 82 48 81 49 34 51 68 52 47 53 67 54 48 55 51 56
REMARK SMILES IDX 66 57 86 58 49 59 50 60 65 62 87 63 52 64 35 65 36 66 45 67
REMARK SMILES IDX 37 68 38 69 44 70 46 71 39 72 40 73 41 74 42 75 43 76 69 77
REMARK SMILES IDX 70 78 79 79 71 80 72 81 78 82 80 83 73 84 74 85 75 86 76 87
REMARK SMILES IDX 77 88 53 89 54 90 63 91 55 92 56 93 62 94 64 95 57 96 58 97
REMARK SMILES IDX 59 98 60 99 61 100
REMARK H PARENT 16 7 5 22 23 31 85 50 51 61
REMARK Flexibility Score: inf
ROOT
ATOM      1  C   UNL A   1      34.341  21.260  24.315  1.00  0.00     0.002 C 
ENDROOT
BRANCH   1   2
ATOM      2  C   UNL A   1      33.327  20.989  25.416  1.00  0.00     0.021 C 
BRANCH   2   3
ATOM      3  C   UNL A   1      31.858  21.105  24.994  1.00  0.00     0.116 C 
BRANCH   3   4
ATOM      4  N   UNL A   1      31.164  21.956  25.927  1.00  0.00    -0.356 N 
ATOM      5  C   UNL A   1      31.381  23.250  26.241  1.00  0.00     0.226 C 
ATOM      6  O   UNL A   1      30.774  23.682  27.230  1.00  0.00    -0.275 OA
ATOM      7  H   UNL A   1      30.419  21.528  26.407  1.00  0.00     0.163 HD
BRANCH   5   8
ATOM      8  C   UNL A   1      32.248  24.195  25.421  1.00  0.00     0.110 C 
ATOM      9  C   UNL A   1      33.100  26.921  24.313  1.00  0.00     0.095 C 
ATOM     10  C   UNL A   1      33.928  26.022  25.274  1.00  0.00     0.039 C 
ATOM     11  O   UNL A   1      31.866  26.221  24.081  1.00  0.00    -0.366 OA
ATOM     12  C   UNL A   1      33.562  27.153  22.863  1.00  0.00     0.045 C 
ATOM     13  C   UNL A   1      32.975  25.260  26.239  1.00  0.00     0.019 C 
ATOM     14  C   UNL A   1      31.795  24.772  24.049  1.00  0.00     0.075 C 
ATOM     15  C   UNL A   1      30.365  24.657  23.538  1.00  0.00     0.043 C 
ATOM     16  C   UNL A   1      32.576  23.946  22.990  1.00  0.00     0.043 C 
BRANCH   9  17
ATOM     17  C   UNL A   1      32.890  28.352  25.049  1.00  0.00     0.093 C 
BRANCH  17  18
ATOM     18  C   UNL A   1      31.436  28.953  24.948  1.00  0.00     0.038 C 
BRANCH  18  19
ATOM     19  C   UNL A   1      30.908  29.528  23.609  1.00  0.00    -0.000 C 
ATOM     20  C   UNL A   1      29.396  29.593  23.406  1.00  0.00     0.004 C 
ENDBRANCH  18  19
ENDBRANCH  17  18
BRANCH  17  21
ATOM     21  O   UNL A   1      33.733  29.324  24.350  1.00  0.00    -0.387 OA
ATOM     22  H   UNL A   1      34.608  28.936  24.190  1.00  0.00     0.211 HD
ENDBRANCH  17  21
BRANCH  17  23
ATOM     23  C   UNL A   1      33.457  28.421  26.505  1.00  0.00     0.038 C 
BRANCH  23  24
ATOM     24  C   UNL A   1      34.671  29.295  26.847  1.00  0.00    -0.000 C 
ATOM     25  C   UNL A   1      34.345  30.596  27.563  1.00  0.00     0.004 C 
ENDBRANCH  23  24
ENDBRANCH  17  23
ENDBRANCH   9  17
ENDBRANCH   5   8
ENDBRANCH   3   4
ENDBRANCH   2   3
ENDBRANCH   1   2
BRANCH   1  26
ATOM     26  C   UNL A   1      35.692  21.736  24.835  1.00  0.00     0.002 C 
BRANCH  26  27
ATOM     27  C   UNL A   1      36.007  23.197  24.506  1.00  0.00     0.021 C 
BRANCH  27  28
ATOM     28  C   UNL A   1      37.140  23.790  25.335  1.00  0.00     0.116 C 
BRANCH  28  29
ATOM     29  N   UNL A   1      38.222  22.833  25.517  1.00  0.00    -0.352 N 
ATOM     30  C   UNL A   1      39.460  23.049  26.060  1.00  0.00     0.251 C 
ATOM     31  H   UNL A   1      38.040  21.914  25.212  1.00  0.00     0.163 HD
ATOM     32  O   UNL A   1      40.364  22.228  25.917  1.00  0.00    -0.269 OA
BRANCH  30  33
ATOM     33  C   UNL A   1      39.683  24.293  26.815  1.00  0.00     0.039 A 
ATOM     34  C   UNL A   1      39.111  24.449  28.078  1.00  0.00     0.014 A 
ATOM     35  C   UNL A   1      40.514  25.279  26.275  1.00  0.00     0.014 A 
ATOM     36  C   UNL A   1      39.415  25.586  28.828  1.00  0.00     0.010 A 
ATOM     37  C   UNL A   1      40.875  26.368  27.054  1.00  0.00     0.010 A 
ATOM     38  C   UNL A   1      40.319  26.539  28.333  1.00  0.00    -0.014 A 
BRANCH  38  39
ATOM     39  C   UNL A   1      40.686  27.753  29.098  1.00  0.00     0.031 A 
ATOM     40  C   UNL A   1      41.947  27.747  29.915  1.00  0.00     0.074 A 
ATOM     41  C   UNL A   1      39.842  28.800  29.151  1.00  0.00     0.049 A 
ATOM     42  N   UNL A   1      42.365  28.612  30.800  1.00  0.00    -0.248 NA
ATOM     43  C   UNL A   1      42.834  26.584  29.742  1.00  0.00     0.031 C 
ATOM     44  C   UNL A   1      38.574  28.903  28.428  1.00  0.00     0.029 A 
ATOM     45  N   UNL A   1      39.909  29.964  29.875  1.00  0.00    -0.354 N 
ATOM     46  C   UNL A   1      43.545  28.085  31.312  1.00  0.00     0.074 A 
ATOM     47  C   UNL A   1      43.744  26.800  30.678  1.00  0.00     0.031 C 
ATOM     48  C   UNL A   1      37.981  30.066  28.745  1.00  0.00     0.029 A 
ATOM     49  C   UNL A   1      38.801  30.766  29.730  1.00  0.00     0.049 A 
ATOM     50  H   UNL A   1      40.677  30.203  30.442  1.00  0.00     0.167 HD
ATOM     51  C   UNL A   1      44.392  28.631  32.214  1.00  0.00     0.037 A 
ATOM     52  C   UNL A   1      38.472  31.920  30.342  1.00  0.00     0.037 A 
ATOM     53  C   UNL A   1      44.188  29.919  32.822  1.00  0.00     0.049 A 
ATOM     54  C   UNL A   1      39.422  32.515  31.346  1.00  0.00     0.074 A 
ATOM     55  C   UNL A   1      45.008  30.593  33.707  1.00  0.00     0.029 A 
ATOM     56  N   UNL A   1      43.078  30.725  32.610  1.00  0.00    -0.354 N 
ATOM     57  N   UNL A   1      40.562  32.032  31.784  1.00  0.00    -0.248 NA
ATOM     58  C   UNL A   1      39.052  33.809  31.933  1.00  0.00     0.031 C 
ATOM     59  C   UNL A   1      44.370  31.783  34.071  1.00  0.00     0.029 A 
ATOM     60  C   UNL A   1      43.182  31.881  33.363  1.00  0.00     0.049 A 
ATOM     61  H   UNL A   1      42.326  30.506  32.012  1.00  0.00     0.167 HD
ATOM     62  C   UNL A   1      41.062  32.979  32.670  1.00  0.00     0.074 A 
ATOM     63  C   UNL A   1      40.097  34.061  32.711  1.00  0.00     0.031 C 
ATOM     64  C   UNL A   1      42.220  32.958  33.377  1.00  0.00     0.037 A 
BRANCH  51  65
ATOM     65  C   UNL A   1      45.600  27.821  32.606  1.00  0.00     0.058 A 
ATOM     66  C   UNL A   1      45.582  26.944  33.703  1.00  0.00     0.135 A 
ATOM     67  C   UNL A   1      46.800  27.939  31.886  1.00  0.00     0.135 A 
ATOM     68  F   UNL A   1      44.466  26.799  34.436  1.00  0.00    -0.206 F 
ATOM     69  C   UNL A   1      46.725  26.261  34.110  1.00  0.00     0.059 A 
ATOM     70  C   UNL A   1      47.945  27.238  32.252  1.00  0.00     0.059 A 
ATOM     71  F   UNL A   1      46.876  28.758  30.825  1.00  0.00    -0.206 F 
ATOM     72  C   UNL A   1      47.904  26.423  33.382  1.00  0.00     0.060 A 
BRANCH  72  73
ATOM     73  S   UNL A   1      49.389  25.569  33.947  1.00  0.00     0.124 S 
ATOM     74  O   UNL A   1      49.633  24.649  32.840  1.00  0.00    -0.237 OA
ATOM     75  O   UNL A   1      50.347  26.662  34.085  1.00  0.00    -0.237 OA
ATOM     76  O   UNL A   1      48.969  24.947  35.200  1.00  0.00    -0.744 OA
ENDBRANCH  72  73
ENDBRANCH  51  65
BRANCH  52  77
ATOM     77  C   UNL A   1      37.187  32.584  29.998  1.00  0.00     0.058 A 
ATOM     78  C   UNL A   1      36.005  32.270  30.685  1.00  0.00     0.135 A 
ATOM     79  C   UNL A   1      37.129  33.597  29.027  1.00  0.00     0.135 A 
ATOM     80  F   UNL A   1      36.008  31.306  31.617  1.00  0.00    -0.206 F 
ATOM     81  C   UNL A   1      34.814  32.941  30.428  1.00  0.00     0.059 A 
ATOM     82  C   UNL A   1      35.954  34.297  28.769  1.00  0.00     0.059 A 
ATOM     83  F   UNL A   1      38.236  33.946  28.352  1.00  0.00    -0.206 F 
ATOM     84  C   UNL A   1      34.801  33.961  29.476  1.00  0.00     0.060 A 
BRANCH  84  85
ATOM     85  S   UNL A   1      33.271  34.887  29.221  1.00  0.00     0.124 S 
ATOM     86  O   UNL A   1      32.600  34.076  28.212  1.00  0.00    -0.237 OA
ATOM     87  O   UNL A   1      32.678  34.870  30.554  1.00  0.00    -0.237 OA
ATOM     88  O   UNL A   1      33.741  36.194  28.769  1.00  0.00    -0.744 OA
ENDBRANCH  84  85
ENDBRANCH  52  77
BRANCH  64  89
ATOM     89  C   UNL A   1      42.555  34.159  34.218  1.00  0.00     0.058 A 
ATOM     90  C   UNL A   1      42.351  34.177  35.604  1.00  0.00     0.135 A 
ATOM     91  C   UNL A   1      43.199  35.263  33.634  1.00  0.00     0.135 A 
ATOM     92  F   UNL A   1      41.731  33.150  36.211  1.00  0.00    -0.206 F 
ATOM     93  C   UNL A   1      42.776  35.246  36.386  1.00  0.00     0.059 A 
ATOM     94  C   UNL A   1      43.656  36.331  34.398  1.00  0.00     0.059 A 
ATOM     95  F   UNL A   1      43.424  35.292  32.311  1.00  0.00    -0.206 F 
ATOM     96  C   UNL A   1      43.440  36.314  35.775  1.00  0.00     0.060 A 
BRANCH  96  97
ATOM     97  S   UNL A   1      44.062  37.654  36.811  1.00  0.00     0.124 S 
ATOM     98  O   UNL A   1      43.008  37.765  37.814  1.00  0.00    -0.237 OA
ATOM     99  O   UNL A   1      45.333  37.116  37.285  1.00  0.00    -0.237 OA
ATOM    100  O   UNL A   1      44.169  38.779  35.887  1.00  0.00    -0.744 OA
ENDBRANCH  96  97
ENDBRANCH  64  89
ENDBRANCH  38  39
ENDBRANCH  30  33
ENDBRANCH  28  29
ENDBRANCH  27  28
ENDBRANCH  26  27
ENDBRANCH   1  26
TORSDOF 22
ENDMDL
MODEL 2
REMARK VINA RESULT:     -10.0      2.813      3.304
REMARK SMILES CCCC(O)(CCC)[C@@]1(C)CC[C@@H](C(=O)NCCCCCCNC(=O)c2ccc(-c3c4nc(c(-c5c(F)cc(S(=O)(=O)[O-])cc5F)c5ccc([nH]5)c(-c5c(F)cc(S(=O)(=O)[O-])cc5F)c5nc(c(-c6c(F)cc(S(=O)(=O)[O-])cc6F)c6ccc3[nH]6)C=C5)C=C4)cc2)C(C)(C)O1
REMARK SMILES IDX 19 1 18 2 17 3 16 4 14 5 15 6 13 8 9 9 11 10 95 11 10 12
REMARK SMILES IDX 12 13 92 14 93 15 94 16 4 17 3 18 2 19 1 20 5 21 6 23 7 24
REMARK SMILES IDX 8 25 20 26 21 27 22 28 23 29 24 30 25 32 26 33 27 34 91 35
REMARK SMILES IDX 28 36 90 37 29 38 30 39 31 40 84 41 32 42 89 43 83 44 85 45
REMARK SMILES IDX 33 46 88 47 82 48 81 49 34 51 68 52 47 53 67 54 48 55 51 56
REMARK SMILES IDX 66 57 86 58 49 59 50 60 65 62 87 63 52 64 35 65 36 66 45 67
REMARK SMILES IDX 37 68 38 69 44 70 46 71 39 72 40 73 41 74 42 75 43 76 69 77
REMARK SMILES IDX 70 78 79 79 71 80 72 81 78 82 80 83 73 84 74 85 75 86 76 87
REMARK SMILES IDX 77 88 53 89 54 90 63 91 55 92 56 93 62 94 64 95 57 96 58 97
REMARK SMILES IDX 59 98 60 99 61 100
REMARK H PARENT 16 7 5 22 23 31 85 50 51 61
REMARK Flexibility Score: inf
ROOT
ATOM      1  C   UNL A   1      34.539  20.888  24.914  1.00  0.00     0.002 C 
ENDROOT
BRANCH   1   2
ATOM      2  C   UNL A   1      33.225  20.455  25.549  1.00  0.00     0.021 C 
BRANCH   2   3
ATOM      3  C   UNL A   1      31.968  21.088  24.944  1.00  0.00     0.116 C 
BRANCH   3   4
ATOM      4  N   UNL A   1      31.326  21.907  25.941  1.00  0.00    -0.356 N 
ATOM      5  C   UNL A   1      31.570  23.185  26.297  1.00  0.00     0.226 C 
ATOM      6  O   UNL A   1      31.012  23.582  27.328  1.00  0.00    -0.275 OA
ATOM      7  H   UNL A   1      30.597  21.467  26.436  1.00  0.00     0.163 HD
BRANCH   5   8
ATOM      8  C   UNL A   1      32.411  24.154  25.478  1.00  0.00     0.110 C 
ATOM      9  C   UNL A   1      33.298  26.921  24.505  1.00  0.00     0.095 C 
ATOM     10  C   UNL A   1      34.159  25.916  25.323  1.00  0.00     0.039 C 
ATOM     11  O   UNL A   1      32.017  26.292  24.329  1.00  0.00    -0.366 OA
ATOM     12  C   UNL A   1      33.650  27.246  23.042  1.00  0.00     0.045 C 
ATOM     13  C   UNL A   1      33.253  25.121  26.307  1.00  0.00     0.019 C 
ATOM     14  C   UNL A   1      31.875  24.855  24.196  1.00  0.00     0.075 C 
ATOM     15  C   UNL A   1      30.404  24.839  23.803  1.00  0.00     0.043 C 
ATOM     16  C   UNL A   1      32.526  24.081  23.016  1.00  0.00     0.043 C 
BRANCH   9  17
ATOM     17  C   UNL A   1      33.219  28.298  25.361  1.00  0.00     0.093 C 
BRANCH  17  18
ATOM     18  C   UNL A   1      31.765  28.755  25.765  1.00  0.00     0.038 C 
BRANCH  18  19
ATOM     19  C   UNL A   1      31.546  29.778  26.907  1.00  0.00    -0.000 C 
ATOM     20  C   UNL A   1      31.604  31.263  26.558  1.00  0.00     0.004 C 
ENDBRANCH  18  19
ENDBRANCH  17  18
BRANCH  17  21
ATOM     21  O   UNL A   1      33.709  29.371  24.495  1.00  0.00    -0.387 OA
ATOM     22  H   UNL A   1      33.174  29.404  23.686  1.00  0.00     0.211 HD
ENDBRANCH  17  21
BRANCH  17  23
ATOM     23  C   UNL A   1      34.215  28.372  26.564  1.00  0.00     0.038 C 
BRANCH  23  24
ATOM     24  C   UNL A   1      35.080  29.615  26.806  1.00  0.00    -0.000 C 
ATOM     25  C   UNL A   1      35.307  29.965  28.269  1.00  0.00     0.004 C 
ENDBRANCH  23  24
ENDBRANCH  17  23
ENDBRANCH   9  17
ENDBRANCH   5   8
ENDBRANCH   3   4
ENDBRANCH   2   3
ENDBRANCH   1   2
BRANCH   1  26
ATOM     26  C   UNL A   1      35.319  21.892  25.753  1.00  0.00     0.002 C 
BRANCH  26  27
ATOM     27  C   UNL A   1      36.053  22.954  24.931  1.00  0.00     0.021 C 
BRANCH  27  28
ATOM     28  C   UNL A   1      37.257  23.565  25.639  1.00  0.00     0.116 C 
BRANCH  28  29
ATOM     29  N   UNL A   1      38.211  22.543  26.041  1.00  0.00    -0.352 N 
ATOM     30  C   UNL A   1      39.484  22.714  26.518  1.00  0.00     0.251 C 
ATOM     31  H   UNL A   1      37.904  21.611  25.961  1.00  0.00     0.163 HD
ATOM     32  O   UNL A   1      40.270  21.771  26.572  1.00  0.00    -0.269 OA
BRANCH  30  33
ATOM     33  C   UNL A   1      39.888  24.059  26.959  1.00  0.00     0.039 A 
ATOM     34  C   UNL A   1      40.013  24.333  28.321  1.00  0.00     0.014 A 
ATOM     35  C   UNL A   1      40.194  25.029  26.000  1.00  0.00     0.014 A 
ATOM     36  C   UNL A   1      40.498  25.578  28.725  1.00  0.00     0.010 A 
ATOM     37  C   UNL A   1      40.749  26.234  26.402  1.00  0.00     0.010 A 
ATOM     38  C   UNL A   1      40.895  26.526  27.768  1.00  0.00    -0.014 A 
BRANCH  38  39
ATOM     39  C   UNL A   1      41.431  27.854  28.146  1.00  0.00     0.031 A 
ATOM     40  C   UNL A   1      42.917  28.072  28.131  1.00  0.00     0.074 A 
ATOM     41  C   UNL A   1      40.604  28.811  28.608  1.00  0.00     0.049 A 
ATOM     42  N   UNL A   1      43.613  29.075  28.597  1.00  0.00    -0.248 NA
ATOM     43  C   UNL A   1      43.732  26.991  27.551  1.00  0.00     0.031 C 
ATOM     44  C   UNL A   1      39.148  28.700  28.701  1.00  0.00     0.029 A 
ATOM     45  N   UNL A   1      40.877  30.055  29.119  1.00  0.00    -0.354 N 
ATOM     46  C   UNL A   1      44.945  28.733  28.396  1.00  0.00     0.074 A 
ATOM     47  C   UNL A   1      44.959  27.407  27.819  1.00  0.00     0.031 C 
ATOM     48  C   UNL A   1      38.655  29.828  29.238  1.00  0.00     0.029 A 
ATOM     49  C   UNL A   1      39.762  30.719  29.573  1.00  0.00     0.049 A 
ATOM     50  H   UNL A   1      41.784  30.436  29.157  1.00  0.00     0.167 HD
ATOM     51  C   UNL A   1      46.053  29.466  28.654  1.00  0.00     0.037 A 
ATOM     52  C   UNL A   1      39.648  31.901  30.211  1.00  0.00     0.037 A 
ATOM     53  C   UNL A   1      46.020  30.791  29.213  1.00  0.00     0.049 A 
ATOM     54  C   UNL A   1      40.888  32.704  30.494  1.00  0.00     0.074 A 
ATOM     55  C   UNL A   1      47.077  31.645  29.466  1.00  0.00     0.029 A 
ATOM     56  N   UNL A   1      44.865  31.451  29.612  1.00  0.00    -0.354 N 
ATOM     57  N   UNL A   1      42.140  32.393  30.253  1.00  0.00    -0.248 NA
ATOM     58  C   UNL A   1      40.706  34.016  31.127  1.00  0.00     0.031 C 
ATOM     59  C   UNL A   1      46.567  32.801  30.066  1.00  0.00     0.029 A 
ATOM     60  C   UNL A   1      45.186  32.695  30.128  1.00  0.00     0.049 A 
ATOM     61  H   UNL A   1      43.952  31.088  29.539  1.00  0.00     0.167 HD
ATOM     62  C   UNL A   1      42.892  33.484  30.671  1.00  0.00     0.074 A 
ATOM     63  C   UNL A   1      41.955  34.462  31.187  1.00  0.00     0.031 C 
ATOM     64  C   UNL A   1      44.236  33.665  30.621  1.00  0.00     0.037 A 
BRANCH  51  65
ATOM     65  C   UNL A   1      47.385  28.833  28.352  1.00  0.00     0.058 A 
ATOM     66  C   UNL A   1      48.111  28.127  29.326  1.00  0.00     0.135 A 
ATOM     67  C   UNL A   1      47.956  28.952  27.074  1.00  0.00     0.135 A 
ATOM     68  F   UNL A   1      47.621  27.992  30.569  1.00  0.00    -0.206 F 
ATOM     69  C   UNL A   1      49.378  27.616  29.063  1.00  0.00     0.059 A 
ATOM     70  C   UNL A   1      49.205  28.416  26.778  1.00  0.00     0.059 A 
ATOM     71  F   UNL A   1      47.306  29.610  26.101  1.00  0.00    -0.206 F 
ATOM     72  C   UNL A   1      49.921  27.775  27.787  1.00  0.00     0.060 A 
BRANCH  72  73
ATOM     73  S   UNL A   1      51.583  27.148  27.473  1.00  0.00     0.124 S 
ATOM     74  O   UNL A   1      51.716  27.384  26.039  1.00  0.00    -0.237 OA
ATOM     75  O   UNL A   1      52.404  27.995  28.334  1.00  0.00    -0.237 OA
ATOM     76  O   UNL A   1      51.500  25.747  27.874  1.00  0.00    -0.744 OA
ENDBRANCH  72  73
ENDBRANCH  51  65
BRANCH  52  77
ATOM     77  C   UNL A   1      38.299  32.388  30.603  1.00  0.00     0.058 A 
ATOM     78  C   UNL A   1      37.803  32.176  31.897  1.00  0.00     0.135 A 
ATOM     79  C   UNL A   1      37.509  33.136  29.714  1.00  0.00     0.135 A 
ATOM     80  F   UNL A   1      38.517  31.462  32.780  1.00  0.00    -0.206 F 
ATOM     81  C   UNL A   1      36.577  32.695  32.301  1.00  0.00     0.059 A 
ATOM     82  C   UNL A   1      36.291  33.685  30.103  1.00  0.00     0.059 A 
ATOM     83  F   UNL A   1      37.946  33.380  28.469  1.00  0.00    -0.206 F 
ATOM     84  C   UNL A   1      35.833  33.459  31.400  1.00  0.00     0.060 A 
BRANCH  84  85
ATOM     85  S   UNL A   1      34.290  34.206  31.967  1.00  0.00     0.124 S 
ATOM     86  O   UNL A   1      34.776  35.392  32.664  1.00  0.00    -0.237 OA
ATOM     87  O   UNL A   1      33.587  34.445  30.712  1.00  0.00    -0.237 OA
ATOM     88  O   UNL A   1      33.708  33.171  32.817  1.00  0.00    -0.744 OA
ENDBRANCH  84  85
ENDBRANCH  52  77
BRANCH  64  89
ATOM     89  C   UNL A   1      44.789  34.986  31.080  1.00  0.00     0.058 A 
ATOM     90  C   UNL A   1      45.246  35.186  32.390  1.00  0.00     0.135 A 
ATOM     91  C   UNL A   1      44.967  36.028  30.155  1.00  0.00     0.135 A 
ATOM     92  F   UNL A   1      45.091  34.225  33.315  1.00  0.00    -0.206 F 
ATOM     93  C   UNL A   1      45.865  36.373  32.767  1.00  0.00     0.059 A 
ATOM     94  C   UNL A   1      45.607  37.213  30.503  1.00  0.00     0.059 A 
ATOM     95  F   UNL A   1      44.553  35.884  28.886  1.00  0.00    -0.206 F 
ATOM     96  C   UNL A   1      46.053  37.376  31.813  1.00  0.00     0.060 A 
BRANCH  96  97
ATOM     97  S   UNL A   1      46.933  38.876  32.295  1.00  0.00     0.124 S 
ATOM     98  O   UNL A   1      47.029  38.711  33.741  1.00  0.00    -0.237 OA
ATOM     99  O   UNL A   1      48.186  38.751  31.558  1.00  0.00    -0.237 OA
ATOM    100  O   UNL A   1      46.052  39.949  31.843  1.00  0.00    -0.744 OA
ENDBRANCH  96  97
ENDBRANCH  64  89
ENDBRANCH  38  39
ENDBRANCH  30  33
ENDBRANCH  28  29
ENDBRANCH  27  28
ENDBRANCH  26  27
ENDBRANCH   1  26
TORSDOF 22
ENDMDL
MODEL 3
REMARK VINA RESULT:     -10.0      2.453      3.127
REMARK SMILES CCCC(O)(CCC)[C@@]1(C)CC[C@@H](C(=O)NCCCCCCNC(=O)c2ccc(-c3c4nc(c(-c5c(F)cc(S(=O)(=O)[O-])cc5F)c5ccc([nH]5)c(-c5c(F)cc(S(=O)(=O)[O-])cc5F)c5nc(c(-c6c(F)cc(S(=O)(=O)[O-])cc6F)c6ccc3[nH]6)C=C5)C=C4)cc2)C(C)(C)O1
REMARK SMILES IDX 19 1 18 2 17 3 16 4 14 5 15 6 13 8 9 9 11 10 95 11 10 12
REMARK SMILES IDX 12 13 92 14 93 15 94 16 4 17 3 18 2 19 1 20 5 21 6 23 7 24
REMARK SMILES IDX 8 25 20 26 21 27 22 28 23 29 24 30 25 32 26 33 27 34 91 35
REMARK SMILES IDX 28 36 90 37 29 38 30 39 31 40 84 41 32 42 89 43 83 44 85 45
REMARK SMILES IDX 33 46 88 47 82 48 81 49 34 51 68 52 47 53 67 54 48 55 51 56
REMARK SMILES IDX 66 57 86 58 49 59 50 60 65 62 87 63 52 64 35 65 36 66 45 67
REMARK SMILES IDX 37 68 38 69 44 70 46 71 39 72 40 73 41 74 42 75 43 76 69 77
REMARK SMILES IDX 70 78 79 79 71 80 72 81 78 82 80 83 73 84 74 85 75 86 76 87
REMARK SMILES IDX 77 88 53 89 54 90 63 91 55 92 56 93 62 94 64 95 57 96 58 97
REMARK SMILES IDX 59 98 60 99 61 100
REMARK H PARENT 16 7 5 22 23 31 85 50 51 61
REMARK Flexibility Score: inf
ROOT
ATOM      1  C   UNL A   1      36.958  21.585  24.580  1.00  0.00     0.002 C 
ENDROOT
BRANCH   1   2
ATOM      2  C   UNL A   1      35.628  21.023  25.060  1.00  0.00     0.021 C 
BRANCH   2   3
ATOM      3  C   UNL A   1      35.173  21.511  26.440  1.00  0.00     0.116 C 
BRANCH   3   4
ATOM      4  N   UNL A   1      33.735  21.592  26.461  1.00  0.00    -0.356 N 
ATOM      5  C   UNL A   1      32.921  22.587  26.052  1.00  0.00     0.226 C 
ATOM      6  O   UNL A   1      31.729  22.488  26.376  1.00  0.00    -0.275 OA
ATOM      7  H   UNL A   1      33.278  20.802  26.828  1.00  0.00     0.163 HD
BRANCH   5   8
ATOM      8  C   UNL A   1      33.365  23.750  25.176  1.00  0.00     0.110 C 
ATOM      9  C   UNL A   1      33.019  26.437  23.746  1.00  0.00     0.095 C 
ATOM     10  C   UNL A   1      34.019  26.132  24.897  1.00  0.00     0.039 C 
ATOM     11  O   UNL A   1      32.293  25.217  23.520  1.00  0.00    -0.366 OA
ATOM     12  C   UNL A   1      33.527  26.725  22.321  1.00  0.00     0.045 C 
ATOM     13  C   UNL A   1      33.394  25.103  25.883  1.00  0.00     0.019 C 
ATOM     14  C   UNL A   1      32.901  23.912  23.699  1.00  0.00     0.075 C 
ATOM     15  C   UNL A   1      31.774  23.086  23.094  1.00  0.00     0.043 C 
ATOM     16  C   UNL A   1      34.119  23.461  22.846  1.00  0.00     0.043 C 
BRANCH   9  17
ATOM     17  C   UNL A   1      32.071  27.659  24.239  1.00  0.00     0.093 C 
BRANCH  17  18
ATOM     18  C   UNL A   1      30.585  27.260  24.582  1.00  0.00     0.038 C 
BRANCH  18  19
ATOM     19  C   UNL A   1      29.476  27.336  23.502  1.00  0.00    -0.000 C 
ATOM     20  C   UNL A   1      28.138  26.665  23.803  1.00  0.00     0.004 C 
ENDBRANCH  18  19
ENDBRANCH  17  18
BRANCH  17  21
ATOM     21  O   UNL A   1      31.947  28.588  23.114  1.00  0.00    -0.387 OA
ATOM     22  H   UNL A   1      32.498  29.370  23.279  1.00  0.00     0.211 HD
ENDBRANCH  17  21
BRANCH  17  23
ATOM     23  C   UNL A   1      32.707  28.568  25.341  1.00  0.00     0.038 C 
BRANCH  23  24
ATOM     24  C   UNL A   1      31.867  29.120  26.500  1.00  0.00    -0.000 C 
ATOM     25  C   UNL A   1      31.741  28.195  27.700  1.00  0.00     0.004 C 
ENDBRANCH  23  24
ENDBRANCH  17  23
ENDBRANCH   9  17
ENDBRANCH   5   8
ENDBRANCH   3   4
ENDBRANCH   2   3
ENDBRANCH   1   2
BRANCH   1  26
ATOM     26  C   UNL A   1      37.771  22.251  25.682  1.00  0.00     0.002 C 
BRANCH  26  27
ATOM     27  C   UNL A   1      37.582  23.767  25.766  1.00  0.00     0.021 C 
BRANCH  27  28
ATOM     28  C   UNL A   1      38.635  24.480  26.607  1.00  0.00     0.116 C 
BRANCH  28  29
ATOM     29  N   UNL A   1      39.982  24.107  26.198  1.00  0.00    -0.352 N 
ATOM     30  C   UNL A   1      41.162  24.734  26.499  1.00  0.00     0.251 C 
ATOM     31  H   UNL A   1      40.053  23.303  25.634  1.00  0.00     0.163 HD
ATOM     32  O   UNL A   1      42.191  24.472  25.882  1.00  0.00    -0.269 OA
BRANCH  30  33
ATOM     33  C   UNL A   1      41.163  25.735  27.579  1.00  0.00     0.039 A 
ATOM     34  C   UNL A   1      42.086  26.780  27.553  1.00  0.00     0.014 A 
ATOM     35  C   UNL A   1      40.199  25.651  28.588  1.00  0.00     0.014 A 
ATOM     36  C   UNL A   1      42.011  27.781  28.523  1.00  0.00     0.010 A 
ATOM     37  C   UNL A   1      40.078  26.687  29.502  1.00  0.00     0.010 A 
ATOM     38  C   UNL A   1      40.990  27.755  29.487  1.00  0.00    -0.014 A 
BRANCH  38  39
ATOM     39  C   UNL A   1      40.857  28.802  30.526  1.00  0.00     0.031 A 
ATOM     40  C   UNL A   1      41.692  28.704  31.771  1.00  0.00     0.074 A 
ATOM     41  C   UNL A   1      39.918  29.760  30.407  1.00  0.00     0.049 A 
ATOM     42  N   UNL A   1      41.610  29.388  32.881  1.00  0.00    -0.248 NA
ATOM     43  C   UNL A   1      42.733  27.662  31.781  1.00  0.00     0.031 C 
ATOM     44  C   UNL A   1      39.026  29.932  29.260  1.00  0.00     0.029 A 
ATOM     45  N   UNL A   1      39.536  30.747  31.279  1.00  0.00    -0.354 N 
ATOM     46  C   UNL A   1      42.563  28.841  33.731  1.00  0.00     0.074 A 
ATOM     47  C   UNL A   1      43.171  27.733  33.028  1.00  0.00     0.031 C 
ATOM     48  C   UNL A   1      38.198  30.963  29.499  1.00  0.00     0.029 A 
ATOM     49  C   UNL A   1      38.467  31.490  30.833  1.00  0.00     0.049 A 
ATOM     50  H   UNL A   1      39.983  30.910  32.141  1.00  0.00     0.167 HD
ATOM     51  C   UNL A   1      42.911  29.237  34.978  1.00  0.00     0.037 A 
ATOM     52  C   UNL A   1      37.767  32.467  31.443  1.00  0.00     0.037 A 
ATOM     53  C   UNL A   1      42.308  30.353  35.656  1.00  0.00     0.049 A 
ATOM     54  C   UNL A   1      38.163  32.896  32.830  1.00  0.00     0.074 A 
ATOM     55  C   UNL A   1      42.619  30.876  36.897  1.00  0.00     0.029 A 
ATOM     56  N   UNL A   1      41.262  31.114  35.150  1.00  0.00    -0.354 N 
ATOM     57  N   UNL A   1      39.101  32.404  33.605  1.00  0.00    -0.248 NA
ATOM     58  C   UNL A   1      37.415  34.012  33.424  1.00  0.00     0.031 C 
ATOM     59  C   UNL A   1      41.727  31.920  37.164  1.00  0.00     0.029 A 
ATOM     60  C   UNL A   1      40.903  32.090  36.063  1.00  0.00     0.049 A 
ATOM     61  H   UNL A   1      40.839  30.979  34.271  1.00  0.00     0.167 HD
ATOM     62  C   UNL A   1      39.081  33.173  34.763  1.00  0.00     0.074 A 
ATOM     63  C   UNL A   1      38.033  34.159  34.590  1.00  0.00     0.031 C 
ATOM     64  C   UNL A   1      39.868  33.077  35.865  1.00  0.00     0.037 A 
BRANCH  51  65
ATOM     65  C   UNL A   1      43.976  28.440  35.684  1.00  0.00     0.058 A 
ATOM     66  C   UNL A   1      45.336  28.781  35.602  1.00  0.00     0.135 A 
ATOM     67  C   UNL A   1      43.633  27.306  36.438  1.00  0.00     0.135 A 
ATOM     68  F   UNL A   1      45.724  29.849  34.885  1.00  0.00    -0.206 F 
ATOM     69  C   UNL A   1      46.322  27.994  36.188  1.00  0.00     0.059 A 
ATOM     70  C   UNL A   1      44.599  26.525  37.065  1.00  0.00     0.059 A 
ATOM     71  F   UNL A   1      42.349  26.935  36.558  1.00  0.00    -0.206 F 
ATOM     72  C   UNL A   1      45.943  26.862  36.910  1.00  0.00     0.060 A 
BRANCH  72  73
ATOM     73  S   UNL A   1      47.234  25.825  37.626  1.00  0.00     0.124 S 
ATOM     74  O   UNL A   1      46.856  25.824  39.036  1.00  0.00    -0.237 OA
ATOM     75  O   UNL A   1      47.048  24.561  36.920  1.00  0.00    -0.237 OA
ATOM     76  O   UNL A   1      48.464  26.543  37.307  1.00  0.00    -0.744 OA
ENDBRANCH  72  73
ENDBRANCH  51  65
BRANCH  52  77
ATOM     77  C   UNL A   1      36.634  33.106  30.724  1.00  0.00     0.058 A 
ATOM     78  C   UNL A   1      35.306  32.808  31.060  1.00  0.00     0.135 A 
ATOM     79  C   UNL A   1      36.856  34.081  29.737  1.00  0.00     0.135 A 
ATOM     80  F   UNL A   1      35.042  31.879  31.991  1.00  0.00    -0.206 F 
ATOM     81  C   UNL A   1      34.237  33.458  30.450  1.00  0.00     0.059 A 
ATOM     82  C   UNL A   1      35.804  34.760  29.130  1.00  0.00     0.059 A 
ATOM     83  F   UNL A   1      38.109  34.413  29.391  1.00  0.00    -0.206 F 
ATOM     84  C   UNL A   1      34.497  34.442  29.494  1.00  0.00     0.060 A 
BRANCH  84  85
ATOM     85  S   UNL A   1      33.104  35.344  28.781  1.00  0.00     0.124 S 
ATOM     86  O   UNL A   1      32.440  34.299  28.011  1.00  0.00    -0.237 OA
ATOM     87  O   UNL A   1      32.399  35.807  29.971  1.00  0.00    -0.237 OA
ATOM     88  O   UNL A   1      33.750  36.392  27.996  1.00  0.00    -0.744 OA
ENDBRANCH  84  85
ENDBRANCH  52  77
BRANCH  64  89
ATOM     89  C   UNL A   1      39.679  34.093  36.957  1.00  0.00     0.058 A 
ATOM     90  C   UNL A   1      39.051  33.774  38.169  1.00  0.00     0.135 A 
ATOM     91  C   UNL A   1      40.242  35.374  36.826  1.00  0.00     0.135 A 
ATOM     92  F   UNL A   1      38.488  32.567  38.343  1.00  0.00    -0.206 F 
ATOM     93  C   UNL A   1      38.991  34.688  39.217  1.00  0.00     0.059 A 
ATOM     94  C   UNL A   1      40.217  36.294  37.868  1.00  0.00     0.059 A 
ATOM     95  F   UNL A   1      40.860  35.726  35.687  1.00  0.00    -0.206 F 
ATOM     96  C   UNL A   1      39.588  35.942  39.061  1.00  0.00     0.060 A 
BRANCH  96  97
ATOM     97  S   UNL A   1      39.577  37.086  40.457  1.00  0.00     0.124 S 
ATOM     98  O   UNL A   1      38.615  36.452  41.351  1.00  0.00    -0.237 OA
ATOM     99  O   UNL A   1      40.968  37.054  40.896  1.00  0.00    -0.237 OA
ATOM    100  O   UNL A   1      39.143  38.346  39.862  1.00  0.00    -0.744 OA
ENDBRANCH  96  97
ENDBRANCH  64  89
ENDBRANCH  38  39
ENDBRANCH  30  33
ENDBRANCH  28  29
ENDBRANCH  27  28
ENDBRANCH  26  27
ENDBRANCH   1  26
TORSDOF 22
ENDMDL
