MODEL 1
REMARK VINA RESULT:     -11.6      0.000      0.000
REMARK SMILES O=C(NCCCCCCNC(=O)c1ccc(S(=O)(=O)NCC[NH+]2CCCC2)c(F)c1)c1ccc(-c2c3nc(c(-c4c(F)cc(S(=O)(=O)[O-])cc4F)c4ccc([nH]4)c(-c4c(F)cc(S(=O)(=O)[O-])cc4F)c4nc(c(-c5c(F)cc(S(=O)(=O)[O-])cc5F)c5ccc2[nH]5)C=C4)C=C3)cc1
REMARK SMILES IDX 7 1 6 2 5 3 4 4 3 5 1 6 2 7 31 9 32 10 96 11 33 12 95 13
REMARK SMILES IDX 34 14 35 15 36 16 89 17 37 18 94 19 88 20 90 21 38 22 93 23
REMARK SMILES IDX 87 24 86 25 39 27 73 28 52 29 72 30 53 31 56 32 71 33 91 34
REMARK SMILES IDX 54 35 55 36 70 38 92 39 57 40 40 41 41 42 50 43 42 44 43 45
REMARK SMILES IDX 49 46 51 47 44 48 45 49 46 50 47 51 48 52 74 53 75 54 84 55
REMARK SMILES IDX 76 56 77 57 83 58 85 59 78 60 79 61 80 62 81 63 82 64 58 65
REMARK SMILES IDX 59 66 68 67 60 68 61 69 67 70 69 71 62 72 63 73 64 74 65 75
REMARK SMILES IDX 66 76 8 77 9 78 10 79 11 80 12 82 13 83 14 84 30 85 15 86
REMARK SMILES IDX 28 87 16 88 29 89 17 90 18 91 19 92 20 93 21 95 22 96 23 97
REMARK SMILES IDX 24 98 27 99 25 101 26 102
REMARK H PARENT 3 8 90 26 56 37 10 81 20 94 23 100
REMARK Flexibility Score: inf
ROOT
ATOM      1  C   UNL A   1      32.192  28.969  24.584  1.00  0.00     0.002 C 
ENDROOT
BRANCH   1   2
ATOM      2  C   UNL A   1      31.594  28.562  25.934  1.00  0.00     0.002 C 
BRANCH   2   3
ATOM      3  C   UNL A   1      32.565  27.927  26.930  1.00  0.00     0.021 C 
BRANCH   3   4
ATOM      4  C   UNL A   1      33.913  28.626  27.065  1.00  0.00     0.116 C 
BRANCH   4   5
ATOM      5  N   UNL A   1      33.797  29.945  27.656  1.00  0.00    -0.352 N 
ATOM      6  O   UNL A   1      34.400  31.691  28.943  1.00  0.00    -0.269 OA
ATOM      7  C   UNL A   1      34.727  30.650  28.380  1.00  0.00     0.251 C 
ATOM      8  H   UNL A   1      32.933  30.399  27.519  1.00  0.00     0.163 HD
BRANCH   7   9
ATOM      9  C   UNL A   1      36.115  30.147  28.492  1.00  0.00     0.039 A 
ATOM     10  C   UNL A   1      36.992  30.207  27.404  1.00  0.00     0.014 A 
ATOM     11  C   UNL A   1      36.558  29.655  29.723  1.00  0.00     0.014 A 
ATOM     12  C   UNL A   1      38.285  29.702  27.524  1.00  0.00     0.010 A 
ATOM     13  C   UNL A   1      37.874  29.202  29.860  1.00  0.00     0.010 A 
ATOM     14  C   UNL A   1      38.745  29.220  28.760  1.00  0.00    -0.014 A 
BRANCH  14  15
ATOM     15  C   UNL A   1      40.177  28.866  28.919  1.00  0.00     0.031 A 
ATOM     16  C   UNL A   1      40.697  27.512  28.535  1.00  0.00     0.074 A 
ATOM     17  C   UNL A   1      41.007  29.799  29.430  1.00  0.00     0.049 A 
ATOM     18  N   UNL A   1      41.915  27.046  28.637  1.00  0.00    -0.248 NA
ATOM     19  C   UNL A   1      39.735  26.555  27.967  1.00  0.00     0.031 C 
ATOM     20  C   UNL A   1      40.599  31.141  29.857  1.00  0.00     0.029 A 
ATOM     21  N   UNL A   1      42.355  29.768  29.678  1.00  0.00    -0.354 N 
ATOM     22  C   UNL A   1      41.869  25.743  28.159  1.00  0.00     0.074 A 
ATOM     23  C   UNL A   1      40.496  25.483  27.778  1.00  0.00     0.031 C 
ATOM     24  C   UNL A   1      41.677  31.810  30.293  1.00  0.00     0.029 A 
ATOM     25  C   UNL A   1      42.838  30.932  30.228  1.00  0.00     0.049 A 
ATOM     26  H   UNL A   1      42.922  28.988  29.482  1.00  0.00     0.167 HD
ATOM     27  C   UNL A   1      42.884  24.854  28.046  1.00  0.00     0.037 A 
ATOM     28  C   UNL A   1      44.073  31.250  30.661  1.00  0.00     0.037 A 
ATOM     29  C   UNL A   1      44.250  25.135  28.407  1.00  0.00     0.049 A 
ATOM     30  C   UNL A   1      45.168  30.232  30.553  1.00  0.00     0.074 A 
ATOM     31  C   UNL A   1      45.360  24.322  28.258  1.00  0.00     0.029 A 
ATOM     32  N   UNL A   1      44.692  26.310  28.996  1.00  0.00    -0.354 N 
ATOM     33  N   UNL A   1      45.114  29.023  30.052  1.00  0.00    -0.248 NA
ATOM     34  C   UNL A   1      46.486  30.610  31.083  1.00  0.00     0.031 C 
ATOM     35  C   UNL A   1      46.466  24.988  28.795  1.00  0.00     0.029 A 
ATOM     36  C   UNL A   1      46.051  26.230  29.248  1.00  0.00     0.049 A 
ATOM     37  H   UNL A   1      44.123  27.087  29.205  1.00  0.00     0.167 HD
ATOM     38  C   UNL A   1      46.386  28.490  30.212  1.00  0.00     0.074 A 
ATOM     39  C   UNL A   1      47.197  29.518  30.832  1.00  0.00     0.031 C 
ATOM     40  C   UNL A   1      46.837  27.257  29.883  1.00  0.00     0.037 A 
BRANCH  27  41
ATOM     41  C   UNL A   1      42.585  23.486  27.503  1.00  0.00     0.058 A 
ATOM     42  C   UNL A   1      42.365  22.409  28.375  1.00  0.00     0.135 A 
ATOM     43  C   UNL A   1      42.655  23.217  26.128  1.00  0.00     0.135 A 
ATOM     44  F   UNL A   1      42.283  22.617  29.699  1.00  0.00    -0.206 F 
ATOM     45  C   UNL A   1      42.257  21.103  27.906  1.00  0.00     0.059 A 
ATOM     46  C   UNL A   1      42.535  21.920  25.634  1.00  0.00     0.059 A 
ATOM     47  F   UNL A   1      42.847  24.216  25.252  1.00  0.00    -0.206 F 
ATOM     48  C   UNL A   1      42.358  20.868  26.533  1.00  0.00     0.060 A 
BRANCH  48  49
ATOM     49  S   UNL A   1      42.242  19.166  25.940  1.00  0.00     0.124 S 
ATOM     50  O   UNL A   1      40.805  19.011  25.750  1.00  0.00    -0.237 OA
ATOM     51  O   UNL A   1      43.044  19.211  24.721  1.00  0.00    -0.237 OA
ATOM     52  O   UNL A   1      42.821  18.388  27.032  1.00  0.00    -0.744 OA
ENDBRANCH  48  49
ENDBRANCH  27  41
BRANCH  28  53
ATOM     53  C   UNL A   1      44.314  32.584  31.266  1.00  0.00     0.058 A 
ATOM     54  C   UNL A   1      44.781  33.655  30.489  1.00  0.00     0.135 A 
ATOM     55  C   UNL A   1      44.123  32.802  32.638  1.00  0.00     0.135 A 
ATOM     56  F   UNL A   1      44.987  33.492  29.173  1.00  0.00    -0.206 F 
ATOM     57  C   UNL A   1      45.077  34.889  31.053  1.00  0.00     0.059 A 
ATOM     58  C   UNL A   1      44.392  34.036  33.223  1.00  0.00     0.059 A 
ATOM     59  F   UNL A   1      43.669  31.809  33.418  1.00  0.00    -0.206 F 
ATOM     60  C   UNL A   1      44.885  35.068  32.425  1.00  0.00     0.060 A 
BRANCH  60  61
ATOM     61  S   UNL A   1      45.277  36.677  33.146  1.00  0.00     0.124 S 
ATOM     62  O   UNL A   1      46.454  37.061  32.375  1.00  0.00    -0.237 OA
ATOM     63  O   UNL A   1      44.064  37.441  32.877  1.00  0.00    -0.237 OA
ATOM     64  O   UNL A   1      45.517  36.362  34.550  1.00  0.00    -0.744 OA
ENDBRANCH  60  61
ENDBRANCH  28  53
BRANCH  40  65
ATOM     65  C   UNL A   1      48.266  26.934  30.205  1.00  0.00     0.058 A 
ATOM     66  C   UNL A   1      48.611  26.354  31.435  1.00  0.00     0.135 A 
ATOM     67  C   UNL A   1      49.300  27.278  29.322  1.00  0.00     0.135 A 
ATOM     68  F   UNL A   1      47.657  26.007  32.312  1.00  0.00    -0.206 F 
ATOM     69  C   UNL A   1      49.940  26.150  31.790  1.00  0.00     0.059 A 
ATOM     70  C   UNL A   1      50.635  27.065  29.648  1.00  0.00     0.059 A 
ATOM     71  F   UNL A   1      49.015  27.821  28.127  1.00  0.00    -0.206 F 
ATOM     72  C   UNL A   1      50.945  26.518  30.894  1.00  0.00     0.060 A 
BRANCH  72  73
ATOM     73  S   UNL A   1      52.665  26.255  31.372  1.00  0.00     0.124 S 
ATOM     74  O   UNL A   1      52.595  24.957  32.036  1.00  0.00    -0.237 OA
ATOM     75  O   UNL A   1      53.352  26.271  30.083  1.00  0.00    -0.237 OA
ATOM     76  O   UNL A   1      52.954  27.391  32.241  1.00  0.00    -0.744 OA
ENDBRANCH  72  73
ENDBRANCH  40  65
ENDBRANCH  14  15
ENDBRANCH   7   9
ENDBRANCH   4   5
ENDBRANCH   3   4
ENDBRANCH   2   3
ENDBRANCH   1   2
BRANCH   1  77
ATOM     77  C   UNL A   1      31.205  29.075  23.418  1.00  0.00     0.021 C 
BRANCH  77  78
ATOM     78  C   UNL A   1      30.809  27.756  22.759  1.00  0.00     0.116 C 
BRANCH  78  79
ATOM     79  N   UNL A   1      31.833  27.235  21.867  1.00  0.00    -0.352 N 
ATOM     80  C   UNL A   1      32.768  26.256  22.092  1.00  0.00     0.251 C 
ATOM     81  H   UNL A   1      31.861  27.645  20.972  1.00  0.00     0.163 HD
ATOM     82  O   UNL A   1      33.634  26.013  21.258  1.00  0.00    -0.269 OA
BRANCH  80  83
ATOM     83  C   UNL A   1      32.765  25.518  23.372  1.00  0.00     0.042 A 
ATOM     84  C   UNL A   1      33.828  25.621  24.275  1.00  0.00     0.015 A 
ATOM     85  C   UNL A   1      31.671  24.697  23.661  1.00  0.00     0.054 A 
ATOM     86  C   UNL A   1      33.855  24.800  25.400  1.00  0.00     0.026 A 
ATOM     87  C   UNL A   1      31.690  23.901  24.805  1.00  0.00     0.144 A 
ATOM     88  C   UNL A   1      32.796  23.912  25.645  1.00  0.00     0.118 A 
ATOM     89  F   UNL A   1      30.630  23.116  25.028  1.00  0.00    -0.205 F 
BRANCH  88  90
ATOM     90  S   UNL A   1      33.024  22.745  26.948  1.00  0.00     0.243 S 
ATOM     91  O   UNL A   1      34.390  22.894  27.395  1.00  0.00    -0.207 OA
ATOM     92  O   UNL A   1      31.905  22.918  27.850  1.00  0.00    -0.207 OA
BRANCH  90  93
ATOM     93  N   UNL A   1      32.864  21.223  26.304  1.00  0.00    -0.205 NA
ATOM     94  H   UNL A   1      31.886  21.134  26.028  1.00  0.00     0.141 HD
BRANCH  93  95
ATOM     95  C   UNL A   1      33.651  20.764  25.162  1.00  0.00     0.160 C 
BRANCH  95  96
ATOM     96  C   UNL A   1      33.308  19.356  24.650  1.00  0.00     0.278 C 
BRANCH  96  97
ATOM     97  N   UNL A   1      33.913  18.165  25.276  1.00  0.00    -0.334 N 
ATOM     98  C   UNL A   1      34.869  17.539  24.339  1.00  0.00     0.262 C 
ATOM     99  C   UNL A   1      33.020  17.073  25.661  1.00  0.00     0.262 C 
ATOM    100  H   UNL A   1      34.316  18.554  26.129  1.00  0.00     0.348 HD
ATOM    101  C   UNL A   1      34.016  16.580  23.519  1.00  0.00     0.067 C 
ATOM    102  C   UNL A   1      32.964  16.094  24.499  1.00  0.00     0.067 C 
ENDBRANCH  96  97
ENDBRANCH  95  96
ENDBRANCH  93  95
ENDBRANCH  90  93
ENDBRANCH  88  90
ENDBRANCH  80  83
ENDBRANCH  78  79
ENDBRANCH  77  78
ENDBRANCH   1  77
TORSDOF 21
ENDMDL
MODEL 2
REMARK VINA RESULT:     -11.4      1.325      2.138
REMARK SMILES O=C(NCCCCCCNC(=O)c1ccc(S(=O)(=O)NCC[NH+]2CCCC2)c(F)c1)c1ccc(-c2c3nc(c(-c4c(F)cc(S(=O)(=O)[O-])cc4F)c4ccc([nH]4)c(-c4c(F)cc(S(=O)(=O)[O-])cc4F)c4nc(c(-c5c(F)cc(S(=O)(=O)[O-])cc5F)c5ccc2[nH]5)C=C4)C=C3)cc1
REMARK SMILES IDX 7 1 6 2 5 3 4 4 3 5 1 6 2 7 31 9 32 10 96 11 33 12 95 13
REMARK SMILES IDX 34 14 35 15 36 16 89 17 37 18 94 19 88 20 90 21 38 22 93 23
REMARK SMILES IDX 87 24 86 25 39 27 73 28 52 29 72 30 53 31 56 32 71 33 91 34
REMARK SMILES IDX 54 35 55 36 70 38 92 39 57 40 40 41 41 42 50 43 42 44 43 45
REMARK SMILES IDX 49 46 51 47 44 48 45 49 46 50 47 51 48 52 74 53 75 54 84 55
REMARK SMILES IDX 76 56 77 57 83 58 85 59 78 60 79 61 80 62 81 63 82 64 58 65
REMARK SMILES IDX 59 66 68 67 60 68 61 69 67 70 69 71 62 72 63 73 64 74 65 75
REMARK SMILES IDX 66 76 8 77 9 78 10 79 11 80 12 82 13 83 14 84 30 85 15 86
REMARK SMILES IDX 28 87 16 88 29 89 17 90 18 91 19 92 20 93 21 95 22 96 23 97
REMARK SMILES IDX 24 98 27 99 25 101 26 102
REMARK H PARENT 3 8 90 26 56 37 10 81 20 94 23 100
REMARK Flexibility Score: inf
ROOT
ATOM      1  C   UNL A   1      31.818  28.966  24.915  1.00  0.00     0.002 C 
ENDROOT
BRANCH   1   2
ATOM      2  C   UNL A   1      31.314  28.191  26.136  1.00  0.00     0.002 C 
BRANCH   2   3
ATOM      3  C   UNL A   1      32.378  27.791  27.159  1.00  0.00     0.021 C 
BRANCH   3   4
ATOM      4  C   UNL A   1      33.684  28.573  27.083  1.00  0.00     0.116 C 
BRANCH   4   5
ATOM      5  N   UNL A   1      33.551  29.926  27.591  1.00  0.00    -0.352 N 
ATOM      6  O   UNL A   1      34.127  31.752  28.773  1.00  0.00    -0.269 OA
ATOM      7  C   UNL A   1      34.468  30.682  28.278  1.00  0.00     0.251 C 
ATOM      8  H   UNL A   1      32.685  30.362  27.418  1.00  0.00     0.163 HD
BRANCH   7   9
ATOM      9  C   UNL A   1      35.859  30.199  28.434  1.00  0.00     0.039 A 
ATOM     10  C   UNL A   1      36.759  30.239  27.364  1.00  0.00     0.014 A 
ATOM     11  C   UNL A   1      36.281  29.747  29.688  1.00  0.00     0.014 A 
ATOM     12  C   UNL A   1      38.054  29.752  27.527  1.00  0.00     0.010 A 
ATOM     13  C   UNL A   1      37.599  29.315  29.866  1.00  0.00     0.010 A 
ATOM     14  C   UNL A   1      38.493  29.311  28.786  1.00  0.00    -0.014 A 
BRANCH  14  15
ATOM     15  C   UNL A   1      39.925  28.980  28.986  1.00  0.00     0.031 A 
ATOM     16  C   UNL A   1      40.479  27.638  28.605  1.00  0.00     0.074 A 
ATOM     17  C   UNL A   1      40.723  29.921  29.530  1.00  0.00     0.049 A 
ATOM     18  N   UNL A   1      41.701  27.191  28.740  1.00  0.00    -0.248 NA
ATOM     19  C   UNL A   1      39.551  26.671  27.999  1.00  0.00     0.031 C 
ATOM     20  C   UNL A   1      40.280  31.252  29.956  1.00  0.00     0.029 A 
ATOM     21  N   UNL A   1      42.063  29.909  29.819  1.00  0.00    -0.354 N 
ATOM     22  C   UNL A   1      41.691  25.892  28.249  1.00  0.00     0.074 A 
ATOM     23  C   UNL A   1      40.336  25.614  27.823  1.00  0.00     0.031 C 
ATOM     24  C   UNL A   1      41.333  31.935  30.432  1.00  0.00     0.029 A 
ATOM     25  C   UNL A   1      42.510  31.076  30.394  1.00  0.00     0.049 A 
ATOM     26  H   UNL A   1      42.649  29.141  29.633  1.00  0.00     0.167 HD
ATOM     27  C   UNL A   1      42.724  25.022  28.159  1.00  0.00     0.037 A 
ATOM     28  C   UNL A   1      43.726  31.410  30.867  1.00  0.00     0.037 A 
ATOM     29  C   UNL A   1      44.074  25.321  28.564  1.00  0.00     0.049 A 
ATOM     30  C   UNL A   1      44.840  30.412  30.784  1.00  0.00     0.074 A 
ATOM     31  C   UNL A   1      45.201  24.528  28.442  1.00  0.00     0.029 A 
ATOM     32  N   UNL A   1      44.477  26.498  29.177  1.00  0.00    -0.354 N 
ATOM     33  N   UNL A   1      44.822  29.206  30.271  1.00  0.00    -0.248 NA
ATOM     34  C   UNL A   1      46.135  30.806  31.357  1.00  0.00     0.031 C 
ATOM     35  C   UNL A   1      46.279  25.207  29.019  1.00  0.00     0.029 A 
ATOM     36  C   UNL A   1      45.830  26.437  29.470  1.00  0.00     0.049 A 
ATOM     37  H   UNL A   1      43.889  27.263  29.375  1.00  0.00     0.167 HD
ATOM     38  C   UNL A   1      46.097  28.693  30.464  1.00  0.00     0.074 A 
ATOM     39  C   UNL A   1      46.871  29.728  31.119  1.00  0.00     0.031 C 
ATOM     40  C   UNL A   1      46.579  27.470  30.138  1.00  0.00     0.037 A 
BRANCH  27  41
ATOM     41  C   UNL A   1      42.465  23.654  27.594  1.00  0.00     0.058 A 
ATOM     42  C   UNL A   1      42.324  22.549  28.448  1.00  0.00     0.135 A 
ATOM     43  C   UNL A   1      42.495  23.419  26.211  1.00  0.00     0.135 A 
ATOM     44  F   UNL A   1      42.283  22.723  29.778  1.00  0.00    -0.206 F 
ATOM     45  C   UNL A   1      42.256  21.251  27.952  1.00  0.00     0.059 A 
ATOM     46  C   UNL A   1      42.413  22.129  25.692  1.00  0.00     0.059 A 
ATOM     47  F   UNL A   1      42.611  24.445  25.354  1.00  0.00    -0.206 F 
ATOM     48  C   UNL A   1      42.315  21.051  26.571  1.00  0.00     0.060 A 
BRANCH  48  49
ATOM     49  S   UNL A   1      42.252  19.358  25.942  1.00  0.00     0.124 S 
ATOM     50  O   UNL A   1      42.749  18.596  27.081  1.00  0.00    -0.237 OA
ATOM     51  O   UNL A   1      40.833  19.198  25.638  1.00  0.00    -0.237 OA
ATOM     52  O   UNL A   1      43.132  19.398  24.778  1.00  0.00    -0.744 OA
ENDBRANCH  48  49
ENDBRANCH  27  41
BRANCH  28  53
ATOM     53  C   UNL A   1      43.926  32.742  31.493  1.00  0.00     0.058 A 
ATOM     54  C   UNL A   1      43.751  32.924  32.873  1.00  0.00     0.135 A 
ATOM     55  C   UNL A   1      44.251  33.865  30.718  1.00  0.00     0.135 A 
ATOM     56  F   UNL A   1      43.430  31.881  33.654  1.00  0.00    -0.206 F 
ATOM     57  C   UNL A   1      43.866  34.176  33.463  1.00  0.00     0.059 A 
ATOM     58  C   UNL A   1      44.393  35.126  31.289  1.00  0.00     0.059 A 
ATOM     59  F   UNL A   1      44.437  33.735  29.395  1.00  0.00    -0.206 F 
ATOM     60  C   UNL A   1      44.182  35.275  32.660  1.00  0.00     0.060 A 
BRANCH  60  61
ATOM     61  S   UNL A   1      44.326  36.897  33.438  1.00  0.00     0.124 S 
ATOM     62  O   UNL A   1      43.317  36.805  34.489  1.00  0.00    -0.237 OA
ATOM     63  O   UNL A   1      45.713  36.904  33.888  1.00  0.00    -0.237 OA
ATOM     64  O   UNL A   1      44.019  37.818  32.348  1.00  0.00    -0.744 OA
ENDBRANCH  60  61
ENDBRANCH  28  53
BRANCH  40  65
ATOM     65  C   UNL A   1      48.002  27.168  30.501  1.00  0.00     0.058 A 
ATOM     66  C   UNL A   1      49.059  27.600  29.685  1.00  0.00     0.135 A 
ATOM     67  C   UNL A   1      48.309  26.378  31.619  1.00  0.00     0.135 A 
ATOM     68  F   UNL A   1      48.815  28.359  28.606  1.00  0.00    -0.206 F 
ATOM     69  C   UNL A   1      50.373  27.235  29.953  1.00  0.00     0.059 A 
ATOM     70  C   UNL A   1      49.619  26.017  31.916  1.00  0.00     0.059 A 
ATOM     71  F   UNL A   1      47.331  25.956  32.436  1.00  0.00    -0.206 F 
ATOM     72  C   UNL A   1      50.643  26.434  31.064  1.00  0.00     0.060 A 
BRANCH  72  73
ATOM     73  S   UNL A   1      52.353  25.962  31.393  1.00  0.00     0.124 S 
ATOM     74  O   UNL A   1      52.798  27.041  32.268  1.00  0.00    -0.237 OA
ATOM     75  O   UNL A   1      52.197  24.655  32.026  1.00  0.00    -0.237 OA
ATOM     76  O   UNL A   1      52.959  25.936  30.065  1.00  0.00    -0.744 OA
ENDBRANCH  72  73
ENDBRANCH  40  65
ENDBRANCH  14  15
ENDBRANCH   7   9
ENDBRANCH   4   5
ENDBRANCH   3   4
ENDBRANCH   2   3
ENDBRANCH   1   2
BRANCH   1  77
ATOM     77  C   UNL A   1      30.780  29.255  23.828  1.00  0.00     0.021 C 
BRANCH  77  78
ATOM     78  C   UNL A   1      30.551  28.138  22.813  1.00  0.00     0.116 C 
BRANCH  78  79
ATOM     79  N   UNL A   1      31.718  27.871  21.987  1.00  0.00    -0.352 N 
ATOM     80  C   UNL A   1      32.628  26.847  22.070  1.00  0.00     0.251 C 
ATOM     81  H   UNL A   1      31.879  28.519  21.264  1.00  0.00     0.163 HD
ATOM     82  O   UNL A   1      33.623  26.835  21.352  1.00  0.00    -0.269 OA
BRANCH  80  83
ATOM     83  C   UNL A   1      32.437  25.774  23.066  1.00  0.00     0.042 A 
ATOM     84  C   UNL A   1      31.389  24.855  22.954  1.00  0.00     0.015 A 
ATOM     85  C   UNL A   1      33.328  25.700  24.140  1.00  0.00     0.054 A 
ATOM     86  C   UNL A   1      31.156  23.950  23.988  1.00  0.00     0.026 A 
ATOM     87  C   UNL A   1      33.108  24.771  25.155  1.00  0.00     0.144 A 
ATOM     88  C   UNL A   1      32.000  23.934  25.109  1.00  0.00     0.118 A 
ATOM     89  F   UNL A   1      33.976  24.752  26.174  1.00  0.00    -0.205 F 
BRANCH  88  90
ATOM     90  S   UNL A   1      31.495  22.934  26.470  1.00  0.00     0.243 S 
ATOM     91  O   UNL A   1      31.746  23.710  27.663  1.00  0.00    -0.207 OA
ATOM     92  O   UNL A   1      30.172  22.443  26.147  1.00  0.00    -0.207 OA
BRANCH  90  93
ATOM     93  N   UNL A   1      32.480  21.598  26.517  1.00  0.00    -0.205 NA
ATOM     94  H   UNL A   1      32.780  21.434  25.557  1.00  0.00     0.141 HD
BRANCH  93  95
ATOM     95  C   UNL A   1      33.689  21.540  27.335  1.00  0.00     0.160 C 
BRANCH  95  96
ATOM     96  C   UNL A   1      35.009  21.742  26.573  1.00  0.00     0.278 C 
BRANCH  96  97
ATOM     97  N   UNL A   1      35.193  21.161  25.231  1.00  0.00    -0.334 N 
ATOM     98  C   UNL A   1      36.564  20.623  25.102  1.00  0.00     0.262 C 
ATOM     99  C   UNL A   1      35.046  22.051  24.080  1.00  0.00     0.262 C 
ATOM    100  H   UNL A   1      34.440  20.473  25.191  1.00  0.00     0.348 HD
ATOM    101  C   UNL A   1      37.387  21.810  24.618  1.00  0.00     0.067 C 
ATOM    102  C   UNL A   1      36.427  22.587  23.735  1.00  0.00     0.067 C 
ENDBRANCH  96  97
ENDBRANCH  95  96
ENDBRANCH  93  95
ENDBRANCH  90  93
ENDBRANCH  88  90
ENDBRANCH  80  83
ENDBRANCH  78  79
ENDBRANCH  77  78
ENDBRANCH   1  77
TORSDOF 21
ENDMDL
MODEL 3
REMARK VINA RESULT:     -11.1      5.073     10.277
REMARK SMILES O=C(NCCCCCCNC(=O)c1ccc(S(=O)(=O)NCC[NH+]2CCCC2)c(F)c1)c1ccc(-c2c3nc(c(-c4c(F)cc(S(=O)(=O)[O-])cc4F)c4ccc([nH]4)c(-c4c(F)cc(S(=O)(=O)[O-])cc4F)c4nc(c(-c5c(F)cc(S(=O)(=O)[O-])cc5F)c5ccc2[nH]5)C=C4)C=C3)cc1
REMARK SMILES IDX 7 1 6 2 5 3 4 4 3 5 1 6 2 7 31 9 32 10 96 11 33 12 95 13
REMARK SMILES IDX 34 14 35 15 36 16 89 17 37 18 94 19 88 20 90 21 38 22 93 23
REMARK SMILES IDX 87 24 86 25 39 27 73 28 52 29 72 30 53 31 56 32 71 33 91 34
REMARK SMILES IDX 54 35 55 36 70 38 92 39 57 40 40 41 41 42 50 43 42 44 43 45
REMARK SMILES IDX 49 46 51 47 44 48 45 49 46 50 47 51 48 52 74 53 75 54 84 55
REMARK SMILES IDX 76 56 77 57 83 58 85 59 78 60 79 61 80 62 81 63 82 64 58 65
REMARK SMILES IDX 59 66 68 67 60 68 61 69 67 70 69 71 62 72 63 73 64 74 65 75
REMARK SMILES IDX 66 76 8 77 9 78 10 79 11 80 12 82 13 83 14 84 30 85 15 86
REMARK SMILES IDX 28 87 16 88 29 89 17 90 18 91 19 92 20 93 21 95 22 96 23 97
REMARK SMILES IDX 24 98 27 99 25 101 26 102
REMARK H PARENT 3 8 90 26 56 37 10 81 20 94 23 100
REMARK Flexibility Score: inf
ROOT
ATOM      1  C   UNL A   1      34.736  23.333  25.168  1.00  0.00     0.002 C 
ENDROOT
BRANCH   1   2
ATOM      2  C   UNL A   1      35.801  24.143  25.913  1.00  0.00     0.002 C 
BRANCH   2   3
ATOM      3  C   UNL A   1      37.241  23.649  25.763  1.00  0.00     0.021 C 
BRANCH   3   4
ATOM      4  C   UNL A   1      38.281  24.410  26.578  1.00  0.00     0.116 C 
BRANCH   4   5
ATOM      5  N   UNL A   1      39.589  24.403  25.951  1.00  0.00    -0.352 N 
ATOM      6  O   UNL A   1      41.667  25.146  25.502  1.00  0.00    -0.269 OA
ATOM      7  C   UNL A   1      40.689  25.173  26.244  1.00  0.00     0.251 C 
ATOM      8  H   UNL A   1      39.706  23.759  25.216  1.00  0.00     0.163 HD
BRANCH   7   9
ATOM      9  C   UNL A   1      40.687  26.042  27.442  1.00  0.00     0.039 A 
ATOM     10  C   UNL A   1      41.616  27.078  27.581  1.00  0.00     0.014 A 
ATOM     11  C   UNL A   1      39.705  25.846  28.418  1.00  0.00     0.014 A 
ATOM     12  C   UNL A   1      41.613  27.865  28.730  1.00  0.00     0.010 A 
ATOM     13  C   UNL A   1      39.666  26.675  29.544  1.00  0.00     0.010 A 
ATOM     14  C   UNL A   1      40.622  27.688  29.708  1.00  0.00    -0.014 A 
BRANCH  14  15
ATOM     15  C   UNL A   1      40.518  28.657  30.828  1.00  0.00     0.031 A 
ATOM     16  C   UNL A   1      41.388  28.544  32.044  1.00  0.00     0.074 A 
ATOM     17  C   UNL A   1      39.607  29.646  30.727  1.00  0.00     0.049 A 
ATOM     18  N   UNL A   1      41.398  29.297  33.114  1.00  0.00    -0.248 NA
ATOM     19  C   UNL A   1      42.371  27.450  32.074  1.00  0.00     0.031 C 
ATOM     20  C   UNL A   1      38.694  29.833  29.594  1.00  0.00     0.029 A 
ATOM     21  N   UNL A   1      39.295  30.675  31.577  1.00  0.00    -0.354 N 
ATOM     22  C   UNL A   1      42.376  28.768  33.947  1.00  0.00     0.074 A 
ATOM     23  C   UNL A   1      42.930  27.617  33.267  1.00  0.00     0.031 C 
ATOM     24  C   UNL A   1      37.941  30.922  29.811  1.00  0.00     0.029 A 
ATOM     25  C   UNL A   1      38.278  31.478  31.116  1.00  0.00     0.049 A 
ATOM     26  H   UNL A   1      39.754  30.824  32.434  1.00  0.00     0.167 HD
ATOM     27  C   UNL A   1      42.771  29.212  35.163  1.00  0.00     0.037 A 
ATOM     28  C   UNL A   1      37.662  32.529  31.691  1.00  0.00     0.037 A 
ATOM     29  C   UNL A   1      42.225  30.374  35.818  1.00  0.00     0.049 A 
ATOM     30  C   UNL A   1      38.100  32.974  33.053  1.00  0.00     0.074 A 
ATOM     31  C   UNL A   1      42.615  30.943  37.018  1.00  0.00     0.029 A 
ATOM     32  N   UNL A   1      41.172  31.137  35.338  1.00  0.00    -0.354 N 
ATOM     33  N   UNL A   1      39.059  32.491  33.803  1.00  0.00    -0.248 NA
ATOM     34  C   UNL A   1      37.365  34.095  33.657  1.00  0.00     0.031 C 
ATOM     35  C   UNL A   1      41.770  32.025  37.285  1.00  0.00     0.029 A 
ATOM     36  C   UNL A   1      40.876  32.150  36.234  1.00  0.00     0.049 A 
ATOM     37  H   UNL A   1      40.703  30.981  34.485  1.00  0.00     0.167 HD
ATOM     38  C   UNL A   1      39.041  33.240  34.971  1.00  0.00     0.074 A 
ATOM     39  C   UNL A   1      37.992  34.228  34.820  1.00  0.00     0.031 C 
ATOM     40  C   UNL A   1      39.817  33.114  36.074  1.00  0.00     0.037 A 
BRANCH  27  41
ATOM     41  C   UNL A   1      43.852  28.462  35.887  1.00  0.00     0.058 A 
ATOM     42  C   UNL A   1      45.203  28.737  35.627  1.00  0.00     0.135 A 
ATOM     43  C   UNL A   1      43.550  27.381  36.729  1.00  0.00     0.135 A 
ATOM     44  F   UNL A   1      45.543  29.765  34.833  1.00  0.00    -0.206 F 
ATOM     45  C   UNL A   1      46.221  27.946  36.151  1.00  0.00     0.059 A 
ATOM     46  C   UNL A   1      44.553  26.584  37.277  1.00  0.00     0.059 A 
ATOM     47  F   UNL A   1      42.274  27.088  37.021  1.00  0.00    -0.206 F 
ATOM     48  C   UNL A   1      45.884  26.862  36.965  1.00  0.00     0.060 A 
BRANCH  48  49
ATOM     49  S   UNL A   1      47.213  25.828  37.616  1.00  0.00     0.124 S 
ATOM     50  O   UNL A   1      48.320  26.167  36.729  1.00  0.00    -0.237 OA
ATOM     51  O   UNL A   1      47.328  26.307  38.991  1.00  0.00    -0.237 OA
ATOM     52  O   UNL A   1      46.687  24.473  37.477  1.00  0.00    -0.744 OA
ENDBRANCH  48  49
ENDBRANCH  27  41
BRANCH  28  53
ATOM     53  C   UNL A   1      36.542  33.197  30.981  1.00  0.00     0.058 A 
ATOM     54  C   UNL A   1      36.784  34.036  29.882  1.00  0.00     0.135 A 
ATOM     55  C   UNL A   1      35.217  33.044  31.413  1.00  0.00     0.135 A 
ATOM     56  F   UNL A   1      38.037  34.221  29.439  1.00  0.00    -0.206 F 
ATOM     57  C   UNL A   1      35.755  34.724  29.251  1.00  0.00     0.059 A 
ATOM     58  C   UNL A   1      34.166  33.705  30.782  1.00  0.00     0.059 A 
ATOM     59  F   UNL A   1      34.939  32.244  32.453  1.00  0.00    -0.206 F 
ATOM     60  C   UNL A   1      34.448  34.556  29.714  1.00  0.00     0.060 A 
BRANCH  60  61
ATOM     61  S   UNL A   1      33.120  35.457  28.886  1.00  0.00     0.124 S 
ATOM     62  O   UNL A   1      32.507  34.399  28.088  1.00  0.00    -0.237 OA
ATOM     63  O   UNL A   1      32.328  35.945  30.009  1.00  0.00    -0.237 OA
ATOM     64  O   UNL A   1      33.833  36.483  28.132  1.00  0.00    -0.744 OA
ENDBRANCH  60  61
ENDBRANCH  28  53
BRANCH  40  65
ATOM     65  C   UNL A   1      39.552  34.047  37.217  1.00  0.00     0.058 A 
ATOM     66  C   UNL A   1      40.089  35.343  37.225  1.00  0.00     0.135 A 
ATOM     67  C   UNL A   1      38.831  33.622  38.343  1.00  0.00     0.135 A 
ATOM     68  F   UNL A   1      40.785  35.794  36.171  1.00  0.00    -0.206 F 
ATOM     69  C   UNL A   1      39.941  36.179  38.326  1.00  0.00     0.059 A 
ATOM     70  C   UNL A   1      38.654  34.449  39.447  1.00  0.00     0.059 A 
ATOM     71  F   UNL A   1      38.285  32.395  38.372  1.00  0.00    -0.206 F 
ATOM     72  C   UNL A   1      39.231  35.720  39.437  1.00  0.00     0.060 A 
BRANCH  72  73
ATOM     73  S   UNL A   1      39.055  36.814  40.861  1.00  0.00     0.124 S 
ATOM     74  O   UNL A   1      38.453  37.997  40.256  1.00  0.00    -0.237 OA
ATOM     75  O   UNL A   1      38.185  36.039  41.741  1.00  0.00    -0.237 OA
ATOM     76  O   UNL A   1      40.426  36.977  41.335  1.00  0.00    -0.744 OA
ENDBRANCH  72  73
ENDBRANCH  40  65
ENDBRANCH  14  15
ENDBRANCH   7   9
ENDBRANCH   4   5
ENDBRANCH   3   4
ENDBRANCH   2   3
ENDBRANCH   1   2
BRANCH   1  77
ATOM     77  C   UNL A   1      34.307  22.021  25.828  1.00  0.00     0.021 C 
BRANCH  77  78
ATOM     78  C   UNL A   1      32.907  21.525  25.475  1.00  0.00     0.116 C 
BRANCH  78  79
ATOM     79  N   UNL A   1      31.910  21.875  26.474  1.00  0.00    -0.352 N 
ATOM     80  C   UNL A   1      31.029  22.928  26.494  1.00  0.00     0.251 C 
ATOM     81  H   UNL A   1      31.860  21.271  27.249  1.00  0.00     0.163 HD
ATOM     82  O   UNL A   1      30.324  23.135  27.476  1.00  0.00    -0.269 OA
BRANCH  80  83
ATOM     83  C   UNL A   1      30.962  23.851  25.343  1.00  0.00     0.042 A 
ATOM     84  C   UNL A   1      31.122  23.392  24.031  1.00  0.00     0.015 A 
ATOM     85  C   UNL A   1      30.744  25.208  25.593  1.00  0.00     0.054 A 
ATOM     86  C   UNL A   1      31.198  24.312  22.987  1.00  0.00     0.026 A 
ATOM     87  C   UNL A   1      30.788  26.119  24.540  1.00  0.00     0.144 A 
ATOM     88  C   UNL A   1      31.064  25.684  23.250  1.00  0.00     0.118 A 
ATOM     89  F   UNL A   1      30.594  27.411  24.832  1.00  0.00    -0.205 F 
BRANCH  88  90
ATOM     90  S   UNL A   1      31.413  26.786  21.918  1.00  0.00     0.243 S 
ATOM     91  O   UNL A   1      31.546  25.967  20.734  1.00  0.00    -0.207 OA
ATOM     92  O   UNL A   1      30.434  27.849  22.001  1.00  0.00    -0.207 OA
BRANCH  90  93
ATOM     93  N   UNL A   1      32.886  27.494  22.213  1.00  0.00    -0.205 NA
ATOM     94  H   UNL A   1      33.282  27.714  21.299  1.00  0.00     0.141 HD
BRANCH  93  95
ATOM     95  C   UNL A   1      33.030  28.704  23.019  1.00  0.00     0.160 C 
BRANCH  95  96
ATOM     96  C   UNL A   1      33.711  28.508  24.383  1.00  0.00     0.278 C 
BRANCH  96  97
ATOM     97  N   UNL A   1      33.662  29.574  25.402  1.00  0.00    -0.334 N 
ATOM     98  C   UNL A   1      34.256  29.086  26.665  1.00  0.00     0.262 C 
ATOM     99  C   UNL A   1      32.347  30.077  25.794  1.00  0.00     0.262 C 
ATOM    100  H   UNL A   1      34.161  30.334  24.940  1.00  0.00     0.348 HD
ATOM    101  C   UNL A   1      33.092  28.435  27.399  1.00  0.00     0.067 C 
ATOM    102  C   UNL A   1      31.892  29.278  27.006  1.00  0.00     0.067 C 
ENDBRANCH  96  97
ENDBRANCH  95  96
ENDBRANCH  93  95
ENDBRANCH  90  93
ENDBRANCH  88  90
ENDBRANCH  80  83
ENDBRANCH  78  79
ENDBRANCH  77  78
ENDBRANCH   1  77
TORSDOF 21
ENDMDL
