MODEL 1
REMARK VINA RESULT:     -11.0      0.000      0.000
REMARK SMILES C[NH2+][C@](C)(C(=O)NCCCCCCNC(=O)c1ccc(-c2c3nc(c(-c4c(F)cc(S(=O)(=O)[O-])cc4F)c4ccc([nH]4)c(-c4c(F)cc(S(=O)(=O)[O-])cc4F)c4nc(c(-c5c(F)cc(S(=O)(=O)[O-])cc5F)c5ccc2[nH]5)C=C4)C=C3)cc1)c1cccc(Cl)c1
REMARK SMILES IDX 11 1 10 2 9 3 8 4 7 5 5 6 6 7 3 9 4 10 2 11 1 12 83 15 84 16
REMARK SMILES IDX 89 17 85 18 87 19 86 20 88 21 12 22 13 23 14 24 15 25 16 27
REMARK SMILES IDX 17 28 18 29 82 30 19 31 81 32 20 33 21 34 22 35 75 36 23 37
REMARK SMILES IDX 80 38 74 39 76 40 24 41 79 42 73 43 72 44 25 46 59 47 38 48
REMARK SMILES IDX 58 49 39 50 42 51 57 52 77 53 40 54 41 55 56 57 78 58 43 59
REMARK SMILES IDX 26 60 27 61 36 62 28 63 29 64 35 65 37 66 30 67 31 68 32 69
REMARK SMILES IDX 33 70 34 71 60 72 61 73 70 74 62 75 63 76 69 77 71 78 64 79
REMARK SMILES IDX 65 80 66 81 67 82 68 83 44 84 45 85 54 86 46 87 47 88 53 89
REMARK SMILES IDX 55 90 48 91 49 92 50 93 51 94 52 95
REMARK H PARENT 7 8 2 13 2 14 14 26 76 45 42 56
REMARK Flexibility Score: inf
ROOT
ATOM      1  C   UNL A   1      36.485  23.754  24.770  1.00  0.00     0.002 C 
ENDROOT
BRANCH   1   2
ATOM      2  C   UNL A   1      35.950  22.841  23.662  1.00  0.00     0.002 C 
BRANCH   2   3
ATOM      3  C   UNL A   1      34.671  23.343  22.985  1.00  0.00     0.021 C 
BRANCH   3   4
ATOM      4  C   UNL A   1      34.086  24.598  23.632  1.00  0.00     0.116 C 
BRANCH   4   5
ATOM      5  N   UNL A   1      32.702  24.764  23.240  1.00  0.00    -0.350 N 
ATOM      6  C   UNL A   1      31.547  24.443  23.899  1.00  0.00     0.285 C 
ATOM      7  O   UNL A   1      30.513  24.531  23.226  1.00  0.00    -0.267 OA
ATOM      8  H   UNL A   1      32.570  25.174  22.355  1.00  0.00     0.163 HD
BRANCH   6   9
ATOM      9  C   UNL A   1      31.555  23.965  25.422  1.00  0.00     0.198 C 
ATOM     10  C   UNL A   1      32.252  25.104  26.209  1.00  0.00     0.096 C 
BRANCH   9  11
ATOM     11  N   UNL A   1      30.135  23.723  25.804  1.00  0.00    -0.332 N 
ATOM     12  C   UNL A   1      29.888  23.055  27.067  1.00  0.00     0.332 C 
ATOM     13  H   UNL A   1      29.669  24.629  25.843  1.00  0.00     0.347 HD
ATOM     14  H   UNL A   1      29.779  23.081  25.097  1.00  0.00     0.347 HD
ENDBRANCH   9  11
BRANCH   9  15
ATOM     15  C   UNL A   1      32.345  22.629  25.553  1.00  0.00     0.023 A 
ATOM     16  C   UNL A   1      33.347  22.426  26.521  1.00  0.00     0.011 A 
ATOM     17  C   UNL A   1      32.093  21.568  24.654  1.00  0.00     0.031 A 
ATOM     18  C   UNL A   1      34.112  21.256  26.542  1.00  0.00     0.002 A 
ATOM     19  C   UNL A   1      32.867  20.406  24.672  1.00  0.00     0.041 A 
ATOM     20  C   UNL A   1      33.883  20.250  25.607  1.00  0.00     0.020 A 
ATOM     21  Cl  UNL A   1      32.581  19.167  23.512  1.00  0.00    -0.084 Cl
ENDBRANCH   9  15
ENDBRANCH   6   9
ENDBRANCH   4   5
ENDBRANCH   3   4
ENDBRANCH   2   3
ENDBRANCH   1   2
BRANCH   1  22
ATOM     22  C   UNL A   1      37.500  23.097  25.709  1.00  0.00     0.021 C 
BRANCH  22  23
ATOM     23  C   UNL A   1      38.373  24.082  26.479  1.00  0.00     0.116 C 
BRANCH  23  24
ATOM     24  N   UNL A   1      39.788  23.865  26.226  1.00  0.00    -0.352 N 
ATOM     25  C   UNL A   1      40.864  24.638  26.589  1.00  0.00     0.251 C 
ATOM     26  H   UNL A   1      40.006  23.047  25.722  1.00  0.00     0.163 HD
ATOM     27  O   UNL A   1      41.968  24.425  26.103  1.00  0.00    -0.269 OA
BRANCH  25  28
ATOM     28  C   UNL A   1      40.670  25.738  27.555  1.00  0.00     0.039 A 
ATOM     29  C   UNL A   1      39.694  25.607  28.546  1.00  0.00     0.014 A 
ATOM     30  C   UNL A   1      41.462  26.889  27.490  1.00  0.00     0.014 A 
ATOM     31  C   UNL A   1      39.562  26.602  29.516  1.00  0.00     0.010 A 
ATOM     32  C   UNL A   1      41.378  27.843  28.499  1.00  0.00     0.010 A 
ATOM     33  C   UNL A   1      40.430  27.706  29.526  1.00  0.00    -0.014 A 
BRANCH  33  34
ATOM     34  C   UNL A   1      40.386  28.715  30.616  1.00  0.00     0.031 A 
ATOM     35  C   UNL A   1      41.278  28.573  31.817  1.00  0.00     0.074 A 
ATOM     36  C   UNL A   1      39.484  29.715  30.555  1.00  0.00     0.049 A 
ATOM     37  N   UNL A   1      41.320  29.299  32.903  1.00  0.00    -0.248 NA
ATOM     38  C   UNL A   1      42.234  27.452  31.806  1.00  0.00     0.031 C 
ATOM     39  C   UNL A   1      38.535  29.932  29.459  1.00  0.00     0.029 A 
ATOM     40  N   UNL A   1      39.206  30.728  31.436  1.00  0.00    -0.354 N 
ATOM     41  C   UNL A   1      42.295  28.721  33.709  1.00  0.00     0.074 A 
ATOM     42  C   UNL A   1      42.783  27.554  33.008  1.00  0.00     0.031 C 
ATOM     43  C   UNL A   1      37.794  31.018  29.726  1.00  0.00     0.029 A 
ATOM     44  C   UNL A   1      38.178  31.548  31.031  1.00  0.00     0.049 A 
ATOM     45  H   UNL A   1      39.696  30.857  32.282  1.00  0.00     0.167 HD
ATOM     46  C   UNL A   1      42.753  29.139  34.913  1.00  0.00     0.037 A 
ATOM     47  C   UNL A   1      37.597  32.596  31.647  1.00  0.00     0.037 A 
ATOM     48  C   UNL A   1      42.268  30.312  35.596  1.00  0.00     0.049 A 
ATOM     49  C   UNL A   1      38.105  33.024  32.998  1.00  0.00     0.074 A 
ATOM     50  C   UNL A   1      42.707  30.850  36.792  1.00  0.00     0.029 A 
ATOM     51  N   UNL A   1      41.232  31.120  35.150  1.00  0.00    -0.354 N 
ATOM     52  N   UNL A   1      39.074  32.507  33.715  1.00  0.00    -0.248 NA
ATOM     53  C   UNL A   1      37.442  34.176  33.625  1.00  0.00     0.031 C 
ATOM     54  C   UNL A   1      41.898  31.949  37.098  1.00  0.00     0.029 A 
ATOM     55  C   UNL A   1      40.996  32.134  36.064  1.00  0.00     0.049 A 
ATOM     56  H   UNL A   1      40.738  30.991  34.308  1.00  0.00     0.167 HD
ATOM     57  C   UNL A   1      39.154  33.285  34.864  1.00  0.00     0.074 A 
ATOM     58  C   UNL A   1      38.145  34.317  34.740  1.00  0.00     0.031 C 
ATOM     59  C   UNL A   1      39.989  33.158  35.925  1.00  0.00     0.037 A 
BRANCH  46  60
ATOM     60  C   UNL A   1      43.832  28.324  35.575  1.00  0.00     0.058 A 
ATOM     61  C   UNL A   1      45.192  28.536  35.300  1.00  0.00     0.135 A 
ATOM     62  C   UNL A   1      43.504  27.347  36.529  1.00  0.00     0.135 A 
ATOM     63  F   UNL A   1      45.565  29.447  34.386  1.00  0.00    -0.206 F 
ATOM     64  C   UNL A   1      46.187  27.792  35.926  1.00  0.00     0.059 A 
ATOM     65  C   UNL A   1      44.483  26.612  37.191  1.00  0.00     0.059 A 
ATOM     66  F   UNL A   1      42.219  27.101  36.831  1.00  0.00    -0.206 F 
ATOM     67  C   UNL A   1      45.821  26.832  36.872  1.00  0.00     0.060 A 
BRANCH  67  68
ATOM     68  S   UNL A   1      47.126  25.880  37.679  1.00  0.00     0.124 S 
ATOM     69  O   UNL A   1      48.260  26.793  37.575  1.00  0.00    -0.237 OA
ATOM     70  O   UNL A   1      46.586  25.692  39.023  1.00  0.00    -0.237 OA
ATOM     71  O   UNL A   1      47.217  24.671  36.868  1.00  0.00    -0.744 OA
ENDBRANCH  67  68
ENDBRANCH  46  60
BRANCH  47  72
ATOM     72  C   UNL A   1      36.474  33.317  30.989  1.00  0.00     0.058 A 
ATOM     73  C   UNL A   1      36.692  34.117  29.858  1.00  0.00     0.135 A 
ATOM     74  C   UNL A   1      35.158  33.209  31.467  1.00  0.00     0.135 A 
ATOM     75  F   UNL A   1      37.932  34.258  29.365  1.00  0.00    -0.206 F 
ATOM     76  C   UNL A   1      35.652  34.798  29.233  1.00  0.00     0.059 A 
ATOM     77  C   UNL A   1      34.097  33.857  30.844  1.00  0.00     0.059 A 
ATOM     78  F   UNL A   1      34.892  32.443  32.537  1.00  0.00    -0.206 F 
ATOM     79  C   UNL A   1      34.355  34.658  29.733  1.00  0.00     0.060 A 
BRANCH  79  80
ATOM     80  S   UNL A   1      33.006  35.510  28.888  1.00  0.00     0.124 S 
ATOM     81  O   UNL A   1      33.733  36.466  28.061  1.00  0.00    -0.237 OA
ATOM     82  O   UNL A   1      32.353  34.415  28.176  1.00  0.00    -0.237 OA
ATOM     83  O   UNL A   1      32.232  36.084  29.985  1.00  0.00    -0.744 OA
ENDBRANCH  79  80
ENDBRANCH  47  72
BRANCH  59  84
ATOM     84  C   UNL A   1      39.871  34.172  37.030  1.00  0.00     0.058 A 
ATOM     85  C   UNL A   1      40.330  35.489  36.877  1.00  0.00     0.135 A 
ATOM     86  C   UNL A   1      39.224  33.839  38.233  1.00  0.00     0.135 A 
ATOM     87  F   UNL A   1      40.964  35.858  35.753  1.00  0.00    -0.206 F 
ATOM     88  C   UNL A   1      40.167  36.436  37.884  1.00  0.00     0.059 A 
ATOM     89  C   UNL A   1      39.023  34.777  39.239  1.00  0.00     0.059 A 
ATOM     90  F   UNL A   1      38.758  32.596  38.428  1.00  0.00    -0.206 F 
ATOM     91  C   UNL A   1      39.505  36.073  39.058  1.00  0.00     0.060 A 
BRANCH  91  92
ATOM     92  S   UNL A   1      39.253  37.328  40.331  1.00  0.00     0.124 S 
ATOM     93  O   UNL A   1      38.598  38.389  39.574  1.00  0.00    -0.237 OA
ATOM     94  O   UNL A   1      38.413  36.626  41.297  1.00  0.00    -0.237 OA
ATOM     95  O   UNL A   1      40.607  37.627  40.788  1.00  0.00    -0.744 OA
ENDBRANCH  91  92
ENDBRANCH  59  84
ENDBRANCH  33  34
ENDBRANCH  25  28
ENDBRANCH  23  24
ENDBRANCH  22  23
ENDBRANCH   1  22
TORSDOF 18
ENDMDL
MODEL 2
REMARK VINA RESULT:     -10.7      5.599     12.265
REMARK SMILES C[NH2+][C@](C)(C(=O)NCCCCCCNC(=O)c1ccc(-c2c3nc(c(-c4c(F)cc(S(=O)(=O)[O-])cc4F)c4ccc([nH]4)c(-c4c(F)cc(S(=O)(=O)[O-])cc4F)c4nc(c(-c5c(F)cc(S(=O)(=O)[O-])cc5F)c5ccc2[nH]5)C=C4)C=C3)cc1)c1cccc(Cl)c1
REMARK SMILES IDX 11 1 10 2 9 3 8 4 7 5 5 6 6 7 3 9 4 10 2 11 1 12 83 15 84 16
REMARK SMILES IDX 89 17 85 18 87 19 86 20 88 21 12 22 13 23 14 24 15 25 16 27
REMARK SMILES IDX 17 28 18 29 82 30 19 31 81 32 20 33 21 34 22 35 75 36 23 37
REMARK SMILES IDX 80 38 74 39 76 40 24 41 79 42 73 43 72 44 25 46 59 47 38 48
REMARK SMILES IDX 58 49 39 50 42 51 57 52 77 53 40 54 41 55 56 57 78 58 43 59
REMARK SMILES IDX 26 60 27 61 36 62 28 63 29 64 35 65 37 66 30 67 31 68 32 69
REMARK SMILES IDX 33 70 34 71 60 72 61 73 70 74 62 75 63 76 69 77 71 78 64 79
REMARK SMILES IDX 65 80 66 81 67 82 68 83 44 84 45 85 54 86 46 87 47 88 53 89
REMARK SMILES IDX 55 90 48 91 49 92 50 93 51 94 52 95
REMARK H PARENT 7 8 2 13 2 14 14 26 76 45 42 56
REMARK Flexibility Score: inf
ROOT
ATOM      1  C   UNL A   1      35.987  32.698  31.524  1.00  0.00     0.002 C 
ENDROOT
BRANCH   1   2
ATOM      2  C   UNL A   1      37.284  32.900  30.734  1.00  0.00     0.002 C 
BRANCH   2   3
ATOM      3  C   UNL A   1      37.980  34.242  30.983  1.00  0.00     0.021 C 
BRANCH   3   4
ATOM      4  C   UNL A   1      38.724  34.308  32.316  1.00  0.00     0.116 C 
BRANCH   4   5
ATOM      5  N   UNL A   1      37.782  34.431  33.410  1.00  0.00    -0.350 N 
ATOM      6  C   UNL A   1      37.778  33.851  34.648  1.00  0.00     0.285 C 
ATOM      7  O   UNL A   1      36.736  34.001  35.297  1.00  0.00    -0.267 OA
ATOM      8  H   UNL A   1      37.021  35.030  33.233  1.00  0.00     0.163 HD
BRANCH   6   9
ATOM      9  C   UNL A   1      39.028  33.020  35.191  1.00  0.00     0.198 C 
ATOM     10  C   UNL A   1      40.255  33.946  34.996  1.00  0.00     0.096 C 
BRANCH   9  11
ATOM     11  N   UNL A   1      38.730  32.671  36.609  1.00  0.00    -0.332 N 
ATOM     12  C   UNL A   1      39.063  33.654  37.621  1.00  0.00     0.332 C 
ATOM     13  H   UNL A   1      37.729  32.489  36.676  1.00  0.00     0.347 HD
ATOM     14  H   UNL A   1      39.331  31.873  36.813  1.00  0.00     0.347 HD
ENDBRANCH   9  11
BRANCH   9  15
ATOM     15  C   UNL A   1      39.184  31.704  34.372  1.00  0.00     0.023 A 
ATOM     16  C   UNL A   1      38.085  30.990  33.858  1.00  0.00     0.011 A 
ATOM     17  C   UNL A   1      40.468  31.159  34.147  1.00  0.00     0.031 A 
ATOM     18  C   UNL A   1      38.252  29.756  33.221  1.00  0.00     0.002 A 
ATOM     19  C   UNL A   1      40.629  29.921  33.520  1.00  0.00     0.041 A 
ATOM     20  C   UNL A   1      39.524  29.213  33.066  1.00  0.00     0.020 A 
ATOM     21  Cl  UNL A   1      42.204  29.253  33.333  1.00  0.00    -0.084 Cl
ENDBRANCH   9  15
ENDBRANCH   6   9
ENDBRANCH   4   5
ENDBRANCH   3   4
ENDBRANCH   2   3
ENDBRANCH   1   2
BRANCH   1  22
ATOM     22  C   UNL A   1      34.704  32.866  30.707  1.00  0.00     0.021 C 
BRANCH  22  23
ATOM     23  C   UNL A   1      34.899  32.748  29.199  1.00  0.00     0.116 C 
BRANCH  23  24
ATOM     24  N   UNL A   1      34.067  31.702  28.626  1.00  0.00    -0.352 N 
ATOM     25  C   UNL A   1      34.435  30.479  28.121  1.00  0.00     0.251 C 
ATOM     26  H   UNL A   1      33.103  31.899  28.595  1.00  0.00     0.163 HD
ATOM     27  O   UNL A   1      33.637  29.813  27.474  1.00  0.00    -0.269 OA
BRANCH  25  28
ATOM     28  C   UNL A   1      35.808  29.986  28.350  1.00  0.00     0.039 A 
ATOM     29  C   UNL A   1      36.742  30.072  27.314  1.00  0.00     0.014 A 
ATOM     30  C   UNL A   1      36.175  29.455  29.590  1.00  0.00     0.014 A 
ATOM     31  C   UNL A   1      38.064  29.689  27.547  1.00  0.00     0.010 A 
ATOM     32  C   UNL A   1      37.508  29.143  29.841  1.00  0.00     0.010 A 
ATOM     33  C   UNL A   1      38.467  29.263  28.823  1.00  0.00    -0.014 A 
BRANCH  33  34
ATOM     34  C   UNL A   1      39.891  28.966  29.125  1.00  0.00     0.031 A 
ATOM     35  C   UNL A   1      40.778  30.026  29.716  1.00  0.00     0.074 A 
ATOM     36  C   UNL A   1      40.400  27.762  28.792  1.00  0.00     0.049 A 
ATOM     37  N   UNL A   1      42.061  29.982  29.965  1.00  0.00    -0.248 NA
ATOM     38  C   UNL A   1      40.145  31.312  30.049  1.00  0.00     0.031 C 
ATOM     39  C   UNL A   1      39.647  26.668  28.173  1.00  0.00     0.029 A 
ATOM     40  N   UNL A   1      41.671  27.261  28.912  1.00  0.00    -0.354 N 
ATOM     41  C   UNL A   1      42.392  31.233  30.473  1.00  0.00     0.074 A 
ATOM     42  C   UNL A   1      41.185  32.030  30.449  1.00  0.00     0.031 C 
ATOM     43  C   UNL A   1      40.465  25.621  27.986  1.00  0.00     0.029 A 
ATOM     44  C   UNL A   1      41.810  25.982  28.423  1.00  0.00     0.049 A 
ATOM     45  H   UNL A   1      42.415  27.769  29.311  1.00  0.00     0.167 HD
ATOM     46  C   UNL A   1      43.588  31.668  30.937  1.00  0.00     0.037 A 
ATOM     47  C   UNL A   1      42.899  25.196  28.322  1.00  0.00     0.037 A 
ATOM     48  C   UNL A   1      44.781  30.860  30.969  1.00  0.00     0.049 A 
ATOM     49  C   UNL A   1      44.223  25.712  28.817  1.00  0.00     0.074 A 
ATOM     50  C   UNL A   1      46.027  31.190  31.471  1.00  0.00     0.029 A 
ATOM     51  N   UNL A   1      44.879  29.568  30.472  1.00  0.00    -0.354 N 
ATOM     52  N   UNL A   1      44.504  26.874  29.358  1.00  0.00    -0.248 NA
ATOM     53  C   UNL A   1      45.379  24.814  28.689  1.00  0.00     0.031 C 
ATOM     54  C   UNL A   1      46.893  30.120  31.225  1.00  0.00     0.029 A 
ATOM     55  C   UNL A   1      46.174  29.099  30.626  1.00  0.00     0.049 A 
ATOM     56  H   UNL A   1      44.138  29.060  30.069  1.00  0.00     0.167 HD
ATOM     57  C   UNL A   1      45.861  26.836  29.658  1.00  0.00     0.074 A 
ATOM     58  C   UNL A   1      46.341  25.532  29.251  1.00  0.00     0.031 C 
ATOM     59  C   UNL A   1      46.638  27.795  30.221  1.00  0.00     0.037 A 
BRANCH  46  60
ATOM     60  C   UNL A   1      43.671  33.083  31.444  1.00  0.00     0.058 A 
ATOM     61  C   UNL A   1      43.521  33.389  32.805  1.00  0.00     0.135 A 
ATOM     62  C   UNL A   1      43.950  34.141  30.564  1.00  0.00     0.135 A 
ATOM     63  F   UNL A   1      43.239  32.421  33.692  1.00  0.00    -0.206 F 
ATOM     64  C   UNL A   1      43.615  34.697  33.273  1.00  0.00     0.059 A 
ATOM     65  C   UNL A   1      44.080  35.452  31.012  1.00  0.00     0.059 A 
ATOM     66  F   UNL A   1      44.103  33.906  29.251  1.00  0.00    -0.206 F 
ATOM     67  C   UNL A   1      43.896  35.722  32.367  1.00  0.00     0.060 A 
BRANCH  67  68
ATOM     68  S   UNL A   1      44.022  37.410  32.992  1.00  0.00     0.124 S 
ATOM     69  O   UNL A   1      43.878  38.187  31.765  1.00  0.00    -0.237 OA
ATOM     70  O   UNL A   1      42.899  37.482  33.922  1.00  0.00    -0.237 OA
ATOM     71  O   UNL A   1      45.345  37.449  33.607  1.00  0.00    -0.744 OA
ENDBRANCH  67  68
ENDBRANCH  46  60
BRANCH  47  72
ATOM     72  C   UNL A   1      42.781  23.835  27.732  1.00  0.00     0.058 A 
ATOM     73  C   UNL A   1      42.567  22.711  28.542  1.00  0.00     0.135 A 
ATOM     74  C   UNL A   1      42.865  23.632  26.344  1.00  0.00     0.135 A 
ATOM     75  F   UNL A   1      42.485  22.851  29.874  1.00  0.00    -0.206 F 
ATOM     76  C   UNL A   1      42.457  21.432  28.005  1.00  0.00     0.059 A 
ATOM     77  C   UNL A   1      42.730  22.368  25.780  1.00  0.00     0.059 A 
ATOM     78  F   UNL A   1      43.053  24.675  25.522  1.00  0.00    -0.206 F 
ATOM     79  C   UNL A   1      42.536  21.272  26.620  1.00  0.00     0.060 A 
BRANCH  79  80
ATOM     80  S   UNL A   1      42.347  19.615  25.928  1.00  0.00     0.124 S 
ATOM     81  O   UNL A   1      40.948  19.626  25.516  1.00  0.00    -0.237 OA
ATOM     82  O   UNL A   1      43.332  19.620  24.851  1.00  0.00    -0.237 OA
ATOM     83  O   UNL A   1      42.667  18.742  27.055  1.00  0.00    -0.744 OA
ENDBRANCH  79  80
ENDBRANCH  47  72
BRANCH  59  84
ATOM     84  C   UNL A   1      48.087  27.467  30.457  1.00  0.00     0.058 A 
ATOM     85  C   UNL A   1      48.491  26.613  31.494  1.00  0.00     0.135 A 
ATOM     86  C   UNL A   1      49.077  27.958  29.589  1.00  0.00     0.135 A 
ATOM     87  F   UNL A   1      47.587  26.122  32.358  1.00  0.00    -0.206 F 
ATOM     88  C   UNL A   1      49.828  26.269  31.673  1.00  0.00     0.059 A 
ATOM     89  C   UNL A   1      50.414  27.604  29.731  1.00  0.00     0.059 A 
ATOM     90  F   UNL A   1      48.744  28.772  28.576  1.00  0.00    -0.206 F 
ATOM     91  C   UNL A   1      50.781  26.764  30.782  1.00  0.00     0.060 A 
BRANCH  91  92
ATOM     92  S   UNL A   1      52.503  26.265  30.995  1.00  0.00     0.124 S 
ATOM     93  O   UNL A   1      53.041  27.383  31.763  1.00  0.00    -0.237 OA
ATOM     94  O   UNL A   1      52.374  25.003  31.717  1.00  0.00    -0.237 OA
ATOM     95  O   UNL A   1      52.996  26.149  29.626  1.00  0.00    -0.744 OA
ENDBRANCH  91  92
ENDBRANCH  59  84
ENDBRANCH  33  34
ENDBRANCH  25  28
ENDBRANCH  23  24
ENDBRANCH  22  23
ENDBRANCH   1  22
TORSDOF 18
ENDMDL
MODEL 3
REMARK VINA RESULT:     -10.6      4.827     10.377
REMARK SMILES C[NH2+][C@](C)(C(=O)NCCCCCCNC(=O)c1ccc(-c2c3nc(c(-c4c(F)cc(S(=O)(=O)[O-])cc4F)c4ccc([nH]4)c(-c4c(F)cc(S(=O)(=O)[O-])cc4F)c4nc(c(-c5c(F)cc(S(=O)(=O)[O-])cc5F)c5ccc2[nH]5)C=C4)C=C3)cc1)c1cccc(Cl)c1
REMARK SMILES IDX 11 1 10 2 9 3 8 4 7 5 5 6 6 7 3 9 4 10 2 11 1 12 83 15 84 16
REMARK SMILES IDX 89 17 85 18 87 19 86 20 88 21 12 22 13 23 14 24 15 25 16 27
REMARK SMILES IDX 17 28 18 29 82 30 19 31 81 32 20 33 21 34 22 35 75 36 23 37
REMARK SMILES IDX 80 38 74 39 76 40 24 41 79 42 73 43 72 44 25 46 59 47 38 48
REMARK SMILES IDX 58 49 39 50 42 51 57 52 77 53 40 54 41 55 56 57 78 58 43 59
REMARK SMILES IDX 26 60 27 61 36 62 28 63 29 64 35 65 37 66 30 67 31 68 32 69
REMARK SMILES IDX 33 70 34 71 60 72 61 73 70 74 62 75 63 76 69 77 71 78 64 79
REMARK SMILES IDX 65 80 66 81 67 82 68 83 44 84 45 85 54 86 46 87 47 88 53 89
REMARK SMILES IDX 55 90 48 91 49 92 50 93 51 94 52 95
REMARK H PARENT 7 8 2 13 2 14 14 26 76 45 42 56
REMARK Flexibility Score: inf
ROOT
ATOM      1  C   UNL A   1      31.448  27.890  26.050  1.00  0.00     0.002 C 
ENDROOT
BRANCH   1   2
ATOM      2  C   UNL A   1      31.020  26.650  25.258  1.00  0.00     0.002 C 
BRANCH   2   3
ATOM      3  C   UNL A   1      30.134  25.672  26.035  1.00  0.00     0.021 C 
BRANCH   3   4
ATOM      4  C   UNL A   1      30.544  24.208  25.871  1.00  0.00     0.116 C 
BRANCH   4   5
ATOM      5  N   UNL A   1      31.249  23.751  27.051  1.00  0.00    -0.350 N 
ATOM      6  C   UNL A   1      32.268  22.849  27.183  1.00  0.00     0.285 C 
ATOM      7  O   UNL A   1      32.535  22.522  28.346  1.00  0.00    -0.267 OA
ATOM      8  H   UNL A   1      30.944  24.155  27.895  1.00  0.00     0.163 HD
BRANCH   6   9
ATOM      9  C   UNL A   1      33.029  22.249  25.915  1.00  0.00     0.198 C 
ATOM     10  C   UNL A   1      34.270  21.516  26.487  1.00  0.00     0.096 C 
BRANCH   9  11
ATOM     11  N   UNL A   1      32.058  21.368  25.206  1.00  0.00    -0.332 N 
ATOM     12  C   UNL A   1      32.470  20.004  24.935  1.00  0.00     0.332 C 
ATOM     13  H   UNL A   1      31.213  21.325  25.774  1.00  0.00     0.347 HD
ATOM     14  H   UNL A   1      31.943  21.793  24.287  1.00  0.00     0.347 HD
ENDBRANCH   9  11
BRANCH   9  15
ATOM     15  C   UNL A   1      33.452  23.403  24.958  1.00  0.00     0.023 A 
ATOM     16  C   UNL A   1      34.150  24.543  25.399  1.00  0.00     0.011 A 
ATOM     17  C   UNL A   1      33.105  23.349  23.589  1.00  0.00     0.031 A 
ATOM     18  C   UNL A   1      34.419  25.611  24.536  1.00  0.00     0.002 A 
ATOM     19  C   UNL A   1      33.367  24.422  22.734  1.00  0.00     0.041 A 
ATOM     20  C   UNL A   1      34.013  25.557  23.206  1.00  0.00     0.020 A 
ATOM     21  Cl  UNL A   1      32.861  24.351  21.090  1.00  0.00    -0.084 Cl
ENDBRANCH   9  15
ENDBRANCH   6   9
ENDBRANCH   4   5
ENDBRANCH   3   4
ENDBRANCH   2   3
ENDBRANCH   1   2
BRANCH   1  22
ATOM     22  C   UNL A   1      32.667  27.686  26.953  1.00  0.00     0.021 C 
BRANCH  22  23
ATOM     23  C   UNL A   1      33.859  28.572  26.609  1.00  0.00     0.116 C 
BRANCH  23  24
ATOM     24  N   UNL A   1      33.711  29.914  27.148  1.00  0.00    -0.352 N 
ATOM     25  C   UNL A   1      34.546  30.608  27.990  1.00  0.00     0.251 C 
ATOM     26  H   UNL A   1      32.897  30.393  26.871  1.00  0.00     0.163 HD
ATOM     27  O   UNL A   1      34.162  31.642  28.523  1.00  0.00    -0.269 OA
BRANCH  25  28
ATOM     28  C   UNL A   1      35.900  30.086  28.257  1.00  0.00     0.039 A 
ATOM     29  C   UNL A   1      36.862  30.143  27.246  1.00  0.00     0.014 A 
ATOM     30  C   UNL A   1      36.223  29.555  29.510  1.00  0.00     0.014 A 
ATOM     31  C   UNL A   1      38.169  29.732  27.516  1.00  0.00     0.010 A 
ATOM     32  C   UNL A   1      37.541  29.215  29.798  1.00  0.00     0.010 A 
ATOM     33  C   UNL A   1      38.529  29.306  28.805  1.00  0.00    -0.014 A 
BRANCH  33  34
ATOM     34  C   UNL A   1      39.937  28.978  29.145  1.00  0.00     0.031 A 
ATOM     35  C   UNL A   1      40.824  30.012  29.781  1.00  0.00     0.074 A 
ATOM     36  C   UNL A   1      40.436  27.772  28.808  1.00  0.00     0.049 A 
ATOM     37  N   UNL A   1      42.097  29.942  30.069  1.00  0.00    -0.248 NA
ATOM     38  C   UNL A   1      40.203  31.304  30.116  1.00  0.00     0.031 C 
ATOM     39  C   UNL A   1      39.683  26.701  28.147  1.00  0.00     0.029 A 
ATOM     40  N   UNL A   1      41.693  27.245  28.958  1.00  0.00    -0.354 N 
ATOM     41  C   UNL A   1      42.434  31.178  30.608  1.00  0.00     0.074 A 
ATOM     42  C   UNL A   1      41.242  31.997  30.560  1.00  0.00     0.031 C 
ATOM     43  C   UNL A   1      40.489  25.643  27.968  1.00  0.00     0.029 A 
ATOM     44  C   UNL A   1      41.825  25.973  28.453  1.00  0.00     0.049 A 
ATOM     45  H   UNL A   1      42.433  27.733  29.388  1.00  0.00     0.167 HD
ATOM     46  C   UNL A   1      43.623  31.584  31.115  1.00  0.00     0.037 A 
ATOM     47  C   UNL A   1      42.903  25.169  28.372  1.00  0.00     0.037 A 
ATOM     48  C   UNL A   1      44.799  30.754  31.171  1.00  0.00     0.049 A 
ATOM     49  C   UNL A   1      44.220  25.653  28.916  1.00  0.00     0.074 A 
ATOM     50  C   UNL A   1      46.035  31.054  31.717  1.00  0.00     0.029 A 
ATOM     51  N   UNL A   1      44.891  29.469  30.656  1.00  0.00    -0.354 N 
ATOM     52  N   UNL A   1      44.504  26.801  29.485  1.00  0.00    -0.248 NA
ATOM     53  C   UNL A   1      45.363  24.737  28.809  1.00  0.00     0.031 C 
ATOM     54  C   UNL A   1      46.890  29.973  31.480  1.00  0.00     0.029 A 
ATOM     55  C   UNL A   1      46.171  28.975  30.842  1.00  0.00     0.049 A 
ATOM     56  H   UNL A   1      44.154  28.981  30.222  1.00  0.00     0.167 HD
ATOM     57  C   UNL A   1      45.850  26.734  29.826  1.00  0.00     0.074 A 
ATOM     58  C   UNL A   1      46.320  25.428  29.412  1.00  0.00     0.031 C 
ATOM     59  C   UNL A   1      46.625  27.670  30.428  1.00  0.00     0.037 A 
BRANCH  46  60
ATOM     60  C   UNL A   1      43.714  32.989  31.649  1.00  0.00     0.058 A 
ATOM     61  C   UNL A   1      43.945  34.086  30.805  1.00  0.00     0.135 A 
ATOM     62  C   UNL A   1      43.523  33.245  33.017  1.00  0.00     0.135 A 
ATOM     63  F   UNL A   1      44.148  33.900  29.491  1.00  0.00    -0.206 F 
ATOM     64  C   UNL A   1      44.012  35.385  31.301  1.00  0.00     0.059 A 
ATOM     65  C   UNL A   1      43.554  34.538  33.530  1.00  0.00     0.059 A 
ATOM     66  F   UNL A   1      43.300  32.234  33.870  1.00  0.00    -0.206 F 
ATOM     67  C   UNL A   1      43.814  35.601  32.666  1.00  0.00     0.060 A 
BRANCH  67  68
ATOM     68  S   UNL A   1      43.897  37.292  33.290  1.00  0.00     0.124 S 
ATOM     69  O   UNL A   1      43.975  38.057  32.049  1.00  0.00    -0.237 OA
ATOM     70  O   UNL A   1      42.644  37.413  34.030  1.00  0.00    -0.237 OA
ATOM     71  O   UNL A   1      45.106  37.296  34.106  1.00  0.00    -0.744 OA
ENDBRANCH  67  68
ENDBRANCH  46  60
BRANCH  47  72
ATOM     72  C   UNL A   1      42.780  23.820  27.755  1.00  0.00     0.058 A 
ATOM     73  C   UNL A   1      42.961  23.636  26.377  1.00  0.00     0.135 A 
ATOM     74  C   UNL A   1      42.493  22.686  28.532  1.00  0.00     0.135 A 
ATOM     75  F   UNL A   1      43.230  24.688  25.589  1.00  0.00    -0.206 F 
ATOM     76  C   UNL A   1      42.847  22.381  25.786  1.00  0.00     0.059 A 
ATOM     77  C   UNL A   1      42.402  21.417  27.969  1.00  0.00     0.059 A 
ATOM     78  F   UNL A   1      42.326  22.804  29.859  1.00  0.00    -0.206 F 
ATOM     79  C   UNL A   1      42.570  21.276  26.593  1.00  0.00     0.060 A 
BRANCH  79  80
ATOM     80  S   UNL A   1      42.469  19.646  25.823  1.00  0.00     0.124 S 
ATOM     81  O   UNL A   1      42.848  18.774  26.930  1.00  0.00    -0.237 OA
ATOM     82  O   UNL A   1      41.069  19.589  25.414  1.00  0.00    -0.237 OA
ATOM     83  O   UNL A   1      43.431  19.731  24.728  1.00  0.00    -0.744 OA
ENDBRANCH  79  80
ENDBRANCH  47  72
BRANCH  59  84
ATOM     84  C   UNL A   1      48.060  27.311  30.704  1.00  0.00     0.058 A 
ATOM     85  C   UNL A   1      48.424  26.500  31.790  1.00  0.00     0.135 A 
ATOM     86  C   UNL A   1      49.077  27.729  29.828  1.00  0.00     0.135 A 
ATOM     87  F   UNL A   1      47.494  26.081  32.663  1.00  0.00    -0.206 F 
ATOM     88  C   UNL A   1      49.747  26.127  32.007  1.00  0.00     0.059 A 
ATOM     89  C   UNL A   1      50.401  27.343  30.008  1.00  0.00     0.059 A 
ATOM     90  F   UNL A   1      48.783  28.499  28.770  1.00  0.00    -0.206 F 
ATOM     91  C   UNL A   1      50.728  26.547  31.106  1.00  0.00     0.060 A 
BRANCH  91  92
ATOM     92  S   UNL A   1      52.431  26.010  31.371  1.00  0.00     0.124 S 
ATOM     93  O   UNL A   1      52.235  24.699  31.979  1.00  0.00    -0.237 OA
ATOM     94  O   UNL A   1      52.969  26.006  30.014  1.00  0.00    -0.237 OA
ATOM     95  O   UNL A   1      52.978  27.037  32.252  1.00  0.00    -0.744 OA
ENDBRANCH  91  92
ENDBRANCH  59  84
ENDBRANCH  33  34
ENDBRANCH  25  28
ENDBRANCH  23  24
ENDBRANCH  22  23
ENDBRANCH   1  22
TORSDOF 18
ENDMDL
