MODEL 1
REMARK VINA RESULT:     -11.7      0.000      0.000
REMARK SMILES C[C@]([NH3+])(C(=O)N1[C@@H](C(=O)NCCCCCCNC(=O)c2ccc(-c3c4nc(c(-c5c(F)cc(S(=O)(=O)[O-])cc5F)c5ccc([nH]5)c(-c5c(F)cc(S(=O)(=O)[O-])cc5F)c5nc(c(-c6c(F)cc(S(=O)(=O)[O-])cc6F)c6ccc3[nH]6)C=C5)C=C4)cc2)C[C@H]2CCCC[C@@H]21)C(F)(F)F
REMARK SMILES IDX 13 1 12 2 11 3 10 4 8 5 9 6 7 8 6 9 92 10 86 11 87 12 91 13
REMARK SMILES IDX 88 14 90 15 89 16 4 17 5 18 2 19 1 20 93 21 94 22 95 23
REMARK SMILES IDX 96 24 3 25 14 29 15 30 16 31 17 32 18 33 19 35 20 36 21 37
REMARK SMILES IDX 85 38 22 39 84 40 23 41 24 42 25 43 78 44 26 45 83 46 77 47
REMARK SMILES IDX 79 48 27 49 82 50 76 51 75 52 28 54 62 55 41 56 61 57 42 58
REMARK SMILES IDX 45 59 60 60 80 61 43 62 44 63 59 65 81 66 46 67 29 68 30 69
REMARK SMILES IDX 39 70 31 71 32 72 38 73 40 74 33 75 34 76 35 77 36 78 37 79
REMARK SMILES IDX 63 80 64 81 73 82 65 83 66 84 72 85 74 86 67 87 68 88 69 89
REMARK SMILES IDX 70 90 71 91 47 92 48 93 57 94 49 95 50 96 56 97 58 98 51 99
REMARK SMILES IDX 52 100 53 101 54 102 55 103
REMARK H PARENT 10 7 3 26 3 27 3 28 17 34 79 53 45 64
REMARK Flexibility Score: inf
ROOT
ATOM      1  C   UNL A   1      36.785  23.149  25.719  1.00  0.00     0.002 C 
ENDROOT
BRANCH   1   2
ATOM      2  C   UNL A   1      36.599  23.006  24.205  1.00  0.00     0.021 C 
BRANCH   2   3
ATOM      3  C   UNL A   1      35.174  22.624  23.806  1.00  0.00     0.116 C 
BRANCH   3   4
ATOM      4  N   UNL A   1      34.722  23.452  22.711  1.00  0.00    -0.354 N 
ATOM      5  C   UNL A   1      33.929  24.558  22.719  1.00  0.00     0.242 C 
ATOM      6  O   UNL A   1      33.501  24.944  21.627  1.00  0.00    -0.273 OA
ATOM      7  H   UNL A   1      35.035  23.172  21.821  1.00  0.00     0.163 HD
BRANCH   5   8
ATOM      8  C   UNL A   1      33.573  25.284  24.055  1.00  0.00     0.175 C 
ATOM      9  N   UNL A   1      32.168  25.082  24.467  1.00  0.00    -0.322 N 
ATOM     10  C   UNL A   1      31.364  26.022  23.709  1.00  0.00     0.089 C 
ATOM     11  C   UNL A   1      33.642  26.810  23.764  1.00  0.00     0.041 C 
ATOM     12  C   UNL A   1      32.195  27.289  23.899  1.00  0.00     0.014 C 
ATOM     13  C   UNL A   1      29.922  26.300  24.126  1.00  0.00     0.025 C 
ATOM     14  C   UNL A   1      31.717  28.394  22.976  1.00  0.00     0.006 C 
ATOM     15  C   UNL A   1      29.356  27.454  23.284  1.00  0.00     0.002 C 
ATOM     16  C   UNL A   1      30.249  28.705  23.297  1.00  0.00     0.000 C 
BRANCH   9  17
ATOM     17  C   UNL A   1      31.643  23.888  24.930  1.00  0.00     0.294 C 
ATOM     18  O   UNL A   1      31.185  23.076  24.127  1.00  0.00    -0.267 OA
BRANCH  17  19
ATOM     19  C   UNL A   1      31.508  23.717  26.478  1.00  0.00     0.267 C 
ATOM     20  C   UNL A   1      30.213  22.963  26.843  1.00  0.00     0.100 C 
BRANCH  19  21
ATOM     21  C   UNL A   1      32.734  22.872  26.931  1.00  0.00     0.453 C 
ATOM     22  F   UNL A   1      32.968  21.835  26.091  1.00  0.00    -0.164 F 
ATOM     23  F   UNL A   1      33.863  23.631  26.921  1.00  0.00    -0.164 F 
ATOM     24  F   UNL A   1      32.605  22.394  28.188  1.00  0.00    -0.164 F 
ENDBRANCH  19  21
BRANCH  19  25
ATOM     25  N   UNL A   1      31.444  25.040  27.175  1.00  0.00    -0.337 N 
ATOM     26  H   UNL A   1      31.878  25.754  26.589  1.00  0.00     0.345 HD
ATOM     27  H   UNL A   1      31.941  24.981  28.063  1.00  0.00     0.345 HD
ATOM     28  H   UNL A   1      30.470  25.288  27.345  1.00  0.00     0.345 HD
ENDBRANCH  19  25
ENDBRANCH  17  19
ENDBRANCH   9  17
ENDBRANCH   5   8
ENDBRANCH   3   4
ENDBRANCH   2   3
ENDBRANCH   1   2
BRANCH   1  29
ATOM     29  C   UNL A   1      38.148  23.715  26.142  1.00  0.00     0.002 C 
BRANCH  29  30
ATOM     30  C   UNL A   1      39.203  22.667  26.515  1.00  0.00     0.021 C 
BRANCH  30  31
ATOM     31  C   UNL A   1      40.493  23.240  27.101  1.00  0.00     0.116 C 
BRANCH  31  32
ATOM     32  N   UNL A   1      41.242  23.991  26.107  1.00  0.00    -0.352 N 
ATOM     33  C   UNL A   1      41.548  25.328  26.065  1.00  0.00     0.251 C 
ATOM     34  H   UNL A   1      41.582  23.460  25.351  1.00  0.00     0.163 HD
ATOM     35  O   UNL A   1      41.969  25.820  25.022  1.00  0.00    -0.269 OA
BRANCH  33  36
ATOM     36  C   UNL A   1      41.364  26.177  27.262  1.00  0.00     0.039 A 
ATOM     37  C   UNL A   1      42.307  27.174  27.531  1.00  0.00     0.014 A 
ATOM     38  C   UNL A   1      40.299  25.966  28.144  1.00  0.00     0.014 A 
ATOM     39  C   UNL A   1      42.152  27.990  28.653  1.00  0.00     0.010 A 
ATOM     40  C   UNL A   1      40.112  26.822  29.228  1.00  0.00     0.010 A 
ATOM     41  C   UNL A   1      41.039  27.838  29.497  1.00  0.00    -0.014 A 
BRANCH  41  42
ATOM     42  C   UNL A   1      40.832  28.753  30.649  1.00  0.00     0.031 A 
ATOM     43  C   UNL A   1      41.678  28.635  31.886  1.00  0.00     0.074 A 
ATOM     44  C   UNL A   1      39.844  29.667  30.590  1.00  0.00     0.049 A 
ATOM     45  N   UNL A   1      41.642  29.351  32.981  1.00  0.00    -0.248 NA
ATOM     46  C   UNL A   1      42.681  27.559  31.906  1.00  0.00     0.031 C 
ATOM     47  C   UNL A   1      38.917  29.838  29.469  1.00  0.00     0.029 A 
ATOM     48  N   UNL A   1      39.454  30.624  31.492  1.00  0.00    -0.354 N 
ATOM     49  C   UNL A   1      42.607  28.810  33.821  1.00  0.00     0.074 A 
ATOM     50  C   UNL A   1      43.177  27.673  33.130  1.00  0.00     0.031 C 
ATOM     51  C   UNL A   1      38.086  30.857  29.737  1.00  0.00     0.029 A 
ATOM     52  C   UNL A   1      38.402  31.395  31.056  1.00  0.00     0.049 A 
ATOM     53  H   UNL A   1      39.884  30.748  32.368  1.00  0.00     0.167 HD
ATOM     54  C   UNL A   1      42.998  29.234  35.048  1.00  0.00     0.037 A 
ATOM     55  C   UNL A   1      37.766  32.423  31.649  1.00  0.00     0.037 A 
ATOM     56  C   UNL A   1      42.438  30.376  35.724  1.00  0.00     0.049 A 
ATOM     57  C   UNL A   1      38.228  32.889  33.001  1.00  0.00     0.074 A 
ATOM     58  C   UNL A   1      42.808  30.927  36.938  1.00  0.00     0.029 A 
ATOM     59  N   UNL A   1      41.381  31.138  35.247  1.00  0.00    -0.354 N 
ATOM     60  N   UNL A   1      39.194  32.413  33.750  1.00  0.00    -0.248 NA
ATOM     61  C   UNL A   1      37.520  34.035  33.585  1.00  0.00     0.031 C 
ATOM     62  C   UNL A   1      41.950  31.999  37.213  1.00  0.00     0.029 A 
ATOM     63  C   UNL A   1      41.072  32.143  36.151  1.00  0.00     0.049 A 
ATOM     64  H   UNL A   1      40.919  30.989  34.390  1.00  0.00     0.167 HD
ATOM     65  C   UNL A   1      39.222  33.211  34.887  1.00  0.00     0.074 A 
ATOM     66  C   UNL A   1      38.187  34.212  34.718  1.00  0.00     0.031 C 
ATOM     67  C   UNL A   1      40.029  33.123  35.974  1.00  0.00     0.037 A 
BRANCH  54  68
ATOM     68  C   UNL A   1      44.089  28.456  35.735  1.00  0.00     0.058 A 
ATOM     69  C   UNL A   1      43.797  27.423  36.640  1.00  0.00     0.135 A 
ATOM     70  C   UNL A   1      45.440  28.733  35.473  1.00  0.00     0.135 A 
ATOM     71  F   UNL A   1      42.522  27.123  36.937  1.00  0.00    -0.206 F 
ATOM     72  C   UNL A   1      44.804  26.718  37.292  1.00  0.00     0.059 A 
ATOM     73  C   UNL A   1      46.464  28.023  36.093  1.00  0.00     0.059 A 
ATOM     74  F   UNL A   1      45.776  29.707  34.614  1.00  0.00    -0.206 F 
ATOM     75  C   UNL A   1      46.137  27.030  37.017  1.00  0.00     0.060 A 
BRANCH  75  76
ATOM     76  S   UNL A   1      47.435  26.117  37.878  1.00  0.00     0.124 S 
ATOM     77  O   UNL A   1      48.260  27.205  38.393  1.00  0.00    -0.237 OA
ATOM     78  O   UNL A   1      46.681  25.367  38.878  1.00  0.00    -0.237 OA
ATOM     79  O   UNL A   1      48.042  25.312  36.824  1.00  0.00    -0.744 OA
ENDBRANCH  75  76
ENDBRANCH  54  68
BRANCH  55  80
ATOM     80  C   UNL A   1      36.653  33.106  30.940  1.00  0.00     0.058 A 
ATOM     81  C   UNL A   1      35.320  32.880  31.311  1.00  0.00     0.135 A 
ATOM     82  C   UNL A   1      36.900  34.030  29.913  1.00  0.00     0.135 A 
ATOM     83  F   UNL A   1      35.035  32.002  32.284  1.00  0.00    -0.206 F 
ATOM     84  C   UNL A   1      34.268  33.540  30.685  1.00  0.00     0.059 A 
ATOM     85  C   UNL A   1      35.867  34.718  29.286  1.00  0.00     0.059 A 
ATOM     86  F   UNL A   1      38.161  34.293  29.535  1.00  0.00    -0.206 F 
ATOM     87  C   UNL A   1      34.553  34.463  29.677  1.00  0.00     0.060 A 
BRANCH  87  88
ATOM     88  S   UNL A   1      33.186  35.373  28.923  1.00  0.00     0.124 S 
ATOM     89  O   UNL A   1      32.544  34.333  28.128  1.00  0.00    -0.237 OA
ATOM     90  O   UNL A   1      32.443  35.835  30.091  1.00  0.00    -0.237 OA
ATOM     91  O   UNL A   1      33.861  36.422  28.165  1.00  0.00    -0.744 OA
ENDBRANCH  87  88
ENDBRANCH  55  80
BRANCH  67  92
ATOM     92  C   UNL A   1      39.828  34.145  37.058  1.00  0.00     0.058 A 
ATOM     93  C   UNL A   1      38.918  33.933  38.106  1.00  0.00     0.135 A 
ATOM     94  C   UNL A   1      40.567  35.338  37.062  1.00  0.00     0.135 A 
ATOM     95  F   UNL A   1      38.181  32.811  38.145  1.00  0.00    -0.206 F 
ATOM     96  C   UNL A   1      38.725  34.884  39.103  1.00  0.00     0.059 A 
ATOM     97  C   UNL A   1      40.408  36.292  38.062  1.00  0.00     0.059 A 
ATOM     98  F   UNL A   1      41.458  35.585  36.088  1.00  0.00    -0.206 F 
ATOM     99  C   UNL A   1      39.472  36.062  39.070  1.00  0.00     0.060 A 
BRANCH  99 100
ATOM    100  S   UNL A   1      39.219  37.287  40.372  1.00  0.00     0.124 S 
ATOM    101  O   UNL A   1      38.692  36.462  41.453  1.00  0.00    -0.237 OA
ATOM    102  O   UNL A   1      40.566  37.813  40.575  1.00  0.00    -0.237 OA
ATOM    103  O   UNL A   1      38.271  38.224  39.777  1.00  0.00    -0.744 OA
ENDBRANCH  99 100
ENDBRANCH  67  92
ENDBRANCH  41  42
ENDBRANCH  33  36
ENDBRANCH  31  32
ENDBRANCH  30  31
ENDBRANCH  29  30
ENDBRANCH   1  29
TORSDOF 20
ENDMDL
MODEL 2
REMARK VINA RESULT:     -11.5      6.507     11.922
REMARK SMILES C[C@]([NH3+])(C(=O)N1[C@@H](C(=O)NCCCCCCNC(=O)c2ccc(-c3c4nc(c(-c5c(F)cc(S(=O)(=O)[O-])cc5F)c5ccc([nH]5)c(-c5c(F)cc(S(=O)(=O)[O-])cc5F)c5nc(c(-c6c(F)cc(S(=O)(=O)[O-])cc6F)c6ccc3[nH]6)C=C5)C=C4)cc2)C[C@H]2CCCC[C@@H]21)C(F)(F)F
REMARK SMILES IDX 13 1 12 2 11 3 10 4 8 5 9 6 7 8 6 9 92 10 86 11 87 12 91 13
REMARK SMILES IDX 88 14 90 15 89 16 4 17 5 18 2 19 1 20 93 21 94 22 95 23
REMARK SMILES IDX 96 24 3 25 14 29 15 30 16 31 17 32 18 33 19 35 20 36 21 37
REMARK SMILES IDX 85 38 22 39 84 40 23 41 24 42 25 43 78 44 26 45 83 46 77 47
REMARK SMILES IDX 79 48 27 49 82 50 76 51 75 52 28 54 62 55 41 56 61 57 42 58
REMARK SMILES IDX 45 59 60 60 80 61 43 62 44 63 59 65 81 66 46 67 29 68 30 69
REMARK SMILES IDX 39 70 31 71 32 72 38 73 40 74 33 75 34 76 35 77 36 78 37 79
REMARK SMILES IDX 63 80 64 81 73 82 65 83 66 84 72 85 74 86 67 87 68 88 69 89
REMARK SMILES IDX 70 90 71 91 47 92 48 93 57 94 49 95 50 96 56 97 58 98 51 99
REMARK SMILES IDX 52 100 53 101 54 102 55 103
REMARK H PARENT 10 7 3 26 3 27 3 28 17 34 79 53 45 64
REMARK Flexibility Score: inf
ROOT
ATOM      1  C   UNL A   1      31.956  29.518  26.452  1.00  0.00     0.002 C 
ENDROOT
BRANCH   1   2
ATOM      2  C   UNL A   1      31.544  28.210  27.133  1.00  0.00     0.021 C 
BRANCH   2   3
ATOM      3  C   UNL A   1      31.228  27.088  26.143  1.00  0.00     0.116 C 
BRANCH   3   4
ATOM      4  N   UNL A   1      30.996  25.848  26.850  1.00  0.00    -0.354 N 
ATOM      5  C   UNL A   1      31.606  24.638  26.718  1.00  0.00     0.242 C 
ATOM      6  O   UNL A   1      31.064  23.679  27.277  1.00  0.00    -0.273 OA
ATOM      7  H   UNL A   1      30.287  25.884  27.531  1.00  0.00     0.163 HD
BRANCH   5   8
ATOM      8  C   UNL A   1      32.916  24.483  25.883  1.00  0.00     0.175 C 
ATOM      9  N   UNL A   1      32.671  24.022  24.501  1.00  0.00    -0.322 N 
ATOM     10  C   UNL A   1      32.502  22.581  24.557  1.00  0.00     0.089 C 
ATOM     11  C   UNL A   1      33.709  23.304  26.516  1.00  0.00     0.041 C 
ATOM     12  C   UNL A   1      33.692  22.214  25.442  1.00  0.00     0.014 C 
ATOM     13  C   UNL A   1      32.557  21.758  23.273  1.00  0.00     0.025 C 
ATOM     14  C   UNL A   1      33.606  20.768  25.890  1.00  0.00     0.006 C 
ATOM     15  C   UNL A   1      32.536  20.261  23.620  1.00  0.00     0.002 C 
ATOM     16  C   UNL A   1      33.607  19.865  24.648  1.00  0.00     0.000 C 
BRANCH   9  17
ATOM     17  C   UNL A   1      32.081  24.782  23.507  1.00  0.00     0.294 C 
ATOM     18  O   UNL A   1      30.856  24.787  23.395  1.00  0.00    -0.267 OA
BRANCH  17  19
ATOM     19  C   UNL A   1      33.030  25.462  22.466  1.00  0.00     0.267 C 
ATOM     20  C   UNL A   1      32.438  25.389  21.044  1.00  0.00     0.100 C 
BRANCH  19  21
ATOM     21  C   UNL A   1      33.146  26.954  22.894  1.00  0.00     0.453 C 
ATOM     22  F   UNL A   1      31.937  27.486  23.197  1.00  0.00    -0.164 F 
ATOM     23  F   UNL A   1      33.904  27.068  24.017  1.00  0.00    -0.164 F 
ATOM     24  F   UNL A   1      33.737  27.724  21.953  1.00  0.00    -0.164 F 
ENDBRANCH  19  21
BRANCH  19  25
ATOM     25  N   UNL A   1      34.362  24.784  22.410  1.00  0.00    -0.337 N 
ATOM     26  H   UNL A   1      34.790  24.949  21.499  1.00  0.00     0.345 HD
ATOM     27  H   UNL A   1      34.240  23.781  22.551  1.00  0.00     0.345 HD
ATOM     28  H   UNL A   1      34.966  25.159  23.141  1.00  0.00     0.345 HD
ENDBRANCH  19  25
ENDBRANCH  17  19
ENDBRANCH   9  17
ENDBRANCH   5   8
ENDBRANCH   3   4
ENDBRANCH   2   3
ENDBRANCH   1   2
BRANCH   1  29
ATOM     29  C   UNL A   1      32.974  30.352  27.241  1.00  0.00     0.002 C 
BRANCH  29  30
ATOM     30  C   UNL A   1      34.351  29.703  27.421  1.00  0.00     0.021 C 
BRANCH  30  31
ATOM     31  C   UNL A   1      35.430  30.635  27.972  1.00  0.00     0.116 C 
BRANCH  31  32
ATOM     32  N   UNL A   1      35.416  30.665  29.426  1.00  0.00    -0.352 N 
ATOM     33  C   UNL A   1      36.368  30.245  30.321  1.00  0.00     0.251 C 
ATOM     34  H   UNL A   1      34.602  31.044  29.828  1.00  0.00     0.163 HD
ATOM     35  O   UNL A   1      36.070  30.118  31.505  1.00  0.00    -0.269 OA
BRANCH  33  36
ATOM     36  C   UNL A   1      37.741  29.938  29.865  1.00  0.00     0.039 A 
ATOM     37  C   UNL A   1      38.700  29.575  30.815  1.00  0.00     0.014 A 
ATOM     38  C   UNL A   1      38.099  30.051  28.518  1.00  0.00     0.014 A 
ATOM     39  C   UNL A   1      40.002  29.276  30.408  1.00  0.00     0.010 A 
ATOM     40  C   UNL A   1      39.382  29.692  28.106  1.00  0.00     0.010 A 
ATOM     41  C   UNL A   1      40.347  29.307  29.047  1.00  0.00    -0.014 A 
BRANCH  41  42
ATOM     42  C   UNL A   1      41.710  28.917  28.602  1.00  0.00     0.031 A 
ATOM     43  C   UNL A   1      42.818  29.933  28.541  1.00  0.00     0.074 A 
ATOM     44  C   UNL A   1      41.934  27.648  28.211  1.00  0.00     0.049 A 
ATOM     45  N   UNL A   1      44.067  29.769  28.186  1.00  0.00    -0.248 NA
ATOM     46  C   UNL A   1      42.473  31.316  28.906  1.00  0.00     0.031 C 
ATOM     47  C   UNL A   1      40.925  26.588  28.168  1.00  0.00     0.029 A 
ATOM     48  N   UNL A   1      43.081  27.033  27.777  1.00  0.00    -0.354 N 
ATOM     49  C   UNL A   1      44.655  31.025  28.276  1.00  0.00     0.074 A 
ATOM     50  C   UNL A   1      43.613  31.950  28.669  1.00  0.00     0.031 C 
ATOM     51  C   UNL A   1      41.503  25.447  27.760  1.00  0.00     0.029 A 
ATOM     52  C   UNL A   1      42.914  25.699  27.488  1.00  0.00     0.049 A 
ATOM     53  H   UNL A   1      43.941  27.501  27.680  1.00  0.00     0.167 HD
ATOM     54  C   UNL A   1      45.949  31.372  28.069  1.00  0.00     0.037 A 
ATOM     55  C   UNL A   1      43.800  24.780  27.058  1.00  0.00     0.037 A 
ATOM     56  C   UNL A   1      46.984  30.444  27.693  1.00  0.00     0.049 A 
ATOM     57  C   UNL A   1      45.234  25.183  26.854  1.00  0.00     0.074 A 
ATOM     58  C   UNL A   1      48.337  30.682  27.524  1.00  0.00     0.029 A 
ATOM     59  N   UNL A   1      46.780  29.099  27.419  1.00  0.00    -0.354 N 
ATOM     60  N   UNL A   1      45.789  26.360  27.016  1.00  0.00    -0.248 NA
ATOM     61  C   UNL A   1      46.161  24.132  26.416  1.00  0.00     0.031 C 
ATOM     62  C   UNL A   1      48.944  29.490  27.111  1.00  0.00     0.029 A 
ATOM     63  C   UNL A   1      47.977  28.498  27.063  1.00  0.00     0.049 A 
ATOM     64  H   UNL A   1      45.911  28.638  27.472  1.00  0.00     0.167 HD
ATOM     65  C   UNL A   1      47.135  26.189  26.717  1.00  0.00     0.074 A 
ATOM     66  C   UNL A   1      47.312  24.790  26.381  1.00  0.00     0.031 C 
ATOM     67  C   UNL A   1      48.134  27.107  26.718  1.00  0.00     0.037 A 
BRANCH  54  68
ATOM     68  C   UNL A   1      46.314  32.822  28.251  1.00  0.00     0.058 A 
ATOM     69  C   UNL A   1      46.754  33.320  29.488  1.00  0.00     0.135 A 
ATOM     70  C   UNL A   1      46.240  33.720  27.174  1.00  0.00     0.135 A 
ATOM     71  F   UNL A   1      46.832  32.508  30.555  1.00  0.00    -0.206 F 
ATOM     72  C   UNL A   1      47.069  34.663  29.663  1.00  0.00     0.059 A 
ATOM     73  C   UNL A   1      46.576  35.063  27.319  1.00  0.00     0.059 A 
ATOM     74  F   UNL A   1      45.829  33.297  25.969  1.00  0.00    -0.206 F 
ATOM     75  C   UNL A   1      46.972  35.530  28.573  1.00  0.00     0.060 A 
BRANCH  75  76
ATOM     76  S   UNL A   1      47.372  37.274  28.815  1.00  0.00     0.124 S 
ATOM     77  O   UNL A   1      48.426  37.192  29.821  1.00  0.00    -0.237 OA
ATOM     78  O   UNL A   1      47.801  37.686  27.482  1.00  0.00    -0.237 OA
ATOM     79  O   UNL A   1      46.113  37.852  29.270  1.00  0.00    -0.744 OA
ENDBRANCH  75  76
ENDBRANCH  54  68
BRANCH  55  80
ATOM     80  C   UNL A   1      43.356  23.380  26.836  1.00  0.00     0.058 A 
ATOM     81  C   UNL A   1      43.285  22.845  25.542  1.00  0.00     0.135 A 
ATOM     82  C   UNL A   1      43.040  22.536  27.912  1.00  0.00     0.135 A 
ATOM     83  F   UNL A   1      43.574  23.615  24.482  1.00  0.00    -0.206 F 
ATOM     84  C   UNL A   1      42.910  21.525  25.320  1.00  0.00     0.059 A 
ATOM     85  C   UNL A   1      42.683  21.206  27.717  1.00  0.00     0.059 A 
ATOM     86  F   UNL A   1      43.110  22.997  29.171  1.00  0.00    -0.206 F 
ATOM     87  C   UNL A   1      42.616  20.711  26.415  1.00  0.00     0.060 A 
BRANCH  87  88
ATOM     88  S   UNL A   1      42.205  18.976  26.121  1.00  0.00     0.124 S 
ATOM     89  O   UNL A   1      43.118  18.638  25.035  1.00  0.00    -0.237 OA
ATOM     90  O   UNL A   1      42.498  18.367  27.415  1.00  0.00    -0.237 OA
ATOM     91  O   UNL A   1      40.790  19.024  25.767  1.00  0.00    -0.744 OA
ENDBRANCH  87  88
ENDBRANCH  55  80
BRANCH  67  92
ATOM     92  C   UNL A   1      49.509  26.620  26.354  1.00  0.00     0.058 A 
ATOM     93  C   UNL A   1      50.016  26.761  25.052  1.00  0.00     0.135 A 
ATOM     94  C   UNL A   1      50.336  26.026  27.319  1.00  0.00     0.135 A 
ATOM     95  F   UNL A   1      49.262  27.316  24.089  1.00  0.00    -0.206 F 
ATOM     96  C   UNL A   1      51.284  26.300  24.713  1.00  0.00     0.059 A 
ATOM     97  C   UNL A   1      51.617  25.581  27.008  1.00  0.00     0.059 A 
ATOM     98  F   UNL A   1      49.903  25.878  28.582  1.00  0.00    -0.206 F 
ATOM     99  C   UNL A   1      52.075  25.707  25.698  1.00  0.00     0.060 A 
BRANCH  99 100
ATOM    100  S   UNL A   1      53.723  25.119  25.249  1.00  0.00     0.124 S 
ATOM    101  O   UNL A   1      53.565  23.675  25.381  1.00  0.00    -0.237 OA
ATOM    102  O   UNL A   1      53.875  25.619  23.886  1.00  0.00    -0.237 OA
ATOM    103  O   UNL A   1      54.589  25.750  26.240  1.00  0.00    -0.744 OA
ENDBRANCH  99 100
ENDBRANCH  67  92
ENDBRANCH  41  42
ENDBRANCH  33  36
ENDBRANCH  31  32
ENDBRANCH  30  31
ENDBRANCH  29  30
ENDBRANCH   1  29
TORSDOF 20
ENDMDL
MODEL 3
REMARK VINA RESULT:     -11.4      6.046     10.617
REMARK SMILES C[C@]([NH3+])(C(=O)N1[C@@H](C(=O)NCCCCCCNC(=O)c2ccc(-c3c4nc(c(-c5c(F)cc(S(=O)(=O)[O-])cc5F)c5ccc([nH]5)c(-c5c(F)cc(S(=O)(=O)[O-])cc5F)c5nc(c(-c6c(F)cc(S(=O)(=O)[O-])cc6F)c6ccc3[nH]6)C=C5)C=C4)cc2)C[C@H]2CCCC[C@@H]21)C(F)(F)F
REMARK SMILES IDX 13 1 12 2 11 3 10 4 8 5 9 6 7 8 6 9 92 10 86 11 87 12 91 13
REMARK SMILES IDX 88 14 90 15 89 16 4 17 5 18 2 19 1 20 93 21 94 22 95 23
REMARK SMILES IDX 96 24 3 25 14 29 15 30 16 31 17 32 18 33 19 35 20 36 21 37
REMARK SMILES IDX 85 38 22 39 84 40 23 41 24 42 25 43 78 44 26 45 83 46 77 47
REMARK SMILES IDX 79 48 27 49 82 50 76 51 75 52 28 54 62 55 41 56 61 57 42 58
REMARK SMILES IDX 45 59 60 60 80 61 43 62 44 63 59 65 81 66 46 67 29 68 30 69
REMARK SMILES IDX 39 70 31 71 32 72 38 73 40 74 33 75 34 76 35 77 36 78 37 79
REMARK SMILES IDX 63 80 64 81 73 82 65 83 66 84 72 85 74 86 67 87 68 88 69 89
REMARK SMILES IDX 70 90 71 91 47 92 48 93 57 94 49 95 50 96 56 97 58 98 51 99
REMARK SMILES IDX 52 100 53 101 54 102 55 103
REMARK H PARENT 10 7 3 26 3 27 3 28 17 34 79 53 45 64
REMARK Flexibility Score: inf
ROOT
ATOM      1  C   UNL A   1      37.168  22.109  24.813  1.00  0.00     0.002 C 
ENDROOT
BRANCH   1   2
ATOM      2  C   UNL A   1      36.566  22.722  23.545  1.00  0.00     0.021 C 
BRANCH   2   3
ATOM      3  C   UNL A   1      35.040  22.810  23.582  1.00  0.00     0.116 C 
BRANCH   3   4
ATOM      4  N   UNL A   1      34.561  23.659  22.515  1.00  0.00    -0.354 N 
ATOM      5  C   UNL A   1      33.764  24.762  22.564  1.00  0.00     0.242 C 
ATOM      6  O   UNL A   1      33.312  25.169  21.490  1.00  0.00    -0.273 OA
ATOM      7  H   UNL A   1      34.857  23.400  21.613  1.00  0.00     0.163 HD
BRANCH   5   8
ATOM      8  C   UNL A   1      33.434  25.457  23.923  1.00  0.00     0.175 C 
ATOM      9  N   UNL A   1      32.054  25.198  24.386  1.00  0.00    -0.322 N 
ATOM     10  C   UNL A   1      31.187  26.117  23.672  1.00  0.00     0.089 C 
ATOM     11  C   UNL A   1      33.436  26.988  23.651  1.00  0.00     0.041 C 
ATOM     12  C   UNL A   1      31.979  27.411  23.848  1.00  0.00     0.014 C 
ATOM     13  C   UNL A   1      29.753  26.335  24.148  1.00  0.00     0.025 C 
ATOM     14  C   UNL A   1      31.425  28.508  22.959  1.00  0.00     0.006 C 
ATOM     15  C   UNL A   1      29.113  27.478  23.344  1.00  0.00     0.002 C 
ATOM     16  C   UNL A   1      29.959  28.761  23.341  1.00  0.00     0.000 C 
BRANCH   9  17
ATOM     17  C   UNL A   1      31.592  23.979  24.851  1.00  0.00     0.294 C 
ATOM     18  O   UNL A   1      31.139  23.159  24.054  1.00  0.00    -0.267 OA
BRANCH  17  19
ATOM     19  C   UNL A   1      31.517  23.786  26.401  1.00  0.00     0.267 C 
ATOM     20  C   UNL A   1      30.252  23.001  26.802  1.00  0.00     0.100 C 
BRANCH  19  21
ATOM     21  C   UNL A   1      32.776  22.963  26.799  1.00  0.00     0.453 C 
ATOM     22  F   UNL A   1      32.725  22.558  28.090  1.00  0.00    -0.164 F 
ATOM     23  F   UNL A   1      32.859  21.831  26.049  1.00  0.00    -0.164 F 
ATOM     24  F   UNL A   1      33.928  23.639  26.599  1.00  0.00    -0.164 F 
ENDBRANCH  19  21
BRANCH  19  25
ATOM     25  N   UNL A   1      31.450  25.099  27.117  1.00  0.00    -0.337 N 
ATOM     26  H   UNL A   1      30.481  25.302  27.365  1.00  0.00     0.345 HD
ATOM     27  H   UNL A   1      31.805  25.836  26.509  1.00  0.00     0.345 HD
ATOM     28  H   UNL A   1      32.015  25.054  27.963  1.00  0.00     0.345 HD
ENDBRANCH  19  25
ENDBRANCH  17  19
ENDBRANCH   9  17
ENDBRANCH   5   8
ENDBRANCH   3   4
ENDBRANCH   2   3
ENDBRANCH   1   2
BRANCH   1  29
ATOM     29  C   UNL A   1      36.897  20.608  24.983  1.00  0.00     0.002 C 
BRANCH  29  30
ATOM     30  C   UNL A   1      38.143  19.715  24.981  1.00  0.00     0.021 C 
BRANCH  30  31
ATOM     31  C   UNL A   1      39.325  20.264  25.780  1.00  0.00     0.116 C 
BRANCH  31  32
ATOM     32  N   UNL A   1      40.346  19.249  25.984  1.00  0.00    -0.352 N 
ATOM     33  C   UNL A   1      41.702  19.388  26.140  1.00  0.00     0.251 C 
ATOM     34  H   UNL A   1      40.014  18.323  26.018  1.00  0.00     0.163 HD
ATOM     35  O   UNL A   1      42.427  18.402  26.047  1.00  0.00    -0.269 OA
BRANCH  33  36
ATOM     36  C   UNL A   1      42.293  20.718  26.408  1.00  0.00     0.039 A 
ATOM     37  C   UNL A   1      42.723  21.493  25.328  1.00  0.00     0.014 A 
ATOM     38  C   UNL A   1      42.466  21.183  27.716  1.00  0.00     0.014 A 
ATOM     39  C   UNL A   1      43.279  22.754  25.556  1.00  0.00     0.010 A 
ATOM     40  C   UNL A   1      42.963  22.466  27.939  1.00  0.00     0.010 A 
ATOM     41  C   UNL A   1      43.380  23.262  26.862  1.00  0.00    -0.014 A 
BRANCH  41  42
ATOM     42  C   UNL A   1      43.901  24.631  27.104  1.00  0.00     0.031 A 
ATOM     43  C   UNL A   1      42.979  25.742  27.527  1.00  0.00     0.074 A 
ATOM     44  C   UNL A   1      45.209  24.881  26.898  1.00  0.00     0.049 A 
ATOM     45  N   UNL A   1      43.260  26.993  27.789  1.00  0.00    -0.248 NA
ATOM     46  C   UNL A   1      41.551  25.409  27.651  1.00  0.00     0.031 C 
ATOM     47  C   UNL A   1      46.191  23.902  26.429  1.00  0.00     0.029 A 
ATOM     48  N   UNL A   1      45.938  26.032  27.057  1.00  0.00    -0.354 N 
ATOM     49  C   UNL A   1      42.049  27.598  28.100  1.00  0.00     0.074 A 
ATOM     50  C   UNL A   1      41.023  26.589  27.944  1.00  0.00     0.031 C 
ATOM     51  C   UNL A   1      47.399  24.485  26.366  1.00  0.00     0.029 A 
ATOM     52  C   UNL A   1      47.273  25.883  26.764  1.00  0.00     0.049 A 
ATOM     53  H   UNL A   1      45.544  26.884  27.351  1.00  0.00     0.167 HD
ATOM     54  C   UNL A   1      41.816  28.872  28.500  1.00  0.00     0.037 A 
ATOM     55  C   UNL A   1      48.284  26.770  26.816  1.00  0.00     0.037 A 
ATOM     56  C   UNL A   1      42.843  29.867  28.668  1.00  0.00     0.049 A 
ATOM     57  C   UNL A   1      48.006  28.173  27.280  1.00  0.00     0.074 A 
ATOM     58  C   UNL A   1      42.720  31.165  29.131  1.00  0.00     0.029 A 
ATOM     59  N   UNL A   1      44.186  29.676  28.372  1.00  0.00    -0.354 N 
ATOM     60  N   UNL A   1      46.864  28.708  27.643  1.00  0.00    -0.248 NA
ATOM     61  C   UNL A   1      49.152  29.088  27.348  1.00  0.00     0.031 C 
ATOM     62  C   UNL A   1      43.981  31.771  29.079  1.00  0.00     0.029 A 
ATOM     63  C   UNL A   1      44.898  30.838  28.623  1.00  0.00     0.049 A 
ATOM     64  H   UNL A   1      44.576  28.837  28.035  1.00  0.00     0.167 HD
ATOM     65  C   UNL A   1      47.157  30.019  27.999  1.00  0.00     0.074 A 
ATOM     66  C   UNL A   1      48.586  30.188  27.825  1.00  0.00     0.031 C 
ATOM     67  C   UNL A   1      46.319  30.995  28.431  1.00  0.00     0.037 A 
BRANCH  54  68
ATOM     68  C   UNL A   1      40.388  29.257  28.785  1.00  0.00     0.058 A 
ATOM     69  C   UNL A   1      39.918  29.418  30.098  1.00  0.00     0.135 A 
ATOM     70  C   UNL A   1      39.484  29.485  27.734  1.00  0.00     0.135 A 
ATOM     71  F   UNL A   1      40.736  29.201  31.140  1.00  0.00    -0.206 F 
ATOM     72  C   UNL A   1      38.593  29.752  30.363  1.00  0.00     0.059 A 
ATOM     73  C   UNL A   1      38.161  29.846  27.975  1.00  0.00     0.059 A 
ATOM     74  F   UNL A   1      39.881  29.349  26.460  1.00  0.00    -0.206 F 
ATOM     75  C   UNL A   1      37.720  29.958  29.294  1.00  0.00     0.060 A 
BRANCH  75  76
ATOM     76  S   UNL A   1      36.000  30.378  29.650  1.00  0.00     0.124 S 
ATOM     77  O   UNL A   1      35.775  29.648  30.893  1.00  0.00    -0.237 OA
ATOM     78  O   UNL A   1      36.051  31.832  29.772  1.00  0.00    -0.237 OA
ATOM     79  O   UNL A   1      35.279  29.876  28.486  1.00  0.00    -0.744 OA
ENDBRANCH  75  76
ENDBRANCH  54  68
BRANCH  55  80
ATOM     80  C   UNL A   1      49.660  26.339  26.458  1.00  0.00     0.058 A 
ATOM     81  C   UNL A   1      50.511  25.779  27.422  1.00  0.00     0.135 A 
ATOM     82  C   UNL A   1      50.135  26.434  25.141  1.00  0.00     0.135 A 
ATOM     83  F   UNL A   1      50.102  25.672  28.695  1.00  0.00    -0.206 F 
ATOM     84  C   UNL A   1      51.787  25.334  27.095  1.00  0.00     0.059 A 
ATOM     85  C   UNL A   1      51.399  25.977  24.786  1.00  0.00     0.059 A 
ATOM     86  F   UNL A   1      49.351  26.947  24.179  1.00  0.00    -0.206 F 
ATOM     87  C   UNL A   1      52.220  25.431  25.772  1.00  0.00     0.060 A 
BRANCH  87  88
ATOM     88  S   UNL A   1      53.850  24.780  25.342  1.00  0.00     0.124 S 
ATOM     89  O   UNL A   1      53.539  23.387  25.041  1.00  0.00    -0.237 OA
ATOM     90  O   UNL A   1      54.223  25.612  24.203  1.00  0.00    -0.237 OA
ATOM     91  O   UNL A   1      54.630  25.006  26.555  1.00  0.00    -0.744 OA
ENDBRANCH  87  88
ENDBRANCH  55  80
BRANCH  67  92
ATOM     92  C   UNL A   1      46.933  32.329  28.752  1.00  0.00     0.058 A 
ATOM     93  C   UNL A   1      47.405  32.628  30.040  1.00  0.00     0.135 A 
ATOM     94  C   UNL A   1      47.070  33.311  27.759  1.00  0.00     0.135 A 
ATOM     95  F   UNL A   1      47.291  31.726  31.028  1.00  0.00    -0.206 F 
ATOM     96  C   UNL A   1      47.962  33.867  30.339  1.00  0.00     0.059 A 
ATOM     97  C   UNL A   1      47.647  34.547  28.030  1.00  0.00     0.059 A 
ATOM     98  F   UNL A   1      46.644  33.071  26.508  1.00  0.00    -0.206 F 
ATOM     99  C   UNL A   1      48.075  34.822  29.328  1.00  0.00     0.060 A 
BRANCH  99 100
ATOM    100  S   UNL A   1      48.807  36.425  29.724  1.00  0.00     0.124 S 
ATOM    101  O   UNL A   1      50.232  36.132  29.615  1.00  0.00    -0.237 OA
ATOM    102  O   UNL A   1      48.255  37.288  28.683  1.00  0.00    -0.237 OA
ATOM    103  O   UNL A   1      48.321  36.694  31.074  1.00  0.00    -0.744 OA
ENDBRANCH  99 100
ENDBRANCH  67  92
ENDBRANCH  41  42
ENDBRANCH  33  36
ENDBRANCH  31  32
ENDBRANCH  30  31
ENDBRANCH  29  30
ENDBRANCH   1  29
TORSDOF 20
ENDMDL
