MODEL 1
REMARK VINA RESULT:     -11.2      0.000      0.000
REMARK SMILES CC(C)(CC(=O)NCCCCCCNC(=O)c1ccc(-c2c3nc(c(-c4c(F)cc(S(=O)(=O)[O-])cc4F)c4ccc([nH]4)c(-c4c(F)cc(S(=O)(=O)[O-])cc4F)c4nc(c(-c5c(F)cc(S(=O)(=O)[O-])cc5F)c5ccc2[nH]5)C=C4)C=C3)cc1)Cc1nc([C@@]2(C)CCCO2)no1
REMARK SMILES IDX 10 1 9 2 8 3 7 4 5 5 6 6 4 8 2 9 1 10 3 11 83 12 84 13 85 14
REMARK SMILES IDX 94 15 86 16 93 17 87 18 88 19 89 20 92 21 90 22 91 23 11 24
REMARK SMILES IDX 12 25 13 26 14 27 15 28 16 30 17 31 18 32 82 33 19 34 81 35
REMARK SMILES IDX 20 36 21 37 22 38 75 39 23 40 80 41 74 42 76 43 24 44 79 45
REMARK SMILES IDX 73 46 72 47 25 49 59 50 38 51 58 52 39 53 42 54 57 55 77 56
REMARK SMILES IDX 40 57 41 58 56 60 78 61 43 62 26 63 27 64 36 65 28 66 29 67
REMARK SMILES IDX 35 68 37 69 30 70 31 71 32 72 33 73 34 74 60 75 61 76 70 77
REMARK SMILES IDX 62 78 63 79 69 80 71 81 64 82 65 83 66 84 67 85 68 86 44 87
REMARK SMILES IDX 45 88 54 89 46 90 47 91 53 92 55 93 48 94 49 95 50 96 51 97
REMARK SMILES IDX 52 98
REMARK H PARENT 7 7 14 29 76 48 42 59
REMARK Flexibility Score: inf
ROOT
ATOM      1  C   UNL A   1      40.265  22.396  27.198  1.00  0.00     0.002 C 
ENDROOT
BRANCH   1   2
ATOM      2  C   UNL A   1      39.321  23.592  27.317  1.00  0.00     0.021 C 
BRANCH   2   3
ATOM      3  C   UNL A   1      38.482  23.870  26.073  1.00  0.00     0.116 C 
BRANCH   3   4
ATOM      4  N   UNL A   1      38.090  22.642  25.416  1.00  0.00    -0.356 N 
ATOM      5  C   UNL A   1      37.177  22.422  24.437  1.00  0.00     0.220 C 
ATOM      6  O   UNL A   1      37.087  21.285  23.969  1.00  0.00    -0.275 OA
ATOM      7  H   UNL A   1      38.560  21.836  25.732  1.00  0.00     0.163 HD
BRANCH   5   8
ATOM      8  C   UNL A   1      36.323  23.550  23.889  1.00  0.00     0.107 C 
BRANCH   8   9
ATOM      9  C   UNL A   1      34.845  23.700  24.350  1.00  0.00    -0.018 C 
ATOM     10  C   UNL A   1      34.430  25.171  24.537  1.00  0.00     0.012 C 
ATOM     11  C   UNL A   1      33.981  23.204  23.152  1.00  0.00     0.012 C 
BRANCH   9  12
ATOM     12  C   UNL A   1      34.442  22.828  25.575  1.00  0.00     0.107 C 
BRANCH  12  13
ATOM     13  C   UNL A   1      33.675  21.573  25.337  1.00  0.00     0.227 A 
ATOM     14  N   UNL A   1      34.103  20.427  24.858  1.00  0.00    -0.193 NA
ATOM     15  O   UNL A   1      32.326  21.598  25.524  1.00  0.00    -0.339 OA
ATOM     16  C   UNL A   1      32.950  19.675  24.791  1.00  0.00     0.203 A 
ATOM     17  N   UNL A   1      31.849  20.325  25.203  1.00  0.00    -0.059 NA
BRANCH  16  18
ATOM     18  C   UNL A   1      32.926  18.250  24.286  1.00  0.00     0.128 C 
ATOM     19  C   UNL A   1      32.419  18.187  22.834  1.00  0.00     0.051 C 
ATOM     20  C   UNL A   1      34.297  17.568  24.412  1.00  0.00     0.046 C 
ATOM     21  O   UNL A   1      32.007  17.412  25.047  1.00  0.00    -0.367 OA
ATOM     22  C   UNL A   1      33.939  16.116  24.627  1.00  0.00     0.032 C 
ATOM     23  C   UNL A   1      32.690  16.226  25.470  1.00  0.00     0.161 C 
ENDBRANCH  16  18
ENDBRANCH  12  13
ENDBRANCH   9  12
ENDBRANCH   8   9
ENDBRANCH   5   8
ENDBRANCH   3   4
ENDBRANCH   2   3
ENDBRANCH   1   2
BRANCH   1  24
ATOM     24  C   UNL A   1      41.438  22.415  28.177  1.00  0.00     0.002 C 
BRANCH  24  25
ATOM     25  C   UNL A   1      42.823  22.372  27.524  1.00  0.00     0.021 C 
BRANCH  25  26
ATOM     26  C   UNL A   1      43.497  23.733  27.364  1.00  0.00     0.116 C 
BRANCH  26  27
ATOM     27  N   UNL A   1      43.043  24.422  26.168  1.00  0.00    -0.352 N 
ATOM     28  C   UNL A   1      42.284  25.557  26.069  1.00  0.00     0.251 C 
ATOM     29  H   UNL A   1      43.320  24.018  25.314  1.00  0.00     0.163 HD
ATOM     30  O   UNL A   1      41.783  25.874  24.989  1.00  0.00    -0.269 OA
BRANCH  28  31
ATOM     31  C   UNL A   1      42.059  26.391  27.266  1.00  0.00     0.039 A 
ATOM     32  C   UNL A   1      42.875  27.502  27.484  1.00  0.00     0.014 A 
ATOM     33  C   UNL A   1      41.043  26.070  28.172  1.00  0.00     0.014 A 
ATOM     34  C   UNL A   1      42.643  28.319  28.592  1.00  0.00     0.010 A 
ATOM     35  C   UNL A   1      40.768  26.927  29.234  1.00  0.00     0.010 A 
ATOM     36  C   UNL A   1      41.573  28.053  29.462  1.00  0.00    -0.014 A 
BRANCH  36  37
ATOM     37  C   UNL A   1      41.294  28.932  30.626  1.00  0.00     0.031 A 
ATOM     38  C   UNL A   1      42.124  28.813  31.877  1.00  0.00     0.074 A 
ATOM     39  C   UNL A   1      40.267  29.802  30.573  1.00  0.00     0.049 A 
ATOM     40  N   UNL A   1      42.009  29.459  33.009  1.00  0.00    -0.248 NA
ATOM     41  C   UNL A   1      43.207  27.817  31.864  1.00  0.00     0.031 C 
ATOM     42  C   UNL A   1      39.360  29.973  29.435  1.00  0.00     0.029 A 
ATOM     43  N   UNL A   1      39.806  30.702  31.501  1.00  0.00    -0.354 N 
ATOM     44  C   UNL A   1      42.994  28.942  33.842  1.00  0.00     0.074 A 
ATOM     45  C   UNL A   1      43.659  27.889  33.107  1.00  0.00     0.031 C 
ATOM     46  C   UNL A   1      38.470  30.936  29.722  1.00  0.00     0.029 A 
ATOM     47  C   UNL A   1      38.717  31.426  31.074  1.00  0.00     0.049 A 
ATOM     48  H   UNL A   1      40.216  30.819  32.388  1.00  0.00     0.167 HD
ATOM     49  C   UNL A   1      43.331  29.327  35.096  1.00  0.00     0.037 A 
ATOM     50  C   UNL A   1      37.997  32.375  31.705  1.00  0.00     0.037 A 
ATOM     51  C   UNL A   1      42.678  30.393  35.812  1.00  0.00     0.049 A 
ATOM     52  C   UNL A   1      38.394  32.790  33.096  1.00  0.00     0.074 A 
ATOM     53  C   UNL A   1      42.978  30.899  37.065  1.00  0.00     0.029 A 
ATOM     54  N   UNL A   1      41.594  31.119  35.338  1.00  0.00    -0.354 N 
ATOM     55  N   UNL A   1      39.369  32.335  33.846  1.00  0.00    -0.248 NA
ATOM     56  C   UNL A   1      37.600  33.856  33.722  1.00  0.00     0.031 C 
ATOM     57  C   UNL A   1      42.047  31.898  37.368  1.00  0.00     0.029 A 
ATOM     58  C   UNL A   1      41.201  32.054  36.282  1.00  0.00     0.049 A 
ATOM     59  H   UNL A   1      41.167  30.987  34.461  1.00  0.00     0.167 HD
ATOM     60  C   UNL A   1      39.324  33.078  35.021  1.00  0.00     0.074 A 
ATOM     61  C   UNL A   1      38.235  34.020  34.875  1.00  0.00     0.031 C 
ATOM     62  C   UNL A   1      40.117  32.990  36.118  1.00  0.00     0.037 A 
BRANCH  49  63
ATOM     63  C   UNL A   1      44.457  28.595  35.773  1.00  0.00     0.058 A 
ATOM     64  C   UNL A   1      44.226  27.464  36.575  1.00  0.00     0.135 A 
ATOM     65  C   UNL A   1      45.789  29.006  35.594  1.00  0.00     0.135 A 
ATOM     66  F   UNL A   1      42.973  27.036  36.795  1.00  0.00    -0.206 F 
ATOM     67  C   UNL A   1      45.269  26.787  37.199  1.00  0.00     0.059 A 
ATOM     68  C   UNL A   1      46.850  28.326  36.183  1.00  0.00     0.059 A 
ATOM     69  F   UNL A   1      46.068  30.079  34.838  1.00  0.00    -0.206 F 
ATOM     70  C   UNL A   1      46.579  27.226  36.996  1.00  0.00     0.060 A 
BRANCH  70  71
ATOM     71  S   UNL A   1      47.922  26.332  37.808  1.00  0.00     0.124 S 
ATOM     72  O   UNL A   1      48.712  25.892  36.663  1.00  0.00    -0.237 OA
ATOM     73  O   UNL A   1      48.529  27.370  38.636  1.00  0.00    -0.237 OA
ATOM     74  O   UNL A   1      47.233  25.274  38.539  1.00  0.00    -0.744 OA
ENDBRANCH  70  71
ENDBRANCH  49  63
BRANCH  50  75
ATOM     75  C   UNL A   1      36.846  33.015  31.013  1.00  0.00     0.058 A 
ATOM     76  C   UNL A   1      35.525  32.681  31.348  1.00  0.00     0.135 A 
ATOM     77  C   UNL A   1      37.041  33.981  30.014  1.00  0.00     0.135 A 
ATOM     78  F   UNL A   1      35.285  31.759  32.293  1.00  0.00    -0.206 F 
ATOM     79  C   UNL A   1      34.439  33.266  30.705  1.00  0.00     0.059 A 
ATOM     80  C   UNL A   1      35.972  34.600  29.375  1.00  0.00     0.059 A 
ATOM     81  F   UNL A   1      38.285  34.350  29.669  1.00  0.00    -0.206 F 
ATOM     82  C   UNL A   1      34.673  34.228  29.721  1.00  0.00     0.060 A 
BRANCH  82  83
ATOM     83  S   UNL A   1      33.256  35.016  28.925  1.00  0.00     0.124 S 
ATOM     84  O   UNL A   1      32.803  33.964  28.022  1.00  0.00    -0.237 OA
ATOM     85  O   UNL A   1      32.386  35.301  30.062  1.00  0.00    -0.237 OA
ATOM     86  O   UNL A   1      33.843  36.189  28.285  1.00  0.00    -0.744 OA
ENDBRANCH  82  83
ENDBRANCH  50  75
BRANCH  62  87
ATOM     87  C   UNL A   1      39.859  33.965  37.235  1.00  0.00     0.058 A 
ATOM     88  C   UNL A   1      38.969  33.675  38.281  1.00  0.00     0.135 A 
ATOM     89  C   UNL A   1      40.549  35.188  37.280  1.00  0.00     0.135 A 
ATOM     90  F   UNL A   1      38.281  32.523  38.283  1.00  0.00    -0.206 F 
ATOM     91  C   UNL A   1      38.748  34.577  39.316  1.00  0.00     0.059 A 
ATOM     92  C   UNL A   1      40.365  36.092  38.321  1.00  0.00     0.059 A 
ATOM     93  F   UNL A   1      41.420  35.510  36.311  1.00  0.00    -0.206 F 
ATOM     94  C   UNL A   1      39.451  35.784  39.328  1.00  0.00     0.060 A 
BRANCH  94  95
ATOM     95  S   UNL A   1      39.173  36.935  40.689  1.00  0.00     0.124 S 
ATOM     96  O   UNL A   1      40.533  37.366  40.993  1.00  0.00    -0.237 OA
ATOM     97  O   UNL A   1      38.312  37.943  40.075  1.00  0.00    -0.237 OA
ATOM     98  O   UNL A   1      38.532  36.111  41.708  1.00  0.00    -0.744 OA
ENDBRANCH  94  95
ENDBRANCH  62  87
ENDBRANCH  36  37
ENDBRANCH  28  31
ENDBRANCH  26  27
ENDBRANCH  25  26
ENDBRANCH  24  25
ENDBRANCH   1  24
TORSDOF 20
ENDMDL
MODEL 2
REMARK VINA RESULT:     -11.1      4.719     10.445
REMARK SMILES CC(C)(CC(=O)NCCCCCCNC(=O)c1ccc(-c2c3nc(c(-c4c(F)cc(S(=O)(=O)[O-])cc4F)c4ccc([nH]4)c(-c4c(F)cc(S(=O)(=O)[O-])cc4F)c4nc(c(-c5c(F)cc(S(=O)(=O)[O-])cc5F)c5ccc2[nH]5)C=C4)C=C3)cc1)Cc1nc([C@@]2(C)CCCO2)no1
REMARK SMILES IDX 10 1 9 2 8 3 7 4 5 5 6 6 4 8 2 9 1 10 3 11 83 12 84 13 85 14
REMARK SMILES IDX 94 15 86 16 93 17 87 18 88 19 89 20 92 21 90 22 91 23 11 24
REMARK SMILES IDX 12 25 13 26 14 27 15 28 16 30 17 31 18 32 82 33 19 34 81 35
REMARK SMILES IDX 20 36 21 37 22 38 75 39 23 40 80 41 74 42 76 43 24 44 79 45
REMARK SMILES IDX 73 46 72 47 25 49 59 50 38 51 58 52 39 53 42 54 57 55 77 56
REMARK SMILES IDX 40 57 41 58 56 60 78 61 43 62 26 63 27 64 36 65 28 66 29 67
REMARK SMILES IDX 35 68 37 69 30 70 31 71 32 72 33 73 34 74 60 75 61 76 70 77
REMARK SMILES IDX 62 78 63 79 69 80 71 81 64 82 65 83 66 84 67 85 68 86 44 87
REMARK SMILES IDX 45 88 54 89 46 90 47 91 53 92 55 93 48 94 49 95 50 96 51 97
REMARK SMILES IDX 52 98
REMARK H PARENT 7 7 14 29 76 48 42 59
REMARK Flexibility Score: inf
ROOT
ATOM      1  C   UNL A   1      31.530  25.111  26.366  1.00  0.00     0.002 C 
ENDROOT
BRANCH   1   2
ATOM      2  C   UNL A   1      31.618  23.676  25.846  1.00  0.00     0.021 C 
BRANCH   2   3
ATOM      3  C   UNL A   1      32.401  22.719  26.741  1.00  0.00     0.116 C 
BRANCH   3   4
ATOM      4  N   UNL A   1      32.735  21.497  26.041  1.00  0.00    -0.356 N 
ATOM      5  C   UNL A   1      33.937  20.903  25.834  1.00  0.00     0.220 C 
ATOM      6  O   UNL A   1      33.955  19.802  25.282  1.00  0.00    -0.275 OA
ATOM      7  H   UNL A   1      31.966  21.020  25.652  1.00  0.00     0.163 HD
BRANCH   5   8
ATOM      8  C   UNL A   1      35.225  21.545  26.314  1.00  0.00     0.107 C 
BRANCH   8   9
ATOM      9  C   UNL A   1      35.990  22.538  25.391  1.00  0.00    -0.018 C 
ATOM     10  C   UNL A   1      35.780  24.007  25.800  1.00  0.00     0.012 C 
ATOM     11  C   UNL A   1      37.503  22.273  25.658  1.00  0.00     0.012 C 
BRANCH   9  12
ATOM     12  C   UNL A   1      35.768  22.327  23.865  1.00  0.00     0.107 C 
BRANCH  12  13
ATOM     13  C   UNL A   1      34.654  23.058  23.197  1.00  0.00     0.227 A 
ATOM     14  N   UNL A   1      34.618  24.307  22.789  1.00  0.00    -0.193 NA
ATOM     15  O   UNL A   1      33.455  22.423  23.068  1.00  0.00    -0.339 OA
ATOM     16  C   UNL A   1      33.326  24.439  22.329  1.00  0.00     0.203 A 
ATOM     17  N   UNL A   1      32.585  23.326  22.452  1.00  0.00    -0.059 NA
BRANCH  16  18
ATOM     18  C   UNL A   1      32.787  25.728  21.751  1.00  0.00     0.128 C 
ATOM     19  C   UNL A   1      32.501  25.582  20.246  1.00  0.00     0.051 C 
ATOM     20  C   UNL A   1      31.536  26.218  22.496  1.00  0.00     0.046 C 
ATOM     21  O   UNL A   1      33.748  26.820  21.852  1.00  0.00    -0.367 OA
ATOM     22  C   UNL A   1      31.622  27.721  22.360  1.00  0.00     0.032 C 
ATOM     23  C   UNL A   1      33.112  27.955  22.451  1.00  0.00     0.161 C 
ENDBRANCH  16  18
ENDBRANCH  12  13
ENDBRANCH   9  12
ENDBRANCH   8   9
ENDBRANCH   5   8
ENDBRANCH   3   4
ENDBRANCH   2   3
ENDBRANCH   1   2
BRANCH   1  24
ATOM     24  C   UNL A   1      32.739  25.982  26.028  1.00  0.00     0.002 C 
BRANCH  24  25
ATOM     25  C   UNL A   1      32.586  27.463  26.387  1.00  0.00     0.021 C 
BRANCH  25  26
ATOM     26  C   UNL A   1      33.901  28.204  26.619  1.00  0.00     0.116 C 
BRANCH  26  27
ATOM     27  N   UNL A   1      33.678  29.573  27.052  1.00  0.00    -0.352 N 
ATOM     28  C   UNL A   1      34.478  30.366  27.831  1.00  0.00     0.251 C 
ATOM     29  H   UNL A   1      32.840  29.986  26.744  1.00  0.00     0.163 HD
ATOM     30  O   UNL A   1      34.036  31.412  28.307  1.00  0.00    -0.269 OA
BRANCH  28  31
ATOM     31  C   UNL A   1      35.869  29.952  28.105  1.00  0.00     0.039 A 
ATOM     32  C   UNL A   1      36.828  30.083  27.101  1.00  0.00     0.014 A 
ATOM     33  C   UNL A   1      36.219  29.435  29.356  1.00  0.00     0.014 A 
ATOM     34  C   UNL A   1      38.153  29.733  27.365  1.00  0.00     0.010 A 
ATOM     35  C   UNL A   1      37.554  29.156  29.640  1.00  0.00     0.010 A 
ATOM     36  C   UNL A   1      38.532  29.290  28.644  1.00  0.00    -0.014 A 
BRANCH  36  37
ATOM     37  C   UNL A   1      39.944  28.946  28.949  1.00  0.00     0.031 A 
ATOM     38  C   UNL A   1      40.852  29.971  29.573  1.00  0.00     0.074 A 
ATOM     39  C   UNL A   1      40.418  27.728  28.621  1.00  0.00     0.049 A 
ATOM     40  N   UNL A   1      42.122  29.876  29.874  1.00  0.00    -0.248 NA
ATOM     41  C   UNL A   1      40.264  31.287  29.872  1.00  0.00     0.031 C 
ATOM     42  C   UNL A   1      39.648  26.667  27.967  1.00  0.00     0.029 A 
ATOM     43  N   UNL A   1      41.664  27.177  28.786  1.00  0.00    -0.354 N 
ATOM     44  C   UNL A   1      42.485  31.116  30.386  1.00  0.00     0.074 A 
ATOM     45  C   UNL A   1      41.317  31.966  30.300  1.00  0.00     0.031 C 
ATOM     46  C   UNL A   1      40.430  25.588  27.810  1.00  0.00     0.029 A 
ATOM     47  C   UNL A   1      41.765  25.888  28.318  1.00  0.00     0.049 A 
ATOM     48  H   UNL A   1      42.415  27.660  29.201  1.00  0.00     0.167 HD
ATOM     49  C   UNL A   1      43.675  31.504  30.903  1.00  0.00     0.037 A 
ATOM     50  C   UNL A   1      42.817  25.046  28.296  1.00  0.00     0.037 A 
ATOM     51  C   UNL A   1      44.825  30.644  31.007  1.00  0.00     0.049 A 
ATOM     52  C   UNL A   1      44.127  25.497  28.882  1.00  0.00     0.074 A 
ATOM     53  C   UNL A   1      46.061  30.921  31.565  1.00  0.00     0.029 A 
ATOM     54  N   UNL A   1      44.882  29.337  30.542  1.00  0.00    -0.354 N 
ATOM     55  N   UNL A   1      44.436  26.654  29.420  1.00  0.00    -0.248 NA
ATOM     56  C   UNL A   1      45.230  24.527  28.869  1.00  0.00     0.031 C 
ATOM     57  C   UNL A   1      46.879  29.799  31.396  1.00  0.00     0.029 A 
ATOM     58  C   UNL A   1      46.137  28.802  30.782  1.00  0.00     0.049 A 
ATOM     59  H   UNL A   1      44.139  28.861  30.105  1.00  0.00     0.167 HD
ATOM     60  C   UNL A   1      45.758  26.540  29.836  1.00  0.00     0.074 A 
ATOM     61  C   UNL A   1      46.185  25.198  29.498  1.00  0.00     0.031 C 
ATOM     62  C   UNL A   1      46.545  27.461  30.446  1.00  0.00     0.037 A 
BRANCH  49  63
ATOM     63  C   UNL A   1      43.792  32.919  31.402  1.00  0.00     0.058 A 
ATOM     64  C   UNL A   1      43.479  33.263  32.728  1.00  0.00     0.135 A 
ATOM     65  C   UNL A   1      44.253  33.940  30.555  1.00  0.00     0.135 A 
ATOM     66  F   UNL A   1      43.018  32.331  33.577  1.00  0.00    -0.206 F 
ATOM     67  C   UNL A   1      43.590  34.571  33.187  1.00  0.00     0.059 A 
ATOM     68  C   UNL A   1      44.401  35.250  31.001  1.00  0.00     0.059 A 
ATOM     69  F   UNL A   1      44.567  33.669  29.278  1.00  0.00    -0.206 F 
ATOM     70  C   UNL A   1      44.052  35.559  32.315  1.00  0.00     0.060 A 
BRANCH  70  71
ATOM     71  S   UNL A   1      44.195  37.251  32.929  1.00  0.00     0.124 S 
ATOM     72  O   UNL A   1      45.538  37.240  33.500  1.00  0.00    -0.237 OA
ATOM     73  O   UNL A   1      44.031  38.038  31.711  1.00  0.00    -0.237 OA
ATOM     74  O   UNL A   1      43.105  37.357  33.893  1.00  0.00    -0.744 OA
ENDBRANCH  70  71
ENDBRANCH  49  63
BRANCH  50  75
ATOM     75  C   UNL A   1      42.663  23.682  27.724  1.00  0.00     0.058 A 
ATOM     76  C   UNL A   1      42.797  23.457  26.345  1.00  0.00     0.135 A 
ATOM     77  C   UNL A   1      42.393  22.574  28.542  1.00  0.00     0.135 A 
ATOM     78  F   UNL A   1      43.050  24.484  25.520  1.00  0.00    -0.206 F 
ATOM     79  C   UNL A   1      42.649  22.188  25.795  1.00  0.00     0.059 A 
ATOM     80  C   UNL A   1      42.267  21.290  28.020  1.00  0.00     0.059 A 
ATOM     81  F   UNL A   1      42.274  22.731  29.870  1.00  0.00    -0.206 F 
ATOM     82  C   UNL A   1      42.386  21.110  26.642  1.00  0.00     0.060 A 
BRANCH  82  83
ATOM     83  S   UNL A   1      42.243  19.459  25.924  1.00  0.00     0.124 S 
ATOM     84  O   UNL A   1      40.804  19.354  25.711  1.00  0.00    -0.237 OA
ATOM     85  O   UNL A   1      43.061  19.576  24.720  1.00  0.00    -0.237 OA
ATOM     86  O   UNL A   1      42.793  18.593  26.963  1.00  0.00    -0.744 OA
ENDBRANCH  82  83
ENDBRANCH  50  75
BRANCH  62  87
ATOM     87  C   UNL A   1      47.938  27.038  30.822  1.00  0.00     0.058 A 
ATOM     88  C   UNL A   1      48.204  26.334  32.008  1.00  0.00     0.135 A 
ATOM     89  C   UNL A   1      49.016  27.304  29.962  1.00  0.00     0.135 A 
ATOM     90  F   UNL A   1      47.211  26.059  32.867  1.00  0.00    -0.206 F 
ATOM     91  C   UNL A   1      49.494  25.934  32.341  1.00  0.00     0.059 A 
ATOM     92  C   UNL A   1      50.309  26.888  30.261  1.00  0.00     0.059 A 
ATOM     93  F   UNL A   1      48.815  27.964  28.810  1.00  0.00    -0.206 F 
ATOM     94  C   UNL A   1      50.541  26.216  31.460  1.00  0.00     0.060 A 
BRANCH  94  95
ATOM     95  S   UNL A   1      52.207  25.673  31.892  1.00  0.00     0.124 S 
ATOM     96  O   UNL A   1      51.982  24.270  32.223  1.00  0.00    -0.237 OA
ATOM     97  O   UNL A   1      52.947  25.923  30.659  1.00  0.00    -0.237 OA
ATOM     98  O   UNL A   1      52.565  26.533  33.015  1.00  0.00    -0.744 OA
ENDBRANCH  94  95
ENDBRANCH  62  87
ENDBRANCH  36  37
ENDBRANCH  28  31
ENDBRANCH  26  27
ENDBRANCH  25  26
ENDBRANCH  24  25
ENDBRANCH   1  24
TORSDOF 20
ENDMDL
MODEL 3
REMARK VINA RESULT:     -10.9      3.394      9.563
REMARK SMILES CC(C)(CC(=O)NCCCCCCNC(=O)c1ccc(-c2c3nc(c(-c4c(F)cc(S(=O)(=O)[O-])cc4F)c4ccc([nH]4)c(-c4c(F)cc(S(=O)(=O)[O-])cc4F)c4nc(c(-c5c(F)cc(S(=O)(=O)[O-])cc5F)c5ccc2[nH]5)C=C4)C=C3)cc1)Cc1nc([C@@]2(C)CCCO2)no1
REMARK SMILES IDX 10 1 9 2 8 3 7 4 5 5 6 6 4 8 2 9 1 10 3 11 83 12 84 13 85 14
REMARK SMILES IDX 94 15 86 16 93 17 87 18 88 19 89 20 92 21 90 22 91 23 11 24
REMARK SMILES IDX 12 25 13 26 14 27 15 28 16 30 17 31 18 32 82 33 19 34 81 35
REMARK SMILES IDX 20 36 21 37 22 38 75 39 23 40 80 41 74 42 76 43 24 44 79 45
REMARK SMILES IDX 73 46 72 47 25 49 59 50 38 51 58 52 39 53 42 54 57 55 77 56
REMARK SMILES IDX 40 57 41 58 56 60 78 61 43 62 26 63 27 64 36 65 28 66 29 67
REMARK SMILES IDX 35 68 37 69 30 70 31 71 32 72 33 73 34 74 60 75 61 76 70 77
REMARK SMILES IDX 62 78 63 79 69 80 71 81 64 82 65 83 66 84 67 85 68 86 44 87
REMARK SMILES IDX 45 88 54 89 46 90 47 91 53 92 55 93 48 94 49 95 50 96 51 97
REMARK SMILES IDX 52 98
REMARK H PARENT 7 7 14 29 76 48 42 59
REMARK Flexibility Score: inf
ROOT
ATOM      1  C   UNL A   1      31.221  25.449  26.192  1.00  0.00     0.002 C 
ENDROOT
BRANCH   1   2
ATOM      2  C   UNL A   1      31.237  23.951  25.888  1.00  0.00     0.021 C 
BRANCH   2   3
ATOM      3  C   UNL A   1      32.116  23.120  26.819  1.00  0.00     0.116 C 
BRANCH   3   4
ATOM      4  N   UNL A   1      32.390  21.814  26.259  1.00  0.00    -0.356 N 
ATOM      5  C   UNL A   1      33.565  21.153  26.107  1.00  0.00     0.220 C 
ATOM      6  O   UNL A   1      33.532  19.996  25.683  1.00  0.00    -0.275 OA
ATOM      7  H   UNL A   1      31.597  21.328  25.935  1.00  0.00     0.163 HD
BRANCH   5   8
ATOM      8  C   UNL A   1      34.884  21.792  26.497  1.00  0.00     0.107 C 
BRANCH   8   9
ATOM      9  C   UNL A   1      35.775  22.460  25.410  1.00  0.00    -0.018 C 
ATOM     10  C   UNL A   1      35.958  23.971  25.642  1.00  0.00     0.012 C 
ATOM     11  C   UNL A   1      37.201  21.863  25.613  1.00  0.00     0.012 C 
BRANCH   9  12
ATOM     12  C   UNL A   1      35.372  22.148  23.939  1.00  0.00     0.107 C 
BRANCH  12  13
ATOM     13  C   UNL A   1      34.323  22.985  23.292  1.00  0.00     0.227 A 
ATOM     14  N   UNL A   1      34.421  24.210  22.827  1.00  0.00    -0.193 NA
ATOM     15  O   UNL A   1      33.050  22.502  23.252  1.00  0.00    -0.339 OA
ATOM     16  C   UNL A   1      33.132  24.486  22.425  1.00  0.00     0.203 A 
ATOM     17  N   UNL A   1      32.266  23.481  22.636  1.00  0.00    -0.059 NA
BRANCH  16  18
ATOM     18  C   UNL A   1      32.727  25.808  21.813  1.00  0.00     0.128 C 
ATOM     19  C   UNL A   1      32.563  25.683  20.287  1.00  0.00     0.051 C 
ATOM     20  C   UNL A   1      31.450  26.374  22.451  1.00  0.00     0.046 C 
ATOM     21  O   UNL A   1      33.742  26.837  22.004  1.00  0.00    -0.367 OA
ATOM     22  C   UNL A   1      31.641  27.869  22.334  1.00  0.00     0.032 C 
ATOM     23  C   UNL A   1      33.129  28.008  22.555  1.00  0.00     0.161 C 
ENDBRANCH  16  18
ENDBRANCH  12  13
ENDBRANCH   9  12
ENDBRANCH   8   9
ENDBRANCH   5   8
ENDBRANCH   3   4
ENDBRANCH   2   3
ENDBRANCH   1   2
BRANCH   1  24
ATOM     24  C   UNL A   1      32.525  26.176  25.868  1.00  0.00     0.002 C 
BRANCH  24  25
ATOM     25  C   UNL A   1      32.765  27.456  26.674  1.00  0.00     0.021 C 
BRANCH  25  26
ATOM     26  C   UNL A   1      33.979  28.271  26.232  1.00  0.00     0.116 C 
BRANCH  26  27
ATOM     27  N   UNL A   1      33.764  29.697  26.409  1.00  0.00    -0.352 N 
ATOM     28  C   UNL A   1      34.410  30.563  27.250  1.00  0.00     0.251 C 
ATOM     29  H   UNL A   1      33.058  30.094  25.849  1.00  0.00     0.163 HD
ATOM     30  O   UNL A   1      33.948  31.686  27.457  1.00  0.00    -0.269 OA
BRANCH  28  31
ATOM     31  C   UNL A   1      35.658  30.138  27.915  1.00  0.00     0.039 A 
ATOM     32  C   UNL A   1      36.867  30.248  27.227  1.00  0.00     0.014 A 
ATOM     33  C   UNL A   1      35.628  29.631  29.218  1.00  0.00     0.014 A 
ATOM     34  C   UNL A   1      38.055  29.887  27.864  1.00  0.00     0.010 A 
ATOM     35  C   UNL A   1      36.821  29.342  29.875  1.00  0.00     0.010 A 
ATOM     36  C   UNL A   1      38.046  29.454  29.201  1.00  0.00    -0.014 A 
BRANCH  36  37
ATOM     37  C   UNL A   1      39.306  29.098  29.901  1.00  0.00     0.031 A 
ATOM     38  C   UNL A   1      39.726  29.858  31.131  1.00  0.00     0.074 A 
ATOM     39  C   UNL A   1      40.093  28.125  29.402  1.00  0.00     0.049 A 
ATOM     40  N   UNL A   1      40.808  29.725  31.854  1.00  0.00    -0.248 NA
ATOM     41  C   UNL A   1      38.825  30.927  31.592  1.00  0.00     0.031 C 
ATOM     42  C   UNL A   1      39.817  27.352  28.189  1.00  0.00     0.029 A 
ATOM     43  N   UNL A   1      41.289  27.622  29.849  1.00  0.00    -0.354 N 
ATOM     44  C   UNL A   1      40.723  30.696  32.845  1.00  0.00     0.074 A 
ATOM     45  C   UNL A   1      39.513  31.449  32.597  1.00  0.00     0.031 C 
ATOM     46  C   UNL A   1      40.802  26.459  28.003  1.00  0.00     0.029 A 
ATOM     47  C   UNL A   1      41.795  26.616  29.060  1.00  0.00     0.049 A 
ATOM     48  H   UNL A   1      41.742  27.952  30.658  1.00  0.00     0.167 HD
ATOM     49  C   UNL A   1      41.563  30.923  33.884  1.00  0.00     0.037 A 
ATOM     50  C   UNL A   1      42.934  25.905  29.175  1.00  0.00     0.037 A 
ATOM     51  C   UNL A   1      42.753  30.153  34.137  1.00  0.00     0.049 A 
ATOM     52  C   UNL A   1      43.849  26.171  30.339  1.00  0.00     0.074 A 
ATOM     53  C   UNL A   1      43.642  30.266  35.192  1.00  0.00     0.029 A 
ATOM     54  N   UNL A   1      43.220  29.126  33.329  1.00  0.00    -0.354 N 
ATOM     55  N   UNL A   1      43.721  27.051  31.304  1.00  0.00    -0.248 NA
ATOM     56  C   UNL A   1      45.057  25.342  30.438  1.00  0.00     0.031 C 
ATOM     57  C   UNL A   1      44.672  29.338  34.996  1.00  0.00     0.029 A 
ATOM     58  C   UNL A   1      44.396  28.611  33.849  1.00  0.00     0.049 A 
ATOM     59  H   UNL A   1      42.782  28.812  32.505  1.00  0.00     0.167 HD
ATOM     60  C   UNL A   1      44.816  26.861  32.140  1.00  0.00     0.074 A 
ATOM     61  C   UNL A   1      45.587  25.774  31.574  1.00  0.00     0.031 C 
ATOM     62  C   UNL A   1      45.149  27.523  33.276  1.00  0.00     0.037 A 
BRANCH  49  63
ATOM     63  C   UNL A   1      41.222  32.046  34.825  1.00  0.00     0.058 A 
ATOM     64  C   UNL A   1      41.724  33.345  34.637  1.00  0.00     0.135 A 
ATOM     65  C   UNL A   1      40.357  31.833  35.911  1.00  0.00     0.135 A 
ATOM     66  F   UNL A   1      42.569  33.603  33.625  1.00  0.00    -0.206 F 
ATOM     67  C   UNL A   1      41.407  34.383  35.508  1.00  0.00     0.059 A 
ATOM     68  C   UNL A   1      40.001  32.863  36.776  1.00  0.00     0.059 A 
ATOM     69  F   UNL A   1      39.847  30.613  36.138  1.00  0.00    -0.206 F 
ATOM     70  C   UNL A   1      40.544  34.131  36.575  1.00  0.00     0.060 A 
BRANCH  70  71
ATOM     71  S   UNL A   1      40.137  35.490  37.692  1.00  0.00     0.124 S 
ATOM     72  O   UNL A   1      39.931  36.587  36.752  1.00  0.00    -0.237 OA
ATOM     73  O   UNL A   1      38.937  34.995  38.360  1.00  0.00    -0.237 OA
ATOM     74  O   UNL A   1      41.321  35.602  38.538  1.00  0.00    -0.744 OA
ENDBRANCH  70  71
ENDBRANCH  49  63
BRANCH  50  75
ATOM     75  C   UNL A   1      43.257  24.854  28.172  1.00  0.00     0.058 A 
ATOM     76  C   UNL A   1      42.909  23.513  28.393  1.00  0.00     0.135 A 
ATOM     77  C   UNL A   1      43.907  25.170  26.969  1.00  0.00     0.135 A 
ATOM     78  F   UNL A   1      42.291  23.159  29.530  1.00  0.00    -0.206 F 
ATOM     79  C   UNL A   1      43.210  22.519  27.468  1.00  0.00     0.059 A 
ATOM     80  C   UNL A   1      44.195  24.199  26.015  1.00  0.00     0.059 A 
ATOM     81  F   UNL A   1      44.245  26.441  26.700  1.00  0.00    -0.206 F 
ATOM     82  C   UNL A   1      43.852  22.873  26.279  1.00  0.00     0.060 A 
BRANCH  82  83
ATOM     83  S   UNL A   1      44.196  21.583  25.063  1.00  0.00     0.124 S 
ATOM     84  O   UNL A   1      44.076  22.319  23.811  1.00  0.00    -0.237 OA
ATOM     85  O   UNL A   1      45.545  21.165  25.433  1.00  0.00    -0.237 OA
ATOM     86  O   UNL A   1      43.152  20.596  25.319  1.00  0.00    -0.744 OA
ENDBRANCH  82  83
ENDBRANCH  50  75
BRANCH  62  87
ATOM     87  C   UNL A   1      46.383  27.066  34.005  1.00  0.00     0.058 A 
ATOM     88  C   UNL A   1      47.664  27.518  33.649  1.00  0.00     0.135 A 
ATOM     89  C   UNL A   1      46.276  26.198  35.104  1.00  0.00     0.135 A 
ATOM     90  F   UNL A   1      47.822  28.345  32.604  1.00  0.00    -0.206 F 
ATOM     91  C   UNL A   1      48.798  27.100  34.337  1.00  0.00     0.059 A 
ATOM     92  C   UNL A   1      47.393  25.790  35.825  1.00  0.00     0.059 A 
ATOM     93  F   UNL A   1      45.074  25.745  35.493  1.00  0.00    -0.206 F 
ATOM     94  C   UNL A   1      48.653  26.236  35.425  1.00  0.00     0.060 A 
BRANCH  94  95
ATOM     95  S   UNL A   1      50.129  25.719  36.324  1.00  0.00     0.124 S 
ATOM     96  O   UNL A   1      51.162  26.526  35.683  1.00  0.00    -0.237 OA
ATOM     97  O   UNL A   1      49.802  26.087  37.700  1.00  0.00    -0.237 OA
ATOM     98  O   UNL A   1      50.201  24.285  36.066  1.00  0.00    -0.744 OA
ENDBRANCH  94  95
ENDBRANCH  62  87
ENDBRANCH  36  37
ENDBRANCH  28  31
ENDBRANCH  26  27
ENDBRANCH  25  26
ENDBRANCH  24  25
ENDBRANCH   1  24
TORSDOF 20
ENDMDL
