MODEL 1
REMARK VINA RESULT:     -12.0      0.000      0.000
REMARK SMILES O=C(NCCCCCCNC(=O)c1ccccc1O[C@H]1CCOC2(CCSCC2)C1)c1ccc(-c2c3nc(c(-c4c(F)cc(S(=O)(=O)[O-])cc4F)c4ccc([nH]4)c(-c4c(F)cc(S(=O)(=O)[O-])cc4F)c4nc(c(-c5c(F)cc(S(=O)(=O)[O-])cc5F)c5ccc2[nH]5)C=C4)C=C3)cc1
REMARK SMILES IDX 6 1 5 2 4 3 3 4 1 5 2 6 31 8 32 9 96 10 33 11 95 12 34 13
REMARK SMILES IDX 35 14 36 15 89 16 37 17 94 18 88 19 90 20 38 21 93 22 87 23
REMARK SMILES IDX 86 24 39 26 73 27 52 28 72 29 53 30 56 31 71 32 91 33 54 34
REMARK SMILES IDX 55 35 70 37 92 38 57 39 40 40 41 41 50 42 42 43 43 44 49 45
REMARK SMILES IDX 51 46 44 47 45 48 46 49 47 50 48 51 74 52 75 53 84 54 76 55
REMARK SMILES IDX 77 56 83 57 85 58 78 59 79 60 80 61 81 62 82 63 58 64 59 65
REMARK SMILES IDX 68 66 60 67 61 68 67 69 69 70 62 71 63 72 64 73 65 74 66 75
REMARK SMILES IDX 7 76 8 77 9 78 10 79 11 80 12 82 13 83 14 84 18 85 15 86
REMARK SMILES IDX 17 87 16 88 19 89 20 90 21 91 30 92 22 93 24 94 23 95 25 96
REMARK SMILES IDX 29 97 26 98 28 99 27 100
REMARK H PARENT 3 7 90 25 56 36 10 81
REMARK Flexibility Score: inf
ROOT
ATOM      1  C   UNL A   1      39.965  22.681  26.904  1.00  0.00     0.002 C 
ENDROOT
BRANCH   1   2
ATOM      2  C   UNL A   1      41.455  22.350  26.862  1.00  0.00     0.021 C 
BRANCH   2   3
ATOM      3  C   UNL A   1      42.398  23.532  27.034  1.00  0.00     0.116 C 
BRANCH   3   4
ATOM      4  N   UNL A   1      42.504  24.370  25.852  1.00  0.00    -0.352 N 
ATOM      5  O   UNL A   1      42.291  26.256  24.629  1.00  0.00    -0.269 OA
ATOM      6  C   UNL A   1      42.246  25.717  25.731  1.00  0.00     0.251 C 
ATOM      7  H   UNL A   1      42.798  23.915  25.031  1.00  0.00     0.163 HD
BRANCH   6   8
ATOM      8  C   UNL A   1      41.878  26.504  26.932  1.00  0.00     0.039 A 
ATOM      9  C   UNL A   1      42.484  27.734  27.188  1.00  0.00     0.014 A 
ATOM     10  C   UNL A   1      40.929  25.992  27.822  1.00  0.00     0.014 A 
ATOM     11  C   UNL A   1      42.257  28.375  28.399  1.00  0.00     0.010 A 
ATOM     12  C   UNL A   1      40.635  26.686  29.002  1.00  0.00     0.010 A 
ATOM     13  C   UNL A   1      41.320  27.869  29.316  1.00  0.00    -0.014 A 
BRANCH  13  14
ATOM     14  C   UNL A   1      41.041  28.647  30.551  1.00  0.00     0.031 A 
ATOM     15  C   UNL A   1      41.908  28.526  31.774  1.00  0.00     0.074 A 
ATOM     16  C   UNL A   1      40.018  29.525  30.529  1.00  0.00     0.049 A 
ATOM     17  N   UNL A   1      41.842  29.199  32.895  1.00  0.00    -0.248 NA
ATOM     18  C   UNL A   1      42.982  27.521  31.744  1.00  0.00     0.031 C 
ATOM     19  C   UNL A   1      39.088  29.704  29.411  1.00  0.00     0.029 A 
ATOM     20  N   UNL A   1      39.608  30.454  31.451  1.00  0.00    -0.354 N 
ATOM     21  C   UNL A   1      42.853  28.697  33.707  1.00  0.00     0.074 A 
ATOM     22  C   UNL A   1      43.504  27.643  32.958  1.00  0.00     0.031 C 
ATOM     23  C   UNL A   1      38.257  30.719  29.685  1.00  0.00     0.029 A 
ATOM     24  C   UNL A   1      38.558  31.228  31.017  1.00  0.00     0.049 A 
ATOM     25  H   UNL A   1      40.024  30.556  32.337  1.00  0.00     0.167 HD
ATOM     26  C   UNL A   1      43.209  29.088  34.955  1.00  0.00     0.037 A 
ATOM     27  C   UNL A   1      37.903  32.234  31.624  1.00  0.00     0.037 A 
ATOM     28  C   UNL A   1      42.562  30.146  35.691  1.00  0.00     0.049 A 
ATOM     29  C   UNL A   1      38.337  32.664  32.995  1.00  0.00     0.074 A 
ATOM     30  C   UNL A   1      42.853  30.619  36.959  1.00  0.00     0.029 A 
ATOM     31  N   UNL A   1      41.496  30.901  35.223  1.00  0.00    -0.354 N 
ATOM     32  N   UNL A   1      39.305  32.184  33.737  1.00  0.00    -0.248 NA
ATOM     33  C   UNL A   1      37.591  33.768  33.610  1.00  0.00     0.031 C 
ATOM     34  C   UNL A   1      41.946  31.640  37.268  1.00  0.00     0.029 A 
ATOM     35  C   UNL A   1      41.114  31.830  36.178  1.00  0.00     0.049 A 
ATOM     36  H   UNL A   1      41.072  30.793  34.340  1.00  0.00     0.167 HD
ATOM     37  C   UNL A   1      39.282  32.923  34.911  1.00  0.00     0.074 A 
ATOM     38  C   UNL A   1      38.229  33.908  34.764  1.00  0.00     0.031 C 
ATOM     39  C   UNL A   1      40.053  32.792  36.019  1.00  0.00     0.037 A 
BRANCH  26  40
ATOM     40  C   UNL A   1      44.354  28.370  35.616  1.00  0.00     0.058 A 
ATOM     41  C   UNL A   1      44.148  27.228  36.406  1.00  0.00     0.135 A 
ATOM     42  C   UNL A   1      45.679  28.788  35.407  1.00  0.00     0.135 A 
ATOM     43  F   UNL A   1      42.901  26.793  36.651  1.00  0.00    -0.206 F 
ATOM     44  C   UNL A   1      45.211  26.533  36.973  1.00  0.00     0.059 A 
ATOM     45  C   UNL A   1      46.759  28.096  35.947  1.00  0.00     0.059 A 
ATOM     46  F   UNL A   1      45.933  29.875  34.660  1.00  0.00    -0.206 F 
ATOM     47  C   UNL A   1      46.514  26.974  36.737  1.00  0.00     0.060 A 
BRANCH  47  48
ATOM     48  S   UNL A   1      47.888  26.046  37.455  1.00  0.00     0.124 S 
ATOM     49  O   UNL A   1      48.821  25.995  36.334  1.00  0.00    -0.237 OA
ATOM     50  O   UNL A   1      48.286  26.893  38.575  1.00  0.00    -0.237 OA
ATOM     51  O   UNL A   1      47.279  24.772  37.825  1.00  0.00    -0.744 OA
ENDBRANCH  47  48
ENDBRANCH  26  40
BRANCH  27  52
ATOM     52  C   UNL A   1      36.764  32.892  30.933  1.00  0.00     0.058 A 
ATOM     53  C   UNL A   1      35.437  32.613  31.288  1.00  0.00     0.135 A 
ATOM     54  C   UNL A   1      36.988  33.837  29.920  1.00  0.00     0.135 A 
ATOM     55  F   UNL A   1      35.174  31.715  32.250  1.00  0.00    -0.206 F 
ATOM     56  C   UNL A   1      34.368  33.237  30.653  1.00  0.00     0.059 A 
ATOM     57  C   UNL A   1      35.937  34.494  29.289  1.00  0.00     0.059 A 
ATOM     58  F   UNL A   1      38.241  34.154  29.560  1.00  0.00    -0.206 F 
ATOM     59  C   UNL A   1      34.630  34.178  29.655  1.00  0.00     0.060 A 
BRANCH  59  60
ATOM     60  S   UNL A   1      33.244  35.028  28.870  1.00  0.00     0.124 S 
ATOM     61  O   UNL A   1      32.435  35.393  30.027  1.00  0.00    -0.237 OA
ATOM     62  O   UNL A   1      33.904  36.130  28.179  1.00  0.00    -0.237 OA
ATOM     63  O   UNL A   1      32.676  34.003  27.998  1.00  0.00    -0.744 OA
ENDBRANCH  59  60
ENDBRANCH  27  52
BRANCH  39  64
ATOM     64  C   UNL A   1      39.775  33.740  37.149  1.00  0.00     0.058 A 
ATOM     65  C   UNL A   1      40.461  34.960  37.262  1.00  0.00     0.135 A 
ATOM     66  C   UNL A   1      38.821  33.428  38.128  1.00  0.00     0.135 A 
ATOM     67  F   UNL A   1      41.390  35.300  36.354  1.00  0.00    -0.206 F 
ATOM     68  C   UNL A   1      40.237  35.821  38.330  1.00  0.00     0.059 A 
ATOM     69  C   UNL A   1      38.564  34.286  39.192  1.00  0.00     0.059 A 
ATOM     70  F   UNL A   1      38.132  32.278  38.059  1.00  0.00    -0.206 F 
ATOM     71  C   UNL A   1      39.292  35.471  39.295  1.00  0.00     0.060 A 
BRANCH  71  72
ATOM     72  S   UNL A   1      39.011  36.591  40.684  1.00  0.00     0.124 S 
ATOM     73  O   UNL A   1      38.418  37.743  40.013  1.00  0.00    -0.237 OA
ATOM     74  O   UNL A   1      38.112  35.819  41.535  1.00  0.00    -0.237 OA
ATOM     75  O   UNL A   1      40.351  36.799  41.224  1.00  0.00    -0.744 OA
ENDBRANCH  71  72
ENDBRANCH  39  64
ENDBRANCH  13  14
ENDBRANCH   6   8
ENDBRANCH   3   4
ENDBRANCH   2   3
ENDBRANCH   1   2
BRANCH   1  76
ATOM     76  C   UNL A   1      39.040  21.737  26.128  1.00  0.00     0.002 C 
BRANCH  76  77
ATOM     77  C   UNL A   1      37.796  22.367  25.490  1.00  0.00     0.021 C 
BRANCH  77  78
ATOM     78  C   UNL A   1      36.584  21.451  25.348  1.00  0.00     0.116 C 
BRANCH  78  79
ATOM     79  N   UNL A   1      35.703  21.512  26.496  1.00  0.00    -0.352 N 
ATOM     80  C   UNL A   1      34.339  21.406  26.541  1.00  0.00     0.255 C 
ATOM     81  H   UNL A   1      36.147  21.648  27.363  1.00  0.00     0.163 HD
ATOM     82  O   UNL A   1      33.759  21.526  27.620  1.00  0.00    -0.269 OA
BRANCH  80  83
ATOM     83  C   UNL A   1      33.532  21.226  25.312  1.00  0.00     0.081 A 
ATOM     84  C   UNL A   1      33.135  19.909  25.030  1.00  0.00     0.018 A 
ATOM     85  C   UNL A   1      33.249  22.266  24.410  1.00  0.00     0.132 A 
ATOM     86  C   UNL A   1      32.446  19.617  23.856  1.00  0.00     0.001 A 
ATOM     87  C   UNL A   1      32.598  21.944  23.212  1.00  0.00     0.047 A 
ATOM     88  C   UNL A   1      32.188  20.633  22.943  1.00  0.00     0.004 A 
BRANCH  85  89
ATOM     89  O   UNL A   1      33.638  23.532  24.759  1.00  0.00    -0.489 OA
BRANCH  89  90
ATOM     90  C   UNL A   1      32.654  24.567  24.892  1.00  0.00     0.178 C 
ATOM     91  C   UNL A   1      31.443  24.130  25.719  1.00  0.00     0.074 C 
ATOM     92  C   UNL A   1      33.316  25.741  25.630  1.00  0.00     0.080 C 
ATOM     93  C   UNL A   1      30.494  25.302  25.882  1.00  0.00     0.165 C 
ATOM     94  C   UNL A   1      32.328  26.901  25.883  1.00  0.00     0.073 C 
ATOM     95  O   UNL A   1      31.140  26.398  26.515  1.00  0.00    -0.375 OA
ATOM     96  C   UNL A   1      32.005  27.631  24.558  1.00  0.00     0.046 C 
ATOM     97  C   UNL A   1      32.957  27.875  26.907  1.00  0.00     0.046 C 
ATOM     98  C   UNL A   1      31.074  28.829  24.709  1.00  0.00     0.072 C 
ATOM     99  C   UNL A   1      32.085  29.088  27.226  1.00  0.00     0.072 C 
ATOM    100  S   UNL A   1      31.830  30.101  25.745  1.00  0.00    -0.162 SA
ENDBRANCH  89  90
ENDBRANCH  85  89
ENDBRANCH  80  83
ENDBRANCH  78  79
ENDBRANCH  77  78
ENDBRANCH  76  77
ENDBRANCH   1  76
TORSDOF 18
ENDMDL
MODEL 2
REMARK VINA RESULT:     -11.8      6.251     11.927
REMARK SMILES O=C(NCCCCCCNC(=O)c1ccccc1O[C@H]1CCOC2(CCSCC2)C1)c1ccc(-c2c3nc(c(-c4c(F)cc(S(=O)(=O)[O-])cc4F)c4ccc([nH]4)c(-c4c(F)cc(S(=O)(=O)[O-])cc4F)c4nc(c(-c5c(F)cc(S(=O)(=O)[O-])cc5F)c5ccc2[nH]5)C=C4)C=C3)cc1
REMARK SMILES IDX 6 1 5 2 4 3 3 4 1 5 2 6 31 8 32 9 96 10 33 11 95 12 34 13
REMARK SMILES IDX 35 14 36 15 89 16 37 17 94 18 88 19 90 20 38 21 93 22 87 23
REMARK SMILES IDX 86 24 39 26 73 27 52 28 72 29 53 30 56 31 71 32 91 33 54 34
REMARK SMILES IDX 55 35 70 37 92 38 57 39 40 40 41 41 50 42 42 43 43 44 49 45
REMARK SMILES IDX 51 46 44 47 45 48 46 49 47 50 48 51 74 52 75 53 84 54 76 55
REMARK SMILES IDX 77 56 83 57 85 58 78 59 79 60 80 61 81 62 82 63 58 64 59 65
REMARK SMILES IDX 68 66 60 67 61 68 67 69 69 70 62 71 63 72 64 73 65 74 66 75
REMARK SMILES IDX 7 76 8 77 9 78 10 79 11 80 12 82 13 83 14 84 18 85 15 86
REMARK SMILES IDX 17 87 16 88 19 89 20 90 21 91 30 92 22 93 24 94 23 95 25 96
REMARK SMILES IDX 29 97 26 98 28 99 27 100
REMARK H PARENT 3 7 90 25 56 36 10 81
REMARK Flexibility Score: inf
ROOT
ATOM      1  C   UNL A   1      34.885  32.693  28.731  1.00  0.00     0.002 C 
ENDROOT
BRANCH   1   2
ATOM      2  C   UNL A   1      36.251  33.372  28.813  1.00  0.00     0.021 C 
BRANCH   2   3
ATOM      3  C   UNL A   1      37.014  33.163  30.112  1.00  0.00     0.116 C 
BRANCH   3   4
ATOM      4  N   UNL A   1      36.423  32.159  30.980  1.00  0.00    -0.352 N 
ATOM      5  O   UNL A   1      36.189  30.121  31.924  1.00  0.00    -0.269 OA
ATOM      6  C   UNL A   1      36.865  30.880  31.236  1.00  0.00     0.251 C 
ATOM      7  H   UNL A   1      35.599  32.428  31.445  1.00  0.00     0.163 HD
BRANCH   6   8
ATOM      8  C   UNL A   1      38.142  30.415  30.646  1.00  0.00     0.039 A 
ATOM      9  C   UNL A   1      39.251  30.167  31.457  1.00  0.00     0.014 A 
ATOM     10  C   UNL A   1      38.236  30.243  29.261  1.00  0.00     0.014 A 
ATOM     11  C   UNL A   1      40.484  29.900  30.875  1.00  0.00     0.010 A 
ATOM     12  C   UNL A   1      39.460  29.884  28.684  1.00  0.00     0.010 A 
ATOM     13  C   UNL A   1      40.603  29.740  29.483  1.00  0.00    -0.014 A 
BRANCH  13  14
ATOM     14  C   UNL A   1      41.924  29.354  28.922  1.00  0.00     0.031 A 
ATOM     15  C   UNL A   1      43.081  30.315  28.891  1.00  0.00     0.074 A 
ATOM     16  C   UNL A   1      42.085  28.085  28.496  1.00  0.00     0.049 A 
ATOM     17  N   UNL A   1      44.315  30.100  28.512  1.00  0.00    -0.248 NA
ATOM     18  C   UNL A   1      42.825  31.694  29.336  1.00  0.00     0.031 C 
ATOM     19  C   UNL A   1      41.024  27.075  28.446  1.00  0.00     0.029 A 
ATOM     20  N   UNL A   1      43.198  27.416  28.058  1.00  0.00    -0.354 N 
ATOM     21  C   UNL A   1      44.981  31.311  28.659  1.00  0.00     0.074 A 
ATOM     22  C   UNL A   1      44.006  32.267  29.141  1.00  0.00     0.031 C 
ATOM     23  C   UNL A   1      41.548  25.903  28.062  1.00  0.00     0.029 A 
ATOM     24  C   UNL A   1      42.968  26.089  27.786  1.00  0.00     0.049 A 
ATOM     25  H   UNL A   1      44.077  27.845  27.947  1.00  0.00     0.167 HD
ATOM     26  C   UNL A   1      46.286  31.593  28.424  1.00  0.00     0.037 A 
ATOM     27  C   UNL A   1      43.803  25.124  27.358  1.00  0.00     0.037 A 
ATOM     28  C   UNL A   1      47.253  30.633  27.954  1.00  0.00     0.049 A 
ATOM     29  C   UNL A   1      45.248  25.460  27.132  1.00  0.00     0.074 A 
ATOM     30  C   UNL A   1      48.599  30.822  27.691  1.00  0.00     0.029 A 
ATOM     31  N   UNL A   1      46.980  29.300  27.681  1.00  0.00    -0.354 N 
ATOM     32  N   UNL A   1      45.858  26.609  27.292  1.00  0.00    -0.248 NA
ATOM     33  C   UNL A   1      46.116  24.371  26.669  1.00  0.00     0.031 C 
ATOM     34  C   UNL A   1      49.133  29.611  27.233  1.00  0.00     0.029 A 
ATOM     35  C   UNL A   1      48.130  28.657  27.247  1.00  0.00     0.049 A 
ATOM     36  H   UNL A   1      46.099  28.873  27.781  1.00  0.00     0.167 HD
ATOM     37  C   UNL A   1      47.182  26.384  26.943  1.00  0.00     0.074 A 
ATOM     38  C   UNL A   1      47.291  24.980  26.600  1.00  0.00     0.031 C 
ATOM     39  C   UNL A   1      48.214  27.262  26.896  1.00  0.00     0.037 A 
BRANCH  26  40
ATOM     40  C   UNL A   1      46.755  33.002  28.670  1.00  0.00     0.058 A 
ATOM     41  C   UNL A   1      46.735  33.970  27.654  1.00  0.00     0.135 A 
ATOM     42  C   UNL A   1      47.167  33.407  29.950  1.00  0.00     0.135 A 
ATOM     43  F   UNL A   1      46.364  33.634  26.408  1.00  0.00    -0.206 F 
ATOM     44  C   UNL A   1      47.119  35.286  27.894  1.00  0.00     0.059 A 
ATOM     45  C   UNL A   1      47.535  34.722  30.218  1.00  0.00     0.059 A 
ATOM     46  F   UNL A   1      47.205  32.521  30.958  1.00  0.00    -0.206 F 
ATOM     47  C   UNL A   1      47.516  35.653  29.181  1.00  0.00     0.060 A 
BRANCH  47  48
ATOM     48  S   UNL A   1      47.983  37.372  29.487  1.00  0.00     0.124 S 
ATOM     49  O   UNL A   1      48.579  37.742  28.208  1.00  0.00    -0.237 OA
ATOM     50  O   UNL A   1      46.699  37.995  29.793  1.00  0.00    -0.237 OA
ATOM     51  O   UNL A   1      48.911  37.276  30.609  1.00  0.00    -0.744 OA
ENDBRANCH  47  48
ENDBRANCH  26  40
BRANCH  27  52
ATOM     52  C   UNL A   1      43.280  23.756  27.110  1.00  0.00     0.058 A 
ATOM     53  C   UNL A   1      42.991  23.311  25.812  1.00  0.00     0.135 A 
ATOM     54  C   UNL A   1      43.086  22.858  28.171  1.00  0.00     0.135 A 
ATOM     55  F   UNL A   1      43.160  24.135  24.767  1.00  0.00    -0.206 F 
ATOM     56  C   UNL A   1      42.514  22.026  25.574  1.00  0.00     0.059 A 
ATOM     57  C   UNL A   1      42.636  21.560  27.956  1.00  0.00     0.059 A 
ATOM     58  F   UNL A   1      43.368  23.231  29.428  1.00  0.00    -0.206 F 
ATOM     59  C   UNL A   1      42.341  21.157  26.654  1.00  0.00     0.060 A 
BRANCH  59  60
ATOM     60  S   UNL A   1      41.775  19.472  26.338  1.00  0.00     0.124 S 
ATOM     61  O   UNL A   1      40.333  19.662  26.250  1.00  0.00    -0.237 OA
ATOM     62  O   UNL A   1      42.455  19.144  25.090  1.00  0.00    -0.237 OA
ATOM     63  O   UNL A   1      42.248  18.739  27.509  1.00  0.00    -0.744 OA
ENDBRANCH  59  60
ENDBRANCH  27  52
BRANCH  39  64
ATOM     64  C   UNL A   1      49.542  26.718  26.456  1.00  0.00     0.058 A 
ATOM     65  C   UNL A   1      50.400  26.072  27.360  1.00  0.00     0.135 A 
ATOM     66  C   UNL A   1      49.964  26.846  25.125  1.00  0.00     0.135 A 
ATOM     67  F   UNL A   1      50.045  25.932  28.648  1.00  0.00    -0.206 F 
ATOM     68  C   UNL A   1      51.648  25.603  26.967  1.00  0.00     0.059 A 
ATOM     69  C   UNL A   1      51.199  26.364  24.704  1.00  0.00     0.059 A 
ATOM     70  F   UNL A   1      49.175  27.448  24.220  1.00  0.00    -0.206 F 
ATOM     71  C   UNL A   1      52.043  25.762  25.637  1.00  0.00     0.060 A 
BRANCH  71  72
ATOM     72  S   UNL A   1      53.669  25.159  25.134  1.00  0.00     0.124 S 
ATOM     73  O   UNL A   1      53.483  23.714  25.224  1.00  0.00    -0.237 OA
ATOM     74  O   UNL A   1      53.803  25.699  23.785  1.00  0.00    -0.237 OA
ATOM     75  O   UNL A   1      54.565  25.741  26.128  1.00  0.00    -0.744 OA
ENDBRANCH  71  72
ENDBRANCH  39  64
ENDBRANCH  13  14
ENDBRANCH   6   8
ENDBRANCH   3   4
ENDBRANCH   2   3
ENDBRANCH   1   2
BRANCH   1  76
ATOM     76  C   UNL A   1      34.720  31.636  27.635  1.00  0.00     0.002 C 
BRANCH  76  77
ATOM     77  C   UNL A   1      35.123  30.201  27.998  1.00  0.00     0.021 C 
BRANCH  77  78
ATOM     78  C   UNL A   1      34.433  29.095  27.206  1.00  0.00     0.116 C 
BRANCH  78  79
ATOM     79  N   UNL A   1      33.183  28.679  27.805  1.00  0.00    -0.352 N 
ATOM     80  C   UNL A   1      32.086  28.117  27.208  1.00  0.00     0.255 C 
ATOM     81  H   UNL A   1      33.111  28.821  28.776  1.00  0.00     0.163 HD
ATOM     82  O   UNL A   1      31.090  27.867  27.886  1.00  0.00    -0.269 OA
BRANCH  80  83
ATOM     83  C   UNL A   1      32.039  27.868  25.749  1.00  0.00     0.081 A 
ATOM     84  C   UNL A   1      31.281  28.783  24.998  1.00  0.00     0.018 A 
ATOM     85  C   UNL A   1      32.616  26.745  25.133  1.00  0.00     0.132 A 
ATOM     86  C   UNL A   1      31.102  28.593  23.630  1.00  0.00     0.001 A 
ATOM     87  C   UNL A   1      32.384  26.546  23.765  1.00  0.00     0.047 A 
ATOM     88  C   UNL A   1      31.644  27.470  23.018  1.00  0.00     0.004 A 
BRANCH  85  89
ATOM     89  O   UNL A   1      33.368  25.909  25.915  1.00  0.00    -0.489 OA
BRANCH  89  90
ATOM     90  C   UNL A   1      32.931  24.561  26.141  1.00  0.00     0.178 C 
ATOM     91  C   UNL A   1      31.426  24.463  26.401  1.00  0.00     0.074 C 
ATOM     92  C   UNL A   1      33.231  23.759  24.865  1.00  0.00     0.080 C 
ATOM     93  C   UNL A   1      31.035  23.005  26.546  1.00  0.00     0.165 C 
ATOM     94  C   UNL A   1      32.748  22.296  24.971  1.00  0.00     0.073 C 
ATOM     95  O   UNL A   1      31.371  22.267  25.379  1.00  0.00    -0.375 OA
ATOM     96  C   UNL A   1      33.649  21.501  25.946  1.00  0.00     0.046 C 
ATOM     97  C   UNL A   1      32.772  21.661  23.561  1.00  0.00     0.046 C 
ATOM     98  C   UNL A   1      33.286  20.027  26.081  1.00  0.00     0.072 C 
ATOM     99  C   UNL A   1      32.338  20.197  23.531  1.00  0.00     0.072 C 
ATOM    100  S   UNL A   1      33.476  19.173  24.501  1.00  0.00    -0.162 SA
ENDBRANCH  89  90
ENDBRANCH  85  89
ENDBRANCH  80  83
ENDBRANCH  78  79
ENDBRANCH  77  78
ENDBRANCH  76  77
ENDBRANCH   1  76
TORSDOF 18
ENDMDL
MODEL 3
REMARK VINA RESULT:     -11.8      4.901      9.545
REMARK SMILES O=C(NCCCCCCNC(=O)c1ccccc1O[C@H]1CCOC2(CCSCC2)C1)c1ccc(-c2c3nc(c(-c4c(F)cc(S(=O)(=O)[O-])cc4F)c4ccc([nH]4)c(-c4c(F)cc(S(=O)(=O)[O-])cc4F)c4nc(c(-c5c(F)cc(S(=O)(=O)[O-])cc5F)c5ccc2[nH]5)C=C4)C=C3)cc1
REMARK SMILES IDX 6 1 5 2 4 3 3 4 1 5 2 6 31 8 32 9 96 10 33 11 95 12 34 13
REMARK SMILES IDX 35 14 36 15 89 16 37 17 94 18 88 19 90 20 38 21 93 22 87 23
REMARK SMILES IDX 86 24 39 26 73 27 52 28 72 29 53 30 56 31 71 32 91 33 54 34
REMARK SMILES IDX 55 35 70 37 92 38 57 39 40 40 41 41 50 42 42 43 43 44 49 45
REMARK SMILES IDX 51 46 44 47 45 48 46 49 47 50 48 51 74 52 75 53 84 54 76 55
REMARK SMILES IDX 77 56 83 57 85 58 78 59 79 60 80 61 81 62 82 63 58 64 59 65
REMARK SMILES IDX 68 66 60 67 61 68 67 69 69 70 62 71 63 72 64 73 65 74 66 75
REMARK SMILES IDX 7 76 8 77 9 78 10 79 11 80 12 82 13 83 14 84 18 85 15 86
REMARK SMILES IDX 17 87 16 88 19 89 20 90 21 91 30 92 22 93 24 94 23 95 25 96
REMARK SMILES IDX 29 97 26 98 28 99 27 100
REMARK H PARENT 3 7 90 25 56 36 10 81
REMARK Flexibility Score: inf
ROOT
ATOM      1  C   UNL A   1      33.569  25.785  25.716  1.00  0.00     0.002 C 
ENDROOT
BRANCH   1   2
ATOM      2  C   UNL A   1      33.221  27.055  26.491  1.00  0.00     0.021 C 
BRANCH   2   3
ATOM      3  C   UNL A   1      34.277  28.151  26.468  1.00  0.00     0.116 C 
BRANCH   3   4
ATOM      4  N   UNL A   1      33.818  29.413  27.022  1.00  0.00    -0.352 N 
ATOM      5  O   UNL A   1      33.931  31.277  28.293  1.00  0.00    -0.269 OA
ATOM      6  C   UNL A   1      34.503  30.295  27.828  1.00  0.00     0.251 C 
ATOM      7  H   UNL A   1      32.898  29.672  26.790  1.00  0.00     0.163 HD
BRANCH   6   8
ATOM      8  C   UNL A   1      35.923  30.031  28.162  1.00  0.00     0.039 A 
ATOM      9  C   UNL A   1      36.926  30.248  27.217  1.00  0.00     0.014 A 
ATOM     10  C   UNL A   1      36.250  29.542  29.430  1.00  0.00     0.014 A 
ATOM     11  C   UNL A   1      38.226  29.835  27.484  1.00  0.00     0.010 A 
ATOM     12  C   UNL A   1      37.577  29.211  29.729  1.00  0.00     0.010 A 
ATOM     13  C   UNL A   1      38.572  29.324  28.747  1.00  0.00    -0.014 A 
BRANCH  13  14
ATOM     14  C   UNL A   1      39.996  28.993  29.015  1.00  0.00     0.031 A 
ATOM     15  C   UNL A   1      40.578  27.655  28.648  1.00  0.00     0.074 A 
ATOM     16  C   UNL A   1      40.783  29.953  29.539  1.00  0.00     0.049 A 
ATOM     17  N   UNL A   1      41.819  27.248  28.740  1.00  0.00    -0.248 NA
ATOM     18  C   UNL A   1      39.656  26.640  28.115  1.00  0.00     0.031 C 
ATOM     19  C   UNL A   1      40.321  31.277  29.966  1.00  0.00     0.029 A 
ATOM     20  N   UNL A   1      42.134  29.985  29.772  1.00  0.00    -0.354 N 
ATOM     21  C   UNL A   1      41.828  25.932  28.291  1.00  0.00     0.074 A 
ATOM     22  C   UNL A   1      40.461  25.599  27.947  1.00  0.00     0.031 C 
ATOM     23  C   UNL A   1      41.375  32.010  30.350  1.00  0.00     0.029 A 
ATOM     24  C   UNL A   1      42.579  31.194  30.250  1.00  0.00     0.049 A 
ATOM     25  H   UNL A   1      42.727  29.215  29.614  1.00  0.00     0.167 HD
ATOM     26  C   UNL A   1      42.881  25.088  28.167  1.00  0.00     0.037 A 
ATOM     27  C   UNL A   1      43.818  31.604  30.577  1.00  0.00     0.037 A 
ATOM     28  C   UNL A   1      44.241  25.430  28.501  1.00  0.00     0.049 A 
ATOM     29  C   UNL A   1      44.968  30.657  30.403  1.00  0.00     0.074 A 
ATOM     30  C   UNL A   1      45.377  24.645  28.406  1.00  0.00     0.029 A 
ATOM     31  N   UNL A   1      44.651  26.662  28.991  1.00  0.00    -0.354 N 
ATOM     32  N   UNL A   1      44.954  29.422  29.963  1.00  0.00    -0.248 NA
ATOM     33  C   UNL A   1      46.298  31.155  30.771  1.00  0.00     0.031 C 
ATOM     34  C   UNL A   1      46.470  25.392  28.864  1.00  0.00     0.029 A 
ATOM     35  C   UNL A   1      46.021  26.656  29.208  1.00  0.00     0.049 A 
ATOM     36  H   UNL A   1      44.057  27.429  29.160  1.00  0.00     0.167 HD
ATOM     37  C   UNL A   1      46.274  28.992  30.005  1.00  0.00     0.074 A 
ATOM     38  C   UNL A   1      47.063  30.112  30.479  1.00  0.00     0.031 C 
ATOM     39  C   UNL A   1      46.786  27.776  29.695  1.00  0.00     0.037 A 
BRANCH  26  40
ATOM     40  C   UNL A   1      42.612  23.702  27.646  1.00  0.00     0.058 A 
ATOM     41  C   UNL A   1      42.489  23.444  26.272  1.00  0.00     0.135 A 
ATOM     42  C   UNL A   1      42.540  22.608  28.524  1.00  0.00     0.135 A 
ATOM     43  F   UNL A   1      42.535  24.455  25.389  1.00  0.00    -0.206 F 
ATOM     44  C   UNL A   1      42.293  22.155  25.787  1.00  0.00     0.059 A 
ATOM     45  C   UNL A   1      42.366  21.308  28.061  1.00  0.00     0.059 A 
ATOM     46  F   UNL A   1      42.650  22.798  29.849  1.00  0.00    -0.206 F 
ATOM     47  C   UNL A   1      42.235  21.092  26.690  1.00  0.00     0.060 A 
BRANCH  47  48
ATOM     48  S   UNL A   1      42.010  19.419  26.046  1.00  0.00     0.124 S 
ATOM     49  O   UNL A   1      42.926  19.420  24.910  1.00  0.00    -0.237 OA
ATOM     50  O   UNL A   1      42.406  18.591  27.181  1.00  0.00    -0.237 OA
ATOM     51  O   UNL A   1      40.591  19.373  25.709  1.00  0.00    -0.744 OA
ENDBRANCH  47  48
ENDBRANCH  26  40
BRANCH  27  52
ATOM     52  C   UNL A   1      44.021  32.977  31.108  1.00  0.00     0.058 A 
ATOM     53  C   UNL A   1      44.293  34.055  30.254  1.00  0.00     0.135 A 
ATOM     54  C   UNL A   1      43.919  33.238  32.483  1.00  0.00     0.135 A 
ATOM     55  F   UNL A   1      44.402  33.853  28.932  1.00  0.00    -0.206 F 
ATOM     56  C   UNL A   1      44.471  35.344  30.745  1.00  0.00     0.059 A 
ATOM     57  C   UNL A   1      44.065  34.522  32.995  1.00  0.00     0.059 A 
ATOM     58  F   UNL A   1      43.638  32.242  33.337  1.00  0.00    -0.206 F 
ATOM     59  C   UNL A   1      44.354  35.567  32.119  1.00  0.00     0.060 A 
BRANCH  59  60
ATOM     60  S   UNL A   1      44.529  37.250  32.749  1.00  0.00     0.124 S 
ATOM     61  O   UNL A   1      43.790  37.168  34.003  1.00  0.00    -0.237 OA
ATOM     62  O   UNL A   1      45.977  37.389  32.868  1.00  0.00    -0.237 OA
ATOM     63  O   UNL A   1      43.915  38.062  31.703  1.00  0.00    -0.744 OA
ENDBRANCH  59  60
ENDBRANCH  27  52
BRANCH  39  64
ATOM     64  C   UNL A   1      48.268  27.607  29.862  1.00  0.00     0.058 A 
ATOM     65  C   UNL A   1      49.160  27.928  28.826  1.00  0.00     0.135 A 
ATOM     66  C   UNL A   1      48.803  27.118  31.063  1.00  0.00     0.135 A 
ATOM     67  F   UNL A   1      48.696  28.393  27.655  1.00  0.00    -0.206 F 
ATOM     68  C   UNL A   1      50.530  27.734  28.962  1.00  0.00     0.059 A 
ATOM     69  C   UNL A   1      50.172  26.937  31.229  1.00  0.00     0.059 A 
ATOM     70  F   UNL A   1      47.992  26.804  32.086  1.00  0.00    -0.206 F 
ATOM     71  C   UNL A   1      51.026  27.229  30.165  1.00  0.00     0.060 A 
BRANCH  71  72
ATOM     72  S   UNL A   1      52.805  26.972  30.333  1.00  0.00     0.124 S 
ATOM     73  O   UNL A   1      53.132  26.356  29.051  1.00  0.00    -0.237 OA
ATOM     74  O   UNL A   1      53.303  28.330  30.530  1.00  0.00    -0.237 OA
ATOM     75  O   UNL A   1      52.910  26.097  31.496  1.00  0.00    -0.744 OA
ENDBRANCH  71  72
ENDBRANCH  39  64
ENDBRANCH  13  14
ENDBRANCH   6   8
ENDBRANCH   3   4
ENDBRANCH   2   3
ENDBRANCH   1   2
BRANCH   1  76
ATOM     76  C   UNL A   1      33.556  24.479  26.518  1.00  0.00     0.002 C 
BRANCH  76  77
ATOM     77  C   UNL A   1      32.327  23.579  26.342  1.00  0.00     0.021 C 
BRANCH  77  78
ATOM     78  C   UNL A   1      32.485  22.137  26.819  1.00  0.00     0.116 C 
BRANCH  78  79
ATOM     79  N   UNL A   1      32.161  21.173  25.789  1.00  0.00    -0.352 N 
ATOM     80  C   UNL A   1      32.869  20.843  24.664  1.00  0.00     0.255 C 
ATOM     81  H   UNL A   1      31.314  20.688  25.915  1.00  0.00     0.163 HD
ATOM     82  O   UNL A   1      32.404  20.018  23.878  1.00  0.00    -0.269 OA
BRANCH  80  83
ATOM     83  C   UNL A   1      34.148  21.509  24.328  1.00  0.00     0.081 A 
ATOM     84  C   UNL A   1      35.273  21.068  25.044  1.00  0.00     0.018 A 
ATOM     85  C   UNL A   1      34.250  22.586  23.430  1.00  0.00     0.132 A 
ATOM     86  C   UNL A   1      36.508  21.685  24.866  1.00  0.00     0.001 A 
ATOM     87  C   UNL A   1      35.491  23.225  23.301  1.00  0.00     0.047 A 
ATOM     88  C   UNL A   1      36.613  22.770  24.003  1.00  0.00     0.004 A 
BRANCH  85  89
ATOM     89  O   UNL A   1      33.123  22.947  22.742  1.00  0.00    -0.489 OA
BRANCH  89  90
ATOM     90  C   UNL A   1      32.965  24.301  22.295  1.00  0.00     0.178 C 
ATOM     91  C   UNL A   1      32.692  24.399  20.791  1.00  0.00     0.074 C 
ATOM     92  C   UNL A   1      31.746  24.888  23.023  1.00  0.00     0.080 C 
ATOM     93  C   UNL A   1      32.456  25.850  20.416  1.00  0.00     0.165 C 
ATOM     94  C   UNL A   1      31.442  26.335  22.574  1.00  0.00     0.073 C 
ATOM     95  O   UNL A   1      31.361  26.392  21.141  1.00  0.00    -0.375 OA
ATOM     96  C   UNL A   1      32.514  27.305  23.125  1.00  0.00     0.046 C 
ATOM     97  C   UNL A   1      30.034  26.727  23.082  1.00  0.00     0.046 C 
ATOM     98  C   UNL A   1      32.275  28.770  22.780  1.00  0.00     0.072 C 
ATOM     99  C   UNL A   1      29.621  28.153  22.724  1.00  0.00     0.072 C 
ATOM    100  S   UNL A   1      30.728  29.356  23.507  1.00  0.00    -0.162 SA
ENDBRANCH  89  90
ENDBRANCH  85  89
ENDBRANCH  80  83
ENDBRANCH  78  79
ENDBRANCH  77  78
ENDBRANCH  76  77
ENDBRANCH   1  76
TORSDOF 18
ENDMDL
