MODEL 1
REMARK VINA RESULT:     -13.6      0.000      0.000
REMARK SMILES O=C(N[C@]1(C(=O)NCCCCCCNC(=O)c2ccc(-c3c4nc(c(-c5c(F)cc(S(=O)(=O)[O-])cc5F)c5ccc([nH]5)c(-c5c(F)cc(S(=O)(=O)[O-])cc5F)c5nc(c(-c6c(F)cc(S(=O)(=O)[O-])cc6F)c6ccc3[nH]6)C=C5)C=C4)cc2)CC[C@H](c2ccccc2)CC1)OCC1c2ccccc2-c2ccccc21
REMARK SMILES IDX 10 1 9 2 8 3 7 4 5 5 6 6 4 8 83 9 93 10 84 11 92 12 85 13
REMARK SMILES IDX 3 14 1 15 2 16 94 18 95 19 96 20 97 21 108 22 98 23 102 24
REMARK SMILES IDX 103 25 107 26 99 27 101 28 104 29 106 30 100 31 105 32 86 33
REMARK SMILES IDX 87 34 91 35 88 36 90 37 89 38 11 39 12 40 13 41 14 42 15 43
REMARK SMILES IDX 16 45 17 46 18 47 82 48 19 49 81 50 20 51 21 52 22 53 75 54
REMARK SMILES IDX 23 55 80 56 74 57 76 58 24 59 79 60 73 61 72 62 25 64 59 65
REMARK SMILES IDX 38 66 58 67 39 68 42 69 57 70 77 71 40 72 41 73 56 75 78 76
REMARK SMILES IDX 43 77 26 78 27 79 36 80 28 81 29 82 35 83 37 84 30 85 31 86
REMARK SMILES IDX 32 87 33 88 34 89 60 90 61 91 70 92 62 93 63 94 69 95 71 96
REMARK SMILES IDX 64 97 65 98 66 99 67 100 68 101 44 102 45 103 54 104 46 105
REMARK SMILES IDX 47 106 53 107 55 108 48 109 49 110 50 111 51 112 52 113
REMARK H PARENT 7 7 3 17 14 44 76 63 42 74
REMARK Flexibility Score: inf
ROOT
ATOM      1  C   UNL A   1      37.835  21.005  24.974  1.00  0.00     0.002 C 
ENDROOT
BRANCH   1   2
ATOM      2  C   UNL A   1      36.467  21.265  25.610  1.00  0.00     0.021 C 
BRANCH   2   3
ATOM      3  C   UNL A   1      35.369  20.334  25.101  1.00  0.00     0.116 C 
BRANCH   3   4
ATOM      4  N   UNL A   1      34.171  20.386  25.927  1.00  0.00    -0.354 N 
ATOM      5  C   UNL A   1      32.933  20.799  25.518  1.00  0.00     0.245 C 
ATOM      6  O   UNL A   1      32.090  19.914  25.333  1.00  0.00    -0.272 OA
ATOM      7  H   UNL A   1      34.261  20.097  26.864  1.00  0.00     0.163 HD
BRANCH   5   8
ATOM      8  C   UNL A   1      32.551  22.322  25.365  1.00  0.00     0.122 C 
ATOM      9  C   UNL A   1      31.774  22.449  24.027  1.00  0.00     0.039 C 
ATOM     10  C   UNL A   1      33.592  23.455  25.395  1.00  0.00     0.039 C 
ATOM     11  C   UNL A   1      32.673  22.484  22.789  1.00  0.00     0.011 C 
ATOM     12  C   UNL A   1      34.532  23.521  24.207  1.00  0.00     0.011 C 
ATOM     13  C   UNL A   1      33.807  23.537  22.845  1.00  0.00     0.019 C 
BRANCH   8  14
ATOM     14  N   UNL A   1      31.573  22.623  26.464  1.00  0.00    -0.307 N 
ATOM     15  O   UNL A   1      29.686  23.268  27.488  1.00  0.00    -0.225 OA
ATOM     16  C   UNL A   1      30.437  23.383  26.529  1.00  0.00     0.408 C 
ATOM     17  H   UNL A   1      31.796  22.182  27.316  1.00  0.00     0.168 HD
BRANCH  16  18
ATOM     18  O   UNL A   1      30.271  24.374  25.619  1.00  0.00    -0.449 OA
BRANCH  18  19
ATOM     19  C   UNL A   1      30.489  25.720  26.041  1.00  0.00     0.248 C 
BRANCH  19  20
ATOM     20  C   UNL A   1      31.177  26.581  24.972  1.00  0.00     0.088 C 
ATOM     21  C   UNL A   1      32.102  27.597  25.657  1.00  0.00    -0.029 A 
ATOM     22  C   UNL A   1      30.236  27.510  24.205  1.00  0.00    -0.029 A 
ATOM     23  C   UNL A   1      33.047  27.376  26.651  1.00  0.00     0.005 A 
ATOM     24  C   UNL A   1      31.774  28.909  25.249  1.00  0.00    -0.014 A 
ATOM     25  C   UNL A   1      30.630  28.855  24.363  1.00  0.00    -0.014 A 
ATOM     26  C   UNL A   1      29.091  27.183  23.491  1.00  0.00     0.005 A 
ATOM     27  C   UNL A   1      33.663  28.484  27.239  1.00  0.00     0.000 A 
ATOM     28  C   UNL A   1      32.424  30.004  25.797  1.00  0.00     0.009 A 
ATOM     29  C   UNL A   1      29.869  29.881  23.820  1.00  0.00     0.009 A 
ATOM     30  C   UNL A   1      28.306  28.217  22.979  1.00  0.00     0.000 A 
ATOM     31  C   UNL A   1      33.363  29.785  26.808  1.00  0.00     0.001 A 
ATOM     32  C   UNL A   1      28.691  29.555  23.141  1.00  0.00     0.001 A 
ENDBRANCH  19  20
ENDBRANCH  18  19
ENDBRANCH  16  18
ENDBRANCH   8  14
BRANCH  13  33
ATOM     33  C   UNL A   1      33.411  24.960  22.454  1.00  0.00    -0.045 A 
ATOM     34  C   UNL A   1      34.101  26.100  22.889  1.00  0.00     0.004 A 
ATOM     35  C   UNL A   1      32.262  25.160  21.665  1.00  0.00     0.004 A 
ATOM     36  C   UNL A   1      33.684  27.381  22.519  1.00  0.00     0.000 A 
ATOM     37  C   UNL A   1      31.856  26.437  21.275  1.00  0.00     0.000 A 
ATOM     38  C   UNL A   1      32.571  27.549  21.703  1.00  0.00     0.000 A 
ENDBRANCH  13  33
ENDBRANCH   5   8
ENDBRANCH   3   4
ENDBRANCH   2   3
ENDBRANCH   1   2
BRANCH   1  39
ATOM     39  C   UNL A   1      39.040  21.438  25.813  1.00  0.00     0.002 C 
BRANCH  39  40
ATOM     40  C   UNL A   1      38.922  22.803  26.494  1.00  0.00     0.021 C 
BRANCH  40  41
ATOM     41  C   UNL A   1      40.230  23.411  26.993  1.00  0.00     0.116 C 
BRANCH  41  42
ATOM     42  N   UNL A   1      40.929  24.174  25.970  1.00  0.00    -0.352 N 
ATOM     43  C   UNL A   1      41.382  25.470  26.010  1.00  0.00     0.251 C 
ATOM     44  H   UNL A   1      41.103  23.692  25.129  1.00  0.00     0.163 HD
ATOM     45  O   UNL A   1      41.854  25.991  25.005  1.00  0.00    -0.269 OA
BRANCH  43  46
ATOM     46  C   UNL A   1      41.261  26.243  27.262  1.00  0.00     0.039 A 
ATOM     47  C   UNL A   1      42.217  27.221  27.543  1.00  0.00     0.014 A 
ATOM     48  C   UNL A   1      40.189  26.030  28.135  1.00  0.00     0.014 A 
ATOM     49  C   UNL A   1      42.059  28.036  28.665  1.00  0.00     0.010 A 
ATOM     50  C   UNL A   1      39.999  26.885  29.218  1.00  0.00     0.010 A 
ATOM     51  C   UNL A   1      40.931  27.898  29.491  1.00  0.00    -0.014 A 
BRANCH  51  52
ATOM     52  C   UNL A   1      40.716  28.817  30.637  1.00  0.00     0.031 A 
ATOM     53  C   UNL A   1      41.546  28.680  31.884  1.00  0.00     0.074 A 
ATOM     54  C   UNL A   1      39.746  29.751  30.566  1.00  0.00     0.049 A 
ATOM     55  N   UNL A   1      41.494  29.378  32.989  1.00  0.00    -0.248 NA
ATOM     56  C   UNL A   1      42.544  27.599  31.903  1.00  0.00     0.031 C 
ATOM     57  C   UNL A   1      38.829  29.937  29.438  1.00  0.00     0.029 A 
ATOM     58  N   UNL A   1      39.365  30.717  31.463  1.00  0.00    -0.354 N 
ATOM     59  C   UNL A   1      42.451  28.826  33.831  1.00  0.00     0.074 A 
ATOM     60  C   UNL A   1      43.024  27.694  33.134  1.00  0.00     0.031 C 
ATOM     61  C   UNL A   1      38.008  30.965  29.703  1.00  0.00     0.029 A 
ATOM     62  C   UNL A   1      38.325  31.501  31.023  1.00  0.00     0.049 A 
ATOM     63  H   UNL A   1      39.796  30.837  32.340  1.00  0.00     0.167 HD
ATOM     64  C   UNL A   1      42.842  29.241  35.059  1.00  0.00     0.037 A 
ATOM     65  C   UNL A   1      37.703  32.539  31.614  1.00  0.00     0.037 A 
ATOM     66  C   UNL A   1      42.284  30.379  35.742  1.00  0.00     0.049 A 
ATOM     67  C   UNL A   1      38.181  33.006  32.961  1.00  0.00     0.074 A 
ATOM     68  C   UNL A   1      42.628  30.898  36.978  1.00  0.00     0.029 A 
ATOM     69  N   UNL A   1      41.269  31.181  35.240  1.00  0.00    -0.354 N 
ATOM     70  N   UNL A   1      39.127  32.505  33.719  1.00  0.00    -0.248 NA
ATOM     71  C   UNL A   1      37.522  34.192  33.526  1.00  0.00     0.031 C 
ATOM     72  C   UNL A   1      41.807  32.003  37.232  1.00  0.00     0.029 A 
ATOM     73  C   UNL A   1      40.975  32.191  36.140  1.00  0.00     0.049 A 
ATOM     74  H   UNL A   1      40.823  31.050  34.372  1.00  0.00     0.167 HD
ATOM     75  C   UNL A   1      39.188  33.323  34.841  1.00  0.00     0.074 A 
ATOM     76  C   UNL A   1      38.199  34.364  34.654  1.00  0.00     0.031 C 
ATOM     77  C   UNL A   1      39.989  33.221  35.930  1.00  0.00     0.037 A 
BRANCH  64  78
ATOM     78  C   UNL A   1      43.947  28.473  35.729  1.00  0.00     0.058 A 
ATOM     79  C   UNL A   1      43.676  27.313  36.474  1.00  0.00     0.135 A 
ATOM     80  C   UNL A   1      45.285  28.878  35.610  1.00  0.00     0.135 A 
ATOM     81  F   UNL A   1      42.411  26.893  36.636  1.00  0.00    -0.206 F 
ATOM     82  C   UNL A   1      44.690  26.600  37.103  1.00  0.00     0.059 A 
ATOM     83  C   UNL A   1      46.319  28.164  36.210  1.00  0.00     0.059 A 
ATOM     84  F   UNL A   1      45.598  29.980  34.909  1.00  0.00    -0.206 F 
ATOM     85  C   UNL A   1      46.009  27.034  36.967  1.00  0.00     0.060 A 
BRANCH  85  86
ATOM     86  S   UNL A   1      47.315  26.097  37.788  1.00  0.00     0.124 S 
ATOM     87  O   UNL A   1      46.579  24.931  38.267  1.00  0.00    -0.237 OA
ATOM     88  O   UNL A   1      48.256  25.849  36.700  1.00  0.00    -0.237 OA
ATOM     89  O   UNL A   1      47.788  27.009  38.824  1.00  0.00    -0.744 OA
ENDBRANCH  85  86
ENDBRANCH  64  78
BRANCH  65  90
ATOM     90  C   UNL A   1      36.581  33.228  30.923  1.00  0.00     0.058 A 
ATOM     91  C   UNL A   1      36.814  34.059  29.816  1.00  0.00     0.135 A 
ATOM     92  C   UNL A   1      35.256  33.071  31.356  1.00  0.00     0.135 A 
ATOM     93  F   UNL A   1      38.066  34.241  29.367  1.00  0.00    -0.206 F 
ATOM     94  C   UNL A   1      35.777  34.729  29.177  1.00  0.00     0.059 A 
ATOM     95  C   UNL A   1      34.200  33.714  30.720  1.00  0.00     0.059 A 
ATOM     96  F   UNL A   1      34.980  32.273  32.397  1.00  0.00    -0.206 F 
ATOM     97  C   UNL A   1      34.472  34.552  29.639  1.00  0.00     0.060 A 
BRANCH  97  98
ATOM     98  S   UNL A   1      33.123  35.396  28.784  1.00  0.00     0.124 S 
ATOM     99  O   UNL A   1      33.849  36.384  27.995  1.00  0.00    -0.237 OA
ATOM    100  O   UNL A   1      32.504  34.308  28.033  1.00  0.00    -0.237 OA
ATOM    101  O   UNL A   1      32.316  35.927  29.878  1.00  0.00    -0.744 OA
ENDBRANCH  97  98
ENDBRANCH  65  90
BRANCH  77 102
ATOM    102  C   UNL A   1      39.841  34.276  36.989  1.00  0.00     0.058 A 
ATOM    103  C   UNL A   1      40.557  35.481  36.928  1.00  0.00     0.135 A 
ATOM    104  C   UNL A   1      38.950  34.092  38.058  1.00  0.00     0.135 A 
ATOM    105  F   UNL A   1      41.424  35.702  35.928  1.00  0.00    -0.206 F 
ATOM    106  C   UNL A   1      40.416  36.458  37.908  1.00  0.00     0.059 A 
ATOM    107  C   UNL A   1      38.776  35.064  39.037  1.00  0.00     0.059 A 
ATOM    108  F   UNL A   1      38.234  32.961  38.154  1.00  0.00    -0.206 F 
ATOM    109  C   UNL A   1      39.525  36.238  38.961  1.00  0.00     0.060 A 
BRANCH 109 110
ATOM    110  S   UNL A   1      39.335  37.519  40.219  1.00  0.00     0.124 S 
ATOM    111  O   UNL A   1      38.914  36.734  41.374  1.00  0.00    -0.237 OA
ATOM    112  O   UNL A   1      40.678  38.089  40.296  1.00  0.00    -0.237 OA
ATOM    113  O   UNL A   1      38.319  38.401  39.653  1.00  0.00    -0.744 OA
ENDBRANCH 109 110
ENDBRANCH  77 102
ENDBRANCH  51  52
ENDBRANCH  43  46
ENDBRANCH  41  42
ENDBRANCH  40  41
ENDBRANCH  39  40
ENDBRANCH   1  39
TORSDOF 21
ENDMDL
MODEL 2
REMARK VINA RESULT:     -13.5      6.107     11.617
REMARK SMILES O=C(N[C@]1(C(=O)NCCCCCCNC(=O)c2ccc(-c3c4nc(c(-c5c(F)cc(S(=O)(=O)[O-])cc5F)c5ccc([nH]5)c(-c5c(F)cc(S(=O)(=O)[O-])cc5F)c5nc(c(-c6c(F)cc(S(=O)(=O)[O-])cc6F)c6ccc3[nH]6)C=C5)C=C4)cc2)CC[C@H](c2ccccc2)CC1)OCC1c2ccccc2-c2ccccc21
REMARK SMILES IDX 10 1 9 2 8 3 7 4 5 5 6 6 4 8 83 9 93 10 84 11 92 12 85 13
REMARK SMILES IDX 3 14 1 15 2 16 94 18 95 19 96 20 97 21 108 22 98 23 102 24
REMARK SMILES IDX 103 25 107 26 99 27 101 28 104 29 106 30 100 31 105 32 86 33
REMARK SMILES IDX 87 34 91 35 88 36 90 37 89 38 11 39 12 40 13 41 14 42 15 43
REMARK SMILES IDX 16 45 17 46 18 47 82 48 19 49 81 50 20 51 21 52 22 53 75 54
REMARK SMILES IDX 23 55 80 56 74 57 76 58 24 59 79 60 73 61 72 62 25 64 59 65
REMARK SMILES IDX 38 66 58 67 39 68 42 69 57 70 77 71 40 72 41 73 56 75 78 76
REMARK SMILES IDX 43 77 26 78 27 79 36 80 28 81 29 82 35 83 37 84 30 85 31 86
REMARK SMILES IDX 32 87 33 88 34 89 60 90 61 91 70 92 62 93 63 94 69 95 71 96
REMARK SMILES IDX 64 97 65 98 66 99 67 100 68 101 44 102 45 103 54 104 46 105
REMARK SMILES IDX 47 106 53 107 55 108 48 109 49 110 50 111 51 112 52 113
REMARK H PARENT 7 7 3 17 14 44 76 63 42 74
REMARK Flexibility Score: inf
ROOT
ATOM      1  C   UNL A   1      32.649  29.938  26.933  1.00  0.00     0.002 C 
ENDROOT
BRANCH   1   2
ATOM      2  C   UNL A   1      31.838  30.702  25.884  1.00  0.00     0.021 C 
BRANCH   2   3
ATOM      3  C   UNL A   1      30.976  29.801  25.002  1.00  0.00     0.116 C 
BRANCH   3   4
ATOM      4  N   UNL A   1      31.585  29.551  23.703  1.00  0.00    -0.354 N 
ATOM      5  C   UNL A   1      31.239  28.551  22.835  1.00  0.00     0.245 C 
ATOM      6  O   UNL A   1      30.586  28.887  21.840  1.00  0.00    -0.272 OA
ATOM      7  H   UNL A   1      32.311  30.156  23.425  1.00  0.00     0.163 HD
BRANCH   5   8
ATOM      8  C   UNL A   1      31.707  27.057  23.028  1.00  0.00     0.122 C 
ATOM      9  C   UNL A   1      30.434  26.238  23.372  1.00  0.00     0.039 C 
ATOM     10  C   UNL A   1      32.799  26.642  24.029  1.00  0.00     0.039 C 
ATOM     11  C   UNL A   1      29.998  26.357  24.834  1.00  0.00     0.011 C 
ATOM     12  C   UNL A   1      32.434  26.767  25.494  1.00  0.00     0.011 C 
ATOM     13  C   UNL A   1      31.113  26.061  25.866  1.00  0.00     0.019 C 
BRANCH   8  14
ATOM     14  N   UNL A   1      32.173  26.586  21.680  1.00  0.00    -0.307 N 
ATOM     15  O   UNL A   1      32.974  25.234  20.080  1.00  0.00    -0.225 OA
ATOM     16  C   UNL A   1      32.940  25.530  21.267  1.00  0.00     0.408 C 
ATOM     17  H   UNL A   1      31.864  27.156  20.938  1.00  0.00     0.168 HD
BRANCH  16  18
ATOM     18  O   UNL A   1      33.785  24.959  22.160  1.00  0.00    -0.449 OA
BRANCH  18  19
ATOM     19  C   UNL A   1      33.839  23.533  22.221  1.00  0.00     0.248 C 
BRANCH  19  20
ATOM     20  C   UNL A   1      33.571  22.982  23.628  1.00  0.00     0.088 C 
ATOM     21  C   UNL A   1      34.878  22.988  24.433  1.00  0.00    -0.029 A 
ATOM     22  C   UNL A   1      33.208  21.497  23.668  1.00  0.00    -0.029 A 
ATOM     23  C   UNL A   1      35.798  24.018  24.584  1.00  0.00     0.005 A 
ATOM     24  C   UNL A   1      35.152  21.695  24.930  1.00  0.00    -0.014 A 
ATOM     25  C   UNL A   1      34.132  20.783  24.458  1.00  0.00    -0.014 A 
ATOM     26  C   UNL A   1      32.185  20.839  22.997  1.00  0.00     0.005 A 
ATOM     27  C   UNL A   1      37.002  23.743  25.237  1.00  0.00     0.000 A 
ATOM     28  C   UNL A   1      36.324  21.437  25.623  1.00  0.00     0.009 A 
ATOM     29  C   UNL A   1      34.045  19.402  24.569  1.00  0.00     0.009 A 
ATOM     30  C   UNL A   1      32.124  19.447  23.078  1.00  0.00     0.000 A 
ATOM     31  C   UNL A   1      37.258  22.467  25.762  1.00  0.00     0.001 A 
ATOM     32  C   UNL A   1      33.045  18.733  23.857  1.00  0.00     0.001 A 
ENDBRANCH  19  20
ENDBRANCH  18  19
ENDBRANCH  16  18
ENDBRANCH   8  14
BRANCH  13  33
ATOM     33  C   UNL A   1      31.354  24.584  26.179  1.00  0.00    -0.045 A 
ATOM     34  C   UNL A   1      30.504  23.556  25.749  1.00  0.00     0.004 A 
ATOM     35  C   UNL A   1      32.449  24.225  26.988  1.00  0.00     0.004 A 
ATOM     36  C   UNL A   1      30.759  22.223  26.081  1.00  0.00     0.000 A 
ATOM     37  C   UNL A   1      32.719  22.892  27.302  1.00  0.00     0.000 A 
ATOM     38  C   UNL A   1      31.871  21.890  26.845  1.00  0.00     0.000 A 
ENDBRANCH  13  33
ENDBRANCH   5   8
ENDBRANCH   3   4
ENDBRANCH   2   3
ENDBRANCH   1   2
BRANCH   1  39
ATOM     39  C   UNL A   1      34.110  29.670  26.564  1.00  0.00     0.002 C 
BRANCH  39  40
ATOM     40  C   UNL A   1      35.058  29.414  27.739  1.00  0.00     0.021 C 
BRANCH  40  41
ATOM     41  C   UNL A   1      35.631  30.657  28.412  1.00  0.00     0.116 C 
BRANCH  41  42
ATOM     42  N   UNL A   1      35.568  30.597  29.864  1.00  0.00    -0.352 N 
ATOM     43  C   UNL A   1      36.561  30.304  30.766  1.00  0.00     0.251 C 
ATOM     44  H   UNL A   1      34.687  30.795  30.257  1.00  0.00     0.163 HD
ATOM     45  O   UNL A   1      36.299  30.187  31.959  1.00  0.00    -0.269 OA
BRANCH  43  46
ATOM     46  C   UNL A   1      37.942  30.095  30.284  1.00  0.00     0.039 A 
ATOM     47  C   UNL A   1      38.915  29.680  31.194  1.00  0.00     0.014 A 
ATOM     48  C   UNL A   1      38.263  30.270  28.934  1.00  0.00     0.014 A 
ATOM     49  C   UNL A   1      40.198  29.371  30.736  1.00  0.00     0.010 A 
ATOM     50  C   UNL A   1      39.523  29.901  28.470  1.00  0.00     0.010 A 
ATOM     51  C   UNL A   1      40.501  29.445  29.367  1.00  0.00    -0.014 A 
BRANCH  51  52
ATOM     52  C   UNL A   1      41.838  29.037  28.865  1.00  0.00     0.031 A 
ATOM     53  C   UNL A   1      42.949  30.046  28.766  1.00  0.00     0.074 A 
ATOM     54  C   UNL A   1      42.036  27.766  28.463  1.00  0.00     0.049 A 
ATOM     55  N   UNL A   1      44.175  29.880  28.341  1.00  0.00    -0.248 NA
ATOM     56  C   UNL A   1      42.634  31.425  29.172  1.00  0.00     0.031 C 
ATOM     57  C   UNL A   1      41.016  26.714  28.444  1.00  0.00     0.029 A 
ATOM     58  N   UNL A   1      43.162  27.143  27.987  1.00  0.00    -0.354 N 
ATOM     59  C   UNL A   1      44.778  31.129  28.431  1.00  0.00     0.074 A 
ATOM     60  C   UNL A   1      43.764  32.055  28.890  1.00  0.00     0.031 C 
ATOM     61  C   UNL A   1      41.568  25.573  28.000  1.00  0.00     0.029 A 
ATOM     62  C   UNL A   1      42.973  25.814  27.687  1.00  0.00     0.049 A 
ATOM     63  H   UNL A   1      44.024  27.603  27.871  1.00  0.00     0.167 HD
ATOM     64  C   UNL A   1      46.065  31.470  28.185  1.00  0.00     0.037 A 
ATOM     65  C   UNL A   1      43.837  24.893  27.219  1.00  0.00     0.037 A 
ATOM     66  C   UNL A   1      47.076  30.543  27.748  1.00  0.00     0.049 A 
ATOM     67  C   UNL A   1      45.272  25.286  26.991  1.00  0.00     0.074 A 
ATOM     68  C   UNL A   1      48.416  30.782  27.495  1.00  0.00     0.029 A 
ATOM     69  N   UNL A   1      46.859  29.194  27.507  1.00  0.00    -0.354 N 
ATOM     70  N   UNL A   1      45.836  26.461  27.135  1.00  0.00    -0.248 NA
ATOM     71  C   UNL A   1      46.191  24.224  26.557  1.00  0.00     0.031 C 
ATOM     72  C   UNL A   1      49.004  29.581  27.083  1.00  0.00     0.029 A 
ATOM     73  C   UNL A   1      48.038  28.587  27.110  1.00  0.00     0.049 A 
ATOM     74  H   UNL A   1      45.992  28.736  27.603  1.00  0.00     0.167 HD
ATOM     75  C   UNL A   1      47.179  26.277  26.825  1.00  0.00     0.074 A 
ATOM     76  C   UNL A   1      47.346  24.874  26.507  1.00  0.00     0.031 C 
ATOM     77  C   UNL A   1      48.183  27.187  26.804  1.00  0.00     0.037 A 
BRANCH  64  78
ATOM     78  C   UNL A   1      46.456  32.903  28.413  1.00  0.00     0.058 A 
ATOM     79  C   UNL A   1      46.952  33.333  29.655  1.00  0.00     0.135 A 
ATOM     80  C   UNL A   1      46.359  33.851  27.383  1.00  0.00     0.135 A 
ATOM     81  F   UNL A   1      47.047  32.470  30.679  1.00  0.00    -0.206 F 
ATOM     82  C   UNL A   1      47.309  34.658  29.877  1.00  0.00     0.059 A 
ATOM     83  C   UNL A   1      46.735  35.179  27.575  1.00  0.00     0.059 A 
ATOM     84  F   UNL A   1      45.890  33.494  26.177  1.00  0.00    -0.206 F 
ATOM     85  C   UNL A   1      47.195  35.574  28.831  1.00  0.00     0.060 A 
BRANCH  85  86
ATOM     86  S   UNL A   1      47.664  37.292  29.134  1.00  0.00     0.124 S 
ATOM     87  O   UNL A   1      49.025  37.317  28.610  1.00  0.00    -0.237 OA
ATOM     88  O   UNL A   1      46.672  38.030  28.358  1.00  0.00    -0.237 OA
ATOM     89  O   UNL A   1      47.547  37.425  30.583  1.00  0.00    -0.744 OA
ENDBRANCH  85  86
ENDBRANCH  64  78
BRANCH  65  90
ATOM     90  C   UNL A   1      43.379  23.501  26.964  1.00  0.00     0.058 A 
ATOM     91  C   UNL A   1      43.170  23.036  25.658  1.00  0.00     0.135 A 
ATOM     92  C   UNL A   1      43.142  22.611  28.022  1.00  0.00     0.135 A 
ATOM     93  F   UNL A   1      43.382  23.852  24.613  1.00  0.00    -0.206 F 
ATOM     94  C   UNL A   1      42.718  21.745  25.408  1.00  0.00     0.059 A 
ATOM     95  C   UNL A   1      42.710  21.309  27.797  1.00  0.00     0.059 A 
ATOM     96  F   UNL A   1      43.347  23.003  29.289  1.00  0.00    -0.206 F 
ATOM     97  C   UNL A   1      42.488  20.888  26.486  1.00  0.00     0.060 A 
BRANCH  97  98
ATOM     98  S   UNL A   1      41.935  19.201  26.156  1.00  0.00     0.124 S 
ATOM     99  O   UNL A   1      40.510  19.400  25.921  1.00  0.00    -0.237 OA
ATOM    100  O   UNL A   1      42.731  18.837  24.988  1.00  0.00    -0.237 OA
ATOM    101  O   UNL A   1      42.281  18.492  27.384  1.00  0.00    -0.744 OA
ENDBRANCH  97  98
ENDBRANCH  65  90
BRANCH  77 102
ATOM    102  C   UNL A   1      49.553  26.686  26.446  1.00  0.00     0.058 A 
ATOM    103  C   UNL A   1      50.053  26.788  25.139  1.00  0.00     0.135 A 
ATOM    104  C   UNL A   1      50.385  26.125  27.428  1.00  0.00     0.135 A 
ATOM    105  F   UNL A   1      49.293  27.314  24.164  1.00  0.00    -0.206 F 
ATOM    106  C   UNL A   1      51.323  26.326  24.810  1.00  0.00     0.059 A 
ATOM    107  C   UNL A   1      51.667  25.676  27.126  1.00  0.00     0.059 A 
ATOM    108  F   UNL A   1      49.957  26.015  28.695  1.00  0.00    -0.206 F 
ATOM    109  C   UNL A   1      52.121  25.768  25.811  1.00  0.00     0.060 A 
BRANCH 109 110
ATOM    110  S   UNL A   1      53.774  25.186  25.378  1.00  0.00     0.124 S 
ATOM    111  O   UNL A   1      54.578  25.769  26.448  1.00  0.00    -0.237 OA
ATOM    112  O   UNL A   1      53.621  23.735  25.421  1.00  0.00    -0.237 OA
ATOM    113  O   UNL A   1      53.993  25.747  24.049  1.00  0.00    -0.744 OA
ENDBRANCH 109 110
ENDBRANCH  77 102
ENDBRANCH  51  52
ENDBRANCH  43  46
ENDBRANCH  41  42
ENDBRANCH  40  41
ENDBRANCH  39  40
ENDBRANCH   1  39
TORSDOF 21
ENDMDL
MODEL 3
REMARK VINA RESULT:     -13.0      6.237     11.421
REMARK SMILES O=C(N[C@]1(C(=O)NCCCCCCNC(=O)c2ccc(-c3c4nc(c(-c5c(F)cc(S(=O)(=O)[O-])cc5F)c5ccc([nH]5)c(-c5c(F)cc(S(=O)(=O)[O-])cc5F)c5nc(c(-c6c(F)cc(S(=O)(=O)[O-])cc6F)c6ccc3[nH]6)C=C5)C=C4)cc2)CC[C@H](c2ccccc2)CC1)OCC1c2ccccc2-c2ccccc21
REMARK SMILES IDX 10 1 9 2 8 3 7 4 5 5 6 6 4 8 83 9 93 10 84 11 92 12 85 13
REMARK SMILES IDX 3 14 1 15 2 16 94 18 95 19 96 20 97 21 108 22 98 23 102 24
REMARK SMILES IDX 103 25 107 26 99 27 101 28 104 29 106 30 100 31 105 32 86 33
REMARK SMILES IDX 87 34 91 35 88 36 90 37 89 38 11 39 12 40 13 41 14 42 15 43
REMARK SMILES IDX 16 45 17 46 18 47 82 48 19 49 81 50 20 51 21 52 22 53 75 54
REMARK SMILES IDX 23 55 80 56 74 57 76 58 24 59 79 60 73 61 72 62 25 64 59 65
REMARK SMILES IDX 38 66 58 67 39 68 42 69 57 70 77 71 40 72 41 73 56 75 78 76
REMARK SMILES IDX 43 77 26 78 27 79 36 80 28 81 29 82 35 83 37 84 30 85 31 86
REMARK SMILES IDX 32 87 33 88 34 89 60 90 61 91 70 92 62 93 63 94 69 95 71 96
REMARK SMILES IDX 64 97 65 98 66 99 67 100 68 101 44 102 45 103 54 104 46 105
REMARK SMILES IDX 47 106 53 107 55 108 48 109 49 110 50 111 51 112 52 113
REMARK H PARENT 7 7 3 17 14 44 76 63 42 74
REMARK Flexibility Score: inf
ROOT
ATOM      1  C   UNL A   1      33.312  29.914  25.472  1.00  0.00     0.002 C 
ENDROOT
BRANCH   1   2
ATOM      2  C   UNL A   1      31.877  30.332  25.802  1.00  0.00     0.021 C 
BRANCH   2   3
ATOM      3  C   UNL A   1      30.838  29.768  24.836  1.00  0.00     0.116 C 
BRANCH   3   4
ATOM      4  N   UNL A   1      31.399  29.482  23.523  1.00  0.00    -0.354 N 
ATOM      5  C   UNL A   1      31.058  28.430  22.717  1.00  0.00     0.245 C 
ATOM      6  O   UNL A   1      30.349  28.692  21.739  1.00  0.00    -0.272 OA
ATOM      7  H   UNL A   1      32.085  30.103  23.185  1.00  0.00     0.163 HD
BRANCH   5   8
ATOM      8  C   UNL A   1      31.598  26.967  22.955  1.00  0.00     0.122 C 
ATOM      9  C   UNL A   1      30.361  26.089  23.284  1.00  0.00     0.039 C 
ATOM     10  C   UNL A   1      32.682  26.630  23.994  1.00  0.00     0.039 C 
ATOM     11  C   UNL A   1      29.879  26.215  24.731  1.00  0.00     0.011 C 
ATOM     12  C   UNL A   1      32.271  26.767  25.446  1.00  0.00     0.011 C 
ATOM     13  C   UNL A   1      30.979  26.000  25.799  1.00  0.00     0.019 C 
BRANCH   8  14
ATOM     14  N   UNL A   1      32.125  26.493  21.631  1.00  0.00    -0.307 N 
ATOM     15  O   UNL A   1      32.985  25.134  20.068  1.00  0.00    -0.225 OA
ATOM     16  C   UNL A   1      32.895  25.426  21.253  1.00  0.00     0.408 C 
ATOM     17  H   UNL A   1      31.863  27.071  20.877  1.00  0.00     0.168 HD
BRANCH  16  18
ATOM     18  O   UNL A   1      33.683  24.838  22.185  1.00  0.00    -0.449 OA
BRANCH  18  19
ATOM     19  C   UNL A   1      33.731  23.411  22.226  1.00  0.00     0.248 C 
BRANCH  19  20
ATOM     20  C   UNL A   1      33.509  22.842  23.634  1.00  0.00     0.088 C 
ATOM     21  C   UNL A   1      34.831  22.891  24.414  1.00  0.00    -0.029 A 
ATOM     22  C   UNL A   1      33.200  21.345  23.672  1.00  0.00    -0.029 A 
ATOM     23  C   UNL A   1      35.716  23.952  24.554  1.00  0.00     0.005 A 
ATOM     24  C   UNL A   1      35.159  21.605  24.898  1.00  0.00    -0.014 A 
ATOM     25  C   UNL A   1      34.163  20.660  24.440  1.00  0.00    -0.014 A 
ATOM     26  C   UNL A   1      32.189  20.655  23.017  1.00  0.00     0.005 A 
ATOM     27  C   UNL A   1      36.941  23.716  25.182  1.00  0.00     0.000 A 
ATOM     28  C   UNL A   1      36.353  21.385  25.567  1.00  0.00     0.009 A 
ATOM     29  C   UNL A   1      34.128  19.276  24.543  1.00  0.00     0.009 A 
ATOM     30  C   UNL A   1      32.178  19.262  23.089  1.00  0.00     0.000 A 
ATOM     31  C   UNL A   1      37.253  22.447  25.694  1.00  0.00     0.001 A 
ATOM     32  C   UNL A   1      33.138  18.577  23.847  1.00  0.00     0.001 A 
ENDBRANCH  19  20
ENDBRANCH  18  19
ENDBRANCH  16  18
ENDBRANCH   8  14
BRANCH  13  33
ATOM     33  C   UNL A   1      31.288  24.545  26.150  1.00  0.00    -0.045 A 
ATOM     34  C   UNL A   1      30.478  23.469  25.761  1.00  0.00     0.004 A 
ATOM     35  C   UNL A   1      32.408  24.256  26.954  1.00  0.00     0.004 A 
ATOM     36  C   UNL A   1      30.795  22.158  26.127  1.00  0.00     0.000 A 
ATOM     37  C   UNL A   1      32.739  22.946  27.302  1.00  0.00     0.000 A 
ATOM     38  C   UNL A   1      31.930  21.895  26.886  1.00  0.00     0.000 A 
ENDBRANCH  13  33
ENDBRANCH   5   8
ENDBRANCH   3   4
ENDBRANCH   2   3
ENDBRANCH   1   2
BRANCH   1  39
ATOM     39  C   UNL A   1      34.118  29.356  26.648  1.00  0.00     0.002 C 
BRANCH  39  40
ATOM     40  C   UNL A   1      34.592  30.384  27.678  1.00  0.00     0.021 C 
BRANCH  40  41
ATOM     41  C   UNL A   1      35.664  29.904  28.651  1.00  0.00     0.116 C 
BRANCH  41  42
ATOM     42  N   UNL A   1      35.834  30.789  29.793  1.00  0.00    -0.352 N 
ATOM     43  C   UNL A   1      36.968  31.064  30.518  1.00  0.00     0.251 C 
ATOM     44  H   UNL A   1      35.020  31.257  30.089  1.00  0.00     0.163 HD
ATOM     45  O   UNL A   1      36.902  31.755  31.530  1.00  0.00    -0.269 OA
BRANCH  43  46
ATOM     46  C   UNL A   1      38.261  30.492  30.090  1.00  0.00     0.039 A 
ATOM     47  C   UNL A   1      38.531  30.390  28.724  1.00  0.00     0.014 A 
ATOM     48  C   UNL A   1      39.215  30.094  31.033  1.00  0.00     0.014 A 
ATOM     49  C   UNL A   1      39.788  29.954  28.303  1.00  0.00     0.010 A 
ATOM     50  C   UNL A   1      40.488  29.721  30.611  1.00  0.00     0.010 A 
ATOM     51  C   UNL A   1      40.788  29.652  29.242  1.00  0.00    -0.014 A 
BRANCH  51  52
ATOM     52  C   UNL A   1      42.152  29.269  28.798  1.00  0.00     0.031 A 
ATOM     53  C   UNL A   1      42.440  27.857  28.366  1.00  0.00     0.074 A 
ATOM     54  C   UNL A   1      43.139  30.186  28.821  1.00  0.00     0.049 A 
ATOM     55  N   UNL A   1      43.568  27.334  27.960  1.00  0.00    -0.248 NA
ATOM     56  C   UNL A   1      41.321  26.903  28.424  1.00  0.00     0.031 C 
ATOM     57  C   UNL A   1      43.000  31.569  29.286  1.00  0.00     0.029 A 
ATOM     58  N   UNL A   1      44.457  30.094  28.449  1.00  0.00    -0.354 N 
ATOM     59  C   UNL A   1      43.296  25.994  27.712  1.00  0.00     0.074 A 
ATOM     60  C   UNL A   1      41.912  25.770  28.074  1.00  0.00     0.031 C 
ATOM     61  C   UNL A   1      44.178  32.199  29.153  1.00  0.00     0.029 A 
ATOM     62  C   UNL A   1      45.160  31.265  28.611  1.00  0.00     0.049 A 
ATOM     63  H   UNL A   1      44.861  29.268  28.100  1.00  0.00     0.167 HD
ATOM     64  C   UNL A   1      44.112  25.043  27.199  1.00  0.00     0.037 A 
ATOM     65  C   UNL A   1      46.448  31.554  28.345  1.00  0.00     0.037 A 
ATOM     66  C   UNL A   1      45.482  25.274  26.821  1.00  0.00     0.049 A 
ATOM     67  C   UNL A   1      47.325  30.492  27.739  1.00  0.00     0.074 A 
ATOM     68  C   UNL A   1      46.387  24.384  26.269  1.00  0.00     0.029 A 
ATOM     69  N   UNL A   1      46.143  26.487  26.950  1.00  0.00    -0.354 N 
ATOM     70  N   UNL A   1      47.033  29.244  27.459  1.00  0.00    -0.248 NA
ATOM     71  C   UNL A   1      48.699  30.882  27.393  1.00  0.00     0.031 C 
ATOM     72  C   UNL A   1      47.601  25.055  26.080  1.00  0.00     0.029 A 
ATOM     73  C   UNL A   1      47.442  26.371  26.486  1.00  0.00     0.049 A 
ATOM     74  H   UNL A   1      45.746  27.309  27.317  1.00  0.00     0.167 HD
ATOM     75  C   UNL A   1      48.181  28.704  26.890  1.00  0.00     0.074 A 
ATOM     76  C   UNL A   1      49.165  29.767  26.846  1.00  0.00     0.031 C 
ATOM     77  C   UNL A   1      48.403  27.443  26.446  1.00  0.00     0.037 A 
BRANCH  64  78
ATOM     78  C   UNL A   1      43.531  23.673  26.992  1.00  0.00     0.058 A 
ATOM     79  C   UNL A   1      43.312  22.805  28.075  1.00  0.00     0.135 A 
ATOM     80  C   UNL A   1      43.169  23.227  25.712  1.00  0.00     0.135 A 
ATOM     81  F   UNL A   1      43.658  23.175  29.318  1.00  0.00    -0.206 F 
ATOM     82  C   UNL A   1      42.781  21.534  27.892  1.00  0.00     0.059 A 
ATOM     83  C   UNL A   1      42.612  21.966  25.508  1.00  0.00     0.059 A 
ATOM     84  F   UNL A   1      43.359  24.016  24.642  1.00  0.00    -0.206 F 
ATOM     85  C   UNL A   1      42.437  21.122  26.604  1.00  0.00     0.060 A 
BRANCH  85  86
ATOM     86  S   UNL A   1      41.748  19.467  26.383  1.00  0.00     0.124 S 
ATOM     87  O   UNL A   1      42.212  18.796  27.592  1.00  0.00    -0.237 OA
ATOM     88  O   UNL A   1      40.313  19.731  26.316  1.00  0.00    -0.237 OA
ATOM     89  O   UNL A   1      42.356  19.011  25.138  1.00  0.00    -0.744 OA
ENDBRANCH  85  86
ENDBRANCH  64  78
BRANCH  65  90
ATOM     90  C   UNL A   1      46.980  32.915  28.619  1.00  0.00     0.058 A 
ATOM     91  C   UNL A   1      47.528  33.240  29.869  1.00  0.00     0.135 A 
ATOM     92  C   UNL A   1      46.950  33.917  27.637  1.00  0.00     0.135 A 
ATOM     93  F   UNL A   1      47.576  32.315  30.840  1.00  0.00    -0.206 F 
ATOM     94  C   UNL A   1      48.005  34.516  30.146  1.00  0.00     0.059 A 
ATOM     95  C   UNL A   1      47.440  35.195  27.883  1.00  0.00     0.059 A 
ATOM     96  F   UNL A   1      46.454  33.650  26.419  1.00  0.00    -0.206 F 
ATOM     97  C   UNL A   1      47.954  35.489  29.146  1.00  0.00     0.060 A 
BRANCH  97  98
ATOM     98  S   UNL A   1      48.608  37.135  29.497  1.00  0.00     0.124 S 
ATOM     99  O   UNL A   1      49.171  37.509  28.205  1.00  0.00    -0.237 OA
ATOM    100  O   UNL A   1      47.410  37.863  29.907  1.00  0.00    -0.237 OA
ATOM    101  O   UNL A   1      49.574  36.889  30.563  1.00  0.00    -0.744 OA
ENDBRANCH  97  98
ENDBRANCH  65  90
BRANCH  77 102
ATOM    102  C   UNL A   1      49.753  27.154  25.854  1.00  0.00     0.058 A 
ATOM    103  C   UNL A   1      49.998  27.299  24.481  1.00  0.00     0.135 A 
ATOM    104  C   UNL A   1      50.820  26.758  26.676  1.00  0.00     0.135 A 
ATOM    105  F   UNL A   1      49.008  27.672  23.653  1.00  0.00    -0.206 F 
ATOM    106  C   UNL A   1      51.250  27.034  23.936  1.00  0.00     0.059 A 
ATOM    107  C   UNL A   1      52.085  26.509  26.155  1.00  0.00     0.059 A 
ATOM    108  F   UNL A   1      50.639  26.615  27.998  1.00  0.00    -0.206 F 
ATOM    109  C   UNL A   1      52.287  26.635  24.781  1.00  0.00     0.060 A 
BRANCH 109 110
ATOM    110  S   UNL A   1      53.912  26.310  24.068  1.00  0.00     0.124 S 
ATOM    111  O   UNL A   1      54.639  27.523  24.430  1.00  0.00    -0.237 OA
ATOM    112  O   UNL A   1      54.325  25.093  24.761  1.00  0.00    -0.237 OA
ATOM    113  O   UNL A   1      53.631  26.147  22.645  1.00  0.00    -0.744 OA
ENDBRANCH 109 110
ENDBRANCH  77 102
ENDBRANCH  51  52
ENDBRANCH  43  46
ENDBRANCH  41  42
ENDBRANCH  40  41
ENDBRANCH  39  40
ENDBRANCH   1  39
TORSDOF 21
ENDMDL
