MODEL 1
REMARK VINA RESULT:     -12.4      0.000      0.000
REMARK SMILES O=C(NCCCCCCNC(=O)c1ccc(-c2c3nc(c(-c4c(F)cc(S(=O)(=O)[O-])cc4F)c4ccc([nH]4)c(-c4c(F)cc(S(=O)(=O)[O-])cc4F)c4nc(c(-c5c(F)cc(S(=O)(=O)[O-])cc5F)c5ccc2[nH]5)C=C4)C=C3)cc1)C1=N[C@@H]2NC=NN2[C@@H]([C@H]2C=NN=C2c2ccc(F)cc2)C1
REMARK SMILES IDX 7 1 6 2 5 3 4 4 3 5 1 6 2 7 79 9 80 10 99 11 81 12 86 13
REMARK SMILES IDX 82 14 85 15 83 16 84 18 87 19 88 20 91 21 89 22 90 23 92 24
REMARK SMILES IDX 93 25 98 26 94 27 97 28 95 29 96 30 8 31 9 32 10 33 11 34
REMARK SMILES IDX 12 36 13 37 14 38 78 39 15 40 77 41 16 42 17 43 18 44 71 45
REMARK SMILES IDX 19 46 76 47 70 48 72 49 20 50 75 51 69 52 68 53 21 55 55 56
REMARK SMILES IDX 34 57 54 58 35 59 38 60 53 61 73 62 36 63 37 64 52 66 74 67
REMARK SMILES IDX 39 68 22 69 23 70 32 71 24 72 25 73 31 74 33 75 26 76 27 77
REMARK SMILES IDX 28 78 29 79 30 80 56 81 57 82 66 83 58 84 59 85 65 86 67 87
REMARK SMILES IDX 60 88 61 89 62 90 63 91 64 92 40 93 41 94 50 95 42 96 43 97
REMARK SMILES IDX 49 98 51 99 44 100 45 101 46 102 47 103 48 104
REMARK H PARENT 3 8 82 17 10 35 72 54 38 65
REMARK Flexibility Score: inf
ROOT
ATOM      1  C   UNL A   1      33.235  27.119  24.988  1.00  0.00     0.002 C 
ENDROOT
BRANCH   1   2
ATOM      2  C   UNL A   1      32.447  27.912  23.945  1.00  0.00     0.002 C 
BRANCH   2   3
ATOM      3  C   UNL A   1      30.928  27.736  23.934  1.00  0.00     0.021 C 
BRANCH   3   4
ATOM      4  C   UNL A   1      30.367  26.317  23.894  1.00  0.00     0.116 C 
BRANCH   4   5
ATOM      5  N   UNL A   1      29.496  25.957  24.994  1.00  0.00    -0.351 N 
ATOM      6  O   UNL A   1      28.895  25.087  26.978  1.00  0.00    -0.268 OA
ATOM      7  C   UNL A   1      29.698  25.093  26.049  1.00  0.00     0.265 C 
ATOM      8  H   UNL A   1      28.617  26.401  24.987  1.00  0.00     0.163 HD
BRANCH   7   9
ATOM      9  C   UNL A   1      30.844  24.062  26.072  1.00  0.00     0.106 C 
ATOM     10  N   UNL A   1      31.077  23.496  27.207  1.00  0.00    -0.237 NA
ATOM     11  C   UNL A   1      31.639  23.807  24.825  1.00  0.00     0.090 C 
ATOM     12  C   UNL A   1      31.980  22.376  27.273  1.00  0.00     0.319 C 
ATOM     13  C   UNL A   1      32.844  22.905  25.085  1.00  0.00     0.127 C 
ATOM     14  N   UNL A   1      33.117  22.464  28.146  1.00  0.00    -0.335 N 
ATOM     15  N   UNL A   1      32.531  21.802  26.023  1.00  0.00    -0.249 NA
ATOM     16  C   UNL A   1      34.018  21.607  27.587  1.00  0.00     0.217 C 
ATOM     17  H   UNL A   1      33.221  23.013  28.957  1.00  0.00     0.165 HD
ATOM     18  N   UNL A   1      33.720  21.133  26.405  1.00  0.00    -0.164 NA
BRANCH  13  19
ATOM     19  C   UNL A   1      33.480  22.309  23.814  1.00  0.00     0.109 C 
ATOM     20  C   UNL A   1      32.818  22.760  22.555  1.00  0.00     0.120 C 
ATOM     21  C   UNL A   1      34.840  22.862  23.521  1.00  0.00     0.081 C 
ATOM     22  N   UNL A   1      33.603  23.431  21.777  1.00  0.00    -0.162 NA
ATOM     23  N   UNL A   1      34.887  23.508  22.396  1.00  0.00    -0.155 NA
BRANCH  21  24
ATOM     24  C   UNL A   1      35.941  22.784  24.494  1.00  0.00    -0.001 A 
ATOM     25  C   UNL A   1      36.264  23.871  25.317  1.00  0.00     0.013 A 
ATOM     26  C   UNL A   1      36.758  21.649  24.467  1.00  0.00     0.013 A 
ATOM     27  C   UNL A   1      37.434  23.837  26.074  1.00  0.00     0.040 A 
ATOM     28  C   UNL A   1      37.928  21.622  25.223  1.00  0.00     0.040 A 
ATOM     29  C   UNL A   1      38.262  22.720  26.009  1.00  0.00     0.123 A 
ATOM     30  F   UNL A   1      39.408  22.712  26.702  1.00  0.00    -0.207 F 
ENDBRANCH  21  24
ENDBRANCH  13  19
ENDBRANCH   7   9
ENDBRANCH   4   5
ENDBRANCH   3   4
ENDBRANCH   2   3
ENDBRANCH   1   2
BRANCH   1  31
ATOM     31  C   UNL A   1      34.083  27.928  25.973  1.00  0.00     0.021 C 
BRANCH  31  32
ATOM     32  C   UNL A   1      33.425  28.288  27.303  1.00  0.00     0.116 C 
BRANCH  32  33
ATOM     33  N   UNL A   1      33.355  29.721  27.542  1.00  0.00    -0.352 N 
ATOM     34  C   UNL A   1      34.314  30.575  28.028  1.00  0.00     0.251 C 
ATOM     35  H   UNL A   1      32.491  30.140  27.323  1.00  0.00     0.163 HD
ATOM     36  O   UNL A   1      34.014  31.746  28.272  1.00  0.00    -0.269 OA
BRANCH  34  37
ATOM     37  C   UNL A   1      35.692  30.099  28.292  1.00  0.00     0.039 A 
ATOM     38  C   UNL A   1      36.626  30.129  27.252  1.00  0.00     0.014 A 
ATOM     39  C   UNL A   1      36.068  29.616  29.548  1.00  0.00     0.014 A 
ATOM     40  C   UNL A   1      37.949  29.743  27.491  1.00  0.00     0.010 A 
ATOM     41  C   UNL A   1      37.403  29.303  29.803  1.00  0.00     0.010 A 
ATOM     42  C   UNL A   1      38.360  29.364  28.779  1.00  0.00    -0.014 A 
BRANCH  42  43
ATOM     43  C   UNL A   1      39.783  29.041  29.072  1.00  0.00     0.031 A 
ATOM     44  C   UNL A   1      40.690  30.079  29.682  1.00  0.00     0.074 A 
ATOM     45  C   UNL A   1      40.277  27.834  28.731  1.00  0.00     0.049 A 
ATOM     46  N   UNL A   1      41.966  30.001  29.959  1.00  0.00    -0.248 NA
ATOM     47  C   UNL A   1      40.088  31.382  30.002  1.00  0.00     0.031 C 
ATOM     48  C   UNL A   1      39.515  26.757  28.096  1.00  0.00     0.029 A 
ATOM     49  N   UNL A   1      41.541  27.310  28.863  1.00  0.00    -0.354 N 
ATOM     50  C   UNL A   1      42.324  31.245  30.464  1.00  0.00     0.074 A 
ATOM     51  C   UNL A   1      41.140  32.074  30.414  1.00  0.00     0.031 C 
ATOM     52  C   UNL A   1      40.316  25.695  27.919  1.00  0.00     0.029 A 
ATOM     53  C   UNL A   1      41.659  26.025  28.386  1.00  0.00     0.049 A 
ATOM     54  H   UNL A   1      42.291  27.807  29.260  1.00  0.00     0.167 HD
ATOM     55  C   UNL A   1      43.524  31.654  30.943  1.00  0.00     0.037 A 
ATOM     56  C   UNL A   1      42.728  25.207  28.325  1.00  0.00     0.037 A 
ATOM     57  C   UNL A   1      44.694  30.816  31.011  1.00  0.00     0.049 A 
ATOM     58  C   UNL A   1      44.054  25.689  28.851  1.00  0.00     0.074 A 
ATOM     59  C   UNL A   1      45.936  31.114  31.546  1.00  0.00     0.029 A 
ATOM     60  N   UNL A   1      44.772  29.520  30.522  1.00  0.00    -0.354 N 
ATOM     61  N   UNL A   1      44.353  26.843  29.397  1.00  0.00    -0.248 NA
ATOM     62  C   UNL A   1      45.185  24.755  28.757  1.00  0.00     0.031 C 
ATOM     63  C   UNL A   1      46.780  30.020  31.331  1.00  0.00     0.029 A 
ATOM     64  C   UNL A   1      46.049  29.016  30.715  1.00  0.00     0.049 A 
ATOM     65  H   UNL A   1      44.030  29.029  30.101  1.00  0.00     0.167 HD
ATOM     66  C   UNL A   1      45.700  26.763  29.741  1.00  0.00     0.074 A 
ATOM     67  C   UNL A   1      46.151  25.444  29.351  1.00  0.00     0.031 C 
ATOM     68  C   UNL A   1      46.487  27.697  30.330  1.00  0.00     0.037 A 
BRANCH  55  69
ATOM     69  C   UNL A   1      43.639  33.077  31.425  1.00  0.00     0.058 A 
ATOM     70  C   UNL A   1      43.408  33.426  32.766  1.00  0.00     0.135 A 
ATOM     71  C   UNL A   1      44.022  34.099  30.542  1.00  0.00     0.135 A 
ATOM     72  F   UNL A   1      43.028  32.493  33.653  1.00  0.00    -0.206 F 
ATOM     73  C   UNL A   1      43.518  34.742  33.205  1.00  0.00     0.059 A 
ATOM     74  C   UNL A   1      44.169  35.418  30.966  1.00  0.00     0.059 A 
ATOM     75  F   UNL A   1      44.260  33.824  29.250  1.00  0.00    -0.206 F 
ATOM     76  C   UNL A   1      43.898  35.732  32.296  1.00  0.00     0.060 A 
BRANCH  76  77
ATOM     77  S   UNL A   1      44.033  37.433  32.883  1.00  0.00     0.124 S 
ATOM     78  O   UNL A   1      43.857  38.183  31.642  1.00  0.00    -0.237 OA
ATOM     79  O   UNL A   1      42.934  37.524  33.838  1.00  0.00    -0.237 OA
ATOM     80  O   UNL A   1      45.372  37.488  33.464  1.00  0.00    -0.744 OA
ENDBRANCH  76  77
ENDBRANCH  55  69
BRANCH  56  81
ATOM     81  C   UNL A   1      42.585  23.833  27.766  1.00  0.00     0.058 A 
ATOM     82  C   UNL A   1      42.613  23.615  26.381  1.00  0.00     0.135 A 
ATOM     83  C   UNL A   1      42.428  22.716  28.600  1.00  0.00     0.135 A 
ATOM     84  F   UNL A   1      42.752  24.652  25.542  1.00  0.00    -0.206 F 
ATOM     85  C   UNL A   1      42.474  22.340  25.840  1.00  0.00     0.059 A 
ATOM     86  C   UNL A   1      42.314  21.428  28.084  1.00  0.00     0.059 A 
ATOM     87  F   UNL A   1      42.409  22.867  29.934  1.00  0.00    -0.206 F 
ATOM     88  C   UNL A   1      42.330  21.252  26.701  1.00  0.00     0.060 A 
BRANCH  88  89
ATOM     89  S   UNL A   1      42.200  19.597  25.989  1.00  0.00     0.124 S 
ATOM     90  O   UNL A   1      42.614  18.761  27.108  1.00  0.00    -0.237 OA
ATOM     91  O   UNL A   1      40.788  19.530  25.628  1.00  0.00    -0.237 OA
ATOM     92  O   UNL A   1      43.126  19.644  24.860  1.00  0.00    -0.744 OA
ENDBRANCH  88  89
ENDBRANCH  56  81
BRANCH  68  93
ATOM     93  C   UNL A   1      47.911  27.316  30.631  1.00  0.00     0.058 A 
ATOM     94  C   UNL A   1      48.254  26.560  31.763  1.00  0.00     0.135 A 
ATOM     95  C   UNL A   1      48.943  27.670  29.744  1.00  0.00     0.135 A 
ATOM     96  F   UNL A   1      47.310  26.200  32.647  1.00  0.00    -0.206 F 
ATOM     97  C   UNL A   1      49.571  26.188  32.018  1.00  0.00     0.059 A 
ATOM     98  C   UNL A   1      50.261  27.284  29.963  1.00  0.00     0.059 A 
ATOM     99  F   UNL A   1      48.669  28.385  28.641  1.00  0.00    -0.206 F 
ATOM    100  C   UNL A   1      50.568  26.553  31.110  1.00  0.00     0.060 A 
BRANCH 100 101
ATOM    101  S   UNL A   1      52.265  26.034  31.435  1.00  0.00     0.124 S 
ATOM    102  O   UNL A   1      52.063  24.717  32.028  1.00  0.00    -0.237 OA
ATOM    103  O   UNL A   1      52.857  26.045  30.100  1.00  0.00    -0.237 OA
ATOM    104  O   UNL A   1      52.767  27.062  32.344  1.00  0.00    -0.744 OA
ENDBRANCH 100 101
ENDBRANCH  68  93
ENDBRANCH  42  43
ENDBRANCH  34  37
ENDBRANCH  32  33
ENDBRANCH  31  32
ENDBRANCH   1  31
TORSDOF 18
ENDMDL
MODEL 2
REMARK VINA RESULT:     -12.3      4.703     10.357
REMARK SMILES O=C(NCCCCCCNC(=O)c1ccc(-c2c3nc(c(-c4c(F)cc(S(=O)(=O)[O-])cc4F)c4ccc([nH]4)c(-c4c(F)cc(S(=O)(=O)[O-])cc4F)c4nc(c(-c5c(F)cc(S(=O)(=O)[O-])cc5F)c5ccc2[nH]5)C=C4)C=C3)cc1)C1=N[C@@H]2NC=NN2[C@@H]([C@H]2C=NN=C2c2ccc(F)cc2)C1
REMARK SMILES IDX 7 1 6 2 5 3 4 4 3 5 1 6 2 7 79 9 80 10 99 11 81 12 86 13
REMARK SMILES IDX 82 14 85 15 83 16 84 18 87 19 88 20 91 21 89 22 90 23 92 24
REMARK SMILES IDX 93 25 98 26 94 27 97 28 95 29 96 30 8 31 9 32 10 33 11 34
REMARK SMILES IDX 12 36 13 37 14 38 78 39 15 40 77 41 16 42 17 43 18 44 71 45
REMARK SMILES IDX 19 46 76 47 70 48 72 49 20 50 75 51 69 52 68 53 21 55 55 56
REMARK SMILES IDX 34 57 54 58 35 59 38 60 53 61 73 62 36 63 37 64 52 66 74 67
REMARK SMILES IDX 39 68 22 69 23 70 32 71 24 72 25 73 31 74 33 75 26 76 27 77
REMARK SMILES IDX 28 78 29 79 30 80 56 81 57 82 66 83 58 84 59 85 65 86 67 87
REMARK SMILES IDX 60 88 61 89 62 90 63 91 64 92 40 93 41 94 50 95 42 96 43 97
REMARK SMILES IDX 49 98 51 99 44 100 45 101 46 102 47 103 48 104
REMARK H PARENT 3 8 82 17 10 35 72 54 38 65
REMARK Flexibility Score: inf
ROOT
ATOM      1  C   UNL A   1      37.069  23.196  24.459  1.00  0.00     0.002 C 
ENDROOT
BRANCH   1   2
ATOM      2  C   UNL A   1      36.174  22.102  23.874  1.00  0.00     0.002 C 
BRANCH   2   3
ATOM      3  C   UNL A   1      34.861  21.810  24.601  1.00  0.00     0.021 C 
BRANCH   3   4
ATOM      4  C   UNL A   1      33.600  22.531  24.129  1.00  0.00     0.116 C 
BRANCH   4   5
ATOM      5  N   UNL A   1      33.392  22.554  22.696  1.00  0.00    -0.351 N 
ATOM      6  O   UNL A   1      33.297  23.404  20.617  1.00  0.00    -0.268 OA
ATOM      7  C   UNL A   1      33.274  23.617  21.826  1.00  0.00     0.265 C 
ATOM      8  H   UNL A   1      33.321  21.666  22.275  1.00  0.00     0.163 HD
BRANCH   7   9
ATOM      9  C   UNL A   1      33.023  25.060  22.305  1.00  0.00     0.106 C 
ATOM     10  N   UNL A   1      33.646  25.989  21.665  1.00  0.00    -0.237 NA
ATOM     11  C   UNL A   1      32.129  25.305  23.485  1.00  0.00     0.090 C 
ATOM     12  C   UNL A   1      33.310  27.369  21.904  1.00  0.00     0.319 C 
ATOM     13  C   UNL A   1      32.149  26.767  23.930  1.00  0.00     0.127 C 
ATOM     14  N   UNL A   1      34.351  28.262  22.331  1.00  0.00    -0.335 N 
ATOM     15  N   UNL A   1      32.166  27.704  22.783  1.00  0.00    -0.249 NA
ATOM     16  C   UNL A   1      33.678  29.242  23.001  1.00  0.00     0.217 C 
ATOM     17  H   UNL A   1      35.320  28.187  22.176  1.00  0.00     0.165 HD
ATOM     18  N   UNL A   1      32.410  29.026  23.236  1.00  0.00    -0.164 NA
BRANCH  13  19
ATOM     19  C   UNL A   1      30.999  27.162  24.877  1.00  0.00     0.109 C 
ATOM     20  C   UNL A   1      30.115  26.017  25.241  1.00  0.00     0.120 C 
ATOM     21  C   UNL A   1      31.464  27.491  26.261  1.00  0.00     0.081 C 
ATOM     22  N   UNL A   1      30.118  25.751  26.506  1.00  0.00    -0.162 NA
ATOM     23  N   UNL A   1      30.987  26.679  27.156  1.00  0.00    -0.155 NA
BRANCH  21  24
ATOM     24  C   UNL A   1      32.464  28.538  26.523  1.00  0.00    -0.001 A 
ATOM     25  C   UNL A   1      33.809  28.218  26.751  1.00  0.00     0.013 A 
ATOM     26  C   UNL A   1      32.009  29.850  26.691  1.00  0.00     0.013 A 
ATOM     27  C   UNL A   1      34.684  29.207  27.197  1.00  0.00     0.040 A 
ATOM     28  C   UNL A   1      32.888  30.833  27.141  1.00  0.00     0.040 A 
ATOM     29  C   UNL A   1      34.213  30.501  27.402  1.00  0.00     0.123 A 
ATOM     30  F   UNL A   1      35.047  31.435  27.875  1.00  0.00    -0.207 F 
ENDBRANCH  21  24
ENDBRANCH  13  19
ENDBRANCH   7   9
ENDBRANCH   4   5
ENDBRANCH   3   4
ENDBRANCH   2   3
ENDBRANCH   1   2
BRANCH   1  31
ATOM     31  C   UNL A   1      37.680  22.923  25.835  1.00  0.00     0.021 C 
BRANCH  31  32
ATOM     32  C   UNL A   1      38.537  24.036  26.432  1.00  0.00     0.116 C 
BRANCH  32  33
ATOM     33  N   UNL A   1      39.952  23.903  26.122  1.00  0.00    -0.352 N 
ATOM     34  C   UNL A   1      41.015  24.663  26.543  1.00  0.00     0.251 C 
ATOM     35  H   UNL A   1      40.181  23.158  25.520  1.00  0.00     0.163 HD
ATOM     36  O   UNL A   1      42.134  24.457  26.065  1.00  0.00    -0.269 OA
BRANCH  34  37
ATOM     37  C   UNL A   1      40.829  25.745  27.537  1.00  0.00     0.039 A 
ATOM     38  C   UNL A   1      39.799  25.629  28.476  1.00  0.00     0.014 A 
ATOM     39  C   UNL A   1      41.652  26.875  27.549  1.00  0.00     0.014 A 
ATOM     40  C   UNL A   1      39.640  26.606  29.464  1.00  0.00     0.010 A 
ATOM     41  C   UNL A   1      41.539  27.809  28.578  1.00  0.00     0.010 A 
ATOM     42  C   UNL A   1      40.533  27.686  29.549  1.00  0.00    -0.014 A 
BRANCH  42  43
ATOM     43  C   UNL A   1      40.438  28.683  30.649  1.00  0.00     0.031 A 
ATOM     44  C   UNL A   1      41.321  28.565  31.864  1.00  0.00     0.074 A 
ATOM     45  C   UNL A   1      39.511  29.660  30.585  1.00  0.00     0.049 A 
ATOM     46  N   UNL A   1      41.344  29.304  32.944  1.00  0.00    -0.248 NA
ATOM     47  C   UNL A   1      42.289  27.458  31.877  1.00  0.00     0.031 C 
ATOM     48  C   UNL A   1      38.566  29.859  29.483  1.00  0.00     0.029 A 
ATOM     49  N   UNL A   1      39.203  30.667  31.467  1.00  0.00    -0.354 N 
ATOM     50  C   UNL A   1      42.310  28.742  33.770  1.00  0.00     0.074 A 
ATOM     51  C   UNL A   1      42.819  27.573  33.086  1.00  0.00     0.031 C 
ATOM     52  C   UNL A   1      37.806  30.934  29.742  1.00  0.00     0.029 A 
ATOM     53  C   UNL A   1      38.175  31.478  31.046  1.00  0.00     0.049 A 
ATOM     54  H   UNL A   1      39.673  30.796  32.323  1.00  0.00     0.167 HD
ATOM     55  C   UNL A   1      42.747  29.170  34.980  1.00  0.00     0.037 A 
ATOM     56  C   UNL A   1      37.590  32.535  31.642  1.00  0.00     0.037 A 
ATOM     57  C   UNL A   1      42.251  30.348  35.645  1.00  0.00     0.049 A 
ATOM     58  C   UNL A   1      38.084  32.984  32.992  1.00  0.00     0.074 A 
ATOM     59  C   UNL A   1      42.680  30.906  36.838  1.00  0.00     0.029 A 
ATOM     60  N   UNL A   1      41.214  31.144  35.183  1.00  0.00    -0.354 N 
ATOM     61  N   UNL A   1      39.052  32.485  33.723  1.00  0.00    -0.248 NA
ATOM     62  C   UNL A   1      37.408  34.141  33.595  1.00  0.00     0.031 C 
ATOM     63  C   UNL A   1      41.865  32.005  37.126  1.00  0.00     0.029 A 
ATOM     64  C   UNL A   1      40.967  32.170  36.083  1.00  0.00     0.049 A 
ATOM     65  H   UNL A   1      40.725  31.003  34.341  1.00  0.00     0.167 HD
ATOM     66  C   UNL A   1      39.123  33.288  34.857  1.00  0.00     0.074 A 
ATOM     67  C   UNL A   1      38.107  34.309  34.709  1.00  0.00     0.031 C 
ATOM     68  C   UNL A   1      39.958  33.188  35.922  1.00  0.00     0.037 A 
BRANCH  55  69
ATOM     69  C   UNL A   1      43.809  28.356  35.671  1.00  0.00     0.058 A 
ATOM     70  C   UNL A   1      43.486  27.346  36.592  1.00  0.00     0.135 A 
ATOM     71  C   UNL A   1      45.168  28.563  35.380  1.00  0.00     0.135 A 
ATOM     72  F   UNL A   1      42.206  27.111  36.919  1.00  0.00    -0.206 F 
ATOM     73  C   UNL A   1      44.473  26.597  37.227  1.00  0.00     0.059 A 
ATOM     74  C   UNL A   1      46.170  27.804  35.979  1.00  0.00     0.059 A 
ATOM     75  F   UNL A   1      45.535  29.512  34.505  1.00  0.00    -0.206 F 
ATOM     76  C   UNL A   1      45.813  26.834  36.914  1.00  0.00     0.060 A 
BRANCH  76  77
ATOM     77  S   UNL A   1      47.078  25.853  37.747  1.00  0.00     0.124 S 
ATOM     78  O   UNL A   1      46.593  24.496  37.515  1.00  0.00    -0.237 OA
ATOM     79  O   UNL A   1      48.289  26.224  37.022  1.00  0.00    -0.237 OA
ATOM     80  O   UNL A   1      47.012  26.315  39.130  1.00  0.00    -0.744 OA
ENDBRANCH  76  77
ENDBRANCH  55  69
BRANCH  56  81
ATOM     81  C   UNL A   1      36.487  33.264  30.954  1.00  0.00     0.058 A 
ATOM     82  C   UNL A   1      35.163  33.149  31.402  1.00  0.00     0.135 A 
ATOM     83  C   UNL A   1      36.733  34.091  29.848  1.00  0.00     0.135 A 
ATOM     84  F   UNL A   1      34.875  32.363  32.451  1.00  0.00    -0.206 F 
ATOM     85  C   UNL A   1      34.118  33.816  30.770  1.00  0.00     0.059 A 
ATOM     86  C   UNL A   1      35.709  34.790  29.215  1.00  0.00     0.059 A 
ATOM     87  F   UNL A   1      37.984  34.247  29.388  1.00  0.00    -0.206 F 
ATOM     88  C   UNL A   1      34.402  34.638  29.678  1.00  0.00     0.060 A 
BRANCH  88  89
ATOM     89  S   UNL A   1      33.045  35.537  28.897  1.00  0.00     0.124 S 
ATOM     90  O   UNL A   1      33.758  36.600  28.200  1.00  0.00    -0.237 OA
ATOM     91  O   UNL A   1      32.445  34.510  28.052  1.00  0.00    -0.237 OA
ATOM     92  O   UNL A   1      32.227  35.962  30.029  1.00  0.00    -0.744 OA
ENDBRANCH  88  89
ENDBRANCH  56  81
BRANCH  68  93
ATOM     93  C   UNL A   1      39.841  34.235  36.997  1.00  0.00     0.058 A 
ATOM     94  C   UNL A   1      40.429  35.503  36.866  1.00  0.00     0.135 A 
ATOM     95  C   UNL A   1      39.085  33.982  38.154  1.00  0.00     0.135 A 
ATOM     96  F   UNL A   1      41.168  35.796  35.784  1.00  0.00    -0.206 F 
ATOM     97  C   UNL A   1      40.292  36.474  37.853  1.00  0.00     0.059 A 
ATOM     98  C   UNL A   1      38.909  34.948  39.140  1.00  0.00     0.059 A 
ATOM     99  F   UNL A   1      38.493  32.789  38.327  1.00  0.00    -0.206 F 
ATOM    100  C   UNL A   1      39.527  36.187  38.986  1.00  0.00     0.060 A 
BRANCH 100 101
ATOM    101  S   UNL A   1      39.329  37.468  40.242  1.00  0.00     0.124 S 
ATOM    102  O   UNL A   1      38.675  36.729  41.317  1.00  0.00    -0.237 OA
ATOM    103  O   UNL A   1      40.708  37.872  40.498  1.00  0.00    -0.237 OA
ATOM    104  O   UNL A   1      38.502  38.472  39.577  1.00  0.00    -0.744 OA
ENDBRANCH 100 101
ENDBRANCH  68  93
ENDBRANCH  42  43
ENDBRANCH  34  37
ENDBRANCH  32  33
ENDBRANCH  31  32
ENDBRANCH   1  31
TORSDOF 18
ENDMDL
MODEL 3
REMARK VINA RESULT:     -12.2      3.017      9.224
REMARK SMILES O=C(NCCCCCCNC(=O)c1ccc(-c2c3nc(c(-c4c(F)cc(S(=O)(=O)[O-])cc4F)c4ccc([nH]4)c(-c4c(F)cc(S(=O)(=O)[O-])cc4F)c4nc(c(-c5c(F)cc(S(=O)(=O)[O-])cc5F)c5ccc2[nH]5)C=C4)C=C3)cc1)C1=N[C@@H]2NC=NN2[C@@H]([C@H]2C=NN=C2c2ccc(F)cc2)C1
REMARK SMILES IDX 7 1 6 2 5 3 4 4 3 5 1 6 2 7 79 9 80 10 99 11 81 12 86 13
REMARK SMILES IDX 82 14 85 15 83 16 84 18 87 19 88 20 91 21 89 22 90 23 92 24
REMARK SMILES IDX 93 25 98 26 94 27 97 28 95 29 96 30 8 31 9 32 10 33 11 34
REMARK SMILES IDX 12 36 13 37 14 38 78 39 15 40 77 41 16 42 17 43 18 44 71 45
REMARK SMILES IDX 19 46 76 47 70 48 72 49 20 50 75 51 69 52 68 53 21 55 55 56
REMARK SMILES IDX 34 57 54 58 35 59 38 60 53 61 73 62 36 63 37 64 52 66 74 67
REMARK SMILES IDX 39 68 22 69 23 70 32 71 24 72 25 73 31 74 33 75 26 76 27 77
REMARK SMILES IDX 28 78 29 79 30 80 56 81 57 82 66 83 58 84 59 85 65 86 67 87
REMARK SMILES IDX 60 88 61 89 62 90 63 91 64 92 40 93 41 94 50 95 42 96 43 97
REMARK SMILES IDX 49 98 51 99 44 100 45 101 46 102 47 103 48 104
REMARK H PARENT 3 8 82 17 10 35 72 54 38 65
REMARK Flexibility Score: inf
ROOT
ATOM      1  C   UNL A   1      35.019  22.220  26.011  1.00  0.00     0.002 C 
ENDROOT
BRANCH   1   2
ATOM      2  C   UNL A   1      33.502  22.188  25.826  1.00  0.00     0.002 C 
BRANCH   2   3
ATOM      3  C   UNL A   1      32.964  21.487  24.579  1.00  0.00     0.021 C 
BRANCH   3   4
ATOM      4  C   UNL A   1      32.053  22.279  23.644  1.00  0.00     0.116 C 
BRANCH   4   5
ATOM      5  N   UNL A   1      32.523  22.415  22.280  1.00  0.00    -0.351 N 
ATOM      6  O   UNL A   1      33.522  23.368  20.505  1.00  0.00    -0.268 OA
ATOM      7  C   UNL A   1      32.989  23.521  21.601  1.00  0.00     0.265 C 
ATOM      8  H   UNL A   1      32.506  21.584  21.752  1.00  0.00     0.163 HD
BRANCH   7   9
ATOM      9  C   UNL A   1      32.790  24.959  22.118  1.00  0.00     0.106 C 
ATOM     10  N   UNL A   1      33.435  25.883  21.491  1.00  0.00    -0.237 NA
ATOM     11  C   UNL A   1      31.920  25.204  23.315  1.00  0.00     0.090 C 
ATOM     12  C   UNL A   1      33.146  27.267  21.767  1.00  0.00     0.319 C 
ATOM     13  C   UNL A   1      31.993  26.654  23.794  1.00  0.00     0.127 C 
ATOM     14  N   UNL A   1      34.220  28.117  22.200  1.00  0.00    -0.335 N 
ATOM     15  N   UNL A   1      32.025  27.617  22.669  1.00  0.00    -0.249 NA
ATOM     16  C   UNL A   1      33.587  29.100  22.902  1.00  0.00     0.217 C 
ATOM     17  H   UNL A   1      35.184  28.014  22.031  1.00  0.00     0.165 HD
ATOM     18  N   UNL A   1      32.316  28.919  23.149  1.00  0.00    -0.164 NA
BRANCH  13  19
ATOM     19  C   UNL A   1      30.868  27.062  24.765  1.00  0.00     0.109 C 
ATOM     20  C   UNL A   1      29.970  25.930  25.138  1.00  0.00     0.120 C 
ATOM     21  C   UNL A   1      31.364  27.372  26.143  1.00  0.00     0.081 C 
ATOM     22  N   UNL A   1      29.993  25.654  26.400  1.00  0.00    -0.162 NA
ATOM     23  N   UNL A   1      30.890  26.561  27.040  1.00  0.00    -0.155 NA
BRANCH  21  24
ATOM     24  C   UNL A   1      32.388  28.398  26.393  1.00  0.00    -0.001 A 
ATOM     25  C   UNL A   1      33.738  28.057  26.546  1.00  0.00     0.013 A 
ATOM     26  C   UNL A   1      31.957  29.708  26.628  1.00  0.00     0.013 A 
ATOM     27  C   UNL A   1      34.646  29.020  26.985  1.00  0.00     0.040 A 
ATOM     28  C   UNL A   1      32.868  30.666  27.070  1.00  0.00     0.040 A 
ATOM     29  C   UNL A   1      34.200  30.311  27.256  1.00  0.00     0.123 A 
ATOM     30  F   UNL A   1      35.066  31.219  27.722  1.00  0.00    -0.207 F 
ENDBRANCH  21  24
ENDBRANCH  13  19
ENDBRANCH   7   9
ENDBRANCH   4   5
ENDBRANCH   3   4
ENDBRANCH   2   3
ENDBRANCH   1   2
BRANCH   1  31
ATOM     31  C   UNL A   1      35.691  23.595  25.965  1.00  0.00     0.021 C 
BRANCH  31  32
ATOM     32  C   UNL A   1      36.883  23.740  25.024  1.00  0.00     0.116 C 
BRANCH  32  33
ATOM     33  N   UNL A   1      37.936  22.767  25.272  1.00  0.00    -0.352 N 
ATOM     34  C   UNL A   1      39.109  22.907  25.972  1.00  0.00     0.251 C 
ATOM     35  H   UNL A   1      37.784  21.877  24.880  1.00  0.00     0.163 HD
ATOM     36  O   UNL A   1      39.931  21.987  25.964  1.00  0.00    -0.269 OA
BRANCH  34  37
ATOM     37  C   UNL A   1      39.411  24.157  26.706  1.00  0.00     0.039 A 
ATOM     38  C   UNL A   1      38.915  24.314  28.004  1.00  0.00     0.014 A 
ATOM     39  C   UNL A   1      40.170  25.178  26.127  1.00  0.00     0.014 A 
ATOM     40  C   UNL A   1      39.237  25.457  28.742  1.00  0.00     0.010 A 
ATOM     41  C   UNL A   1      40.550  26.282  26.889  1.00  0.00     0.010 A 
ATOM     42  C   UNL A   1      40.090  26.435  28.206  1.00  0.00    -0.014 A 
BRANCH  42  43
ATOM     43  C   UNL A   1      40.520  27.611  29.010  1.00  0.00     0.031 A 
ATOM     44  C   UNL A   1      41.845  27.601  29.729  1.00  0.00     0.074 A 
ATOM     45  C   UNL A   1      39.689  28.664  29.148  1.00  0.00     0.049 A 
ATOM     46  N   UNL A   1      42.363  28.507  30.518  1.00  0.00    -0.248 NA
ATOM     47  C   UNL A   1      42.685  26.407  29.556  1.00  0.00     0.031 C 
ATOM     48  C   UNL A   1      38.362  28.780  28.539  1.00  0.00     0.029 A 
ATOM     49  N   UNL A   1      39.832  29.837  29.849  1.00  0.00    -0.354 N 
ATOM     50  C   UNL A   1      43.577  27.986  30.950  1.00  0.00     0.074 A 
ATOM     51  C   UNL A   1      43.697  26.666  30.371  1.00  0.00     0.031 C 
ATOM     52  C   UNL A   1      37.827  29.965  28.869  1.00  0.00     0.029 A 
ATOM     53  C   UNL A   1      38.749  30.679  29.748  1.00  0.00     0.049 A 
ATOM     54  H   UNL A   1      40.635  30.055  30.375  1.00  0.00     0.167 HD
ATOM     55  C   UNL A   1      44.515  28.562  31.741  1.00  0.00     0.037 A 
ATOM     56  C   UNL A   1      38.519  31.884  30.304  1.00  0.00     0.037 A 
ATOM     57  C   UNL A   1      44.400  29.887  32.295  1.00  0.00     0.049 A 
ATOM     58  C   UNL A   1      39.570  32.498  31.190  1.00  0.00     0.074 A 
ATOM     59  C   UNL A   1      45.327  30.587  33.048  1.00  0.00     0.029 A 
ATOM     60  N   UNL A   1      43.289  30.708  32.166  1.00  0.00    -0.354 N 
ATOM     61  N   UNL A   1      40.746  32.022  31.525  1.00  0.00    -0.248 NA
ATOM     62  C   UNL A   1      39.265  33.812  31.771  1.00  0.00     0.031 C 
ATOM     63  C   UNL A   1      44.756  31.808  33.422  1.00  0.00     0.029 A 
ATOM     64  C   UNL A   1      43.496  31.895  32.852  1.00  0.00     0.049 A 
ATOM     65  H   UNL A   1      42.475  30.482  31.662  1.00  0.00     0.167 HD
ATOM     66  C   UNL A   1      41.335  32.994  32.328  1.00  0.00     0.074 A 
ATOM     67  C   UNL A   1      40.389  34.086  32.420  1.00  0.00     0.031 C 
ATOM     68  C   UNL A   1      42.550  32.981  32.930  1.00  0.00     0.037 A 
BRANCH  55  69
ATOM     69  C   UNL A   1      45.749  27.760  32.065  1.00  0.00     0.058 A 
ATOM     70  C   UNL A   1      46.899  27.813  31.261  1.00  0.00     0.135 A 
ATOM     71  C   UNL A   1      45.794  26.956  33.215  1.00  0.00     0.135 A 
ATOM     72  F   UNL A   1      46.911  28.555  30.142  1.00  0.00    -0.206 F 
ATOM     73  C   UNL A   1      48.036  27.070  31.566  1.00  0.00     0.059 A 
ATOM     74  C   UNL A   1      46.931  26.229  33.557  1.00  0.00     0.059 A 
ATOM     75  F   UNL A   1      44.725  26.870  34.023  1.00  0.00    -0.206 F 
ATOM     76  C   UNL A   1      48.042  26.280  32.717  1.00  0.00     0.060 A 
BRANCH  76  77
ATOM     77  S   UNL A   1      49.524  25.323  33.097  1.00  0.00     0.124 S 
ATOM     78  O   UNL A   1      50.021  25.013  31.759  1.00  0.00    -0.237 OA
ATOM     79  O   UNL A   1      50.323  26.273  33.864  1.00  0.00    -0.237 OA
ATOM     80  O   UNL A   1      49.011  24.184  33.853  1.00  0.00    -0.744 OA
ENDBRANCH  76  77
ENDBRANCH  55  69
BRANCH  56  81
ATOM     81  C   UNL A   1      37.248  32.607  30.018  1.00  0.00     0.058 A 
ATOM     82  C   UNL A   1      36.078  32.315  30.735  1.00  0.00     0.135 A 
ATOM     83  C   UNL A   1      37.179  33.607  29.036  1.00  0.00     0.135 A 
ATOM     84  F   UNL A   1      36.092  31.361  31.679  1.00  0.00    -0.206 F 
ATOM     85  C   UNL A   1      34.880  32.974  30.478  1.00  0.00     0.059 A 
ATOM     86  C   UNL A   1      35.999  34.299  28.779  1.00  0.00     0.059 A 
ATOM     87  F   UNL A   1      38.273  33.936  28.331  1.00  0.00    -0.206 F 
ATOM     88  C   UNL A   1      34.852  33.969  29.500  1.00  0.00     0.060 A 
BRANCH  88  89
ATOM     89  S   UNL A   1      33.304  34.853  29.211  1.00  0.00     0.124 S 
ATOM     90  O   UNL A   1      33.784  36.123  28.681  1.00  0.00    -0.237 OA
ATOM     91  O   UNL A   1      32.627  33.978  28.259  1.00  0.00    -0.237 OA
ATOM     92  O   UNL A   1      32.697  34.911  30.538  1.00  0.00    -0.744 OA
ENDBRANCH  88  89
ENDBRANCH  56  81
BRANCH  68  93
ATOM     93  C   UNL A   1      42.951  34.204  33.712  1.00  0.00     0.058 A 
ATOM     94  C   UNL A   1      42.697  34.322  35.087  1.00  0.00     0.135 A 
ATOM     95  C   UNL A   1      43.645  35.251  33.082  1.00  0.00     0.135 A 
ATOM     96  F   UNL A   1      42.030  33.355  35.737  1.00  0.00    -0.206 F 
ATOM     97  C   UNL A   1      43.097  35.445  35.806  1.00  0.00     0.059 A 
ATOM     98  C   UNL A   1      44.081  36.368  33.788  1.00  0.00     0.059 A 
ATOM     99  F   UNL A   1      43.923  35.186  31.770  1.00  0.00    -0.206 F 
ATOM    100  C   UNL A   1      43.791  36.462  35.148  1.00  0.00     0.060 A 
BRANCH 100 101
ATOM    101  S   UNL A   1      44.334  37.895  36.100  1.00  0.00     0.124 S 
ATOM    102  O   UNL A   1      45.755  37.614  36.271  1.00  0.00    -0.237 OA
ATOM    103  O   UNL A   1      44.010  39.005  35.209  1.00  0.00    -0.237 OA
ATOM    104  O   UNL A   1      43.528  37.821  37.317  1.00  0.00    -0.744 OA
ENDBRANCH 100 101
ENDBRANCH  68  93
ENDBRANCH  42  43
ENDBRANCH  34  37
ENDBRANCH  32  33
ENDBRANCH  31  32
ENDBRANCH   1  31
TORSDOF 18
ENDMDL
