MODEL 1
REMARK VINA RESULT:      -8.2      0.000      0.000
REMARK SMILES C[C@@H](C(=O)NCCCCCCNC(=O)c1ccc(-c2c3nc(c(-c4c(F)cc(S(=O)(=O)[O-])cc4F)c4ccc([nH]4)c(-c4c(F)cc(S(=O)(=O)[O-])cc4F)c4nc(c(-c5c(F)cc(S(=O)(=O)[O-])cc5F)c5ccc2[nH]5)C=C4)C=C3)cc1)c1ccc(Cc2ccco2)cc1F
REMARK SMILES IDX 8 1 7 2 6 3 5 4 3 5 4 6 2 8 1 9 81 10 82 11 92 12 83 13
REMARK SMILES IDX 91 14 93 15 84 16 85 17 86 18 87 19 90 20 88 21 89 22 9 23
REMARK SMILES IDX 10 24 11 25 12 26 13 27 14 29 15 30 16 31 80 32 17 33 79 34
REMARK SMILES IDX 18 35 19 36 20 37 73 38 21 39 78 40 72 41 74 42 22 43 77 44
REMARK SMILES IDX 71 45 70 46 23 48 57 49 36 50 56 51 37 52 40 53 55 54 75 55
REMARK SMILES IDX 38 56 39 57 54 59 76 60 41 61 24 62 25 63 34 64 26 65 27 66
REMARK SMILES IDX 33 67 35 68 28 69 29 70 30 71 31 72 32 73 58 74 59 75 68 76
REMARK SMILES IDX 60 77 61 78 67 79 69 80 62 81 63 82 64 83 65 84 66 85 42 86
REMARK SMILES IDX 43 87 52 88 44 89 45 90 51 91 53 92 46 93 47 94 48 95 49 96
REMARK SMILES IDX 50 97
REMARK H PARENT 5 7 12 28 74 47 40 58
REMARK Flexibility Score: inf
ROOT
ATOM      1  C   UNL A   1      36.801  32.690  31.589  1.00  0.00     0.002 C 
ENDROOT
BRANCH   1   2
ATOM      2  C   UNL A   1      37.117  33.304  32.959  1.00  0.00     0.021 C 
BRANCH   2   3
ATOM      3  C   UNL A   1      38.591  33.213  33.367  1.00  0.00     0.116 C 
BRANCH   3   4
ATOM      4  N   UNL A   1      38.747  32.291  34.476  1.00  0.00    -0.356 N 
ATOM      5  C   UNL A   1      38.747  30.926  34.488  1.00  0.00     0.227 C 
ATOM      6  O   UNL A   1      38.623  30.382  35.589  1.00  0.00    -0.274 OA
ATOM      7  H   UNL A   1      38.874  32.715  35.356  1.00  0.00     0.163 HD
BRANCH   5   8
ATOM      8  C   UNL A   1      38.948  30.138  33.175  1.00  0.00     0.108 C 
ATOM      9  C   UNL A   1      37.771  29.178  32.980  1.00  0.00     0.023 C 
BRANCH   8  10
ATOM     10  C   UNL A   1      40.334  29.486  33.102  1.00  0.00    -0.000 A 
ATOM     11  C   UNL A   1      40.456  28.198  32.547  1.00  0.00     0.008 A 
ATOM     12  C   UNL A   1      41.509  30.083  33.574  1.00  0.00     0.127 A 
ATOM     13  C   UNL A   1      41.703  27.578  32.406  1.00  0.00     0.005 A 
ATOM     14  C   UNL A   1      42.753  29.456  33.466  1.00  0.00     0.043 A 
ATOM     15  F   UNL A   1      41.494  31.295  34.146  1.00  0.00    -0.207 F 
ATOM     16  C   UNL A   1      42.869  28.200  32.866  1.00  0.00    -0.038 A 
BRANCH  16  17
ATOM     17  C   UNL A   1      44.226  27.558  32.684  1.00  0.00     0.111 C 
BRANCH  17  18
ATOM     18  C   UNL A   1      44.252  26.096  32.966  1.00  0.00     0.108 A 
ATOM     19  C   UNL A   1      43.987  25.336  34.088  1.00  0.00     0.046 A 
ATOM     20  O   UNL A   1      44.560  25.277  31.918  1.00  0.00    -0.469 OA
ATOM     21  C   UNL A   1      44.158  23.983  33.708  1.00  0.00     0.042 A 
ATOM     22  C   UNL A   1      44.503  24.001  32.378  1.00  0.00     0.195 A 
ENDBRANCH  17  18
ENDBRANCH  16  17
ENDBRANCH   8  10
ENDBRANCH   5   8
ENDBRANCH   3   4
ENDBRANCH   2   3
ENDBRANCH   1   2
BRANCH   1  23
ATOM     23  C   UNL A   1      35.398  32.093  31.453  1.00  0.00     0.002 C 
BRANCH  23  24
ATOM     24  C   UNL A   1      34.480  32.812  30.460  1.00  0.00     0.021 C 
BRANCH  24  25
ATOM     25  C   UNL A   1      34.799  32.565  28.986  1.00  0.00     0.116 C 
BRANCH  25  26
ATOM     26  N   UNL A   1      34.118  31.391  28.467  1.00  0.00    -0.352 N 
ATOM     27  C   UNL A   1      34.635  30.189  28.059  1.00  0.00     0.251 C 
ATOM     28  H   UNL A   1      33.139  31.472  28.395  1.00  0.00     0.163 HD
ATOM     29  O   UNL A   1      33.909  29.388  27.469  1.00  0.00    -0.269 OA
BRANCH  27  30
ATOM     30  C   UNL A   1      36.056  29.854  28.303  1.00  0.00     0.039 A 
ATOM     31  C   UNL A   1      36.968  30.002  27.255  1.00  0.00     0.014 A 
ATOM     32  C   UNL A   1      36.489  29.361  29.539  1.00  0.00     0.014 A 
ATOM     33  C   UNL A   1      38.316  29.704  27.458  1.00  0.00     0.010 A 
ATOM     34  C   UNL A   1      37.847  29.120  29.758  1.00  0.00     0.010 A 
ATOM     35  C   UNL A   1      38.772  29.285  28.718  1.00  0.00    -0.014 A 
BRANCH  35  36
ATOM     36  C   UNL A   1      40.219  29.029  28.950  1.00  0.00     0.031 A 
ATOM     37  C   UNL A   1      40.820  27.685  28.637  1.00  0.00     0.074 A 
ATOM     38  C   UNL A   1      40.986  30.008  29.468  1.00  0.00     0.049 A 
ATOM     39  N   UNL A   1      42.058  27.284  28.774  1.00  0.00    -0.248 NA
ATOM     40  C   UNL A   1      39.909  26.650  28.122  1.00  0.00     0.031 C 
ATOM     41  C   UNL A   1      40.509  31.333  29.873  1.00  0.00     0.029 A 
ATOM     42  N   UNL A   1      42.329  30.040  29.749  1.00  0.00    -0.354 N 
ATOM     43  C   UNL A   1      42.078  25.958  28.359  1.00  0.00     0.074 A 
ATOM     44  C   UNL A   1      40.715  25.603  28.023  1.00  0.00     0.031 C 
ATOM     45  C   UNL A   1      41.546  32.053  30.330  1.00  0.00     0.029 A 
ATOM     46  C   UNL A   1      42.755  31.239  30.274  1.00  0.00     0.049 A 
ATOM     47  H   UNL A   1      42.932  29.279  29.591  1.00  0.00     0.167 HD
ATOM     48  C   UNL A   1      43.136  25.120  28.243  1.00  0.00     0.037 A 
ATOM     49  C   UNL A   1      43.981  31.636  30.665  1.00  0.00     0.037 A 
ATOM     50  C   UNL A   1      44.493  25.480  28.567  1.00  0.00     0.049 A 
ATOM     51  C   UNL A   1      45.144  30.696  30.504  1.00  0.00     0.074 A 
ATOM     52  C   UNL A   1      45.639  24.710  28.456  1.00  0.00     0.029 A 
ATOM     53  N   UNL A   1      44.889  26.713  29.061  1.00  0.00    -0.354 N 
ATOM     54  N   UNL A   1      45.149  29.462  30.058  1.00  0.00    -0.248 NA
ATOM     55  C   UNL A   1      46.468  31.206  30.883  1.00  0.00     0.031 C 
ATOM     56  C   UNL A   1      46.724  25.470  28.909  1.00  0.00     0.029 A 
ATOM     57  C   UNL A   1      46.259  26.725  29.265  1.00  0.00     0.049 A 
ATOM     58  H   UNL A   1      44.285  27.470  29.241  1.00  0.00     0.167 HD
ATOM     59  C   UNL A   1      46.478  29.054  30.089  1.00  0.00     0.074 A 
ATOM     60  C   UNL A   1      47.249  30.180  30.573  1.00  0.00     0.031 C 
ATOM     61  C   UNL A   1      47.012  27.854  29.751  1.00  0.00     0.037 A 
BRANCH  48  62
ATOM     62  C   UNL A   1      42.873  23.735  27.719  1.00  0.00     0.058 A 
ATOM     63  C   UNL A   1      42.563  22.674  28.587  1.00  0.00     0.135 A 
ATOM     64  C   UNL A   1      42.880  23.471  26.339  1.00  0.00     0.135 A 
ATOM     65  F   UNL A   1      42.557  22.869  29.915  1.00  0.00    -0.206 F 
ATOM     66  C   UNL A   1      42.293  21.397  28.108  1.00  0.00     0.059 A 
ATOM     67  C   UNL A   1      42.589  22.205  25.837  1.00  0.00     0.059 A 
ATOM     68  F   UNL A   1      43.171  24.448  25.465  1.00  0.00    -0.206 F 
ATOM     69  C   UNL A   1      42.308  21.172  26.730  1.00  0.00     0.060 A 
BRANCH  69  70
ATOM     70  S   UNL A   1      41.939  19.511  26.125  1.00  0.00     0.124 S 
ATOM     71  O   UNL A   1      42.275  18.697  27.289  1.00  0.00    -0.237 OA
ATOM     72  O   UNL A   1      40.518  19.604  25.805  1.00  0.00    -0.237 OA
ATOM     73  O   UNL A   1      42.828  19.362  24.977  1.00  0.00    -0.744 OA
ENDBRANCH  69  70
ENDBRANCH  48  62
BRANCH  49  74
ATOM     74  C   UNL A   1      44.175  32.998  31.230  1.00  0.00     0.058 A 
ATOM     75  C   UNL A   1      44.270  33.202  32.615  1.00  0.00     0.135 A 
ATOM     76  C   UNL A   1      44.270  34.120  30.394  1.00  0.00     0.135 A 
ATOM     77  F   UNL A   1      44.182  32.160  33.454  1.00  0.00    -0.206 F 
ATOM     78  C   UNL A   1      44.429  34.476  33.153  1.00  0.00     0.059 A 
ATOM     79  C   UNL A   1      44.452  35.400  30.908  1.00  0.00     0.059 A 
ATOM     80  F   UNL A   1      44.205  33.974  29.062  1.00  0.00    -0.206 F 
ATOM     81  C   UNL A   1      44.516  35.569  32.290  1.00  0.00     0.060 A 
BRANCH  81  82
ATOM     82  S   UNL A   1      44.759  37.215  32.992  1.00  0.00     0.124 S 
ATOM     83  O   UNL A   1      44.697  38.053  31.799  1.00  0.00    -0.237 OA
ATOM     84  O   UNL A   1      43.631  37.330  33.912  1.00  0.00    -0.237 OA
ATOM     85  O   UNL A   1      46.069  37.116  33.629  1.00  0.00    -0.744 OA
ENDBRANCH  81  82
ENDBRANCH  49  74
BRANCH  61  86
ATOM     86  C   UNL A   1      48.502  27.709  29.879  1.00  0.00     0.058 A 
ATOM     87  C   UNL A   1      49.362  27.985  28.804  1.00  0.00     0.135 A 
ATOM     88  C   UNL A   1      49.078  27.307  31.094  1.00  0.00     0.135 A 
ATOM     89  F   UNL A   1      48.861  28.368  27.619  1.00  0.00    -0.206 F 
ATOM     90  C   UNL A   1      50.740  27.832  28.919  1.00  0.00     0.059 A 
ATOM     91  C   UNL A   1      50.455  27.173  31.240  1.00  0.00     0.059 A 
ATOM     92  F   UNL A   1      48.300  27.043  32.157  1.00  0.00    -0.206 F 
ATOM     93  C   UNL A   1      51.277  27.419  30.140  1.00  0.00     0.060 A 
BRANCH  93  94
ATOM     94  S   UNL A   1      53.066  27.228  30.280  1.00  0.00     0.124 S 
ATOM     95  O   UNL A   1      53.430  28.421  31.036  1.00  0.00    -0.237 OA
ATOM     96  O   UNL A   1      53.193  25.961  30.994  1.00  0.00    -0.237 OA
ATOM     97  O   UNL A   1      53.514  27.204  28.889  1.00  0.00    -0.744 OA
ENDBRANCH  93  94
ENDBRANCH  61  86
ENDBRANCH  35  36
ENDBRANCH  27  30
ENDBRANCH  25  26
ENDBRANCH  24  25
ENDBRANCH  23  24
ENDBRANCH   1  23
TORSDOF 19
ENDMDL
MODEL 2
REMARK VINA RESULT:      -8.2      4.997     11.818
REMARK SMILES C[C@@H](C(=O)NCCCCCCNC(=O)c1ccc(-c2c3nc(c(-c4c(F)cc(S(=O)(=O)[O-])cc4F)c4ccc([nH]4)c(-c4c(F)cc(S(=O)(=O)[O-])cc4F)c4nc(c(-c5c(F)cc(S(=O)(=O)[O-])cc5F)c5ccc2[nH]5)C=C4)C=C3)cc1)c1ccc(Cc2ccco2)cc1F
REMARK SMILES IDX 8 1 7 2 6 3 5 4 3 5 4 6 2 8 1 9 81 10 82 11 92 12 83 13
REMARK SMILES IDX 91 14 93 15 84 16 85 17 86 18 87 19 90 20 88 21 89 22 9 23
REMARK SMILES IDX 10 24 11 25 12 26 13 27 14 29 15 30 16 31 80 32 17 33 79 34
REMARK SMILES IDX 18 35 19 36 20 37 73 38 21 39 78 40 72 41 74 42 22 43 77 44
REMARK SMILES IDX 71 45 70 46 23 48 57 49 36 50 56 51 37 52 40 53 55 54 75 55
REMARK SMILES IDX 38 56 39 57 54 59 76 60 41 61 24 62 25 63 34 64 26 65 27 66
REMARK SMILES IDX 33 67 35 68 28 69 29 70 30 71 31 72 32 73 58 74 59 75 68 76
REMARK SMILES IDX 60 77 61 78 67 79 69 80 62 81 63 82 64 83 65 84 66 85 42 86
REMARK SMILES IDX 43 87 52 88 44 89 45 90 51 91 53 92 46 93 47 94 48 95 49 96
REMARK SMILES IDX 50 97
REMARK H PARENT 5 7 12 28 74 47 40 58
REMARK Flexibility Score: inf
ROOT
ATOM      1  C   UNL A   1      39.655  22.283  26.438  1.00  0.00     0.002 C 
ENDROOT
BRANCH   1   2
ATOM      2  C   UNL A   1      39.010  23.674  26.457  1.00  0.00     0.021 C 
BRANCH   2   3
ATOM      3  C   UNL A   1      37.530  23.689  26.059  1.00  0.00     0.116 C 
BRANCH   3   4
ATOM      4  N   UNL A   1      37.398  23.580  24.618  1.00  0.00    -0.356 N 
ATOM      5  C   UNL A   1      36.339  23.162  23.864  1.00  0.00     0.227 C 
ATOM      6  O   UNL A   1      36.571  22.902  22.680  1.00  0.00    -0.274 OA
ATOM      7  H   UNL A   1      38.195  23.850  24.105  1.00  0.00     0.163 HD
BRANCH   5   8
ATOM      8  C   UNL A   1      34.928  23.085  24.485  1.00  0.00     0.108 C 
ATOM      9  C   UNL A   1      34.136  21.970  23.795  1.00  0.00     0.023 C 
BRANCH   8  10
ATOM     10  C   UNL A   1      34.234  24.452  24.508  1.00  0.00    -0.000 A 
ATOM     11  C   UNL A   1      34.172  25.169  25.718  1.00  0.00     0.008 A 
ATOM     12  C   UNL A   1      33.627  25.044  23.393  1.00  0.00     0.127 A 
ATOM     13  C   UNL A   1      33.598  26.443  25.785  1.00  0.00     0.005 A 
ATOM     14  C   UNL A   1      33.025  26.302  23.460  1.00  0.00     0.043 A 
ATOM     15  F   UNL A   1      33.606  24.430  22.203  1.00  0.00    -0.207 F 
ATOM     16  C   UNL A   1      33.015  27.027  24.655  1.00  0.00    -0.038 A 
BRANCH  16  17
ATOM     17  C   UNL A   1      32.428  28.420  24.704  1.00  0.00     0.111 C 
BRANCH  17  18
ATOM     18  C   UNL A   1      31.270  28.626  23.791  1.00  0.00     0.108 A 
ATOM     19  C   UNL A   1      29.937  28.272  23.845  1.00  0.00     0.046 A 
ATOM     20  O   UNL A   1      31.509  29.349  22.657  1.00  0.00    -0.469 OA
ATOM     21  C   UNL A   1      29.334  28.793  22.675  1.00  0.00     0.042 A 
ATOM     22  C   UNL A   1      30.331  29.441  21.988  1.00  0.00     0.195 A 
ENDBRANCH  17  18
ENDBRANCH  16  17
ENDBRANCH   8  10
ENDBRANCH   5   8
ENDBRANCH   3   4
ENDBRANCH   2   3
ENDBRANCH   1   2
BRANCH   1  23
ATOM     23  C   UNL A   1      40.516  21.949  27.659  1.00  0.00     0.002 C 
BRANCH  23  24
ATOM     24  C   UNL A   1      42.028  21.994  27.420  1.00  0.00     0.021 C 
BRANCH  24  25
ATOM     25  C   UNL A   1      42.671  23.369  27.589  1.00  0.00     0.116 C 
BRANCH  25  26
ATOM     26  N   UNL A   1      42.674  24.130  26.351  1.00  0.00    -0.352 N 
ATOM     27  C   UNL A   1      42.303  25.429  26.122  1.00  0.00     0.251 C 
ATOM     28  H   UNL A   1      42.987  23.638  25.558  1.00  0.00     0.163 HD
ATOM     29  O   UNL A   1      42.197  25.833  24.963  1.00  0.00    -0.269 OA
BRANCH  27  30
ATOM     30  C   UNL A   1      42.012  26.344  27.249  1.00  0.00     0.039 A 
ATOM     31  C   UNL A   1      40.979  26.012  28.130  1.00  0.00     0.014 A 
ATOM     32  C   UNL A   1      42.719  27.538  27.423  1.00  0.00     0.014 A 
ATOM     33  C   UNL A   1      40.687  26.849  29.207  1.00  0.00     0.010 A 
ATOM     34  C   UNL A   1      42.467  28.344  28.535  1.00  0.00     0.010 A 
ATOM     35  C   UNL A   1      41.446  28.009  29.436  1.00  0.00    -0.014 A 
BRANCH  35  36
ATOM     36  C   UNL A   1      41.175  28.867  30.620  1.00  0.00     0.031 A 
ATOM     37  C   UNL A   1      42.000  28.731  31.871  1.00  0.00     0.074 A 
ATOM     38  C   UNL A   1      40.163  29.755  30.572  1.00  0.00     0.049 A 
ATOM     39  N   UNL A   1      41.908  29.393  32.996  1.00  0.00    -0.248 NA
ATOM     40  C   UNL A   1      43.055  27.703  31.866  1.00  0.00     0.031 C 
ATOM     41  C   UNL A   1      39.250  29.938  29.441  1.00  0.00     0.029 A 
ATOM     42  N   UNL A   1      39.727  30.669  31.499  1.00  0.00    -0.354 N 
ATOM     43  C   UNL A   1      42.890  28.870  33.829  1.00  0.00     0.074 A 
ATOM     44  C   UNL A   1      43.528  27.793  33.101  1.00  0.00     0.031 C 
ATOM     45  C   UNL A   1      38.377  30.916  29.733  1.00  0.00     0.029 A 
ATOM     46  C   UNL A   1      38.651  31.414  31.077  1.00  0.00     0.049 A 
ATOM     47  H   UNL A   1      40.144  30.780  32.384  1.00  0.00     0.167 HD
ATOM     48  C   UNL A   1      43.246  29.267  35.074  1.00  0.00     0.037 A 
ATOM     49  C   UNL A   1      37.963  32.389  31.701  1.00  0.00     0.037 A 
ATOM     50  C   UNL A   1      42.618  30.347  35.791  1.00  0.00     0.049 A 
ATOM     51  C   UNL A   1      38.393  32.828  33.073  1.00  0.00     0.074 A 
ATOM     52  C   UNL A   1      42.926  30.843  37.046  1.00  0.00     0.029 A 
ATOM     53  N   UNL A   1      41.555  31.101  35.316  1.00  0.00    -0.354 N 
ATOM     54  N   UNL A   1      39.361  32.355  33.823  1.00  0.00    -0.248 NA
ATOM     55  C   UNL A   1      37.650  33.941  33.680  1.00  0.00     0.031 C 
ATOM     56  C   UNL A   1      42.032  31.879  37.341  1.00  0.00     0.029 A 
ATOM     57  C   UNL A   1      41.193  32.054  36.253  1.00  0.00     0.049 A 
ATOM     58  H   UNL A   1      41.123  30.977  34.441  1.00  0.00     0.167 HD
ATOM     59  C   UNL A   1      39.352  33.124  34.982  1.00  0.00     0.074 A 
ATOM     60  C   UNL A   1      38.300  34.107  34.823  1.00  0.00     0.031 C 
ATOM     61  C   UNL A   1      40.141  33.024  36.081  1.00  0.00     0.037 A 
BRANCH  48  62
ATOM     62  C   UNL A   1      44.389  28.544  35.734  1.00  0.00     0.058 A 
ATOM     63  C   UNL A   1      44.168  27.411  36.535  1.00  0.00     0.135 A 
ATOM     64  C   UNL A   1      45.717  28.952  35.529  1.00  0.00     0.135 A 
ATOM     65  F   UNL A   1      42.917  26.987  36.775  1.00  0.00    -0.206 F 
ATOM     66  C   UNL A   1      45.220  26.722  37.127  1.00  0.00     0.059 A 
ATOM     67  C   UNL A   1      46.787  28.262  36.093  1.00  0.00     0.059 A 
ATOM     68  F   UNL A   1      45.984  30.028  34.773  1.00  0.00    -0.206 F 
ATOM     69  C   UNL A   1      46.528  27.156  36.900  1.00  0.00     0.060 A 
BRANCH  69  70
ATOM     70  S   UNL A   1      47.884  26.239  37.663  1.00  0.00     0.124 S 
ATOM     71  O   UNL A   1      47.159  25.201  38.390  1.00  0.00    -0.237 OA
ATOM     72  O   UNL A   1      48.648  25.787  36.505  1.00  0.00    -0.237 OA
ATOM     73  O   UNL A   1      48.545  27.241  38.494  1.00  0.00    -0.744 OA
ENDBRANCH  69  70
ENDBRANCH  48  62
BRANCH  49  74
ATOM     74  C   UNL A   1      36.805  33.031  31.024  1.00  0.00     0.058 A 
ATOM     75  C   UNL A   1      36.992  33.967  29.996  1.00  0.00     0.135 A 
ATOM     76  C   UNL A   1      35.488  32.718  31.393  1.00  0.00     0.135 A 
ATOM     77  F   UNL A   1      38.233  34.300  29.611  1.00  0.00    -0.206 F 
ATOM     78  C   UNL A   1      35.915  34.590  29.374  1.00  0.00     0.059 A 
ATOM     79  C   UNL A   1      34.395  33.310  30.769  1.00  0.00     0.059 A 
ATOM     80  F   UNL A   1      35.256  31.814  32.357  1.00  0.00    -0.206 F 
ATOM     81  C   UNL A   1      34.619  34.256  29.770  1.00  0.00     0.060 A 
BRANCH  81  82
ATOM     82  S   UNL A   1      33.224  35.039  28.933  1.00  0.00     0.124 S 
ATOM     83  O   UNL A   1      32.330  35.314  30.052  1.00  0.00    -0.237 OA
ATOM     84  O   UNL A   1      33.848  36.205  28.314  1.00  0.00    -0.237 OA
ATOM     85  O   UNL A   1      32.774  34.011  28.000  1.00  0.00    -0.744 OA
ENDBRANCH  81  82
ENDBRANCH  49  74
BRANCH  61  86
ATOM     86  C   UNL A   1      39.903  34.014  37.185  1.00  0.00     0.058 A 
ATOM     87  C   UNL A   1      40.509  35.280  37.180  1.00  0.00     0.135 A 
ATOM     88  C   UNL A   1      39.046  33.701  38.252  1.00  0.00     0.135 A 
ATOM     89  F   UNL A   1      41.340  35.627  36.185  1.00  0.00    -0.206 F 
ATOM     90  C   UNL A   1      40.302  36.189  38.213  1.00  0.00     0.059 A 
ATOM     91  C   UNL A   1      38.804  34.603  39.283  1.00  0.00     0.059 A 
ATOM     92  F   UNL A   1      38.431  32.507  38.299  1.00  0.00    -0.206 F 
ATOM     93  C   UNL A   1      39.452  35.839  39.264  1.00  0.00     0.060 A 
BRANCH  93  94
ATOM     94  S   UNL A   1      39.187  37.026  40.598  1.00  0.00     0.124 S 
ATOM     95  O   UNL A   1      40.544  37.502  40.839  1.00  0.00    -0.237 OA
ATOM     96  O   UNL A   1      38.276  37.988  39.986  1.00  0.00    -0.237 OA
ATOM     97  O   UNL A   1      38.607  36.213  41.663  1.00  0.00    -0.744 OA
ENDBRANCH  93  94
ENDBRANCH  61  86
ENDBRANCH  35  36
ENDBRANCH  27  30
ENDBRANCH  25  26
ENDBRANCH  24  25
ENDBRANCH  23  24
ENDBRANCH   1  23
TORSDOF 19
ENDMDL
MODEL 3
REMARK VINA RESULT:      -7.9      3.110      9.286
REMARK SMILES C[C@@H](C(=O)NCCCCCCNC(=O)c1ccc(-c2c3nc(c(-c4c(F)cc(S(=O)(=O)[O-])cc4F)c4ccc([nH]4)c(-c4c(F)cc(S(=O)(=O)[O-])cc4F)c4nc(c(-c5c(F)cc(S(=O)(=O)[O-])cc5F)c5ccc2[nH]5)C=C4)C=C3)cc1)c1ccc(Cc2ccco2)cc1F
REMARK SMILES IDX 8 1 7 2 6 3 5 4 3 5 4 6 2 8 1 9 81 10 82 11 92 12 83 13
REMARK SMILES IDX 91 14 93 15 84 16 85 17 86 18 87 19 90 20 88 21 89 22 9 23
REMARK SMILES IDX 10 24 11 25 12 26 13 27 14 29 15 30 16 31 80 32 17 33 79 34
REMARK SMILES IDX 18 35 19 36 20 37 73 38 21 39 78 40 72 41 74 42 22 43 77 44
REMARK SMILES IDX 71 45 70 46 23 48 57 49 36 50 56 51 37 52 40 53 55 54 75 55
REMARK SMILES IDX 38 56 39 57 54 59 76 60 41 61 24 62 25 63 34 64 26 65 27 66
REMARK SMILES IDX 33 67 35 68 28 69 29 70 30 71 31 72 32 73 58 74 59 75 68 76
REMARK SMILES IDX 60 77 61 78 67 79 69 80 62 81 63 82 64 83 65 84 66 85 42 86
REMARK SMILES IDX 43 87 52 88 44 89 45 90 51 91 53 92 46 93 47 94 48 95 49 96
REMARK SMILES IDX 50 97
REMARK H PARENT 5 7 12 28 74 47 40 58
REMARK Flexibility Score: inf
ROOT
ATOM      1  C   UNL A   1      34.227  34.106  28.192  1.00  0.00     0.002 C 
ENDROOT
BRANCH   1   2
ATOM      2  C   UNL A   1      33.372  35.189  28.862  1.00  0.00     0.021 C 
BRANCH   2   3
ATOM      3  C   UNL A   1      33.753  35.482  30.317  1.00  0.00     0.116 C 
BRANCH   3   4
ATOM      4  N   UNL A   1      33.632  34.279  31.119  1.00  0.00    -0.356 N 
ATOM      5  C   UNL A   1      34.591  33.561  31.774  1.00  0.00     0.227 C 
ATOM      6  O   UNL A   1      34.274  32.431  32.154  1.00  0.00    -0.274 OA
ATOM      7  H   UNL A   1      32.716  33.927  31.205  1.00  0.00     0.163 HD
BRANCH   5   8
ATOM      8  C   UNL A   1      35.974  34.188  32.053  1.00  0.00     0.108 C 
ATOM      9  C   UNL A   1      36.853  34.038  30.807  1.00  0.00     0.023 C 
BRANCH   8  10
ATOM     10  C   UNL A   1      36.595  33.660  33.351  1.00  0.00    -0.000 A 
ATOM     11  C   UNL A   1      37.657  32.738  33.277  1.00  0.00     0.008 A 
ATOM     12  C   UNL A   1      36.162  34.020  34.633  1.00  0.00     0.127 A 
ATOM     13  C   UNL A   1      38.295  32.264  34.429  1.00  0.00     0.005 A 
ATOM     14  C   UNL A   1      36.774  33.527  35.787  1.00  0.00     0.043 A 
ATOM     15  F   UNL A   1      35.139  34.868  34.810  1.00  0.00    -0.207 F 
ATOM     16  C   UNL A   1      37.860  32.652  35.700  1.00  0.00    -0.038 A 
BRANCH  16  17
ATOM     17  C   UNL A   1      38.568  32.179  36.951  1.00  0.00     0.111 C 
BRANCH  17  18
ATOM     18  C   UNL A   1      37.679  32.039  38.138  1.00  0.00     0.108 A 
ATOM     19  C   UNL A   1      37.335  32.880  39.177  1.00  0.00     0.046 A 
ATOM     20  O   UNL A   1      37.001  30.860  38.256  1.00  0.00    -0.469 OA
ATOM     21  C   UNL A   1      36.411  32.171  39.980  1.00  0.00     0.042 A 
ATOM     22  C   UNL A   1      36.239  30.949  39.376  1.00  0.00     0.195 A 
ENDBRANCH  17  18
ENDBRANCH  16  17
ENDBRANCH   8  10
ENDBRANCH   5   8
ENDBRANCH   3   4
ENDBRANCH   2   3
ENDBRANCH   1   2
BRANCH   1  23
ATOM     23  C   UNL A   1      33.515  32.771  27.958  1.00  0.00     0.002 C 
BRANCH  23  24
ATOM     24  C   UNL A   1      34.438  31.584  27.668  1.00  0.00     0.021 C 
BRANCH  24  25
ATOM     25  C   UNL A   1      35.761  31.589  28.433  1.00  0.00     0.116 C 
BRANCH  25  26
ATOM     26  N   UNL A   1      35.616  31.069  29.783  1.00  0.00    -0.352 N 
ATOM     27  C   UNL A   1      36.449  30.252  30.500  1.00  0.00     0.251 C 
ATOM     28  H   UNL A   1      34.795  31.344  30.251  1.00  0.00     0.163 HD
ATOM     29  O   UNL A   1      36.055  29.768  31.562  1.00  0.00    -0.269 OA
BRANCH  27  30
ATOM     30  C   UNL A   1      37.807  29.932  30.004  1.00  0.00     0.039 A 
ATOM     31  C   UNL A   1      38.840  29.783  30.933  1.00  0.00     0.014 A 
ATOM     32  C   UNL A   1      38.078  29.817  28.636  1.00  0.00     0.014 A 
ATOM     33  C   UNL A   1      40.129  29.472  30.496  1.00  0.00     0.010 A 
ATOM     34  C   UNL A   1      39.353  29.447  28.205  1.00  0.00     0.010 A 
ATOM     35  C   UNL A   1      40.392  29.275  29.130  1.00  0.00    -0.014 A 
BRANCH  35  36
ATOM     36  C   UNL A   1      41.751  28.881  28.673  1.00  0.00     0.031 A 
ATOM     37  C   UNL A   1      42.854  29.900  28.578  1.00  0.00     0.074 A 
ATOM     38  C   UNL A   1      41.981  27.601  28.319  1.00  0.00     0.049 A 
ATOM     39  N   UNL A   1      44.097  29.736  28.202  1.00  0.00    -0.248 NA
ATOM     40  C   UNL A   1      42.514  31.287  28.933  1.00  0.00     0.031 C 
ATOM     41  C   UNL A   1      40.979  26.533  28.306  1.00  0.00     0.029 A 
ATOM     42  N   UNL A   1      43.130  26.981  27.896  1.00  0.00    -0.354 N 
ATOM     43  C   UNL A   1      44.687  30.992  28.279  1.00  0.00     0.074 A 
ATOM     44  C   UNL A   1      43.651  31.920  28.679  1.00  0.00     0.031 C 
ATOM     45  C   UNL A   1      41.561  25.387  27.916  1.00  0.00     0.029 A 
ATOM     46  C   UNL A   1      42.968  25.641  27.629  1.00  0.00     0.049 A 
ATOM     47  H   UNL A   1      43.989  27.450  27.793  1.00  0.00     0.167 HD
ATOM     48  C   UNL A   1      45.979  31.338  28.062  1.00  0.00     0.037 A 
ATOM     49  C   UNL A   1      43.854  24.721  27.202  1.00  0.00     0.037 A 
ATOM     50  C   UNL A   1      47.012  30.411  27.675  1.00  0.00     0.049 A 
ATOM     51  C   UNL A   1      45.288  25.124  26.992  1.00  0.00     0.074 A 
ATOM     52  C   UNL A   1      48.357  30.659  27.460  1.00  0.00     0.029 A 
ATOM     53  N   UNL A   1      46.816  29.056  27.450  1.00  0.00    -0.354 N 
ATOM     54  N   UNL A   1      45.837  26.308  27.123  1.00  0.00    -0.248 NA
ATOM     55  C   UNL A   1      46.224  24.065  26.592  1.00  0.00     0.031 C 
ATOM     56  C   UNL A   1      48.969  29.459  27.077  1.00  0.00     0.029 A 
ATOM     57  C   UNL A   1      48.013  28.457  27.093  1.00  0.00     0.049 A 
ATOM     58  H   UNL A   1      45.954  28.589  27.532  1.00  0.00     0.167 HD
ATOM     59  C   UNL A   1      47.187  26.133  26.836  1.00  0.00     0.074 A 
ATOM     60  C   UNL A   1      47.374  24.725  26.550  1.00  0.00     0.031 C 
ATOM     61  C   UNL A   1      48.182  27.054  26.808  1.00  0.00     0.037 A 
BRANCH  48  62
ATOM     62  C   UNL A   1      46.357  32.780  28.264  1.00  0.00     0.058 A 
ATOM     63  C   UNL A   1      46.848  33.238  29.498  1.00  0.00     0.135 A 
ATOM     64  C   UNL A   1      46.276  33.702  27.209  1.00  0.00     0.135 A 
ATOM     65  F   UNL A   1      46.931  32.402  30.544  1.00  0.00    -0.206 F 
ATOM     66  C   UNL A   1      47.223  34.564  29.685  1.00  0.00     0.059 A 
ATOM     67  C   UNL A   1      46.669  35.029  27.367  1.00  0.00     0.059 A 
ATOM     68  F   UNL A   1      45.813  33.318  26.008  1.00  0.00    -0.206 F 
ATOM     69  C   UNL A   1      47.130  35.452  28.612  1.00  0.00     0.060 A 
BRANCH  69  70
ATOM     70  S   UNL A   1      47.637  37.167  28.868  1.00  0.00     0.124 S 
ATOM     71  O   UNL A   1      47.775  37.215  30.320  1.00  0.00    -0.237 OA
ATOM     72  O   UNL A   1      48.882  37.242  28.110  1.00  0.00    -0.237 OA
ATOM     73  O   UNL A   1      46.525  37.936  28.318  1.00  0.00    -0.744 OA
ENDBRANCH  69  70
ENDBRANCH  48  62
BRANCH  49  74
ATOM     74  C   UNL A   1      43.414  23.321  26.964  1.00  0.00     0.058 A 
ATOM     75  C   UNL A   1      43.163  22.447  28.032  1.00  0.00     0.135 A 
ATOM     76  C   UNL A   1      43.234  22.832  25.661  1.00  0.00     0.135 A 
ATOM     77  F   UNL A   1      43.323  22.868  29.295  1.00  0.00    -0.206 F 
ATOM     78  C   UNL A   1      42.773  21.128  27.817  1.00  0.00     0.059 A 
ATOM     79  C   UNL A   1      42.823  21.525  25.422  1.00  0.00     0.059 A 
ATOM     80  F   UNL A   1      43.442  23.635  24.606  1.00  0.00    -0.206 F 
ATOM     81  C   UNL A   1      42.608  20.676  26.507  1.00  0.00     0.060 A 
BRANCH  81  82
ATOM     82  S   UNL A   1      42.067  18.975  26.234  1.00  0.00     0.124 S 
ATOM     83  O   UNL A   1      43.012  18.528  25.218  1.00  0.00    -0.237 OA
ATOM     84  O   UNL A   1      42.225  18.383  27.559  1.00  0.00    -0.237 OA
ATOM     85  O   UNL A   1      40.685  19.132  25.789  1.00  0.00    -0.744 OA
ENDBRANCH  81  82
ENDBRANCH  49  74
BRANCH  61  86
ATOM     86  C   UNL A   1      49.561  26.561  26.472  1.00  0.00     0.058 A 
ATOM     87  C   UNL A   1      50.059  26.610  25.161  1.00  0.00     0.135 A 
ATOM     88  C   UNL A   1      50.399  26.048  27.475  1.00  0.00     0.135 A 
ATOM     89  F   UNL A   1      49.295  27.087  24.165  1.00  0.00    -0.206 F 
ATOM     90  C   UNL A   1      51.329  26.136  24.848  1.00  0.00     0.059 A 
ATOM     91  C   UNL A   1      51.682  25.592  27.190  1.00  0.00     0.059 A 
ATOM     92  F   UNL A   1      49.974  25.990  28.748  1.00  0.00    -0.206 F 
ATOM     93  C   UNL A   1      52.131  25.623  25.869  1.00  0.00     0.060 A 
BRANCH  93  94
ATOM     94  S   UNL A   1      53.779  25.013  25.455  1.00  0.00     0.124 S 
ATOM     95  O   UNL A   1      53.516  23.599  25.212  1.00  0.00    -0.237 OA
ATOM     96  O   UNL A   1      54.121  25.805  24.278  1.00  0.00    -0.237 OA
ATOM     97  O   UNL A   1      54.561  25.311  26.652  1.00  0.00    -0.744 OA
ENDBRANCH  93  94
ENDBRANCH  61  86
ENDBRANCH  35  36
ENDBRANCH  27  30
ENDBRANCH  25  26
ENDBRANCH  24  25
ENDBRANCH  23  24
ENDBRANCH   1  23
TORSDOF 19
ENDMDL
