MODEL 1
REMARK VINA RESULT:      -9.8      0.000      0.000
REMARK SMILES O=C(NCCCCCCNC(=O)c1[nH]ncc1C[N@H+]1CCC[C@@H](C(=O)c2ccc(Oc3ccccc3)cc2)C1)c1ccc(-c2c3nc(c(-c4c(F)cc(S(=O)(=O)[O-])cc4F)c4ccc([nH]4)c(-c4c(F)cc(S(=O)(=O)[O-])cc4F)c4nc(c(-c5c(F)cc(S(=O)(=O)[O-])cc5F)c5ccc2[nH]5)C=C4)C=C3)cc1
REMARK SMILES IDX 8 1 7 2 6 3 5 4 4 5 3 6 1 7 2 8 40 10 41 11 105 12 42 13
REMARK SMILES IDX 104 14 43 15 44 16 45 17 98 18 46 19 103 20 97 21 99 22
REMARK SMILES IDX 47 23 102 24 96 25 95 26 48 28 82 29 61 30 81 31 62 32 65 33
REMARK SMILES IDX 80 34 100 35 63 36 64 37 79 39 101 40 66 41 49 42 50 43
REMARK SMILES IDX 59 44 51 45 52 46 58 47 60 48 53 49 54 50 55 51 56 52 57 53
REMARK SMILES IDX 83 54 84 55 93 56 85 57 86 58 92 59 94 60 87 61 88 62 89 63
REMARK SMILES IDX 90 64 91 65 67 66 68 67 77 68 69 69 70 70 76 71 78 72 71 73
REMARK SMILES IDX 72 74 73 75 74 76 75 77 9 78 10 79 11 80 12 82 13 83 14 84
REMARK SMILES IDX 17 85 15 86 16 88 18 89 19 90 20 91 39 92 21 94 23 95 22 96
REMARK SMILES IDX 24 97 25 98 26 99 27 100 38 101 28 102 37 103 29 104 30 105
REMARK SMILES IDX 31 106 32 107 36 108 33 109 35 110 34 111
REMARK H PARENT 3 9 99 27 65 38 10 81 14 87 19 93
REMARK Flexibility Score: inf
ROOT
ATOM      1  C   UNL A   1      37.532  32.574  30.861  1.00  0.00     0.021 C 
ENDROOT
BRANCH   1   2
ATOM      2  C   UNL A   1      37.669  33.132  29.442  1.00  0.00     0.002 C 
BRANCH   2   3
ATOM      3  C   UNL A   1      36.514  34.011  28.955  1.00  0.00     0.002 C 
BRANCH   3   4
ATOM      4  C   UNL A   1      35.356  33.274  28.279  1.00  0.00     0.021 C 
BRANCH   4   5
ATOM      5  C   UNL A   1      34.607  32.290  29.166  1.00  0.00     0.116 C 
BRANCH   5   6
ATOM      6  N   UNL A   1      34.013  31.198  28.414  1.00  0.00    -0.352 N 
ATOM      7  O   UNL A   1      33.984  29.345  27.133  1.00  0.00    -0.269 OA
ATOM      8  C   UNL A   1      34.620  30.093  27.869  1.00  0.00     0.251 C 
ATOM      9  H   UNL A   1      33.041  31.259  28.276  1.00  0.00     0.163 HD
BRANCH   8  10
ATOM     10  C   UNL A   1      36.046  29.823  28.156  1.00  0.00     0.039 A 
ATOM     11  C   UNL A   1      37.027  30.069  27.191  1.00  0.00     0.014 A 
ATOM     12  C   UNL A   1      36.406  29.323  29.411  1.00  0.00     0.014 A 
ATOM     13  C   UNL A   1      38.345  29.696  27.435  1.00  0.00     0.010 A 
ATOM     14  C   UNL A   1      37.744  29.027  29.682  1.00  0.00     0.010 A 
ATOM     15  C   UNL A   1      38.722  29.190  28.689  1.00  0.00    -0.014 A 
BRANCH  15  16
ATOM     16  C   UNL A   1      40.155  28.918  28.963  1.00  0.00     0.031 A 
ATOM     17  C   UNL A   1      41.032  29.944  29.626  1.00  0.00     0.074 A 
ATOM     18  C   UNL A   1      40.657  27.716  28.617  1.00  0.00     0.049 A 
ATOM     19  N   UNL A   1      42.300  29.860  29.940  1.00  0.00    -0.248 NA
ATOM     20  C   UNL A   1      40.412  31.230  29.978  1.00  0.00     0.031 C 
ATOM     21  C   UNL A   1      39.901  26.650  27.950  1.00  0.00     0.029 A 
ATOM     22  N   UNL A   1      41.908  27.181  28.781  1.00  0.00    -0.354 N 
ATOM     23  C   UNL A   1      42.635  31.083  30.510  1.00  0.00     0.074 A 
ATOM     24  C   UNL A   1      41.442  31.901  30.476  1.00  0.00     0.031 C 
ATOM     25  C   UNL A   1      40.691  25.578  27.802  1.00  0.00     0.029 A 
ATOM     26  C   UNL A   1      42.022  25.898  28.301  1.00  0.00     0.049 A 
ATOM     27  H   UNL A   1      42.653  27.667  29.203  1.00  0.00     0.167 HD
ATOM     28  C   UNL A   1      43.828  31.479  31.019  1.00  0.00     0.037 A 
ATOM     29  C   UNL A   1      43.086  25.073  28.249  1.00  0.00     0.037 A 
ATOM     30  C   UNL A   1      45.008  30.650  31.054  1.00  0.00     0.049 A 
ATOM     31  C   UNL A   1      44.399  25.545  28.801  1.00  0.00     0.074 A 
ATOM     32  C   UNL A   1      46.254  30.947  31.577  1.00  0.00     0.029 A 
ATOM     33  N   UNL A   1      45.090  29.363  30.540  1.00  0.00    -0.354 N 
ATOM     34  N   UNL A   1      44.687  26.693  29.366  1.00  0.00    -0.248 NA
ATOM     35  C   UNL A   1      45.530  24.614  28.708  1.00  0.00     0.031 C 
ATOM     36  C   UNL A   1      47.101  29.859  31.342  1.00  0.00     0.029 A 
ATOM     37  C   UNL A   1      46.371  28.862  30.715  1.00  0.00     0.049 A 
ATOM     38  H   UNL A   1      44.348  28.877  30.113  1.00  0.00     0.167 HD
ATOM     39  C   UNL A   1      46.032  26.618  29.710  1.00  0.00     0.074 A 
ATOM     40  C   UNL A   1      46.492  25.304  29.306  1.00  0.00     0.031 C 
ATOM     41  C   UNL A   1      46.813  27.551  30.306  1.00  0.00     0.037 A 
BRANCH  28  42
ATOM     42  C   UNL A   1      43.927  32.876  31.569  1.00  0.00     0.058 A 
ATOM     43  C   UNL A   1      44.069  33.993  30.729  1.00  0.00     0.135 A 
ATOM     44  C   UNL A   1      43.830  33.108  32.952  1.00  0.00     0.135 A 
ATOM     45  F   UNL A   1      44.179  33.831  29.401  1.00  0.00    -0.206 F 
ATOM     46  C   UNL A   1      44.134  35.285  31.241  1.00  0.00     0.059 A 
ATOM     47  C   UNL A   1      43.868  34.394  33.483  1.00  0.00     0.059 A 
ATOM     48  F   UNL A   1      43.693  32.077  33.800  1.00  0.00    -0.206 F 
ATOM     49  C   UNL A   1      44.034  35.476  32.620  1.00  0.00     0.060 A 
BRANCH  49  50
ATOM     50  S   UNL A   1      44.115  37.161  33.266  1.00  0.00     0.124 S 
ATOM     51  O   UNL A   1      42.860  37.248  34.007  1.00  0.00    -0.237 OA
ATOM     52  O   UNL A   1      45.328  37.126  34.078  1.00  0.00    -0.237 OA
ATOM     53  O   UNL A   1      44.193  37.983  32.063  1.00  0.00    -0.744 OA
ENDBRANCH  49  50
ENDBRANCH  28  42
BRANCH  29  54
ATOM     54  C   UNL A   1      42.940  23.724  27.645  1.00  0.00     0.058 A 
ATOM     55  C   UNL A   1      43.225  23.503  26.290  1.00  0.00     0.135 A 
ATOM     56  C   UNL A   1      42.550  22.621  28.421  1.00  0.00     0.135 A 
ATOM     57  F   UNL A   1      43.599  24.527  25.508  1.00  0.00    -0.206 F 
ATOM     58  C   UNL A   1      43.118  22.238  25.722  1.00  0.00     0.059 A 
ATOM     59  C   UNL A   1      42.463  21.342  27.883  1.00  0.00     0.059 A 
ATOM     60  F   UNL A   1      42.286  22.777  29.728  1.00  0.00    -0.206 F 
ATOM     61  C   UNL A   1      42.740  21.162  26.529  1.00  0.00     0.060 A 
BRANCH  61  62
ATOM     62  S   UNL A   1      42.660  19.514  25.796  1.00  0.00     0.124 S 
ATOM     63  O   UNL A   1      41.245  19.413  25.459  1.00  0.00    -0.237 OA
ATOM     64  O   UNL A   1      43.579  19.634  24.669  1.00  0.00    -0.237 OA
ATOM     65  O   UNL A   1      43.117  18.646  26.877  1.00  0.00    -0.744 OA
ENDBRANCH  61  62
ENDBRANCH  29  54
BRANCH  41  66
ATOM     66  C   UNL A   1      48.242  27.176  30.578  1.00  0.00     0.058 A 
ATOM     67  C   UNL A   1      48.611  26.481  31.741  1.00  0.00     0.135 A 
ATOM     68  C   UNL A   1      49.248  27.485  29.649  1.00  0.00     0.135 A 
ATOM     69  F   UNL A   1      47.689  26.171  32.665  1.00  0.00    -0.206 F 
ATOM     70  C   UNL A   1      49.934  26.124  31.983  1.00  0.00     0.059 A 
ATOM     71  C   UNL A   1      50.573  27.116  29.859  1.00  0.00     0.059 A 
ATOM     72  F   UNL A   1      48.945  28.143  28.518  1.00  0.00    -0.206 F 
ATOM     73  C   UNL A   1      50.908  26.447  31.035  1.00  0.00     0.060 A 
BRANCH  73  74
ATOM     74  S   UNL A   1      52.616  25.952  31.346  1.00  0.00     0.124 S 
ATOM     75  O   UNL A   1      52.435  24.626  31.927  1.00  0.00    -0.237 OA
ATOM     76  O   UNL A   1      53.201  25.985  30.009  1.00  0.00    -0.237 OA
ATOM     77  O   UNL A   1      53.104  26.978  32.263  1.00  0.00    -0.744 OA
ENDBRANCH  73  74
ENDBRANCH  41  66
ENDBRANCH  15  16
ENDBRANCH   8  10
ENDBRANCH   5   6
ENDBRANCH   4   5
ENDBRANCH   3   4
ENDBRANCH   2   3
ENDBRANCH   1   2
BRANCH   1  78
ATOM     78  C   UNL A   1      37.481  33.622  31.967  1.00  0.00     0.116 C 
BRANCH  78  79
ATOM     79  N   UNL A   1      38.802  34.066  32.377  1.00  0.00    -0.351 N 
ATOM     80  C   UNL A   1      39.517  33.708  33.491  1.00  0.00     0.269 C 
ATOM     81  H   UNL A   1      39.242  34.709  31.776  1.00  0.00     0.163 HD
ATOM     82  O   UNL A   1      40.525  34.353  33.781  1.00  0.00    -0.268 OA
BRANCH  80  83
ATOM     83  C   UNL A   1      39.017  32.649  34.316  1.00  0.00     0.131 A 
ATOM     84  N   UNL A   1      38.151  32.894  35.344  1.00  0.00    -0.272 N 
ATOM     85  C   UNL A   1      39.255  31.280  34.342  1.00  0.00     0.057 A 
ATOM     86  N   UNL A   1      37.647  31.784  35.903  1.00  0.00    -0.183 NA
ATOM     87  H   UNL A   1      37.919  33.801  35.648  1.00  0.00     0.190 HD
ATOM     88  C   UNL A   1      38.313  30.804  35.290  1.00  0.00     0.145 A 
BRANCH  85  89
ATOM     89  C   UNL A   1      40.213  30.483  33.510  1.00  0.00     0.303 C 
BRANCH  89  90
ATOM     90  N   UNL A   1      41.282  29.818  34.267  1.00  0.00    -0.330 N 
ATOM     91  C   UNL A   1      41.587  30.467  35.545  1.00  0.00     0.262 C 
ATOM     92  C   UNL A   1      41.087  28.374  34.398  1.00  0.00     0.274 C 
ATOM     93  H   UNL A   1      42.118  29.935  33.696  1.00  0.00     0.348 HD
ATOM     94  C   UNL A   1      42.825  29.839  36.193  1.00  0.00     0.062 C 
ATOM     95  C   UNL A   1      42.300  27.680  35.025  1.00  0.00     0.116 C 
ATOM     96  C   UNL A   1      42.657  28.332  36.365  1.00  0.00     0.023 C 
BRANCH  95  97
ATOM     97  C   UNL A   1      41.926  26.214  35.199  1.00  0.00     0.171 C 
ATOM     98  O   UNL A   1      40.788  25.841  35.477  1.00  0.00    -0.294 OA
BRANCH  97  99
ATOM     99  C   UNL A   1      42.952  25.193  34.883  1.00  0.00     0.018 A 
ATOM    100  C   UNL A   1      42.585  23.843  34.910  1.00  0.00     0.015 A 
ATOM    101  C   UNL A   1      44.261  25.561  34.567  1.00  0.00     0.015 A 
ATOM    102  C   UNL A   1      43.536  22.862  34.624  1.00  0.00     0.048 A 
ATOM    103  C   UNL A   1      45.207  24.573  34.277  1.00  0.00     0.048 A 
ATOM    104  C   UNL A   1      44.855  23.220  34.327  1.00  0.00     0.127 A 
BRANCH 104 105
ATOM    105  O   UNL A   1      45.704  22.163  34.078  1.00  0.00    -0.457 OA
BRANCH 105 106
ATOM    106  C   UNL A   1      45.995  21.298  35.105  1.00  0.00     0.127 A 
ATOM    107  C   UNL A   1      46.920  21.714  36.060  1.00  0.00     0.047 A 
ATOM    108  C   UNL A   1      45.435  20.019  35.167  1.00  0.00     0.047 A 
ATOM    109  C   UNL A   1      47.244  20.868  37.120  1.00  0.00     0.004 A 
ATOM    110  C   UNL A   1      45.753  19.181  36.235  1.00  0.00     0.004 A 
ATOM    111  C   UNL A   1      46.652  19.608  37.214  1.00  0.00     0.000 A 
ENDBRANCH 105 106
ENDBRANCH 104 105
ENDBRANCH  97  99
ENDBRANCH  95  97
ENDBRANCH  89  90
ENDBRANCH  85  89
ENDBRANCH  80  83
ENDBRANCH  78  79
ENDBRANCH   1  78
TORSDOF 22
ENDMDL
MODEL 2
REMARK VINA RESULT:      -9.7      0.441      7.772
REMARK SMILES O=C(NCCCCCCNC(=O)c1[nH]ncc1C[N@H+]1CCC[C@@H](C(=O)c2ccc(Oc3ccccc3)cc2)C1)c1ccc(-c2c3nc(c(-c4c(F)cc(S(=O)(=O)[O-])cc4F)c4ccc([nH]4)c(-c4c(F)cc(S(=O)(=O)[O-])cc4F)c4nc(c(-c5c(F)cc(S(=O)(=O)[O-])cc5F)c5ccc2[nH]5)C=C4)C=C3)cc1
REMARK SMILES IDX 8 1 7 2 6 3 5 4 4 5 3 6 1 7 2 8 40 10 41 11 105 12 42 13
REMARK SMILES IDX 104 14 43 15 44 16 45 17 98 18 46 19 103 20 97 21 99 22
REMARK SMILES IDX 47 23 102 24 96 25 95 26 48 28 82 29 61 30 81 31 62 32 65 33
REMARK SMILES IDX 80 34 100 35 63 36 64 37 79 39 101 40 66 41 49 42 50 43
REMARK SMILES IDX 59 44 51 45 52 46 58 47 60 48 53 49 54 50 55 51 56 52 57 53
REMARK SMILES IDX 83 54 84 55 93 56 85 57 86 58 92 59 94 60 87 61 88 62 89 63
REMARK SMILES IDX 90 64 91 65 67 66 68 67 77 68 69 69 70 70 76 71 78 72 71 73
REMARK SMILES IDX 72 74 73 75 74 76 75 77 9 78 10 79 11 80 12 82 13 83 14 84
REMARK SMILES IDX 17 85 15 86 16 88 18 89 19 90 20 91 39 92 21 94 23 95 22 96
REMARK SMILES IDX 24 97 25 98 26 99 27 100 38 101 28 102 37 103 29 104 30 105
REMARK SMILES IDX 31 106 32 107 36 108 33 109 35 110 34 111
REMARK H PARENT 3 9 99 27 65 38 10 81 14 87 19 93
REMARK Flexibility Score: inf
ROOT
ATOM      1  C   UNL A   1      37.707  32.689  30.823  1.00  0.00     0.021 C 
ENDROOT
BRANCH   1   2
ATOM      2  C   UNL A   1      37.832  33.134  29.364  1.00  0.00     0.002 C 
BRANCH   2   3
ATOM      3  C   UNL A   1      36.674  33.977  28.821  1.00  0.00     0.002 C 
BRANCH   3   4
ATOM      4  C   UNL A   1      35.484  33.194  28.264  1.00  0.00     0.021 C 
BRANCH   4   5
ATOM      5  C   UNL A   1      34.804  32.258  29.252  1.00  0.00     0.116 C 
BRANCH   5   6
ATOM      6  N   UNL A   1      34.144  31.139  28.601  1.00  0.00    -0.352 N 
ATOM      7  O   UNL A   1      34.001  29.212  27.442  1.00  0.00    -0.269 OA
ATOM      8  C   UNL A   1      34.694  29.985  28.097  1.00  0.00     0.251 C 
ATOM      9  H   UNL A   1      33.168  31.220  28.507  1.00  0.00     0.163 HD
BRANCH   8  10
ATOM     10  C   UNL A   1      36.124  29.691  28.330  1.00  0.00     0.039 A 
ATOM     11  C   UNL A   1      36.566  29.228  29.572  1.00  0.00     0.014 A 
ATOM     12  C   UNL A   1      37.036  29.877  27.286  1.00  0.00     0.014 A 
ATOM     13  C   UNL A   1      37.928  29.073  29.808  1.00  0.00     0.010 A 
ATOM     14  C   UNL A   1      38.396  29.641  27.502  1.00  0.00     0.010 A 
ATOM     15  C   UNL A   1      38.857  29.259  28.771  1.00  0.00    -0.014 A 
BRANCH  15  16
ATOM     16  C   UNL A   1      40.290  28.966  29.017  1.00  0.00     0.031 A 
ATOM     17  C   UNL A   1      40.890  27.635  28.656  1.00  0.00     0.074 A 
ATOM     18  C   UNL A   1      41.057  29.931  29.563  1.00  0.00     0.049 A 
ATOM     19  N   UNL A   1      42.124  27.224  28.800  1.00  0.00    -0.248 NA
ATOM     20  C   UNL A   1      39.991  26.634  28.061  1.00  0.00     0.031 C 
ATOM     21  C   UNL A   1      40.577  31.255  29.971  1.00  0.00     0.029 A 
ATOM     22  N   UNL A   1      42.395  29.959  29.860  1.00  0.00    -0.354 N 
ATOM     23  C   UNL A   1      42.149  25.915  28.332  1.00  0.00     0.074 A 
ATOM     24  C   UNL A   1      40.800  25.592  27.920  1.00  0.00     0.031 C 
ATOM     25  C   UNL A   1      41.610  31.977  30.425  1.00  0.00     0.029 A 
ATOM     26  C   UNL A   1      42.811  31.152  30.401  1.00  0.00     0.049 A 
ATOM     27  H   UNL A   1      43.000  29.199  29.701  1.00  0.00     0.167 HD
ATOM     28  C   UNL A   1      43.205  25.069  28.248  1.00  0.00     0.037 A 
ATOM     29  C   UNL A   1      44.022  31.536  30.848  1.00  0.00     0.037 A 
ATOM     30  C   UNL A   1      44.547  25.407  28.654  1.00  0.00     0.049 A 
ATOM     31  C   UNL A   1      45.168  30.572  30.763  1.00  0.00     0.074 A 
ATOM     32  C   UNL A   1      45.690  24.631  28.579  1.00  0.00     0.029 A 
ATOM     33  N   UNL A   1      44.926  26.619  29.216  1.00  0.00    -0.354 N 
ATOM     34  N   UNL A   1      45.179  29.350  30.286  1.00  0.00    -0.248 NA
ATOM     35  C   UNL A   1      46.463  31.034  31.276  1.00  0.00     0.031 C 
ATOM     36  C   UNL A   1      46.751  25.355  29.135  1.00  0.00     0.029 A 
ATOM     37  C   UNL A   1      46.280  26.602  29.512  1.00  0.00     0.049 A 
ATOM     38  H   UNL A   1      44.322  27.378  29.381  1.00  0.00     0.167 HD
ATOM     39  C   UNL A   1      46.486  28.900  30.428  1.00  0.00     0.074 A 
ATOM     40  C   UNL A   1      47.240  29.990  31.018  1.00  0.00     0.031 C 
ATOM     41  C   UNL A   1      47.014  27.696  30.101  1.00  0.00     0.037 A 
BRANCH  28  42
ATOM     42  C   UNL A   1      42.955  23.686  27.710  1.00  0.00     0.058 A 
ATOM     43  C   UNL A   1      42.719  22.593  28.561  1.00  0.00     0.135 A 
ATOM     44  C   UNL A   1      42.901  23.458  26.325  1.00  0.00     0.135 A 
ATOM     45  F   UNL A   1      42.771  22.749  29.893  1.00  0.00    -0.206 F 
ATOM     46  C   UNL A   1      42.462  21.322  28.058  1.00  0.00     0.059 A 
ATOM     47  C   UNL A   1      42.621  22.199  25.800  1.00  0.00     0.059 A 
ATOM     48  F   UNL A   1      43.117  24.466  25.466  1.00  0.00    -0.206 F 
ATOM     49  C   UNL A   1      42.416  21.134  26.675  1.00  0.00     0.060 A 
BRANCH  49  50
ATOM     50  S   UNL A   1      42.076  19.477  26.041  1.00  0.00     0.124 S 
ATOM     51  O   UNL A   1      42.509  18.644  27.159  1.00  0.00    -0.237 OA
ATOM     52  O   UNL A   1      40.636  19.521  25.806  1.00  0.00    -0.237 OA
ATOM     53  O   UNL A   1      42.902  19.395  24.841  1.00  0.00    -0.744 OA
ENDBRANCH  49  50
ENDBRANCH  28  42
BRANCH  29  54
ATOM     54  C   UNL A   1      44.196  32.897  31.420  1.00  0.00     0.058 A 
ATOM     55  C   UNL A   1      44.102  33.120  32.800  1.00  0.00     0.135 A 
ATOM     56  C   UNL A   1      44.499  33.994  30.597  1.00  0.00     0.135 A 
ATOM     57  F   UNL A   1      43.812  32.102  33.625  1.00  0.00    -0.206 F 
ATOM     58  C   UNL A   1      44.291  34.384  33.346  1.00  0.00     0.059 A 
ATOM     59  C   UNL A   1      44.720  35.262  31.122  1.00  0.00     0.059 A 
ATOM     60  F   UNL A   1      44.620  33.828  29.271  1.00  0.00    -0.206 F 
ATOM     61  C   UNL A   1      44.603  35.449  32.499  1.00  0.00     0.060 A 
BRANCH  61  62
ATOM     62  S   UNL A   1      44.904  37.076  33.223  1.00  0.00     0.124 S 
ATOM     63  O   UNL A   1      46.177  36.861  33.902  1.00  0.00    -0.237 OA
ATOM     64  O   UNL A   1      44.946  37.934  32.043  1.00  0.00    -0.237 OA
ATOM     65  O   UNL A   1      43.749  37.274  34.092  1.00  0.00    -0.744 OA
ENDBRANCH  61  62
ENDBRANCH  29  54
BRANCH  41  66
ATOM     66  C   UNL A   1      48.483  27.501  30.351  1.00  0.00     0.058 A 
ATOM     67  C   UNL A   1      48.958  26.940  31.546  1.00  0.00     0.135 A 
ATOM     68  C   UNL A   1      49.423  27.849  29.368  1.00  0.00     0.135 A 
ATOM     69  F   UNL A   1      48.100  26.600  32.521  1.00  0.00    -0.206 F 
ATOM     70  C   UNL A   1      50.319  26.750  31.768  1.00  0.00     0.059 A 
ATOM     71  C   UNL A   1      50.786  27.645  29.558  1.00  0.00     0.059 A 
ATOM     72  F   UNL A   1      49.019  28.383  28.204  1.00  0.00    -0.206 F 
ATOM     73  C   UNL A   1      51.225  27.106  30.767  1.00  0.00     0.060 A 
BRANCH  73  74
ATOM     74  S   UNL A   1      52.985  26.826  31.054  1.00  0.00     0.124 S 
ATOM     75  O   UNL A   1      53.399  26.237  29.784  1.00  0.00    -0.237 OA
ATOM     76  O   UNL A   1      53.478  28.174  31.318  1.00  0.00    -0.237 OA
ATOM     77  O   UNL A   1      53.002  25.922  32.200  1.00  0.00    -0.744 OA
ENDBRANCH  73  74
ENDBRANCH  41  66
ENDBRANCH  15  16
ENDBRANCH   8  10
ENDBRANCH   5   6
ENDBRANCH   4   5
ENDBRANCH   3   4
ENDBRANCH   2   3
ENDBRANCH   1   2
BRANCH   1  78
ATOM     78  C   UNL A   1      37.696  33.820  31.846  1.00  0.00     0.116 C 
BRANCH  78  79
ATOM     79  N   UNL A   1      39.029  34.172  32.302  1.00  0.00    -0.351 N 
ATOM     80  C   UNL A   1      39.691  33.743  33.425  1.00  0.00     0.269 C 
ATOM     81  H   UNL A   1      39.523  34.805  31.732  1.00  0.00     0.163 HD
ATOM     82  O   UNL A   1      40.727  34.318  33.758  1.00  0.00    -0.268 OA
BRANCH  80  83
ATOM     83  C   UNL A   1      39.107  32.693  34.205  1.00  0.00     0.131 A 
ATOM     84  N   UNL A   1      38.212  32.960  35.202  1.00  0.00    -0.272 N 
ATOM     85  C   UNL A   1      39.278  31.314  34.211  1.00  0.00     0.057 A 
ATOM     86  N   UNL A   1      37.632  31.864  35.716  1.00  0.00    -0.183 NA
ATOM     87  H   UNL A   1      38.011  33.871  35.516  1.00  0.00     0.190 HD
ATOM     88  C   UNL A   1      38.276  30.866  35.109  1.00  0.00     0.145 A 
BRANCH  85  89
ATOM     89  C   UNL A   1      40.230  30.488  33.402  1.00  0.00     0.303 C 
BRANCH  89  90
ATOM     90  N   UNL A   1      41.293  29.834  34.178  1.00  0.00    -0.330 N 
ATOM     91  C   UNL A   1      41.596  30.509  35.442  1.00  0.00     0.262 C 
ATOM     92  C   UNL A   1      41.091  28.394  34.338  1.00  0.00     0.274 C 
ATOM     93  H   UNL A   1      42.132  29.936  33.607  1.00  0.00     0.348 HD
ATOM     94  C   UNL A   1      42.828  29.889  36.109  1.00  0.00     0.062 C 
ATOM     95  C   UNL A   1      42.299  27.708  34.984  1.00  0.00     0.116 C 
ATOM     96  C   UNL A   1      42.652  28.387  36.312  1.00  0.00     0.023 C 
BRANCH  95  97
ATOM     97  C   UNL A   1      41.917  26.248  35.188  1.00  0.00     0.171 C 
ATOM     98  O   UNL A   1      40.768  25.882  35.425  1.00  0.00    -0.294 OA
BRANCH  97  99
ATOM     99  C   UNL A   1      42.957  25.219  34.952  1.00  0.00     0.018 A 
ATOM    100  C   UNL A   1      42.581  23.872  34.965  1.00  0.00     0.015 A 
ATOM    101  C   UNL A   1      44.286  25.578  34.724  1.00  0.00     0.015 A 
ATOM    102  C   UNL A   1      43.544  22.884  34.754  1.00  0.00     0.048 A 
ATOM    103  C   UNL A   1      45.244  24.583  34.508  1.00  0.00     0.048 A 
ATOM    104  C   UNL A   1      44.882  23.233  34.545  1.00  0.00     0.127 A 
BRANCH 104 105
ATOM    105  O   UNL A   1      45.741  22.169  34.364  1.00  0.00    -0.457 OA
BRANCH 105 106
ATOM    106  C   UNL A   1      45.857  21.240  35.369  1.00  0.00     0.127 A 
ATOM    107  C   UNL A   1      45.486  19.927  35.086  1.00  0.00     0.047 A 
ATOM    108  C   UNL A   1      46.274  21.600  36.654  1.00  0.00     0.047 A 
ATOM    109  C   UNL A   1      45.590  18.952  36.077  1.00  0.00     0.004 A 
ATOM    110  C   UNL A   1      46.387  20.619  37.639  1.00  0.00     0.004 A 
ATOM    111  C   UNL A   1      46.050  19.296  37.349  1.00  0.00     0.000 A 
ENDBRANCH 105 106
ENDBRANCH 104 105
ENDBRANCH  97  99
ENDBRANCH  95  97
ENDBRANCH  89  90
ENDBRANCH  85  89
ENDBRANCH  80  83
ENDBRANCH  78  79
ENDBRANCH   1  78
TORSDOF 22
ENDMDL
MODEL 3
REMARK VINA RESULT:      -8.6      6.622     13.817
REMARK SMILES O=C(NCCCCCCNC(=O)c1[nH]ncc1C[N@H+]1CCC[C@@H](C(=O)c2ccc(Oc3ccccc3)cc2)C1)c1ccc(-c2c3nc(c(-c4c(F)cc(S(=O)(=O)[O-])cc4F)c4ccc([nH]4)c(-c4c(F)cc(S(=O)(=O)[O-])cc4F)c4nc(c(-c5c(F)cc(S(=O)(=O)[O-])cc5F)c5ccc2[nH]5)C=C4)C=C3)cc1
REMARK SMILES IDX 8 1 7 2 6 3 5 4 4 5 3 6 1 7 2 8 40 10 41 11 105 12 42 13
REMARK SMILES IDX 104 14 43 15 44 16 45 17 98 18 46 19 103 20 97 21 99 22
REMARK SMILES IDX 47 23 102 24 96 25 95 26 48 28 82 29 61 30 81 31 62 32 65 33
REMARK SMILES IDX 80 34 100 35 63 36 64 37 79 39 101 40 66 41 49 42 50 43
REMARK SMILES IDX 59 44 51 45 52 46 58 47 60 48 53 49 54 50 55 51 56 52 57 53
REMARK SMILES IDX 83 54 84 55 93 56 85 57 86 58 92 59 94 60 87 61 88 62 89 63
REMARK SMILES IDX 90 64 91 65 67 66 68 67 77 68 69 69 70 70 76 71 78 72 71 73
REMARK SMILES IDX 72 74 73 75 74 76 75 77 9 78 10 79 11 80 12 82 13 83 14 84
REMARK SMILES IDX 17 85 15 86 16 88 18 89 19 90 20 91 39 92 21 94 23 95 22 96
REMARK SMILES IDX 24 97 25 98 26 99 27 100 38 101 28 102 37 103 29 104 30 105
REMARK SMILES IDX 31 106 32 107 36 108 33 109 35 110 34 111
REMARK H PARENT 3 9 99 27 65 38 10 81 14 87 19 93
REMARK Flexibility Score: inf
ROOT
ATOM      1  C   UNL A   1      41.353  35.269  29.230  1.00  0.00     0.021 C 
ENDROOT
BRANCH   1   2
ATOM      2  C   UNL A   1      39.956  34.662  29.386  1.00  0.00     0.002 C 
BRANCH   2   3
ATOM      3  C   UNL A   1      39.606  34.142  30.783  1.00  0.00     0.002 C 
BRANCH   3   4
ATOM      4  C   UNL A   1      38.124  34.186  31.158  1.00  0.00     0.021 C 
BRANCH   4   5
ATOM      5  C   UNL A   1      37.740  33.369  32.384  1.00  0.00     0.116 C 
BRANCH   5   6
ATOM      6  N   UNL A   1      36.738  32.359  32.092  1.00  0.00    -0.352 N 
ATOM      7  O   UNL A   1      35.854  30.557  31.066  1.00  0.00    -0.269 OA
ATOM      8  C   UNL A   1      36.853  31.222  31.329  1.00  0.00     0.251 C 
ATOM      9  H   UNL A   1      35.854  32.510  32.497  1.00  0.00     0.163 HD
BRANCH   8  10
ATOM     10  C   UNL A   1      38.177  30.817  30.809  1.00  0.00     0.039 A 
ATOM     11  C   UNL A   1      38.469  30.915  29.447  1.00  0.00     0.014 A 
ATOM     12  C   UNL A   1      39.142  30.340  31.701  1.00  0.00     0.014 A 
ATOM     13  C   UNL A   1      39.674  30.418  28.960  1.00  0.00     0.010 A 
ATOM     14  C   UNL A   1      40.384  29.918  31.220  1.00  0.00     0.010 A 
ATOM     15  C   UNL A   1      40.653  29.932  29.843  1.00  0.00    -0.014 A 
BRANCH  15  16
ATOM     16  C   UNL A   1      41.976  29.525  29.309  1.00  0.00     0.031 A 
ATOM     17  C   UNL A   1      42.209  28.140  28.769  1.00  0.00     0.074 A 
ATOM     18  C   UNL A   1      42.972  30.433  29.302  1.00  0.00     0.049 A 
ATOM     19  N   UNL A   1      43.302  27.630  28.263  1.00  0.00    -0.248 NA
ATOM     20  C   UNL A   1      41.073  27.206  28.807  1.00  0.00     0.031 C 
ATOM     21  C   UNL A   1      42.864  31.802  29.819  1.00  0.00     0.029 A 
ATOM     22  N   UNL A   1      44.260  30.355  28.842  1.00  0.00    -0.354 N 
ATOM     23  C   UNL A   1      42.996  26.314  27.936  1.00  0.00     0.074 A 
ATOM     24  C   UNL A   1      41.618  26.097  28.325  1.00  0.00     0.031 C 
ATOM     25  C   UNL A   1      44.021  32.444  29.608  1.00  0.00     0.029 A 
ATOM     26  C   UNL A   1      44.972  31.520  29.003  1.00  0.00     0.049 A 
ATOM     27  H   UNL A   1      44.640  29.543  28.435  1.00  0.00     0.167 HD
ATOM     28  C   UNL A   1      43.791  25.380  27.359  1.00  0.00     0.037 A 
ATOM     29  C   UNL A   1      46.254  31.810  28.714  1.00  0.00     0.037 A 
ATOM     30  C   UNL A   1      45.159  25.612  26.969  1.00  0.00     0.049 A 
ATOM     31  C   UNL A   1      47.118  30.751  28.095  1.00  0.00     0.074 A 
ATOM     32  C   UNL A   1      46.037  24.741  26.348  1.00  0.00     0.029 A 
ATOM     33  N   UNL A   1      45.851  26.800  27.166  1.00  0.00    -0.354 N 
ATOM     34  N   UNL A   1      46.799  29.523  27.763  1.00  0.00    -0.248 NA
ATOM     35  C   UNL A   1      48.512  31.113  27.812  1.00  0.00     0.031 C 
ATOM     36  C   UNL A   1      47.272  25.386  26.209  1.00  0.00     0.029 A 
ATOM     37  C   UNL A   1      47.151  26.676  26.699  1.00  0.00     0.049 A 
ATOM     38  H   UNL A   1      45.475  27.610  27.578  1.00  0.00     0.167 HD
ATOM     39  C   UNL A   1      47.951  28.967  27.218  1.00  0.00     0.074 A 
ATOM     40  C   UNL A   1      48.967  30.002  27.249  1.00  0.00     0.031 C 
ATOM     41  C   UNL A   1      48.150  27.716  26.737  1.00  0.00     0.037 A 
BRANCH  28  42
ATOM     42  C   UNL A   1      43.210  24.012  27.125  1.00  0.00     0.058 A 
ATOM     43  C   UNL A   1      42.732  23.618  25.864  1.00  0.00     0.135 A 
ATOM     44  C   UNL A   1      43.175  23.063  28.161  1.00  0.00     0.135 A 
ATOM     45  F   UNL A   1      42.728  24.486  24.840  1.00  0.00    -0.206 F 
ATOM     46  C   UNL A   1      42.219  22.343  25.646  1.00  0.00     0.059 A 
ATOM     47  C   UNL A   1      42.690  21.774  27.959  1.00  0.00     0.059 A 
ATOM     48  F   UNL A   1      43.621  23.385  29.386  1.00  0.00    -0.206 F 
ATOM     49  C   UNL A   1      42.201  21.427  26.700  1.00  0.00     0.060 A 
BRANCH  49  50
ATOM     50  S   UNL A   1      41.537  19.775  26.397  1.00  0.00     0.124 S 
ATOM     51  O   UNL A   1      42.426  19.294  25.343  1.00  0.00    -0.237 OA
ATOM     52  O   UNL A   1      41.692  19.132  27.698  1.00  0.00    -0.237 OA
ATOM     53  O   UNL A   1      40.160  20.032  25.988  1.00  0.00    -0.744 OA
ENDBRANCH  49  50
ENDBRANCH  28  42
BRANCH  29  54
ATOM     54  C   UNL A   1      46.788  33.163  29.019  1.00  0.00     0.058 A 
ATOM     55  C   UNL A   1      46.715  34.198  28.077  1.00  0.00     0.135 A 
ATOM     56  C   UNL A   1      47.345  33.456  30.273  1.00  0.00     0.135 A 
ATOM     57  F   UNL A   1      46.192  33.966  26.864  1.00  0.00    -0.206 F 
ATOM     58  C   UNL A   1      47.186  35.475  28.363  1.00  0.00     0.059 A 
ATOM     59  C   UNL A   1      47.798  34.731  30.593  1.00  0.00     0.059 A 
ATOM     60  F   UNL A   1      47.419  32.503  31.216  1.00  0.00    -0.206 F 
ATOM     61  C   UNL A   1      47.723  35.733  29.626  1.00  0.00     0.060 A 
BRANCH  61  62
ATOM     62  S   UNL A   1      48.278  37.407  30.009  1.00  0.00     0.124 S 
ATOM     63  O   UNL A   1      48.579  37.925  28.679  1.00  0.00    -0.237 OA
ATOM     64  O   UNL A   1      47.107  37.977  30.666  1.00  0.00    -0.237 OA
ATOM     65  O   UNL A   1      49.430  37.187  30.878  1.00  0.00    -0.744 OA
ENDBRANCH  61  62
ENDBRANCH  29  54
BRANCH  41  66
ATOM     66  C   UNL A   1      49.510  27.403  26.182  1.00  0.00     0.058 A 
ATOM     67  C   UNL A   1      50.558  26.963  27.005  1.00  0.00     0.135 A 
ATOM     68  C   UNL A   1      49.758  27.513  24.804  1.00  0.00     0.135 A 
ATOM     69  F   UNL A   1      50.375  26.851  28.331  1.00  0.00    -0.206 F 
ATOM     70  C   UNL A   1      51.813  26.663  26.484  1.00  0.00     0.059 A 
ATOM     71  C   UNL A   1      50.997  27.195  24.258  1.00  0.00     0.059 A 
ATOM     72  F   UNL A   1      48.786  27.924  23.974  1.00  0.00    -0.206 F 
ATOM     73  C   UNL A   1      52.022  26.782  25.109  1.00  0.00     0.060 A 
BRANCH  73  74
ATOM     74  S   UNL A   1      53.645  26.360  24.440  1.00  0.00     0.124 S 
ATOM     75  O   UNL A   1      53.308  25.289  23.508  1.00  0.00    -0.237 OA
ATOM     76  O   UNL A   1      54.072  27.618  23.835  1.00  0.00    -0.237 OA
ATOM     77  O   UNL A   1      54.401  25.951  25.620  1.00  0.00    -0.744 OA
ENDBRANCH  73  74
ENDBRANCH  41  66
ENDBRANCH  15  16
ENDBRANCH   8  10
ENDBRANCH   5   6
ENDBRANCH   4   5
ENDBRANCH   3   4
ENDBRANCH   2   3
ENDBRANCH   1   2
BRANCH   1  78
ATOM     78  C   UNL A   1      41.538  36.162  28.008  1.00  0.00     0.116 C 
BRANCH  78  79
ATOM     79  N   UNL A   1      42.935  36.352  27.662  1.00  0.00    -0.351 N 
ATOM     80  C   UNL A   1      43.523  37.422  27.036  1.00  0.00     0.269 C 
ATOM     81  H   UNL A   1      43.540  35.616  27.907  1.00  0.00     0.163 HD
ATOM     82  O   UNL A   1      44.682  37.309  26.633  1.00  0.00    -0.268 OA
BRANCH  80  83
ATOM     83  C   UNL A   1      42.740  38.599  26.808  1.00  0.00     0.131 A 
ATOM     84  N   UNL A   1      41.551  38.545  26.138  1.00  0.00    -0.272 N 
ATOM     85  C   UNL A   1      42.939  39.940  27.114  1.00  0.00     0.057 A 
ATOM     86  N   UNL A   1      40.863  39.697  26.162  1.00  0.00    -0.183 NA
ATOM     87  H   UNL A   1      41.227  37.737  25.678  1.00  0.00     0.190 HD
ATOM     88  C   UNL A   1      41.705  40.542  26.761  1.00  0.00     0.145 A 
BRANCH  85  89
ATOM     89  C   UNL A   1      44.135  40.585  27.745  1.00  0.00     0.303 C 
BRANCH  89  90
ATOM     90  N   UNL A   1      45.088  41.180  26.798  1.00  0.00    -0.330 N 
ATOM     91  C   UNL A   1      45.691  40.206  25.884  1.00  0.00     0.262 C 
ATOM     92  C   UNL A   1      44.560  42.355  26.105  1.00  0.00     0.274 C 
ATOM     93  H   UNL A   1      45.855  41.520  27.378  1.00  0.00     0.348 HD
ATOM     94  C   UNL A   1      46.803  40.855  25.053  1.00  0.00     0.062 C 
ATOM     95  C   UNL A   1      45.629  43.063  25.268  1.00  0.00     0.116 C 
ATOM     96  C   UNL A   1      46.290  42.077  24.298  1.00  0.00     0.023 C 
BRANCH  95  97
ATOM     97  C   UNL A   1      44.928  44.192  24.524  1.00  0.00     0.171 C 
ATOM     98  O   UNL A   1      45.016  45.371  24.858  1.00  0.00    -0.294 OA
BRANCH  97  99
ATOM     99  C   UNL A   1      44.224  43.861  23.264  1.00  0.00     0.018 A 
ATOM    100  C   UNL A   1      43.120  43.002  23.318  1.00  0.00     0.015 A 
ATOM    101  C   UNL A   1      44.647  44.387  22.042  1.00  0.00     0.015 A 
ATOM    102  C   UNL A   1      42.445  42.669  22.142  1.00  0.00     0.048 A 
ATOM    103  C   UNL A   1      43.963  44.053  20.870  1.00  0.00     0.048 A 
ATOM    104  C   UNL A   1      42.875  43.175  20.912  1.00  0.00     0.127 A 
BRANCH 104 105
ATOM    105  O   UNL A   1      42.138  42.761  19.822  1.00  0.00    -0.457 OA
BRANCH 105 106
ATOM    106  C   UNL A   1      42.183  43.514  18.674  1.00  0.00     0.127 A 
ATOM    107  C   UNL A   1      41.033  44.214  18.312  1.00  0.00     0.047 A 
ATOM    108  C   UNL A   1      43.316  43.537  17.857  1.00  0.00     0.047 A 
ATOM    109  C   UNL A   1      41.036  44.993  17.156  1.00  0.00     0.004 A 
ATOM    110  C   UNL A   1      43.317  44.326  16.706  1.00  0.00     0.004 A 
ATOM    111  C   UNL A   1      42.180  45.057  16.360  1.00  0.00     0.000 A 
ENDBRANCH 105 106
ENDBRANCH 104 105
ENDBRANCH  97  99
ENDBRANCH  95  97
ENDBRANCH  89  90
ENDBRANCH  85  89
ENDBRANCH  80  83
ENDBRANCH  78  79
ENDBRANCH   1  78
TORSDOF 22
ENDMDL
