MODEL 1
REMARK VINA RESULT:     -11.7      0.000      0.000
REMARK SMILES Cc1c[nH]c(C[N@@H+](C)[C@@H](C(=O)NCCCCCCNC(=O)c2ccc(-c3c4nc(c(-c5c(F)cc(S(=O)(=O)[O-])cc5F)c5ccc([nH]5)c(-c5c(F)cc(S(=O)(=O)[O-])cc5F)c5nc(c(-c6c(F)cc(S(=O)(=O)[O-])cc6F)c6ccc3[nH]6)C=C5)C=C4)cc2)c2ccc(NC(=O)N3CCCC3)cc2)n1
REMARK SMILES IDX 15 1 14 2 13 3 12 4 10 5 11 6 9 8 7 9 8 10 6 12 5 13 1 14
REMARK SMILES IDX 2 15 3 16 102 17 4 18 88 20 89 21 101 22 90 23 100 24 91 25
REMARK SMILES IDX 92 26 93 27 94 29 95 30 96 31 99 32 97 33 98 34 16 35 17 36
REMARK SMILES IDX 18 37 19 38 20 39 21 41 22 42 23 43 87 44 24 45 86 46 25 47
REMARK SMILES IDX 26 48 27 49 80 50 28 51 85 52 79 53 81 54 29 55 84 56 78 57
REMARK SMILES IDX 77 58 30 60 64 61 43 62 63 63 44 64 47 65 62 66 82 67 45 68
REMARK SMILES IDX 46 69 61 71 83 72 48 73 31 74 32 75 41 76 33 77 34 78 40 79
REMARK SMILES IDX 42 80 35 81 36 82 37 83 38 84 39 85 65 86 66 87 75 88 67 89
REMARK SMILES IDX 68 90 74 91 76 92 69 93 70 94 71 95 72 96 73 97 49 98 50 99
REMARK SMILES IDX 59 100 51 101 52 102 58 103 60 104 53 105 54 106 55 107
REMARK SMILES IDX 56 108 57 109
REMARK H PARENT 12 7 7 11 4 19 92 28 19 40 81 59 47 70
REMARK Flexibility Score: inf
ROOT
ATOM      1  C   UNL A   1      32.254  30.406  27.030  1.00  0.00     0.002 C 
ENDROOT
BRANCH   1   2
ATOM      2  C   UNL A   1      32.036  28.913  27.298  1.00  0.00     0.021 C 
BRANCH   2   3
ATOM      3  C   UNL A   1      31.755  28.096  26.035  1.00  0.00     0.116 C 
BRANCH   3   4
ATOM      4  N   UNL A   1      33.005  27.847  25.349  1.00  0.00    -0.351 N 
ATOM      5  C   UNL A   1      33.294  26.817  24.497  1.00  0.00     0.283 C 
ATOM      6  O   UNL A   1      34.479  26.460  24.444  1.00  0.00    -0.268 OA
ATOM      7  H   UNL A   1      33.730  28.492  25.515  1.00  0.00     0.163 HD
BRANCH   5   8
ATOM      8  C   UNL A   1      32.167  26.188  23.610  1.00  0.00     0.305 C 
BRANCH   8   9
ATOM      9  N   UNL A   1      31.010  27.113  23.448  1.00  0.00    -0.317 N 
ATOM     10  C   UNL A   1      29.704  26.527  23.669  1.00  0.00     0.334 C 
ATOM     11  H   UNL A   1      31.193  27.729  24.241  1.00  0.00     0.349 HD
BRANCH   9  12
ATOM     12  C   UNL A   1      31.017  28.020  22.291  1.00  0.00     0.339 C 
BRANCH  12  13
ATOM     13  C   UNL A   1      30.193  29.252  22.502  1.00  0.00     0.161 A 
ATOM     14  C   UNL A   1      27.647  31.594  21.705  1.00  0.00     0.068 C 
ATOM     15  C   UNL A   1      28.775  30.857  22.312  1.00  0.00     0.056 A 
ATOM     16  C   UNL A   1      29.365  31.021  23.545  1.00  0.00     0.107 A 
ATOM     17  N   UNL A   1      29.353  29.806  21.648  1.00  0.00    -0.233 NA
ATOM     18  N   UNL A   1      30.237  29.973  23.669  1.00  0.00    -0.344 N 
ATOM     19  H   UNL A   1      30.794  29.772  24.455  1.00  0.00     0.167 HD
ENDBRANCH  12  13
ENDBRANCH   9  12
ENDBRANCH   8   9
BRANCH   8  20
ATOM     20  C   UNL A   1      31.732  24.808  24.140  1.00  0.00     0.019 A 
ATOM     21  C   UNL A   1      31.508  23.718  23.288  1.00  0.00     0.012 A 
ATOM     22  C   UNL A   1      31.566  24.591  25.516  1.00  0.00     0.012 A 
ATOM     23  C   UNL A   1      31.425  22.426  23.804  1.00  0.00     0.027 A 
ATOM     24  C   UNL A   1      31.505  23.293  26.029  1.00  0.00     0.027 A 
ATOM     25  C   UNL A   1      31.594  22.206  25.166  1.00  0.00     0.042 A 
BRANCH  25  26
ATOM     26  N   UNL A   1      31.892  20.944  25.711  1.00  0.00    -0.308 N 
ATOM     27  C   UNL A   1      33.046  20.219  25.701  1.00  0.00     0.321 C 
ATOM     28  H   UNL A   1      31.140  20.512  26.179  1.00  0.00     0.171 HD
ATOM     29  O   UNL A   1      32.974  18.997  25.853  1.00  0.00    -0.248 OA
ATOM     30  N   UNL A   1      34.250  20.843  25.531  1.00  0.00    -0.325 N 
ATOM     31  C   UNL A   1      34.704  22.072  26.155  1.00  0.00     0.121 C 
ATOM     32  C   UNL A   1      35.380  20.144  24.966  1.00  0.00     0.121 C 
ATOM     33  C   UNL A   1      35.824  22.528  25.240  1.00  0.00     0.023 C 
ATOM     34  C   UNL A   1      36.439  21.222  24.732  1.00  0.00     0.023 C 
ENDBRANCH  25  26
ENDBRANCH   8  20
ENDBRANCH   5   8
ENDBRANCH   3   4
ENDBRANCH   2   3
ENDBRANCH   1   2
BRANCH   1  35
ATOM     35  C   UNL A   1      33.601  30.950  27.513  1.00  0.00     0.002 C 
BRANCH  35  36
ATOM     36  C   UNL A   1      34.810  30.090  27.133  1.00  0.00     0.021 C 
BRANCH  36  37
ATOM     37  C   UNL A   1      35.507  29.430  28.318  1.00  0.00     0.116 C 
BRANCH  37  38
ATOM     38  N   UNL A   1      35.474  30.277  29.500  1.00  0.00    -0.352 N 
ATOM     39  C   UNL A   1      36.489  30.588  30.366  1.00  0.00     0.251 C 
ATOM     40  H   UNL A   1      34.601  30.683  29.706  1.00  0.00     0.163 HD
ATOM     41  O   UNL A   1      36.234  31.114  31.450  1.00  0.00    -0.269 OA
BRANCH  39  42
ATOM     42  C   UNL A   1      37.884  30.276  29.998  1.00  0.00     0.039 A 
ATOM     43  C   UNL A   1      38.764  29.825  30.983  1.00  0.00     0.014 A 
ATOM     44  C   UNL A   1      38.320  30.430  28.678  1.00  0.00     0.014 A 
ATOM     45  C   UNL A   1      40.070  29.476  30.634  1.00  0.00     0.010 A 
ATOM     46  C   UNL A   1      39.597  30.011  28.318  1.00  0.00     0.010 A 
ATOM     47  C   UNL A   1      40.488  29.537  29.293  1.00  0.00    -0.014 A 
BRANCH  47  48
ATOM     48  C   UNL A   1      41.853  29.107  28.894  1.00  0.00     0.031 A 
ATOM     49  C   UNL A   1      42.979  30.105  28.861  1.00  0.00     0.074 A 
ATOM     50  C   UNL A   1      42.063  27.832  28.510  1.00  0.00     0.049 A 
ATOM     51  N   UNL A   1      44.221  29.935  28.490  1.00  0.00    -0.248 NA
ATOM     52  C   UNL A   1      42.662  31.481  29.275  1.00  0.00     0.031 C 
ATOM     53  C   UNL A   1      41.040  26.786  28.454  1.00  0.00     0.029 A 
ATOM     54  N   UNL A   1      43.204  27.201  28.084  1.00  0.00    -0.354 N 
ATOM     55  C   UNL A   1      44.830  31.177  28.615  1.00  0.00     0.074 A 
ATOM     56  C   UNL A   1      43.807  32.106  29.042  1.00  0.00     0.031 C 
ATOM     57  C   UNL A   1      41.603  25.639  28.041  1.00  0.00     0.029 A 
ATOM     58  C   UNL A   1      43.017  25.875  27.765  1.00  0.00     0.049 A 
ATOM     59  H   UNL A   1      44.076  27.653  28.012  1.00  0.00     0.167 HD
ATOM     60  C   UNL A   1      46.128  31.509  28.417  1.00  0.00     0.037 A 
ATOM     61  C   UNL A   1      43.883  24.957  27.294  1.00  0.00     0.037 A 
ATOM     62  C   UNL A   1      47.144  30.573  28.012  1.00  0.00     0.049 A 
ATOM     63  C   UNL A   1      45.318  25.353  27.070  1.00  0.00     0.074 A 
ATOM     64  C   UNL A   1      48.499  30.795  27.843  1.00  0.00     0.029 A 
ATOM     65  N   UNL A   1      46.917  29.237  27.711  1.00  0.00    -0.354 N 
ATOM     66  N   UNL A   1      45.891  26.518  27.263  1.00  0.00    -0.248 NA
ATOM     67  C   UNL A   1      46.225  24.312  26.569  1.00  0.00     0.031 C 
ATOM     68  C   UNL A   1      49.083  29.608  27.388  1.00  0.00     0.029 A 
ATOM     69  C   UNL A   1      48.103  28.631  27.329  1.00  0.00     0.049 A 
ATOM     70  H   UNL A   1      46.044  28.787  27.760  1.00  0.00     0.167 HD
ATOM     71  C   UNL A   1      47.230  26.342  26.931  1.00  0.00     0.074 A 
ATOM     72  C   UNL A   1      47.385  24.956  26.541  1.00  0.00     0.031 C 
ATOM     73  C   UNL A   1      48.240  27.247  26.947  1.00  0.00     0.037 A 
BRANCH  60  74
ATOM     74  C   UNL A   1      46.526  32.943  28.640  1.00  0.00     0.058 A 
ATOM     75  C   UNL A   1      46.994  33.394  29.886  1.00  0.00     0.135 A 
ATOM     76  C   UNL A   1      46.483  33.869  27.585  1.00  0.00     0.135 A 
ATOM     77  F   UNL A   1      47.042  32.557  30.934  1.00  0.00    -0.206 F 
ATOM     78  C   UNL A   1      47.377  34.716  30.084  1.00  0.00     0.059 A 
ATOM     79  C   UNL A   1      46.891  35.189  27.752  1.00  0.00     0.059 A 
ATOM     80  F   UNL A   1      46.044  33.494  26.373  1.00  0.00    -0.206 F 
ATOM     81  C   UNL A   1      47.323  35.607  29.010  1.00  0.00     0.060 A 
BRANCH  81  82
ATOM     82  S   UNL A   1      47.834  37.317  29.285  1.00  0.00     0.124 S 
ATOM     83  O   UNL A   1      46.824  38.047  28.525  1.00  0.00    -0.237 OA
ATOM     84  O   UNL A   1      47.747  37.439  30.736  1.00  0.00    -0.237 OA
ATOM     85  O   UNL A   1      49.185  37.360  28.733  1.00  0.00    -0.744 OA
ENDBRANCH  81  82
ENDBRANCH  60  74
BRANCH  61  86
ATOM     86  C   UNL A   1      43.421  23.571  27.016  1.00  0.00     0.058 A 
ATOM     87  C   UNL A   1      43.219  23.125  25.701  1.00  0.00     0.135 A 
ATOM     88  C   UNL A   1      43.180  22.661  28.058  1.00  0.00     0.135 A 
ATOM     89  F   UNL A   1      43.430  23.959  24.671  1.00  0.00    -0.206 F 
ATOM     90  C   UNL A   1      42.775  21.835  25.428  1.00  0.00     0.059 A 
ATOM     91  C   UNL A   1      42.763  21.357  27.809  1.00  0.00     0.059 A 
ATOM     92  F   UNL A   1      43.375  23.031  29.333  1.00  0.00    -0.206 F 
ATOM     93  C   UNL A   1      42.552  20.958  26.490  1.00  0.00     0.060 A 
BRANCH  93  94
ATOM     94  S   UNL A   1      42.018  19.272  26.122  1.00  0.00     0.124 S 
ATOM     95  O   UNL A   1      40.581  19.450  25.950  1.00  0.00    -0.237 OA
ATOM     96  O   UNL A   1      42.775  18.969  24.912  1.00  0.00    -0.237 OA
ATOM     97  O   UNL A   1      42.425  18.525  27.309  1.00  0.00    -0.744 OA
ENDBRANCH  93  94
ENDBRANCH  61  86
BRANCH  73  98
ATOM     98  C   UNL A   1      49.611  26.764  26.557  1.00  0.00     0.058 A 
ATOM     99  C   UNL A   1      50.496  26.219  27.498  1.00  0.00     0.135 A 
ATOM    100  C   UNL A   1      50.020  26.796  25.213  1.00  0.00     0.135 A 
ATOM    101  F   UNL A   1      50.158  26.172  28.798  1.00  0.00    -0.206 F 
ATOM    102  C   UNL A   1      51.748  25.739  27.126  1.00  0.00     0.059 A 
ATOM    103  C   UNL A   1      51.255  26.294  24.814  1.00  0.00     0.059 A 
ATOM    104  F   UNL A   1      49.208  27.299  24.271  1.00  0.00    -0.206 F 
ATOM    105  C   UNL A   1      52.116  25.777  25.781  1.00  0.00     0.060 A 
BRANCH 105 106
ATOM    106  S   UNL A   1      53.727  25.113  25.306  1.00  0.00     0.124 S 
ATOM    107  O   UNL A   1      53.439  23.687  25.206  1.00  0.00    -0.237 OA
ATOM    108  O   UNL A   1      53.985  25.798  24.043  1.00  0.00    -0.237 OA
ATOM    109  O   UNL A   1      54.595  25.503  26.412  1.00  0.00    -0.744 OA
ENDBRANCH 105 106
ENDBRANCH  73  98
ENDBRANCH  47  48
ENDBRANCH  39  42
ENDBRANCH  37  38
ENDBRANCH  36  37
ENDBRANCH  35  36
ENDBRANCH   1  35
TORSDOF 21
ENDMDL
MODEL 2
REMARK VINA RESULT:     -11.4      0.952      7.947
REMARK SMILES Cc1c[nH]c(C[N@@H+](C)[C@@H](C(=O)NCCCCCCNC(=O)c2ccc(-c3c4nc(c(-c5c(F)cc(S(=O)(=O)[O-])cc5F)c5ccc([nH]5)c(-c5c(F)cc(S(=O)(=O)[O-])cc5F)c5nc(c(-c6c(F)cc(S(=O)(=O)[O-])cc6F)c6ccc3[nH]6)C=C5)C=C4)cc2)c2ccc(NC(=O)N3CCCC3)cc2)n1
REMARK SMILES IDX 15 1 14 2 13 3 12 4 10 5 11 6 9 8 7 9 8 10 6 12 5 13 1 14
REMARK SMILES IDX 2 15 3 16 102 17 4 18 88 20 89 21 101 22 90 23 100 24 91 25
REMARK SMILES IDX 92 26 93 27 94 29 95 30 96 31 99 32 97 33 98 34 16 35 17 36
REMARK SMILES IDX 18 37 19 38 20 39 21 41 22 42 23 43 87 44 24 45 86 46 25 47
REMARK SMILES IDX 26 48 27 49 80 50 28 51 85 52 79 53 81 54 29 55 84 56 78 57
REMARK SMILES IDX 77 58 30 60 64 61 43 62 63 63 44 64 47 65 62 66 82 67 45 68
REMARK SMILES IDX 46 69 61 71 83 72 48 73 31 74 32 75 41 76 33 77 34 78 40 79
REMARK SMILES IDX 42 80 35 81 36 82 37 83 38 84 39 85 65 86 66 87 75 88 67 89
REMARK SMILES IDX 68 90 74 91 76 92 69 93 70 94 71 95 72 96 73 97 49 98 50 99
REMARK SMILES IDX 59 100 51 101 52 102 58 103 60 104 53 105 54 106 55 107
REMARK SMILES IDX 56 108 57 109
REMARK H PARENT 12 7 7 11 4 19 92 28 19 40 81 59 47 70
REMARK Flexibility Score: inf
ROOT
ATOM      1  C   UNL A   1      32.631  31.226  27.104  1.00  0.00     0.002 C 
ENDROOT
BRANCH   1   2
ATOM      2  C   UNL A   1      32.013  29.854  26.814  1.00  0.00     0.021 C 
BRANCH   2   3
ATOM      3  C   UNL A   1      31.447  29.721  25.398  1.00  0.00     0.116 C 
BRANCH   3   4
ATOM      4  N   UNL A   1      32.537  29.475  24.477  1.00  0.00    -0.351 N 
ATOM      5  C   UNL A   1      32.828  28.308  23.827  1.00  0.00     0.283 C 
ATOM      6  O   UNL A   1      34.018  28.116  23.541  1.00  0.00    -0.268 OA
ATOM      7  H   UNL A   1      33.137  30.235  24.300  1.00  0.00     0.163 HD
BRANCH   5   8
ATOM      8  C   UNL A   1      31.679  27.319  23.431  1.00  0.00     0.305 C 
BRANCH   8   9
ATOM      9  N   UNL A   1      30.378  28.024  23.260  1.00  0.00    -0.317 N 
ATOM     10  C   UNL A   1      29.215  27.325  23.771  1.00  0.00     0.334 C 
ATOM     11  H   UNL A   1      30.545  28.811  23.888  1.00  0.00     0.349 HD
BRANCH   9  12
ATOM     12  C   UNL A   1      30.109  28.661  21.963  1.00  0.00     0.339 C 
BRANCH  12  13
ATOM     13  C   UNL A   1      29.323  29.929  22.079  1.00  0.00     0.161 A 
ATOM     14  C   UNL A   1      28.806  33.319  22.996  1.00  0.00     0.068 C 
ATOM     15  C   UNL A   1      28.666  31.931  22.512  1.00  0.00     0.056 A 
ATOM     16  C   UNL A   1      27.675  31.369  21.739  1.00  0.00     0.107 A 
ATOM     17  N   UNL A   1      29.640  31.003  22.779  1.00  0.00    -0.233 NA
ATOM     18  N   UNL A   1      28.123  30.110  21.439  1.00  0.00    -0.344 N 
ATOM     19  H   UNL A   1      27.666  29.453  20.866  1.00  0.00     0.167 HD
ENDBRANCH  12  13
ENDBRANCH   9  12
ENDBRANCH   8   9
BRANCH   8  20
ATOM     20  C   UNL A   1      31.573  26.146  24.423  1.00  0.00     0.019 A 
ATOM     21  C   UNL A   1      31.325  24.832  24.002  1.00  0.00     0.012 A 
ATOM     22  C   UNL A   1      31.749  26.356  25.800  1.00  0.00     0.012 A 
ATOM     23  C   UNL A   1      31.544  23.762  24.867  1.00  0.00     0.027 A 
ATOM     24  C   UNL A   1      31.989  25.280  26.658  1.00  0.00     0.027 A 
ATOM     25  C   UNL A   1      32.039  23.987  26.147  1.00  0.00     0.042 A 
BRANCH  25  26
ATOM     26  N   UNL A   1      32.628  22.981  26.933  1.00  0.00    -0.308 N 
ATOM     27  C   UNL A   1      33.686  22.160  26.684  1.00  0.00     0.321 C 
ATOM     28  H   UNL A   1      32.203  22.848  27.813  1.00  0.00     0.171 HD
ATOM     29  O   UNL A   1      33.764  21.095  27.303  1.00  0.00    -0.248 OA
ATOM     30  N   UNL A   1      34.637  22.520  25.772  1.00  0.00    -0.325 N 
ATOM     31  C   UNL A   1      35.256  23.822  25.608  1.00  0.00     0.121 C 
ATOM     32  C   UNL A   1      35.418  21.526  25.074  1.00  0.00     0.121 C 
ATOM     33  C   UNL A   1      35.798  23.769  24.192  1.00  0.00     0.023 C 
ATOM     34  C   UNL A   1      36.184  22.301  24.001  1.00  0.00     0.023 C 
ENDBRANCH  25  26
ENDBRANCH   8  20
ENDBRANCH   5   8
ENDBRANCH   3   4
ENDBRANCH   2   3
ENDBRANCH   1   2
BRANCH   1  35
ATOM     35  C   UNL A   1      34.100  31.186  27.531  1.00  0.00     0.002 C 
BRANCH  35  36
ATOM     36  C   UNL A   1      34.778  29.824  27.360  1.00  0.00     0.021 C 
BRANCH  36  37
ATOM     37  C   UNL A   1      35.604  29.379  28.562  1.00  0.00     0.116 C 
BRANCH  37  38
ATOM     38  N   UNL A   1      35.767  30.454  29.529  1.00  0.00    -0.352 N 
ATOM     39  C   UNL A   1      36.898  30.851  30.192  1.00  0.00     0.251 C 
ATOM     40  H   UNL A   1      34.952  30.966  29.734  1.00  0.00     0.163 HD
ATOM     41  O   UNL A   1      36.810  31.611  31.156  1.00  0.00    -0.269 OA
BRANCH  39  42
ATOM     42  C   UNL A   1      38.216  30.353  29.752  1.00  0.00     0.039 A 
ATOM     43  C   UNL A   1      38.484  30.248  28.387  1.00  0.00     0.014 A 
ATOM     44  C   UNL A   1      39.186  29.991  30.693  1.00  0.00     0.014 A 
ATOM     45  C   UNL A   1      39.747  29.830  27.962  1.00  0.00     0.010 A 
ATOM     46  C   UNL A   1      40.466  29.647  30.270  1.00  0.00     0.010 A 
ATOM     47  C   UNL A   1      40.758  29.556  28.900  1.00  0.00    -0.014 A 
BRANCH  47  48
ATOM     48  C   UNL A   1      42.126  29.173  28.465  1.00  0.00     0.031 A 
ATOM     49  C   UNL A   1      42.417  27.756  28.051  1.00  0.00     0.074 A 
ATOM     50  C   UNL A   1      43.114  30.089  28.496  1.00  0.00     0.049 A 
ATOM     51  N   UNL A   1      43.555  27.219  27.693  1.00  0.00    -0.248 NA
ATOM     52  C   UNL A   1      41.288  26.812  28.064  1.00  0.00     0.031 C 
ATOM     53  C   UNL A   1      42.964  31.481  28.925  1.00  0.00     0.029 A 
ATOM     54  N   UNL A   1      44.443  29.985  28.171  1.00  0.00    -0.354 N 
ATOM     55  C   UNL A   1      43.282  25.878  27.449  1.00  0.00     0.074 A 
ATOM     56  C   UNL A   1      41.884  25.670  27.754  1.00  0.00     0.031 C 
ATOM     57  C   UNL A   1      44.147  32.107  28.815  1.00  0.00     0.029 A 
ATOM     58  C   UNL A   1      45.149  31.153  28.347  1.00  0.00     0.049 A 
ATOM     59  H   UNL A   1      44.855  29.153  27.843  1.00  0.00     0.167 HD
ATOM     60  C   UNL A   1      44.115  24.914  26.989  1.00  0.00     0.037 A 
ATOM     61  C   UNL A   1      46.455  31.424  28.162  1.00  0.00     0.037 A 
ATOM     62  C   UNL A   1      45.501  25.136  26.667  1.00  0.00     0.049 A 
ATOM     63  C   UNL A   1      47.363  30.333  27.661  1.00  0.00     0.074 A 
ATOM     64  C   UNL A   1      46.413  24.242  26.137  1.00  0.00     0.029 A 
ATOM     65  N   UNL A   1      46.175  26.336  26.847  1.00  0.00    -0.354 N 
ATOM     66  N   UNL A   1      47.072  29.088  27.368  1.00  0.00    -0.248 NA
ATOM     67  C   UNL A   1      48.776  30.682  27.462  1.00  0.00     0.031 C 
ATOM     68  C   UNL A   1      47.653  24.884  26.046  1.00  0.00     0.029 A 
ATOM     69  C   UNL A   1      47.500  26.196  26.466  1.00  0.00     0.049 A 
ATOM     70  H   UNL A   1      45.773  27.163  27.195  1.00  0.00     0.167 HD
ATOM     71  C   UNL A   1      48.258  28.513  26.926  1.00  0.00     0.074 A 
ATOM     72  C   UNL A   1      49.268  29.550  26.976  1.00  0.00     0.031 C 
ATOM     73  C   UNL A   1      48.492  27.241  26.518  1.00  0.00     0.037 A 
BRANCH  60  74
ATOM     74  C   UNL A   1      43.551  23.532  26.800  1.00  0.00     0.058 A 
ATOM     75  C   UNL A   1      43.246  23.028  25.524  1.00  0.00     0.135 A 
ATOM     76  C   UNL A   1      43.353  22.685  27.901  1.00  0.00     0.135 A 
ATOM     77  F   UNL A   1      43.400  23.800  24.437  1.00  0.00    -0.206 F 
ATOM     78  C   UNL A   1      42.739  21.744  25.351  1.00  0.00     0.059 A 
ATOM     79  C   UNL A   1      42.877  21.385  27.749  1.00  0.00     0.059 A 
ATOM     80  F   UNL A   1      43.627  23.114  29.143  1.00  0.00    -0.206 F 
ATOM     81  C   UNL A   1      42.559  20.929  26.470  1.00  0.00     0.060 A 
BRANCH  81  82
ATOM     82  S   UNL A   1      41.911  19.262  26.225  1.00  0.00     0.124 S 
ATOM     83  O   UNL A   1      42.707  18.806  25.089  1.00  0.00    -0.237 OA
ATOM     84  O   UNL A   1      42.206  18.622  27.503  1.00  0.00    -0.237 OA
ATOM     85  O   UNL A   1      40.495  19.485  25.949  1.00  0.00    -0.744 OA
ENDBRANCH  81  82
ENDBRANCH  60  74
BRANCH  61  86
ATOM     86  C   UNL A   1      46.980  32.788  28.437  1.00  0.00     0.058 A 
ATOM     87  C   UNL A   1      46.949  33.788  27.454  1.00  0.00     0.135 A 
ATOM     88  C   UNL A   1      47.519  33.123  29.691  1.00  0.00     0.135 A 
ATOM     89  F   UNL A   1      46.450  33.517  26.238  1.00  0.00    -0.206 F 
ATOM     90  C   UNL A   1      47.449  35.064  27.694  1.00  0.00     0.059 A 
ATOM     91  C   UNL A   1      47.998  34.399  29.964  1.00  0.00     0.059 A 
ATOM     92  F   UNL A   1      47.557  32.208  30.672  1.00  0.00    -0.206 F 
ATOM     93  C   UNL A   1      47.970  35.360  28.954  1.00  0.00     0.060 A 
BRANCH  93  94
ATOM     94  S   UNL A   1      48.576  37.032  29.269  1.00  0.00     0.124 S 
ATOM     95  O   UNL A   1      49.021  37.438  27.941  1.00  0.00    -0.237 OA
ATOM     96  O   UNL A   1      47.381  37.700  29.775  1.00  0.00    -0.237 OA
ATOM     97  O   UNL A   1      49.634  36.825  30.254  1.00  0.00    -0.744 OA
ENDBRANCH  93  94
ENDBRANCH  61  86
BRANCH  73  98
ATOM     98  C   UNL A   1      49.886  26.902  26.064  1.00  0.00     0.058 A 
ATOM     99  C   UNL A   1      50.296  27.093  24.736  1.00  0.00     0.135 A 
ATOM    100  C   UNL A   1      50.839  26.435  26.985  1.00  0.00     0.135 A 
ATOM    101  F   UNL A   1      49.422  27.530  23.814  1.00  0.00    -0.206 F 
ATOM    102  C   UNL A   1      51.597  26.814  24.330  1.00  0.00     0.059 A 
ATOM    103  C   UNL A   1      52.153  26.178  26.608  1.00  0.00     0.059 A 
ATOM    104  F   UNL A   1      50.501  26.244  28.269  1.00  0.00    -0.206 F 
ATOM    105  C   UNL A   1      52.520  26.361  25.275  1.00  0.00     0.060 A 
BRANCH 105 106
ATOM    106  S   UNL A   1      54.216  26.041  24.743  1.00  0.00     0.124 S 
ATOM    107  O   UNL A   1      54.969  26.944  25.608  1.00  0.00    -0.237 OA
ATOM    108  O   UNL A   1      54.367  24.618  25.027  1.00  0.00    -0.237 OA
ATOM    109  O   UNL A   1      54.201  26.394  23.327  1.00  0.00    -0.744 OA
ENDBRANCH 105 106
ENDBRANCH  73  98
ENDBRANCH  47  48
ENDBRANCH  39  42
ENDBRANCH  37  38
ENDBRANCH  36  37
ENDBRANCH  35  36
ENDBRANCH   1  35
TORSDOF 21
ENDMDL
MODEL 3
REMARK VINA RESULT:     -11.4      4.596     11.553
REMARK SMILES Cc1c[nH]c(C[N@@H+](C)[C@@H](C(=O)NCCCCCCNC(=O)c2ccc(-c3c4nc(c(-c5c(F)cc(S(=O)(=O)[O-])cc5F)c5ccc([nH]5)c(-c5c(F)cc(S(=O)(=O)[O-])cc5F)c5nc(c(-c6c(F)cc(S(=O)(=O)[O-])cc6F)c6ccc3[nH]6)C=C5)C=C4)cc2)c2ccc(NC(=O)N3CCCC3)cc2)n1
REMARK SMILES IDX 15 1 14 2 13 3 12 4 10 5 11 6 9 8 7 9 8 10 6 12 5 13 1 14
REMARK SMILES IDX 2 15 3 16 102 17 4 18 88 20 89 21 101 22 90 23 100 24 91 25
REMARK SMILES IDX 92 26 93 27 94 29 95 30 96 31 99 32 97 33 98 34 16 35 17 36
REMARK SMILES IDX 18 37 19 38 20 39 21 41 22 42 23 43 87 44 24 45 86 46 25 47
REMARK SMILES IDX 26 48 27 49 80 50 28 51 85 52 79 53 81 54 29 55 84 56 78 57
REMARK SMILES IDX 77 58 30 60 64 61 43 62 63 63 44 64 47 65 62 66 82 67 45 68
REMARK SMILES IDX 46 69 61 71 83 72 48 73 31 74 32 75 41 76 33 77 34 78 40 79
REMARK SMILES IDX 42 80 35 81 36 82 37 83 38 84 39 85 65 86 66 87 75 88 67 89
REMARK SMILES IDX 68 90 74 91 76 92 69 93 70 94 71 95 72 96 73 97 49 98 50 99
REMARK SMILES IDX 59 100 51 101 52 102 58 103 60 104 53 105 54 106 55 107
REMARK SMILES IDX 56 108 57 109
REMARK H PARENT 12 7 7 11 4 19 92 28 19 40 81 59 47 70
REMARK Flexibility Score: inf
ROOT
ATOM      1  C   UNL A   1      39.271  33.347  30.754  1.00  0.00     0.002 C 
ENDROOT
BRANCH   1   2
ATOM      2  C   UNL A   1      40.383  32.412  31.240  1.00  0.00     0.021 C 
BRANCH   2   3
ATOM      3  C   UNL A   1      40.384  32.192  32.755  1.00  0.00     0.116 C 
BRANCH   3   4
ATOM      4  N   UNL A   1      39.345  31.243  33.092  1.00  0.00    -0.351 N 
ATOM      5  C   UNL A   1      38.431  31.337  34.105  1.00  0.00     0.283 C 
ATOM      6  O   UNL A   1      38.012  30.268  34.572  1.00  0.00    -0.268 OA
ATOM      7  H   UNL A   1      39.290  30.438  32.528  1.00  0.00     0.163 HD
BRANCH   5   8
ATOM      8  C   UNL A   1      37.923  32.740  34.581  1.00  0.00     0.305 C 
BRANCH   8   9
ATOM      9  N   UNL A   1      37.588  32.742  36.033  1.00  0.00    -0.317 N 
ATOM     10  C   UNL A   1      36.665  33.774  36.460  1.00  0.00     0.334 C 
ATOM     11  H   UNL A   1      37.080  31.859  36.076  1.00  0.00     0.349 HD
BRANCH   9  12
ATOM     12  C   UNL A   1      38.689  32.561  36.989  1.00  0.00     0.339 C 
BRANCH  12  13
ATOM     13  C   UNL A   1      38.245  32.608  38.417  1.00  0.00     0.161 A 
ATOM     14  C   UNL A   1      36.984  31.238  41.440  1.00  0.00     0.068 C 
ATOM     15  C   UNL A   1      37.492  32.125  40.373  1.00  0.00     0.056 A 
ATOM     16  C   UNL A   1      37.949  33.421  40.455  1.00  0.00     0.107 A 
ATOM     17  N   UNL A   1      37.610  31.663  39.087  1.00  0.00    -0.233 NA
ATOM     18  N   UNL A   1      38.459  33.702  39.217  1.00  0.00    -0.344 N 
ATOM     19  H   UNL A   1      38.902  34.540  38.948  1.00  0.00     0.167 HD
ENDBRANCH  12  13
ENDBRANCH   9  12
ENDBRANCH   8   9
BRANCH   8  20
ATOM     20  C   UNL A   1      36.749  33.241  33.718  1.00  0.00     0.019 A 
ATOM     21  C   UNL A   1      35.630  32.443  33.443  1.00  0.00     0.012 A 
ATOM     22  C   UNL A   1      36.755  34.542  33.190  1.00  0.00     0.012 A 
ATOM     23  C   UNL A   1      34.464  33.015  32.937  1.00  0.00     0.027 A 
ATOM     24  C   UNL A   1      35.578  35.117  32.703  1.00  0.00     0.027 A 
ATOM     25  C   UNL A   1      34.393  34.388  32.728  1.00  0.00     0.042 A 
BRANCH  25  26
ATOM     26  N   UNL A   1      33.179  35.082  32.581  1.00  0.00    -0.308 N 
ATOM     27  C   UNL A   1      32.728  35.887  31.578  1.00  0.00     0.321 C 
ATOM     28  H   UNL A   1      32.548  34.967  33.329  1.00  0.00     0.171 HD
ATOM     29  O   UNL A   1      31.848  36.712  31.836  1.00  0.00    -0.248 OA
ATOM     30  N   UNL A   1      33.243  35.770  30.318  1.00  0.00    -0.325 N 
ATOM     31  C   UNL A   1      33.518  34.548  29.585  1.00  0.00     0.121 C 
ATOM     32  C   UNL A   1      33.243  36.888  29.403  1.00  0.00     0.121 C 
ATOM     33  C   UNL A   1      34.511  34.995  28.530  1.00  0.00     0.023 C 
ATOM     34  C   UNL A   1      34.091  36.433  28.216  1.00  0.00     0.023 C 
ENDBRANCH  25  26
ENDBRANCH   8  20
ENDBRANCH   5   8
ENDBRANCH   3   4
ENDBRANCH   2   3
ENDBRANCH   1   2
BRANCH   1  35
ATOM     35  C   UNL A   1      38.585  32.903  29.460  1.00  0.00     0.002 C 
BRANCH  35  36
ATOM     36  C   UNL A   1      37.055  32.873  29.526  1.00  0.00     0.021 C 
BRANCH  36  37
ATOM     37  C   UNL A   1      36.488  31.793  30.442  1.00  0.00     0.116 C 
BRANCH  37  38
ATOM     38  N   UNL A   1      35.622  30.876  29.718  1.00  0.00    -0.352 N 
ATOM     39  C   UNL A   1      35.960  29.914  28.803  1.00  0.00     0.251 C 
ATOM     40  H   UNL A   1      34.660  30.958  29.912  1.00  0.00     0.163 HD
ATOM     41  O   UNL A   1      35.088  29.398  28.102  1.00  0.00    -0.269 OA
BRANCH  39  42
ATOM     42  C   UNL A   1      37.372  29.512  28.653  1.00  0.00     0.039 A 
ATOM     43  C   UNL A   1      38.008  29.702  27.425  1.00  0.00     0.014 A 
ATOM     44  C   UNL A   1      38.065  28.946  29.728  1.00  0.00     0.014 A 
ATOM     45  C   UNL A   1      39.359  29.375  27.291  1.00  0.00     0.010 A 
ATOM     46  C   UNL A   1      39.428  28.692  29.615  1.00  0.00     0.010 A 
ATOM     47  C   UNL A   1      40.088  28.896  28.393  1.00  0.00    -0.014 A 
BRANCH  47  48
ATOM     48  C   UNL A   1      41.541  28.605  28.285  1.00  0.00     0.031 A 
ATOM     49  C   UNL A   1      42.008  27.218  27.934  1.00  0.00     0.074 A 
ATOM     50  C   UNL A   1      42.436  29.575  28.557  1.00  0.00     0.049 A 
ATOM     51  N   UNL A   1      43.229  26.757  27.846  1.00  0.00    -0.248 NA
ATOM     52  C   UNL A   1      40.968  26.210  27.673  1.00  0.00     0.031 C 
ATOM     53  C   UNL A   1      42.103  30.945  28.955  1.00  0.00     0.029 A 
ATOM     54  N   UNL A   1      43.808  29.558  28.550  1.00  0.00    -0.354 N 
ATOM     55  C   UNL A   1      43.106  25.410  27.529  1.00  0.00     0.074 A 
ATOM     56  C   UNL A   1      41.691  25.113  27.497  1.00  0.00     0.031 C 
ATOM     57  C   UNL A   1      43.237  31.641  29.131  1.00  0.00     0.029 A 
ATOM     58  C   UNL A   1      44.378  30.760  28.899  1.00  0.00     0.049 A 
ATOM     59  H   UNL A   1      44.335  28.760  28.318  1.00  0.00     0.167 HD
ATOM     60  C   UNL A   1      44.081  24.508  27.265  1.00  0.00     0.037 A 
ATOM     61  C   UNL A   1      45.672  31.111  29.027  1.00  0.00     0.037 A 
ATOM     62  C   UNL A   1      45.487  24.818  27.279  1.00  0.00     0.049 A 
ATOM     63  C   UNL A   1      46.738  30.088  28.740  1.00  0.00     0.074 A 
ATOM     64  C   UNL A   1      46.552  23.992  26.966  1.00  0.00     0.029 A 
ATOM     65  N   UNL A   1      46.025  26.050  27.625  1.00  0.00    -0.354 N 
ATOM     66  N   UNL A   1      46.602  28.835  28.372  1.00  0.00    -0.248 NA
ATOM     67  C   UNL A   1      48.134  30.523  28.881  1.00  0.00     0.031 C 
ATOM     68  C   UNL A   1      47.736  24.708  27.175  1.00  0.00     0.029 A 
ATOM     69  C   UNL A   1      47.407  25.998  27.562  1.00  0.00     0.049 A 
ATOM     70  H   UNL A   1      45.501  26.843  27.879  1.00  0.00     0.167 HD
ATOM     71  C   UNL A   1      47.892  28.342  28.214  1.00  0.00     0.074 A 
ATOM     72  C   UNL A   1      48.795  29.435  28.509  1.00  0.00     0.031 C 
ATOM     73  C   UNL A   1      48.293  27.097  27.856  1.00  0.00     0.037 A 
BRANCH  60  74
ATOM     74  C   UNL A   1      43.663  23.101  26.934  1.00  0.00     0.058 A 
ATOM     75  C   UNL A   1      43.775  22.586  25.631  1.00  0.00     0.135 A 
ATOM     76  C   UNL A   1      43.188  22.242  27.937  1.00  0.00     0.135 A 
ATOM     77  F   UNL A   1      44.209  23.367  24.630  1.00  0.00    -0.206 F 
ATOM     78  C   UNL A   1      43.403  21.280  25.331  1.00  0.00     0.059 A 
ATOM     79  C   UNL A   1      42.839  20.922  27.666  1.00  0.00     0.059 A 
ATOM     80  F   UNL A   1      43.060  22.681  29.199  1.00  0.00    -0.206 F 
ATOM     81  C   UNL A   1      42.938  20.454  26.356  1.00  0.00     0.060 A 
BRANCH  81  82
ATOM     82  S   UNL A   1      42.471  18.758  25.949  1.00  0.00     0.124 S 
ATOM     83  O   UNL A   1      41.065  18.923  25.589  1.00  0.00    -0.237 OA
ATOM     84  O   UNL A   1      43.374  18.442  24.848  1.00  0.00    -0.237 OA
ATOM     85  O   UNL A   1      42.718  18.030  27.190  1.00  0.00    -0.744 OA
ENDBRANCH  81  82
ENDBRANCH  60  74
BRANCH  61  86
ATOM     86  C   UNL A   1      46.033  32.496  29.433  1.00  0.00     0.058 A 
ATOM     87  C   UNL A   1      46.307  33.483  28.475  1.00  0.00     0.135 A 
ATOM     88  C   UNL A   1      46.104  32.863  30.787  1.00  0.00     0.135 A 
ATOM     89  F   UNL A   1      46.258  33.180  27.169  1.00  0.00    -0.206 F 
ATOM     90  C   UNL A   1      46.658  34.778  28.841  1.00  0.00     0.059 A 
ATOM     91  C   UNL A   1      46.425  34.159  31.178  1.00  0.00     0.059 A 
ATOM     92  F   UNL A   1      45.835  31.961  31.744  1.00  0.00    -0.206 F 
ATOM     93  C   UNL A   1      46.712  35.106  30.196  1.00  0.00     0.060 A 
BRANCH  93  94
ATOM     94  S   UNL A   1      47.126  36.802  30.661  1.00  0.00     0.124 S 
ATOM     95  O   UNL A   1      47.680  36.614  31.997  1.00  0.00    -0.237 OA
ATOM     96  O   UNL A   1      48.078  37.180  29.621  1.00  0.00    -0.237 OA
ATOM     97  O   UNL A   1      45.840  37.490  30.601  1.00  0.00    -0.744 OA
ENDBRANCH  93  94
ENDBRANCH  61  86
BRANCH  73  98
ATOM     98  C   UNL A   1      49.773  26.852  27.737  1.00  0.00     0.058 A 
ATOM     99  C   UNL A   1      50.461  27.063  26.533  1.00  0.00     0.135 A 
ATOM    100  C   UNL A   1      50.520  26.455  28.859  1.00  0.00     0.135 A 
ATOM    101  F   UNL A   1      49.793  27.435  25.428  1.00  0.00    -0.206 F 
ATOM    102  C   UNL A   1      51.835  26.871  26.438  1.00  0.00     0.059 A 
ATOM    103  C   UNL A   1      51.899  26.286  28.794  1.00  0.00     0.059 A 
ATOM    104  F   UNL A   1      49.912  26.248  30.037  1.00  0.00    -0.206 F 
ATOM    105  C   UNL A   1      52.546  26.487  27.576  1.00  0.00     0.060 A 
BRANCH 105 106
ATOM    106  S   UNL A   1      54.336  26.281  27.448  1.00  0.00     0.124 S 
ATOM    107  O   UNL A   1      54.747  26.422  28.841  1.00  0.00    -0.237 OA
ATOM    108  O   UNL A   1      54.455  24.940  26.884  1.00  0.00    -0.237 OA
ATOM    109  O   UNL A   1      54.741  27.366  26.561  1.00  0.00    -0.744 OA
ENDBRANCH 105 106
ENDBRANCH  73  98
ENDBRANCH  47  48
ENDBRANCH  39  42
ENDBRANCH  37  38
ENDBRANCH  36  37
ENDBRANCH  35  36
ENDBRANCH   1  35
TORSDOF 21
ENDMDL
