MODEL 1
REMARK VINA RESULT:     -12.0      0.000      0.000
REMARK SMILES O=C(NCCCCCCNC(=O)c1ccc(CN2CC(=O)N3CCCC[C@@H]3C2=O)o1)c1ccc(-c2c3nc(c(-c4c(F)cc(S(=O)(=O)[O-])cc4F)c4ccc([nH]4)c(-c4c(F)cc(S(=O)(=O)[O-])cc4F)c4nc(c(-c5c(F)cc(S(=O)(=O)[O-])cc5F)c5ccc2[nH]5)C=C4)C=C3)cc1
REMARK SMILES IDX 6 1 5 2 4 3 3 4 1 5 2 6 31 8 32 9 96 10 33 11 95 12 34 13
REMARK SMILES IDX 35 14 36 15 89 16 37 17 94 18 88 19 90 20 38 21 93 22 87 23
REMARK SMILES IDX 86 24 39 26 73 27 52 28 72 29 53 30 56 31 71 32 91 33 54 34
REMARK SMILES IDX 55 35 70 37 92 38 57 39 40 40 41 41 50 42 42 43 43 44 49 45
REMARK SMILES IDX 51 46 44 47 45 48 46 49 47 50 48 51 74 52 75 53 84 54 76 55
REMARK SMILES IDX 77 56 83 57 85 58 78 59 79 60 80 61 81 62 82 63 58 64 59 65
REMARK SMILES IDX 68 66 60 67 61 68 67 69 69 70 62 71 63 72 64 73 65 74 66 75
REMARK SMILES IDX 7 76 8 77 9 78 10 79 11 80 12 82 13 83 14 84 30 85 15 86
REMARK SMILES IDX 16 87 17 88 18 89 19 90 28 91 20 92 27 93 29 94 21 95 22 96
REMARK SMILES IDX 26 97 23 98 25 99 24 100
REMARK H PARENT 3 7 90 25 56 36 10 81
REMARK Flexibility Score: inf
ROOT
ATOM      1  C   UNL A   1      39.721  22.534  27.057  1.00  0.00     0.002 C 
ENDROOT
BRANCH   1   2
ATOM      2  C   UNL A   1      41.054  22.049  27.632  1.00  0.00     0.021 C 
BRANCH   2   3
ATOM      3  C   UNL A   1      42.157  23.100  27.670  1.00  0.00     0.116 C 
BRANCH   3   4
ATOM      4  N   UNL A   1      42.279  23.820  26.413  1.00  0.00    -0.352 N 
ATOM      5  O   UNL A   1      42.030  25.546  24.986  1.00  0.00    -0.269 OA
ATOM      6  C   UNL A   1      42.046  25.148  26.147  1.00  0.00     0.251 C 
ATOM      7  H   UNL A   1      42.570  23.280  25.644  1.00  0.00     0.163 HD
BRANCH   6   8
ATOM      8  C   UNL A   1      41.795  26.088  27.261  1.00  0.00     0.039 A 
ATOM      9  C   UNL A   1      42.671  27.146  27.517  1.00  0.00     0.014 A 
ATOM     10  C   UNL A   1      40.658  25.911  28.057  1.00  0.00     0.014 A 
ATOM     11  C   UNL A   1      42.486  27.941  28.643  1.00  0.00     0.010 A 
ATOM     12  C   UNL A   1      40.431  26.763  29.141  1.00  0.00     0.010 A 
ATOM     13  C   UNL A   1      41.358  27.768  29.460  1.00  0.00    -0.014 A 
BRANCH  13  14
ATOM     14  C   UNL A   1      41.133  28.681  30.610  1.00  0.00     0.031 A 
ATOM     15  C   UNL A   1      41.978  28.590  31.850  1.00  0.00     0.074 A 
ATOM     16  C   UNL A   1      40.154  29.602  30.523  1.00  0.00     0.049 A 
ATOM     17  N   UNL A   1      41.899  29.289  32.953  1.00  0.00    -0.248 NA
ATOM     18  C   UNL A   1      43.045  27.576  31.859  1.00  0.00     0.031 C 
ATOM     19  C   UNL A   1      39.265  29.779  29.372  1.00  0.00     0.029 A 
ATOM     20  N   UNL A   1      39.742  30.563  31.411  1.00  0.00    -0.354 N 
ATOM     21  C   UNL A   1      42.889  28.793  33.794  1.00  0.00     0.074 A 
ATOM     22  C   UNL A   1      43.539  27.714  33.082  1.00  0.00     0.031 C 
ATOM     23  C   UNL A   1      38.433  30.804  29.611  1.00  0.00     0.029 A 
ATOM     24  C   UNL A   1      38.685  31.315  30.954  1.00  0.00     0.049 A 
ATOM     25  H   UNL A   1      40.161  30.701  32.291  1.00  0.00     0.167 HD
ATOM     26  C   UNL A   1      43.226  29.206  35.041  1.00  0.00     0.037 A 
ATOM     27  C   UNL A   1      37.979  32.290  31.555  1.00  0.00     0.037 A 
ATOM     28  C   UNL A   1      42.573  30.288  35.737  1.00  0.00     0.049 A 
ATOM     29  C   UNL A   1      38.351  32.709  32.947  1.00  0.00     0.074 A 
ATOM     30  C   UNL A   1      42.862  30.802  36.989  1.00  0.00     0.029 A 
ATOM     31  N   UNL A   1      41.497  31.013  35.247  1.00  0.00    -0.354 N 
ATOM     32  N   UNL A   1      39.309  32.249  33.715  1.00  0.00    -0.248 NA
ATOM     33  C   UNL A   1      37.547  33.776  33.557  1.00  0.00     0.031 C 
ATOM     34  C   UNL A   1      41.930  31.806  37.277  1.00  0.00     0.029 A 
ATOM     35  C   UNL A   1      41.094  31.956  36.181  1.00  0.00     0.049 A 
ATOM     36  H   UNL A   1      41.080  30.879  34.366  1.00  0.00     0.167 HD
ATOM     37  C   UNL A   1      39.240  32.986  34.891  1.00  0.00     0.074 A 
ATOM     38  C   UNL A   1      38.151  33.929  34.728  1.00  0.00     0.031 C 
ATOM     39  C   UNL A   1      40.010  32.892  36.003  1.00  0.00     0.037 A 
BRANCH  26  40
ATOM     40  C   UNL A   1      44.337  28.471  35.745  1.00  0.00     0.058 A 
ATOM     41  C   UNL A   1      44.086  27.370  36.578  1.00  0.00     0.135 A 
ATOM     42  C   UNL A   1      45.674  28.855  35.557  1.00  0.00     0.135 A 
ATOM     43  F   UNL A   1      42.826  26.964  36.804  1.00  0.00    -0.206 F 
ATOM     44  C   UNL A   1      45.117  26.698  37.227  1.00  0.00     0.059 A 
ATOM     45  C   UNL A   1      46.725  28.180  36.174  1.00  0.00     0.059 A 
ATOM     46  F   UNL A   1      45.974  29.899  34.767  1.00  0.00    -0.206 F 
ATOM     47  C   UNL A   1      46.434  27.113  37.022  1.00  0.00     0.060 A 
BRANCH  47  48
ATOM     48  S   UNL A   1      47.759  26.241  37.885  1.00  0.00     0.124 S 
ATOM     49  O   UNL A   1      47.805  26.965  39.152  1.00  0.00    -0.237 OA
ATOM     50  O   UNL A   1      47.242  24.878  37.955  1.00  0.00    -0.237 OA
ATOM     51  O   UNL A   1      48.914  26.427  37.013  1.00  0.00    -0.744 OA
ENDBRANCH  47  48
ENDBRANCH  26  40
BRANCH  27  52
ATOM     52  C   UNL A   1      36.848  32.926  30.830  1.00  0.00     0.058 A 
ATOM     53  C   UNL A   1      35.521  32.561  31.096  1.00  0.00     0.135 A 
ATOM     54  C   UNL A   1      37.072  33.945  29.889  1.00  0.00     0.135 A 
ATOM     55  F   UNL A   1      35.258  31.590  31.984  1.00  0.00    -0.206 F 
ATOM     56  C   UNL A   1      34.454  33.179  30.453  1.00  0.00     0.059 A 
ATOM     57  C   UNL A   1      36.020  34.597  29.254  1.00  0.00     0.059 A 
ATOM     58  F   UNL A   1      38.324  34.343  29.613  1.00  0.00    -0.206 F 
ATOM     59  C   UNL A   1      34.714  34.201  29.539  1.00  0.00     0.060 A 
BRANCH  59  60
ATOM     60  S   UNL A   1      33.318  35.043  28.760  1.00  0.00     0.124 S 
ATOM     61  O   UNL A   1      32.556  35.481  29.923  1.00  0.00    -0.237 OA
ATOM     62  O   UNL A   1      33.983  36.094  27.997  1.00  0.00    -0.237 OA
ATOM     63  O   UNL A   1      32.699  33.993  27.957  1.00  0.00    -0.744 OA
ENDBRANCH  59  60
ENDBRANCH  27  52
BRANCH  39  64
ATOM     64  C   UNL A   1      39.729  33.857  37.121  1.00  0.00     0.058 A 
ATOM     65  C   UNL A   1      38.925  33.507  38.217  1.00  0.00     0.135 A 
ATOM     66  C   UNL A   1      40.313  35.134  37.117  1.00  0.00     0.135 A 
ATOM     67  F   UNL A   1      38.335  32.302  38.266  1.00  0.00    -0.206 F 
ATOM     68  C   UNL A   1      38.694  34.398  39.261  1.00  0.00     0.059 A 
ATOM     69  C   UNL A   1      40.118  36.030  38.163  1.00  0.00     0.059 A 
ATOM     70  F   UNL A   1      41.096  35.517  36.096  1.00  0.00    -0.206 F 
ATOM     71  C   UNL A   1      39.297  35.656  39.226  1.00  0.00     0.060 A 
BRANCH  71  72
ATOM     72  S   UNL A   1      39.021  36.788  40.605  1.00  0.00     0.124 S 
ATOM     73  O   UNL A   1      38.510  37.969  39.916  1.00  0.00    -0.237 OA
ATOM     74  O   UNL A   1      38.052  36.060  41.418  1.00  0.00    -0.237 OA
ATOM     75  O   UNL A   1      40.347  36.931  41.198  1.00  0.00    -0.744 OA
ENDBRANCH  71  72
ENDBRANCH  39  64
ENDBRANCH  13  14
ENDBRANCH   6   8
ENDBRANCH   3   4
ENDBRANCH   2   3
ENDBRANCH   1   2
BRANCH   1  76
ATOM     76  C   UNL A   1      39.100  21.629  25.988  1.00  0.00     0.002 C 
BRANCH  76  77
ATOM     77  C   UNL A   1      37.838  22.177  25.314  1.00  0.00     0.021 C 
BRANCH  77  78
ATOM     78  C   UNL A   1      36.633  21.238  25.345  1.00  0.00     0.116 C 
BRANCH  78  79
ATOM     79  N   UNL A   1      35.760  21.520  26.470  1.00  0.00    -0.349 N 
ATOM     80  C   UNL A   1      34.427  21.850  26.453  1.00  0.00     0.286 C 
ATOM     81  H   UNL A   1      36.179  21.468  27.360  1.00  0.00     0.163 HD
ATOM     82  O   UNL A   1      33.917  22.238  27.509  1.00  0.00    -0.266 OA
BRANCH  80  83
ATOM     83  C   UNL A   1      33.696  21.718  25.216  1.00  0.00     0.191 A 
ATOM     84  C   UNL A   1      32.839  20.747  24.729  1.00  0.00     0.056 A 
ATOM     85  O   UNL A   1      33.807  22.718  24.297  1.00  0.00    -0.454 OA
ATOM     86  C   UNL A   1      32.424  21.173  23.441  1.00  0.00     0.048 A 
ATOM     87  C   UNL A   1      33.042  22.385  23.217  1.00  0.00     0.124 A 
BRANCH  87  88
ATOM     88  C   UNL A   1      32.995  23.395  22.120  1.00  0.00     0.195 C 
BRANCH  88  89
ATOM     89  N   UNL A   1      32.409  24.597  22.684  1.00  0.00    -0.324 N 
ATOM     90  C   UNL A   1      31.105  24.550  23.309  1.00  0.00     0.220 C 
ATOM     91  C   UNL A   1      32.971  25.836  22.404  1.00  0.00     0.246 C 
ATOM     92  C   UNL A   1      30.870  25.582  24.417  1.00  0.00     0.242 C 
ATOM     93  C   UNL A   1      32.923  26.749  23.645  1.00  0.00     0.174 C 
ATOM     94  O   UNL A   1      33.682  26.049  21.426  1.00  0.00    -0.272 OA
ATOM     95  O   UNL A   1      29.933  25.443  25.206  1.00  0.00    -0.273 OA
ATOM     96  N   UNL A   1      31.623  26.754  24.337  1.00  0.00    -0.329 N 
ATOM     97  C   UNL A   1      33.398  28.158  23.283  1.00  0.00     0.035 C 
ATOM     98  C   UNL A   1      31.447  27.724  25.413  1.00  0.00     0.120 C 
ATOM     99  C   UNL A   1      33.357  29.078  24.496  1.00  0.00     0.004 C 
ATOM    100  C   UNL A   1      31.946  29.120  25.063  1.00  0.00     0.022 C 
ENDBRANCH  88  89
ENDBRANCH  87  88
ENDBRANCH  80  83
ENDBRANCH  78  79
ENDBRANCH  77  78
ENDBRANCH  76  77
ENDBRANCH   1  76
TORSDOF 18
ENDMDL
MODEL 2
REMARK VINA RESULT:     -11.9      1.152      2.097
REMARK SMILES O=C(NCCCCCCNC(=O)c1ccc(CN2CC(=O)N3CCCC[C@@H]3C2=O)o1)c1ccc(-c2c3nc(c(-c4c(F)cc(S(=O)(=O)[O-])cc4F)c4ccc([nH]4)c(-c4c(F)cc(S(=O)(=O)[O-])cc4F)c4nc(c(-c5c(F)cc(S(=O)(=O)[O-])cc5F)c5ccc2[nH]5)C=C4)C=C3)cc1
REMARK SMILES IDX 6 1 5 2 4 3 3 4 1 5 2 6 31 8 32 9 96 10 33 11 95 12 34 13
REMARK SMILES IDX 35 14 36 15 89 16 37 17 94 18 88 19 90 20 38 21 93 22 87 23
REMARK SMILES IDX 86 24 39 26 73 27 52 28 72 29 53 30 56 31 71 32 91 33 54 34
REMARK SMILES IDX 55 35 70 37 92 38 57 39 40 40 41 41 50 42 42 43 43 44 49 45
REMARK SMILES IDX 51 46 44 47 45 48 46 49 47 50 48 51 74 52 75 53 84 54 76 55
REMARK SMILES IDX 77 56 83 57 85 58 78 59 79 60 80 61 81 62 82 63 58 64 59 65
REMARK SMILES IDX 68 66 60 67 61 68 67 69 69 70 62 71 63 72 64 73 65 74 66 75
REMARK SMILES IDX 7 76 8 77 9 78 10 79 11 80 12 82 13 83 14 84 30 85 15 86
REMARK SMILES IDX 16 87 17 88 18 89 19 90 28 91 20 92 27 93 29 94 21 95 22 96
REMARK SMILES IDX 26 97 23 98 25 99 24 100
REMARK H PARENT 3 7 90 25 56 36 10 81
REMARK Flexibility Score: inf
ROOT
ATOM      1  C   UNL A   1      37.496  22.299  24.975  1.00  0.00     0.002 C 
ENDROOT
BRANCH   1   2
ATOM      2  C   UNL A   1      37.293  23.683  25.594  1.00  0.00     0.021 C 
BRANCH   2   3
ATOM      3  C   UNL A   1      38.335  24.081  26.633  1.00  0.00     0.116 C 
BRANCH   3   4
ATOM      4  N   UNL A   1      39.693  23.969  26.126  1.00  0.00    -0.352 N 
ATOM      5  O   UNL A   1      41.831  24.594  25.784  1.00  0.00    -0.269 OA
ATOM      6  C   UNL A   1      40.803  24.714  26.444  1.00  0.00     0.251 C 
ATOM      7  H   UNL A   1      39.838  23.258  25.460  1.00  0.00     0.163 HD
BRANCH   6   8
ATOM      8  C   UNL A   1      40.746  25.674  27.568  1.00  0.00     0.039 A 
ATOM      9  C   UNL A   1      39.755  25.572  28.547  1.00  0.00     0.014 A 
ATOM     10  C   UNL A   1      41.707  26.687  27.646  1.00  0.00     0.014 A 
ATOM     11  C   UNL A   1      39.641  26.556  29.523  1.00  0.00     0.010 A 
ATOM     12  C   UNL A   1      41.640  27.628  28.677  1.00  0.00     0.010 A 
ATOM     13  C   UNL A   1      40.590  27.588  29.608  1.00  0.00    -0.014 A 
BRANCH  13  14
ATOM     14  C   UNL A   1      40.502  28.581  30.708  1.00  0.00     0.031 A 
ATOM     15  C   UNL A   1      41.392  28.483  31.916  1.00  0.00     0.074 A 
ATOM     16  C   UNL A   1      39.607  29.583  30.606  1.00  0.00     0.049 A 
ATOM     17  N   UNL A   1      41.428  29.248  32.977  1.00  0.00    -0.248 NA
ATOM     18  C   UNL A   1      42.363  27.377  31.942  1.00  0.00     0.031 C 
ATOM     19  C   UNL A   1      38.684  29.776  29.484  1.00  0.00     0.029 A 
ATOM     20  N   UNL A   1      39.324  30.626  31.450  1.00  0.00    -0.354 N 
ATOM     21  C   UNL A   1      42.407  28.711  33.805  1.00  0.00     0.074 A 
ATOM     22  C   UNL A   1      42.924  27.537  33.133  1.00  0.00     0.031 C 
ATOM     23  C   UNL A   1      37.960  30.885  29.695  1.00  0.00     0.029 A 
ATOM     24  C   UNL A   1      38.319  31.446  30.993  1.00  0.00     0.049 A 
ATOM     25  H   UNL A   1      39.795  30.774  32.302  1.00  0.00     0.167 HD
ATOM     26  C   UNL A   1      42.837  29.161  35.010  1.00  0.00     0.037 A 
ATOM     27  C   UNL A   1      37.732  32.514  31.562  1.00  0.00     0.037 A 
ATOM     28  C   UNL A   1      42.317  30.336  35.665  1.00  0.00     0.049 A 
ATOM     29  C   UNL A   1      38.204  32.975  32.910  1.00  0.00     0.074 A 
ATOM     30  C   UNL A   1      42.709  30.891  36.871  1.00  0.00     0.029 A 
ATOM     31  N   UNL A   1      41.289  31.129  35.177  1.00  0.00    -0.354 N 
ATOM     32  N   UNL A   1      39.152  32.473  33.664  1.00  0.00    -0.248 NA
ATOM     33  C   UNL A   1      37.528  34.144  33.487  1.00  0.00     0.031 C 
ATOM     34  C   UNL A   1      41.885  31.991  37.135  1.00  0.00     0.029 A 
ATOM     35  C   UNL A   1      41.016  32.156  36.067  1.00  0.00     0.049 A 
ATOM     36  H   UNL A   1      40.821  30.984  34.323  1.00  0.00     0.167 HD
ATOM     37  C   UNL A   1      39.204  33.278  34.795  1.00  0.00     0.074 A 
ATOM     38  C   UNL A   1      38.198  34.307  34.620  1.00  0.00     0.031 C 
ATOM     39  C   UNL A   1      40.013  33.176  35.879  1.00  0.00     0.037 A 
BRANCH  26  40
ATOM     40  C   UNL A   1      43.909  28.367  35.710  1.00  0.00     0.058 A 
ATOM     41  C   UNL A   1      45.274  28.622  35.505  1.00  0.00     0.135 A 
ATOM     42  C   UNL A   1      43.565  27.359  36.625  1.00  0.00     0.135 A 
ATOM     43  F   UNL A   1      45.663  29.566  34.632  1.00  0.00    -0.206 F 
ATOM     44  C   UNL A   1      46.259  27.883  36.153  1.00  0.00     0.059 A 
ATOM     45  C   UNL A   1      44.533  26.625  37.307  1.00  0.00     0.059 A 
ATOM     46  F   UNL A   1      42.274  27.075  36.865  1.00  0.00    -0.206 F 
ATOM     47  C   UNL A   1      45.877  26.883  37.050  1.00  0.00     0.060 A 
BRANCH  47  48
ATOM     48  S   UNL A   1      47.168  25.922  37.871  1.00  0.00     0.124 S 
ATOM     49  O   UNL A   1      48.316  26.184  37.009  1.00  0.00    -0.237 OA
ATOM     50  O   UNL A   1      47.219  26.534  39.195  1.00  0.00    -0.237 OA
ATOM     51  O   UNL A   1      46.652  24.558  37.833  1.00  0.00    -0.744 OA
ENDBRANCH  47  48
ENDBRANCH  26  40
BRANCH  27  52
ATOM     52  C   UNL A   1      36.630  33.210  30.847  1.00  0.00     0.058 A 
ATOM     53  C   UNL A   1      35.297  33.065  31.255  1.00  0.00     0.135 A 
ATOM     54  C   UNL A   1      36.896  34.071  29.768  1.00  0.00     0.135 A 
ATOM     55  F   UNL A   1      34.994  32.250  32.277  1.00  0.00    -0.206 F 
ATOM     56  C   UNL A   1      34.264  33.744  30.619  1.00  0.00     0.059 A 
ATOM     57  C   UNL A   1      35.882  34.782  29.135  1.00  0.00     0.059 A 
ATOM     58  F   UNL A   1      38.158  34.257  29.352  1.00  0.00    -0.206 F 
ATOM     59  C   UNL A   1      34.568  34.606  29.564  1.00  0.00     0.060 A 
BRANCH  59  60
ATOM     60  S   UNL A   1      33.226  35.533  28.789  1.00  0.00     0.124 S 
ATOM     61  O   UNL A   1      33.964  36.507  27.994  1.00  0.00    -0.237 OA
ATOM     62  O   UNL A   1      32.529  34.493  28.040  1.00  0.00    -0.237 OA
ATOM     63  O   UNL A   1      32.490  36.074  29.928  1.00  0.00    -0.744 OA
ENDBRANCH  59  60
ENDBRANCH  27  52
BRANCH  39  64
ATOM     64  C   UNL A   1      39.873  34.225  36.946  1.00  0.00     0.058 A 
ATOM     65  C   UNL A   1      40.445  35.499  36.812  1.00  0.00     0.135 A 
ATOM     66  C   UNL A   1      39.114  33.965  38.098  1.00  0.00     0.135 A 
ATOM     67  F   UNL A   1      41.189  35.797  35.734  1.00  0.00    -0.206 F 
ATOM     68  C   UNL A   1      40.286  36.474  37.793  1.00  0.00     0.059 A 
ATOM     69  C   UNL A   1      38.919  34.932  39.078  1.00  0.00     0.059 A 
ATOM     70  F   UNL A   1      38.539  32.764  38.273  1.00  0.00    -0.206 F 
ATOM     71  C   UNL A   1      39.519  36.181  38.921  1.00  0.00     0.060 A 
BRANCH  71  72
ATOM     72  S   UNL A   1      39.287  37.466  40.168  1.00  0.00     0.124 S 
ATOM     73  O   UNL A   1      38.930  36.675  41.342  1.00  0.00    -0.237 OA
ATOM     74  O   UNL A   1      40.599  38.103  40.208  1.00  0.00    -0.237 OA
ATOM     75  O   UNL A   1      38.215  38.288  39.615  1.00  0.00    -0.744 OA
ENDBRANCH  71  72
ENDBRANCH  39  64
ENDBRANCH  13  14
ENDBRANCH   6   8
ENDBRANCH   3   4
ENDBRANCH   2   3
ENDBRANCH   1   2
BRANCH   1  76
ATOM     76  C   UNL A   1      36.245  21.667  24.357  1.00  0.00     0.002 C 
BRANCH  76  77
ATOM     77  C   UNL A   1      35.785  20.354  24.999  1.00  0.00     0.021 C 
BRANCH  77  78
ATOM     78  C   UNL A   1      34.287  20.269  25.289  1.00  0.00     0.116 C 
BRANCH  78  79
ATOM     79  N   UNL A   1      33.959  20.823  26.590  1.00  0.00    -0.349 N 
ATOM     80  C   UNL A   1      33.214  21.941  26.877  1.00  0.00     0.286 C 
ATOM     81  H   UNL A   1      34.317  20.333  27.366  1.00  0.00     0.163 HD
ATOM     82  O   UNL A   1      33.215  22.348  28.043  1.00  0.00    -0.266 OA
BRANCH  80  83
ATOM     83  C   UNL A   1      32.471  22.571  25.813  1.00  0.00     0.191 A 
ATOM     84  C   UNL A   1      31.116  22.720  25.574  1.00  0.00     0.056 A 
ATOM     85  O   UNL A   1      33.171  23.177  24.814  1.00  0.00    -0.454 OA
ATOM     86  C   UNL A   1      30.991  23.438  24.356  1.00  0.00     0.048 A 
ATOM     87  C   UNL A   1      32.275  23.698  23.926  1.00  0.00     0.124 A 
BRANCH  87  88
ATOM     88  C   UNL A   1      32.861  24.454  22.782  1.00  0.00     0.195 C 
BRANCH  88  89
ATOM     89  N   UNL A   1      32.559  25.855  23.009  1.00  0.00    -0.324 N 
ATOM     90  C   UNL A   1      31.756  26.592  22.057  1.00  0.00     0.220 C 
ATOM     91  C   UNL A   1      33.242  26.558  23.993  1.00  0.00     0.246 C 
ATOM     92  C   UNL A   1      30.943  27.751  22.642  1.00  0.00     0.242 C 
ATOM     93  C   UNL A   1      32.299  27.541  24.713  1.00  0.00     0.174 C 
ATOM     94  O   UNL A   1      34.336  26.216  24.430  1.00  0.00    -0.272 OA
ATOM     95  O   UNL A   1      30.015  28.245  22.000  1.00  0.00    -0.273 OA
ATOM     96  N   UNL A   1      31.446  28.330  23.808  1.00  0.00    -0.329 N 
ATOM     97  C   UNL A   1      33.092  28.420  25.683  1.00  0.00     0.035 C 
ATOM     98  C   UNL A   1      30.656  29.402  24.405  1.00  0.00     0.120 C 
ATOM     99  C   UNL A   1      32.179  29.400  26.407  1.00  0.00     0.004 C 
ATOM    100  C   UNL A   1      31.439  30.259  25.392  1.00  0.00     0.022 C 
ENDBRANCH  88  89
ENDBRANCH  87  88
ENDBRANCH  80  83
ENDBRANCH  78  79
ENDBRANCH  77  78
ENDBRANCH  76  77
ENDBRANCH   1  76
TORSDOF 18
ENDMDL
MODEL 3
REMARK VINA RESULT:     -11.8      0.981      1.746
REMARK SMILES O=C(NCCCCCCNC(=O)c1ccc(CN2CC(=O)N3CCCC[C@@H]3C2=O)o1)c1ccc(-c2c3nc(c(-c4c(F)cc(S(=O)(=O)[O-])cc4F)c4ccc([nH]4)c(-c4c(F)cc(S(=O)(=O)[O-])cc4F)c4nc(c(-c5c(F)cc(S(=O)(=O)[O-])cc5F)c5ccc2[nH]5)C=C4)C=C3)cc1
REMARK SMILES IDX 6 1 5 2 4 3 3 4 1 5 2 6 31 8 32 9 96 10 33 11 95 12 34 13
REMARK SMILES IDX 35 14 36 15 89 16 37 17 94 18 88 19 90 20 38 21 93 22 87 23
REMARK SMILES IDX 86 24 39 26 73 27 52 28 72 29 53 30 56 31 71 32 91 33 54 34
REMARK SMILES IDX 55 35 70 37 92 38 57 39 40 40 41 41 50 42 42 43 43 44 49 45
REMARK SMILES IDX 51 46 44 47 45 48 46 49 47 50 48 51 74 52 75 53 84 54 76 55
REMARK SMILES IDX 77 56 83 57 85 58 78 59 79 60 80 61 81 62 82 63 58 64 59 65
REMARK SMILES IDX 68 66 60 67 61 68 67 69 69 70 62 71 63 72 64 73 65 74 66 75
REMARK SMILES IDX 7 76 8 77 9 78 10 79 11 80 12 82 13 83 14 84 30 85 15 86
REMARK SMILES IDX 16 87 17 88 18 89 19 90 28 91 20 92 27 93 29 94 21 95 22 96
REMARK SMILES IDX 26 97 23 98 25 99 24 100
REMARK H PARENT 3 7 90 25 56 36 10 81
REMARK Flexibility Score: inf
ROOT
ATOM      1  C   UNL A   1      41.110  22.384  26.698  1.00  0.00     0.002 C 
ENDROOT
BRANCH   1   2
ATOM      2  C   UNL A   1      42.196  22.466  27.773  1.00  0.00     0.021 C 
BRANCH   2   3
ATOM      3  C   UNL A   1      43.298  23.481  27.496  1.00  0.00     0.116 C 
BRANCH   3   4
ATOM      4  N   UNL A   1      43.101  24.183  26.238  1.00  0.00    -0.352 N 
ATOM      5  O   UNL A   1      42.305  25.781  24.864  1.00  0.00    -0.269 OA
ATOM      6  C   UNL A   1      42.554  25.423  26.011  1.00  0.00     0.251 C 
ATOM      7  H   UNL A   1      43.404  23.701  25.435  1.00  0.00     0.163 HD
BRANCH   6   8
ATOM      8  C   UNL A   1      42.246  26.310  27.154  1.00  0.00     0.039 A 
ATOM      9  C   UNL A   1      42.976  27.482  27.366  1.00  0.00     0.014 A 
ATOM     10  C   UNL A   1      41.204  25.967  28.020  1.00  0.00     0.014 A 
ATOM     11  C   UNL A   1      42.757  28.237  28.514  1.00  0.00     0.010 A 
ATOM     12  C   UNL A   1      40.931  26.771  29.130  1.00  0.00     0.010 A 
ATOM     13  C   UNL A   1      41.723  27.898  29.402  1.00  0.00    -0.014 A 
BRANCH  13  14
ATOM     14  C   UNL A   1      41.449  28.763  30.577  1.00  0.00     0.031 A 
ATOM     15  C   UNL A   1      42.284  28.667  31.824  1.00  0.00     0.074 A 
ATOM     16  C   UNL A   1      40.432  29.645  30.509  1.00  0.00     0.049 A 
ATOM     17  N   UNL A   1      42.165  29.327  32.948  1.00  0.00    -0.248 NA
ATOM     18  C   UNL A   1      43.393  27.700  31.812  1.00  0.00     0.031 C 
ATOM     19  C   UNL A   1      39.548  29.821  29.354  1.00  0.00     0.029 A 
ATOM     20  N   UNL A   1      39.971  30.558  31.422  1.00  0.00    -0.354 N 
ATOM     21  C   UNL A   1      43.167  28.846  33.784  1.00  0.00     0.074 A 
ATOM     22  C   UNL A   1      43.869  27.818  33.045  1.00  0.00     0.031 C 
ATOM     23  C   UNL A   1      38.671  30.801  29.617  1.00  0.00     0.029 A 
ATOM     24  C   UNL A   1      38.888  31.279  30.978  1.00  0.00     0.049 A 
ATOM     25  H   UNL A   1      40.376  30.685  32.311  1.00  0.00     0.167 HD
ATOM     26  C   UNL A   1      43.473  29.232  35.047  1.00  0.00     0.037 A 
ATOM     27  C   UNL A   1      38.135  32.204  31.602  1.00  0.00     0.037 A 
ATOM     28  C   UNL A   1      42.768  30.262  35.769  1.00  0.00     0.049 A 
ATOM     29  C   UNL A   1      38.475  32.592  33.011  1.00  0.00     0.074 A 
ATOM     30  C   UNL A   1      43.022  30.747  37.041  1.00  0.00     0.029 A 
ATOM     31  N   UNL A   1      41.667  30.957  35.291  1.00  0.00    -0.354 N 
ATOM     32  N   UNL A   1      39.444  32.149  33.775  1.00  0.00    -0.248 NA
ATOM     33  C   UNL A   1      37.620  33.605  33.645  1.00  0.00     0.031 C 
ATOM     34  C   UNL A   1      42.045  31.701  37.349  1.00  0.00     0.029 A 
ATOM     35  C   UNL A   1      41.215  31.852  36.249  1.00  0.00     0.049 A 
ATOM     36  H   UNL A   1      41.265  30.834  34.401  1.00  0.00     0.167 HD
ATOM     37  C   UNL A   1      39.332  32.844  34.973  1.00  0.00     0.074 A 
ATOM     38  C   UNL A   1      38.206  33.745  34.827  1.00  0.00     0.031 C 
ATOM     39  C   UNL A   1      40.094  32.746  36.090  1.00  0.00     0.037 A 
BRANCH  26  40
ATOM     40  C   UNL A   1      44.607  28.522  35.739  1.00  0.00     0.058 A 
ATOM     41  C   UNL A   1      44.397  27.376  36.522  1.00  0.00     0.135 A 
ATOM     42  C   UNL A   1      45.927  28.977  35.591  1.00  0.00     0.135 A 
ATOM     43  F   UNL A   1      43.154  26.901  36.708  1.00  0.00    -0.206 F 
ATOM     44  C   UNL A   1      45.449  26.727  37.160  1.00  0.00     0.059 A 
ATOM     45  C   UNL A   1      46.999  28.328  36.199  1.00  0.00     0.059 A 
ATOM     46  F   UNL A   1      46.188  30.067  34.851  1.00  0.00    -0.206 F 
ATOM     47  C   UNL A   1      46.747  27.214  36.996  1.00  0.00     0.060 A 
BRANCH  47  48
ATOM     48  S   UNL A   1      48.099  26.370  37.846  1.00  0.00     0.124 S 
ATOM     49  O   UNL A   1      47.557  26.242  39.196  1.00  0.00    -0.237 OA
ATOM     50  O   UNL A   1      48.215  25.126  37.091  1.00  0.00    -0.237 OA
ATOM     51  O   UNL A   1      49.220  27.294  37.704  1.00  0.00    -0.744 OA
ENDBRANCH  47  48
ENDBRANCH  26  40
BRANCH  27  52
ATOM     52  C   UNL A   1      36.985  32.815  30.884  1.00  0.00     0.058 A 
ATOM     53  C   UNL A   1      35.670  32.413  31.151  1.00  0.00     0.135 A 
ATOM     54  C   UNL A   1      37.179  33.847  29.951  1.00  0.00     0.135 A 
ATOM     55  F   UNL A   1      35.435  31.428  32.032  1.00  0.00    -0.206 F 
ATOM     56  C   UNL A   1      34.584  33.007  30.516  1.00  0.00     0.059 A 
ATOM     57  C   UNL A   1      36.108  34.475  29.324  1.00  0.00     0.059 A 
ATOM     58  F   UNL A   1      38.419  34.280  29.675  1.00  0.00    -0.206 F 
ATOM     59  C   UNL A   1      34.815  34.043  29.609  1.00  0.00     0.060 A 
BRANCH  59  60
ATOM     60  S   UNL A   1      33.395  34.852  28.841  1.00  0.00     0.124 S 
ATOM     61  O   UNL A   1      34.010  36.045  28.272  1.00  0.00    -0.237 OA
ATOM     62  O   UNL A   1      32.950  33.844  27.884  1.00  0.00    -0.237 OA
ATOM     63  O   UNL A   1      32.490  35.080  29.964  1.00  0.00    -0.744 OA
ENDBRANCH  59  60
ENDBRANCH  27  52
BRANCH  39  64
ATOM     64  C   UNL A   1      39.762  33.662  37.235  1.00  0.00     0.058 A 
ATOM     65  C   UNL A   1      38.865  33.286  38.247  1.00  0.00     0.135 A 
ATOM     66  C   UNL A   1      40.386  34.915  37.343  1.00  0.00     0.135 A 
ATOM     67  F   UNL A   1      38.233  32.103  38.186  1.00  0.00    -0.206 F 
ATOM     68  C   UNL A   1      38.585  34.130  39.318  1.00  0.00     0.059 A 
ATOM     69  C   UNL A   1      40.142  35.762  38.419  1.00  0.00     0.059 A 
ATOM     70  F   UNL A   1      41.257  35.320  36.405  1.00  0.00    -0.206 F 
ATOM     71  C   UNL A   1      39.231  35.364  39.396  1.00  0.00     0.060 A 
BRANCH  71  72
ATOM     72  S   UNL A   1      38.888  36.433  40.811  1.00  0.00     0.124 S 
ATOM     73  O   UNL A   1      37.848  35.679  41.503  1.00  0.00    -0.237 OA
ATOM     74  O   UNL A   1      40.183  36.489  41.481  1.00  0.00    -0.237 OA
ATOM     75  O   UNL A   1      38.454  37.683  40.194  1.00  0.00    -0.744 OA
ENDBRANCH  71  72
ENDBRANCH  39  64
ENDBRANCH  13  14
ENDBRANCH   6   8
ENDBRANCH   3   4
ENDBRANCH   2   3
ENDBRANCH   1   2
BRANCH   1  76
ATOM     76  C   UNL A   1      39.686  22.679  27.180  1.00  0.00     0.002 C 
BRANCH  76  77
ATOM     77  C   UNL A   1      38.965  23.815  26.448  1.00  0.00     0.021 C 
BRANCH  77  78
ATOM     78  C   UNL A   1      37.757  23.382  25.618  1.00  0.00     0.116 C 
BRANCH  78  79
ATOM     79  N   UNL A   1      37.906  22.028  25.118  1.00  0.00    -0.349 N 
ATOM     80  C   UNL A   1      36.975  21.018  25.104  1.00  0.00     0.286 C 
ATOM     81  H   UNL A   1      38.788  21.805  24.742  1.00  0.00     0.163 HD
ATOM     82  O   UNL A   1      37.364  19.882  24.809  1.00  0.00    -0.266 OA
BRANCH  80  83
ATOM     83  C   UNL A   1      35.604  21.334  25.421  1.00  0.00     0.191 A 
ATOM     84  C   UNL A   1      34.947  21.574  26.615  1.00  0.00     0.056 A 
ATOM     85  O   UNL A   1      34.720  21.454  24.392  1.00  0.00    -0.454 OA
ATOM     86  C   UNL A   1      33.590  21.834  26.293  1.00  0.00     0.048 A 
ATOM     87  C   UNL A   1      33.496  21.751  24.919  1.00  0.00     0.124 A 
BRANCH  87  88
ATOM     88  C   UNL A   1      32.401  21.976  23.931  1.00  0.00     0.195 C 
BRANCH  88  89
ATOM     89  N   UNL A   1      32.278  23.412  23.763  1.00  0.00    -0.324 N 
ATOM     90  C   UNL A   1      33.332  24.164  23.117  1.00  0.00     0.220 C 
ATOM     91  C   UNL A   1      31.282  24.104  24.441  1.00  0.00     0.246 C 
ATOM     92  C   UNL A   1      32.881  25.434  22.390  1.00  0.00     0.242 C 
ATOM     93  C   UNL A   1      30.697  25.221  23.555  1.00  0.00     0.174 C 
ATOM     94  O   UNL A   1      30.738  23.681  25.456  1.00  0.00    -0.272 OA
ATOM     95  O   UNL A   1      33.624  25.978  21.570  1.00  0.00    -0.273 OA
ATOM     96  N   UNL A   1      31.712  26.033  22.861  1.00  0.00    -0.329 N 
ATOM     97  C   UNL A   1      29.717  26.075  24.361  1.00  0.00     0.035 C 
ATOM     98  C   UNL A   1      31.242  27.215  22.146  1.00  0.00     0.120 C 
ATOM     99  C   UNL A   1      29.126  27.187  23.505  1.00  0.00     0.004 C 
ATOM    100  C   UNL A   1      30.244  28.050  22.939  1.00  0.00     0.022 C 
ENDBRANCH  88  89
ENDBRANCH  87  88
ENDBRANCH  80  83
ENDBRANCH  78  79
ENDBRANCH  77  78
ENDBRANCH  76  77
ENDBRANCH   1  76
TORSDOF 18
ENDMDL
