MODEL 1
REMARK VINA RESULT:     -10.9      0.000      0.000
REMARK SMILES CNC(=O)C[N@@H+]1CC[C@@H](C(=O)NCCCCCCNC(=O)c2ccc(-c3c4nc(c(-c5c(F)cc(S(=O)(=O)[O-])cc5F)c5ccc([nH]5)c(-c5c(F)cc(S(=O)(=O)[O-])cc5F)c5nc(c(-c6c(F)cc(S(=O)(=O)[O-])cc6F)c6ccc3[nH]6)C=C5)C=C4)cc2)[C@H]1C
REMARK SMILES IDX 16 1 15 2 14 3 13 4 12 5 10 6 11 7 9 9 6 10 7 11 88 12 8 14
REMARK SMILES IDX 89 15 5 16 3 17 1 18 2 19 4 21 17 22 18 23 19 24 20 25 21 27
REMARK SMILES IDX 22 28 23 29 87 30 24 31 86 32 25 33 26 34 27 35 80 36 28 37
REMARK SMILES IDX 85 38 79 39 81 40 29 41 84 42 78 43 77 44 30 46 64 47 43 48
REMARK SMILES IDX 63 49 44 50 47 51 62 52 82 53 45 54 46 55 61 57 83 58 48 59
REMARK SMILES IDX 31 60 32 61 41 62 33 63 34 64 40 65 42 66 35 67 36 68 37 69
REMARK SMILES IDX 38 70 39 71 65 72 66 73 75 74 67 75 68 76 74 77 76 78 69 79
REMARK SMILES IDX 70 80 71 81 72 82 73 83 49 84 50 85 59 86 51 87 52 88 58 89
REMARK SMILES IDX 60 90 53 91 54 92 55 93 56 94 57 95
REMARK H PARENT 12 8 6 13 2 20 19 26 81 45 47 56
REMARK Flexibility Score: inf
ROOT
ATOM      1  C   UNL A   1      38.044  24.038  26.360  1.00  0.00     0.002 C 
ENDROOT
BRANCH   1   2
ATOM      2  C   UNL A   1      36.625  23.660  25.924  1.00  0.00     0.002 C 
BRANCH   2   3
ATOM      3  C   UNL A   1      36.486  23.233  24.462  1.00  0.00     0.021 C 
BRANCH   3   4
ATOM      4  C   UNL A   1      35.141  22.590  24.107  1.00  0.00     0.116 C 
BRANCH   4   5
ATOM      5  N   UNL A   1      34.590  23.159  22.894  1.00  0.00    -0.356 N 
ATOM      6  C   UNL A   1      33.433  23.827  22.664  1.00  0.00     0.229 C 
ATOM      7  O   UNL A   1      33.212  24.158  21.492  1.00  0.00    -0.275 OA
ATOM      8  H   UNL A   1      35.155  23.038  22.096  1.00  0.00     0.163 HD
BRANCH   6   9
ATOM      9  C   UNL A   1      32.441  24.237  23.749  1.00  0.00     0.142 C 
ATOM     10  N   UNL A   1      31.349  26.305  24.050  1.00  0.00    -0.324 N 
ATOM     11  C   UNL A   1      30.299  25.285  24.075  1.00  0.00     0.263 C 
ATOM     12  C   UNL A   1      32.567  25.587  24.480  1.00  0.00     0.194 C 
ATOM     13  H   UNL A   1      31.459  26.708  23.120  1.00  0.00     0.348 HD
ATOM     14  C   UNL A   1      30.977  24.169  23.296  1.00  0.00     0.081 C 
ATOM     15  C   UNL A   1      33.860  26.371  24.321  1.00  0.00     0.076 C 
BRANCH  10  16
ATOM     16  C   UNL A   1      31.043  27.507  24.841  1.00  0.00     0.363 C 
BRANCH  16  17
ATOM     17  C   UNL A   1      31.117  28.811  24.031  1.00  0.00     0.274 C 
ATOM     18  C   UNL A   1      31.881  30.239  25.977  1.00  0.00     0.143 C 
ATOM     19  N   UNL A   1      31.457  29.995  24.621  1.00  0.00    -0.354 N 
ATOM     20  H   UNL A   1      31.407  30.789  24.042  1.00  0.00     0.163 HD
ATOM     21  O   UNL A   1      30.816  28.822  22.834  1.00  0.00    -0.269 OA
ENDBRANCH  16  17
ENDBRANCH  10  16
ENDBRANCH   6   9
ENDBRANCH   4   5
ENDBRANCH   3   4
ENDBRANCH   2   3
ENDBRANCH   1   2
BRANCH   1  22
ATOM     22  C   UNL A   1      39.037  22.876  26.492  1.00  0.00     0.021 C 
BRANCH  22  23
ATOM     23  C   UNL A   1      40.437  23.251  26.979  1.00  0.00     0.116 C 
BRANCH  23  24
ATOM     24  N   UNL A   1      41.173  24.034  26.002  1.00  0.00    -0.352 N 
ATOM     25  C   UNL A   1      41.545  25.355  26.016  1.00  0.00     0.251 C 
ATOM     26  H   UNL A   1      41.449  23.537  25.198  1.00  0.00     0.163 HD
ATOM     27  O   UNL A   1      42.004  25.860  24.994  1.00  0.00    -0.269 OA
BRANCH  25  28
ATOM     28  C   UNL A   1      41.385  26.181  27.235  1.00  0.00     0.039 A 
ATOM     29  C   UNL A   1      42.318  27.192  27.482  1.00  0.00     0.014 A 
ATOM     30  C   UNL A   1      40.361  25.939  28.155  1.00  0.00     0.014 A 
ATOM     31  C   UNL A   1      42.189  27.996  28.617  1.00  0.00     0.010 A 
ATOM     32  C   UNL A   1      40.198  26.782  29.256  1.00  0.00     0.010 A 
ATOM     33  C   UNL A   1      41.109  27.820  29.498  1.00  0.00    -0.014 A 
BRANCH  33  34
ATOM     34  C   UNL A   1      40.915  28.737  30.653  1.00  0.00     0.031 A 
ATOM     35  C   UNL A   1      41.755  28.604  31.894  1.00  0.00     0.074 A 
ATOM     36  C   UNL A   1      39.944  29.670  30.594  1.00  0.00     0.049 A 
ATOM     37  N   UNL A   1      41.716  29.310  32.996  1.00  0.00    -0.248 NA
ATOM     38  C   UNL A   1      42.755  27.525  31.911  1.00  0.00     0.031 C 
ATOM     39  C   UNL A   1      39.021  29.859  29.471  1.00  0.00     0.029 A 
ATOM     40  N   UNL A   1      39.562  30.629  31.499  1.00  0.00    -0.354 N 
ATOM     41  C   UNL A   1      42.675  28.758  33.838  1.00  0.00     0.074 A 
ATOM     42  C   UNL A   1      43.247  27.628  33.138  1.00  0.00     0.031 C 
ATOM     43  C   UNL A   1      38.199  30.885  29.745  1.00  0.00     0.029 A 
ATOM     44  C   UNL A   1      38.513  31.408  31.070  1.00  0.00     0.049 A 
ATOM     45  H   UNL A   1      40.000  30.750  32.373  1.00  0.00     0.167 HD
ATOM     46  C   UNL A   1      43.056  29.168  35.073  1.00  0.00     0.037 A 
ATOM     47  C   UNL A   1      37.873  32.426  31.675  1.00  0.00     0.037 A 
ATOM     48  C   UNL A   1      42.498  30.308  35.756  1.00  0.00     0.049 A 
ATOM     49  C   UNL A   1      38.331  32.875  33.036  1.00  0.00     0.074 A 
ATOM     50  C   UNL A   1      42.868  30.845  36.978  1.00  0.00     0.029 A 
ATOM     51  N   UNL A   1      41.452  31.084  35.281  1.00  0.00    -0.354 N 
ATOM     52  N   UNL A   1      39.292  32.389  33.783  1.00  0.00    -0.248 NA
ATOM     53  C   UNL A   1      37.624  34.019  33.630  1.00  0.00     0.031 C 
ATOM     54  C   UNL A   1      42.016  31.919  37.261  1.00  0.00     0.029 A 
ATOM     55  C   UNL A   1      41.147  32.081  36.195  1.00  0.00     0.049 A 
ATOM     56  H   UNL A   1      40.993  30.948  34.421  1.00  0.00     0.167 HD
ATOM     57  C   UNL A   1      39.317  33.176  34.929  1.00  0.00     0.074 A 
ATOM     58  C   UNL A   1      38.291  34.186  34.763  1.00  0.00     0.031 C 
ATOM     59  C   UNL A   1      40.115  33.073  36.021  1.00  0.00     0.037 A 
BRANCH  46  60
ATOM     60  C   UNL A   1      44.137  28.384  35.768  1.00  0.00     0.058 A 
ATOM     61  C   UNL A   1      43.835  27.318  36.631  1.00  0.00     0.135 A 
ATOM     62  C   UNL A   1      45.491  28.668  35.531  1.00  0.00     0.135 A 
ATOM     63  F   UNL A   1      42.557  27.011  36.904  1.00  0.00    -0.206 F 
ATOM     64  C   UNL A   1      44.835  26.579  37.255  1.00  0.00     0.059 A 
ATOM     65  C   UNL A   1      46.510  27.925  36.123  1.00  0.00     0.059 A 
ATOM     66  F   UNL A   1      45.839  29.675  34.714  1.00  0.00    -0.206 F 
ATOM     67  C   UNL A   1      46.170  26.891  36.994  1.00  0.00     0.060 A 
BRANCH  67  68
ATOM     68  S   UNL A   1      47.457  25.914  37.802  1.00  0.00     0.124 S 
ATOM     69  O   UNL A   1      48.649  26.702  37.506  1.00  0.00    -0.237 OA
ATOM     70  O   UNL A   1      47.025  25.920  39.196  1.00  0.00    -0.237 OA
ATOM     71  O   UNL A   1      47.376  24.621  37.130  1.00  0.00    -0.744 OA
ENDBRANCH  67  68
ENDBRANCH  46  60
BRANCH  47  72
ATOM     72  C   UNL A   1      36.743  33.105  30.988  1.00  0.00     0.058 A 
ATOM     73  C   UNL A   1      36.971  33.997  29.929  1.00  0.00     0.135 A 
ATOM     74  C   UNL A   1      35.413  32.866  31.365  1.00  0.00     0.135 A 
ATOM     75  F   UNL A   1      38.226  34.262  29.535  1.00  0.00    -0.206 F 
ATOM     76  C   UNL A   1      35.924  34.641  29.280  1.00  0.00     0.059 A 
ATOM     77  C   UNL A   1      34.347  33.478  30.716  1.00  0.00     0.059 A 
ATOM     78  F   UNL A   1      35.141  32.006  32.359  1.00  0.00    -0.206 F 
ATOM     79  C   UNL A   1      34.613  34.374  29.679  1.00  0.00     0.060 A 
BRANCH  79  80
ATOM     80  S   UNL A   1      33.256  35.173  28.797  1.00  0.00     0.124 S 
ATOM     81  O   UNL A   1      32.730  34.068  28.004  1.00  0.00    -0.237 OA
ATOM     82  O   UNL A   1      32.408  35.637  29.890  1.00  0.00    -0.237 OA
ATOM     83  O   UNL A   1      33.926  36.231  28.043  1.00  0.00    -0.744 OA
ENDBRANCH  79  80
ENDBRANCH  47  72
BRANCH  59  84
ATOM     84  C   UNL A   1      39.915  34.087  37.113  1.00  0.00     0.058 A 
ATOM     85  C   UNL A   1      40.576  35.327  37.096  1.00  0.00     0.135 A 
ATOM     86  C   UNL A   1      39.045  33.824  38.183  1.00  0.00     0.135 A 
ATOM     87  F   UNL A   1      41.424  35.625  36.099  1.00  0.00    -0.206 F 
ATOM     88  C   UNL A   1      40.412  36.252  38.120  1.00  0.00     0.059 A 
ATOM     89  C   UNL A   1      38.844  34.747  39.204  1.00  0.00     0.059 A 
ATOM     90  F   UNL A   1      38.379  32.661  38.242  1.00  0.00    -0.206 F 
ATOM     91  C   UNL A   1      39.547  35.951  39.174  1.00  0.00     0.060 A 
BRANCH  91  92
ATOM     92  S   UNL A   1      39.340  37.159  40.499  1.00  0.00     0.124 S 
ATOM     93  O   UNL A   1      38.608  36.381  41.492  1.00  0.00    -0.237 OA
ATOM     94  O   UNL A   1      40.720  37.490  40.843  1.00  0.00    -0.237 OA
ATOM     95  O   UNL A   1      38.585  38.235  39.863  1.00  0.00    -0.744 OA
ENDBRANCH  91  92
ENDBRANCH  59  84
ENDBRANCH  33  34
ENDBRANCH  25  28
ENDBRANCH  23  24
ENDBRANCH  22  23
ENDBRANCH   1  22
TORSDOF 18
ENDMDL
MODEL 2
REMARK VINA RESULT:     -10.9      0.239      1.709
REMARK SMILES CNC(=O)C[N@@H+]1CC[C@@H](C(=O)NCCCCCCNC(=O)c2ccc(-c3c4nc(c(-c5c(F)cc(S(=O)(=O)[O-])cc5F)c5ccc([nH]5)c(-c5c(F)cc(S(=O)(=O)[O-])cc5F)c5nc(c(-c6c(F)cc(S(=O)(=O)[O-])cc6F)c6ccc3[nH]6)C=C5)C=C4)cc2)[C@H]1C
REMARK SMILES IDX 16 1 15 2 14 3 13 4 12 5 10 6 11 7 9 9 6 10 7 11 88 12 8 14
REMARK SMILES IDX 89 15 5 16 3 17 1 18 2 19 4 21 17 22 18 23 19 24 20 25 21 27
REMARK SMILES IDX 22 28 23 29 87 30 24 31 86 32 25 33 26 34 27 35 80 36 28 37
REMARK SMILES IDX 85 38 79 39 81 40 29 41 84 42 78 43 77 44 30 46 64 47 43 48
REMARK SMILES IDX 63 49 44 50 47 51 62 52 82 53 45 54 46 55 61 57 83 58 48 59
REMARK SMILES IDX 31 60 32 61 41 62 33 63 34 64 40 65 42 66 35 67 36 68 37 69
REMARK SMILES IDX 38 70 39 71 65 72 66 73 75 74 67 75 68 76 74 77 76 78 69 79
REMARK SMILES IDX 70 80 71 81 72 82 73 83 49 84 50 85 59 86 51 87 52 88 58 89
REMARK SMILES IDX 60 90 53 91 54 92 55 93 56 94 57 95
REMARK H PARENT 12 8 6 13 2 20 19 26 81 45 47 56
REMARK Flexibility Score: inf
ROOT
ATOM      1  C   UNL A   1      38.260  23.655  26.140  1.00  0.00     0.002 C 
ENDROOT
BRANCH   1   2
ATOM      2  C   UNL A   1      36.828  23.162  25.908  1.00  0.00     0.002 C 
BRANCH   2   3
ATOM      3  C   UNL A   1      36.415  23.027  24.441  1.00  0.00     0.021 C 
BRANCH   3   4
ATOM      4  C   UNL A   1      34.927  22.742  24.218  1.00  0.00     0.116 C 
BRANCH   4   5
ATOM      5  N   UNL A   1      34.460  23.326  22.977  1.00  0.00    -0.356 N 
ATOM      6  C   UNL A   1      33.324  24.006  22.680  1.00  0.00     0.229 C 
ATOM      7  O   UNL A   1      33.181  24.350  21.500  1.00  0.00    -0.275 OA
ATOM      8  H   UNL A   1      35.074  23.209  22.217  1.00  0.00     0.163 HD
BRANCH   6   9
ATOM      9  C   UNL A   1      32.267  24.411  23.703  1.00  0.00     0.142 C 
ATOM     10  N   UNL A   1      31.284  26.526  24.056  1.00  0.00    -0.324 N 
ATOM     11  C   UNL A   1      30.174  25.582  23.919  1.00  0.00     0.263 C 
ATOM     12  C   UNL A   1      32.411  25.699  24.536  1.00  0.00     0.194 C 
ATOM     13  H   UNL A   1      31.503  26.981  23.169  1.00  0.00     0.348 HD
ATOM     14  C   UNL A   1      30.848  24.474  23.123  1.00  0.00     0.081 C 
ATOM     15  C   UNL A   1      33.760  26.400  24.544  1.00  0.00     0.076 C 
BRANCH  10  16
ATOM     16  C   UNL A   1      30.986  27.693  24.901  1.00  0.00     0.363 C 
BRANCH  16  17
ATOM     17  C   UNL A   1      31.154  29.036  24.176  1.00  0.00     0.274 C 
ATOM     18  C   UNL A   1      31.821  30.326  26.250  1.00  0.00     0.143 C 
ATOM     19  N   UNL A   1      31.487  30.173  24.856  1.00  0.00    -0.354 N 
ATOM     20  H   UNL A   1      31.500  31.000  24.323  1.00  0.00     0.163 HD
ATOM     21  O   UNL A   1      30.939  29.125  22.964  1.00  0.00    -0.269 OA
ENDBRANCH  16  17
ENDBRANCH  10  16
ENDBRANCH   6   9
ENDBRANCH   4   5
ENDBRANCH   3   4
ENDBRANCH   2   3
ENDBRANCH   1   2
BRANCH   1  22
ATOM     22  C   UNL A   1      39.248  22.615  26.679  1.00  0.00     0.021 C 
BRANCH  22  23
ATOM     23  C   UNL A   1      40.603  23.159  27.135  1.00  0.00     0.116 C 
BRANCH  23  24
ATOM     24  N   UNL A   1      41.248  23.967  26.116  1.00  0.00    -0.352 N 
ATOM     25  C   UNL A   1      41.532  25.310  26.090  1.00  0.00     0.251 C 
ATOM     26  H   UNL A   1      41.527  23.472  25.312  1.00  0.00     0.163 HD
ATOM     27  O   UNL A   1      41.918  25.822  25.042  1.00  0.00    -0.269 OA
BRANCH  25  28
ATOM     28  C   UNL A   1      41.362  26.149  27.299  1.00  0.00     0.039 A 
ATOM     29  C   UNL A   1      42.327  27.122  27.575  1.00  0.00     0.014 A 
ATOM     30  C   UNL A   1      40.296  25.957  28.182  1.00  0.00     0.014 A 
ATOM     31  C   UNL A   1      42.191  27.938  28.701  1.00  0.00     0.010 A 
ATOM     32  C   UNL A   1      40.128  26.813  29.272  1.00  0.00     0.010 A 
ATOM     33  C   UNL A   1      41.073  27.813  29.542  1.00  0.00    -0.014 A 
BRANCH  33  34
ATOM     34  C   UNL A   1      40.876  28.746  30.685  1.00  0.00     0.031 A 
ATOM     35  C   UNL A   1      41.700  28.617  31.937  1.00  0.00     0.074 A 
ATOM     36  C   UNL A   1      39.916  29.689  30.604  1.00  0.00     0.049 A 
ATOM     37  N   UNL A   1      41.656  29.336  33.031  1.00  0.00    -0.248 NA
ATOM     38  C   UNL A   1      42.687  27.527  31.977  1.00  0.00     0.031 C 
ATOM     39  C   UNL A   1      39.009  29.875  29.468  1.00  0.00     0.029 A 
ATOM     40  N   UNL A   1      39.535  30.662  31.494  1.00  0.00    -0.354 N 
ATOM     41  C   UNL A   1      42.598  28.782  33.890  1.00  0.00     0.074 A 
ATOM     42  C   UNL A   1      43.166  27.639  33.209  1.00  0.00     0.031 C 
ATOM     43  C   UNL A   1      38.195  30.913  29.721  1.00  0.00     0.029 A 
ATOM     44  C   UNL A   1      38.499  31.447  31.043  1.00  0.00     0.049 A 
ATOM     45  H   UNL A   1      39.963  30.788  32.371  1.00  0.00     0.167 HD
ATOM     46  C   UNL A   1      42.970  29.201  35.124  1.00  0.00     0.037 A 
ATOM     47  C   UNL A   1      37.864  32.480  31.630  1.00  0.00     0.037 A 
ATOM     48  C   UNL A   1      42.416  30.356  35.788  1.00  0.00     0.049 A 
ATOM     49  C   UNL A   1      38.310  32.938  32.991  1.00  0.00     0.074 A 
ATOM     50  C   UNL A   1      42.777  30.901  37.009  1.00  0.00     0.029 A 
ATOM     51  N   UNL A   1      41.384  31.138  35.292  1.00  0.00    -0.354 N 
ATOM     52  N   UNL A   1      39.257  32.450  33.755  1.00  0.00    -0.248 NA
ATOM     53  C   UNL A   1      37.610  34.096  33.564  1.00  0.00     0.031 C 
ATOM     54  C   UNL A   1      41.935  31.988  37.269  1.00  0.00     0.029 A 
ATOM     55  C   UNL A   1      41.080  32.148  36.192  1.00  0.00     0.049 A 
ATOM     56  H   UNL A   1      40.934  30.997  34.428  1.00  0.00     0.167 HD
ATOM     57  C   UNL A   1      39.277  33.250  34.892  1.00  0.00     0.074 A 
ATOM     58  C   UNL A   1      38.265  34.268  34.703  1.00  0.00     0.031 C 
ATOM     59  C   UNL A   1      40.061  33.149  35.995  1.00  0.00     0.037 A 
BRANCH  46  60
ATOM     60  C   UNL A   1      44.033  28.413  35.840  1.00  0.00     0.058 A 
ATOM     61  C   UNL A   1      45.387  28.778  35.781  1.00  0.00     0.135 A 
ATOM     62  C   UNL A   1      43.690  27.307  36.635  1.00  0.00     0.135 A 
ATOM     63  F   UNL A   1      45.774  29.819  35.026  1.00  0.00    -0.206 F 
ATOM     64  C   UNL A   1      46.367  28.062  36.462  1.00  0.00     0.059 A 
ATOM     65  C   UNL A   1      44.649  26.591  37.348  1.00  0.00     0.059 A 
ATOM     66  F   UNL A   1      42.409  26.913  36.730  1.00  0.00    -0.206 F 
ATOM     67  C   UNL A   1      45.987  26.969  37.243  1.00  0.00     0.060 A 
BRANCH  67  68
ATOM     68  S   UNL A   1      47.268  26.057  38.131  1.00  0.00     0.124 S 
ATOM     69  O   UNL A   1      47.399  24.862  37.304  1.00  0.00    -0.237 OA
ATOM     70  O   UNL A   1      48.396  26.982  38.089  1.00  0.00    -0.237 OA
ATOM     71  O   UNL A   1      46.683  25.846  39.451  1.00  0.00    -0.744 OA
ENDBRANCH  67  68
ENDBRANCH  46  60
BRANCH  47  72
ATOM     72  C   UNL A   1      36.750  33.164  30.922  1.00  0.00     0.058 A 
ATOM     73  C   UNL A   1      35.414  32.945  31.293  1.00  0.00     0.135 A 
ATOM     74  C   UNL A   1      36.997  34.059  29.870  1.00  0.00     0.135 A 
ATOM     75  F   UNL A   1      35.126  32.094  32.290  1.00  0.00    -0.206 F 
ATOM     76  C   UNL A   1      34.363  33.576  30.637  1.00  0.00     0.059 A 
ATOM     77  C   UNL A   1      35.964  34.721  29.215  1.00  0.00     0.059 A 
ATOM     78  F   UNL A   1      38.258  34.318  29.491  1.00  0.00    -0.206 F 
ATOM     79  C   UNL A   1      34.648  34.464  29.599  1.00  0.00     0.060 A 
BRANCH  79  80
ATOM     80  S   UNL A   1      33.281  35.319  28.788  1.00  0.00     0.124 S 
ATOM     81  O   UNL A   1      32.545  35.848  29.931  1.00  0.00    -0.237 OA
ATOM     82  O   UNL A   1      33.977  36.303  27.964  1.00  0.00    -0.237 OA
ATOM     83  O   UNL A   1      32.614  34.253  28.045  1.00  0.00    -0.744 OA
ENDBRANCH  79  80
ENDBRANCH  47  72
BRANCH  59  84
ATOM     84  C   UNL A   1      39.860  34.178  37.073  1.00  0.00     0.058 A 
ATOM     85  C   UNL A   1      38.922  33.992  38.102  1.00  0.00     0.135 A 
ATOM     86  C   UNL A   1      40.621  35.358  37.086  1.00  0.00     0.135 A 
ATOM     87  F   UNL A   1      38.165  32.883  38.132  1.00  0.00    -0.206 F 
ATOM     88  C   UNL A   1      38.719  34.955  39.083  1.00  0.00     0.059 A 
ATOM     89  C   UNL A   1      40.453  36.324  38.074  1.00  0.00     0.059 A 
ATOM     90  F   UNL A   1      41.539  35.581  36.134  1.00  0.00    -0.206 F 
ATOM     91  C   UNL A   1      39.485  36.122  39.057  1.00  0.00     0.060 A 
BRANCH  91  92
ATOM     92  S   UNL A   1      39.214  37.367  40.335  1.00  0.00     0.124 S 
ATOM     93  O   UNL A   1      38.158  38.177  39.735  1.00  0.00    -0.237 OA
ATOM     94  O   UNL A   1      38.816  36.558  41.485  1.00  0.00    -0.237 OA
ATOM     95  O   UNL A   1      40.514  38.019  40.456  1.00  0.00    -0.744 OA
ENDBRANCH  91  92
ENDBRANCH  59  84
ENDBRANCH  33  34
ENDBRANCH  25  28
ENDBRANCH  23  24
ENDBRANCH  22  23
ENDBRANCH   1  22
TORSDOF 18
ENDMDL
MODEL 3
REMARK VINA RESULT:     -10.8      6.696     11.995
REMARK SMILES CNC(=O)C[N@@H+]1CC[C@@H](C(=O)NCCCCCCNC(=O)c2ccc(-c3c4nc(c(-c5c(F)cc(S(=O)(=O)[O-])cc5F)c5ccc([nH]5)c(-c5c(F)cc(S(=O)(=O)[O-])cc5F)c5nc(c(-c6c(F)cc(S(=O)(=O)[O-])cc6F)c6ccc3[nH]6)C=C5)C=C4)cc2)[C@H]1C
REMARK SMILES IDX 16 1 15 2 14 3 13 4 12 5 10 6 11 7 9 9 6 10 7 11 88 12 8 14
REMARK SMILES IDX 89 15 5 16 3 17 1 18 2 19 4 21 17 22 18 23 19 24 20 25 21 27
REMARK SMILES IDX 22 28 23 29 87 30 24 31 86 32 25 33 26 34 27 35 80 36 28 37
REMARK SMILES IDX 85 38 79 39 81 40 29 41 84 42 78 43 77 44 30 46 64 47 43 48
REMARK SMILES IDX 63 49 44 50 47 51 62 52 82 53 45 54 46 55 61 57 83 58 48 59
REMARK SMILES IDX 31 60 32 61 41 62 33 63 34 64 40 65 42 66 35 67 36 68 37 69
REMARK SMILES IDX 38 70 39 71 65 72 66 73 75 74 67 75 68 76 74 77 76 78 69 79
REMARK SMILES IDX 70 80 71 81 72 82 73 83 49 84 50 85 59 86 51 87 52 88 58 89
REMARK SMILES IDX 60 90 53 91 54 92 55 93 56 94 57 95
REMARK H PARENT 12 8 6 13 2 20 19 26 81 45 47 56
REMARK Flexibility Score: inf
ROOT
ATOM      1  C   UNL A   1      35.708  33.036  28.001  1.00  0.00     0.002 C 
ENDROOT
BRANCH   1   2
ATOM      2  C   UNL A   1      34.520  32.072  27.926  1.00  0.00     0.002 C 
BRANCH   2   3
ATOM      3  C   UNL A   1      34.881  30.615  27.632  1.00  0.00     0.021 C 
BRANCH   3   4
ATOM      4  C   UNL A   1      33.709  29.746  27.165  1.00  0.00     0.116 C 
BRANCH   4   5
ATOM      5  N   UNL A   1      33.836  29.401  25.764  1.00  0.00    -0.356 N 
ATOM      6  C   UNL A   1      33.758  28.206  25.127  1.00  0.00     0.229 C 
ATOM      7  O   UNL A   1      33.956  28.220  23.905  1.00  0.00    -0.275 OA
ATOM      8  H   UNL A   1      34.008  30.167  25.170  1.00  0.00     0.163 HD
BRANCH   6   9
ATOM      9  C   UNL A   1      33.392  26.888  25.803  1.00  0.00     0.142 C 
ATOM     10  N   UNL A   1      32.225  25.042  24.912  1.00  0.00    -0.324 N 
ATOM     11  C   UNL A   1      33.458  24.502  25.488  1.00  0.00     0.263 C 
ATOM     12  C   UNL A   1      31.981  26.285  25.672  1.00  0.00     0.194 C 
ATOM     13  H   UNL A   1      32.326  25.225  23.914  1.00  0.00     0.348 HD
ATOM     14  C   UNL A   1      34.345  25.737  25.454  1.00  0.00     0.081 C 
ATOM     15  C   UNL A   1      30.874  27.167  25.115  1.00  0.00     0.076 C 
BRANCH  10  16
ATOM     16  C   UNL A   1      31.095  24.101  24.910  1.00  0.00     0.363 C 
BRANCH  16  17
ATOM     17  C   UNL A   1      31.015  23.234  26.175  1.00  0.00     0.274 C 
ATOM     18  C   UNL A   1      31.932  21.147  25.074  1.00  0.00     0.143 C 
ATOM     19  N   UNL A   1      31.367  21.914  26.155  1.00  0.00    -0.354 N 
ATOM     20  H   UNL A   1      31.214  21.420  26.992  1.00  0.00     0.163 HD
ATOM     21  O   UNL A   1      30.579  23.704  27.230  1.00  0.00    -0.269 OA
ENDBRANCH  16  17
ENDBRANCH  10  16
ENDBRANCH   6   9
ENDBRANCH   4   5
ENDBRANCH   3   4
ENDBRANCH   2   3
ENDBRANCH   1   2
BRANCH   1  22
ATOM     22  C   UNL A   1      35.899  33.762  29.338  1.00  0.00     0.021 C 
BRANCH  22  23
ATOM     23  C   UNL A   1      36.891  33.118  30.308  1.00  0.00     0.116 C 
BRANCH  23  24
ATOM     24  N   UNL A   1      36.376  31.895  30.897  1.00  0.00    -0.352 N 
ATOM     25  C   UNL A   1      36.866  30.613  30.862  1.00  0.00     0.251 C 
ATOM     26  H   UNL A   1      35.539  32.001  31.405  1.00  0.00     0.163 HD
ATOM     27  O   UNL A   1      36.166  29.691  31.276  1.00  0.00    -0.269 OA
BRANCH  25  28
ATOM     28  C   UNL A   1      38.213  30.325  30.317  1.00  0.00     0.039 A 
ATOM     29  C   UNL A   1      39.278  30.187  31.212  1.00  0.00     0.014 A 
ATOM     30  C   UNL A   1      38.444  30.239  28.941  1.00  0.00     0.014 A 
ATOM     31  C   UNL A   1      40.559  29.904  30.732  1.00  0.00     0.010 A 
ATOM     32  C   UNL A   1      39.712  29.895  28.466  1.00  0.00     0.010 A 
ATOM     33  C   UNL A   1      40.782  29.724  29.356  1.00  0.00    -0.014 A 
BRANCH  33  34
ATOM     34  C   UNL A   1      42.124  29.326  28.852  1.00  0.00     0.031 A 
ATOM     35  C   UNL A   1      42.387  27.920  28.385  1.00  0.00     0.074 A 
ATOM     36  C   UNL A   1      43.122  30.232  28.857  1.00  0.00     0.049 A 
ATOM     37  N   UNL A   1      43.496  27.398  27.925  1.00  0.00    -0.248 NA
ATOM     38  C   UNL A   1      41.268  26.969  28.466  1.00  0.00     0.031 C 
ATOM     39  C   UNL A   1      43.009  31.610  29.342  1.00  0.00     0.029 A 
ATOM     40  N   UNL A   1      44.429  30.132  28.449  1.00  0.00    -0.354 N 
ATOM     41  C   UNL A   1      43.213  26.061  27.670  1.00  0.00     0.074 A 
ATOM     42  C   UNL A   1      41.839  25.840  28.071  1.00  0.00     0.031 C 
ATOM     43  C   UNL A   1      44.189  32.231  29.182  1.00  0.00     0.029 A 
ATOM     44  C   UNL A   1      45.148  31.292  28.612  1.00  0.00     0.049 A 
ATOM     45  H   UNL A   1      44.814  29.307  28.073  1.00  0.00     0.167 HD
ATOM     46  C   UNL A   1      44.016  25.111  27.132  1.00  0.00     0.037 A 
ATOM     47  C   UNL A   1      46.437  31.570  28.336  1.00  0.00     0.037 A 
ATOM     48  C   UNL A   1      45.376  25.343  26.713  1.00  0.00     0.049 A 
ATOM     49  C   UNL A   1      47.301  30.504  27.719  1.00  0.00     0.074 A 
ATOM     50  C   UNL A   1      46.247  24.464  26.092  1.00  0.00     0.029 A 
ATOM     51  N   UNL A   1      46.064  26.537  26.875  1.00  0.00    -0.354 N 
ATOM     52  N   UNL A   1      46.991  29.268  27.413  1.00  0.00    -0.248 NA
ATOM     53  C   UNL A   1      48.686  30.876  27.400  1.00  0.00     0.031 C 
ATOM     54  C   UNL A   1      47.475  25.113  25.918  1.00  0.00     0.029 A 
ATOM     55  C   UNL A   1      47.355  26.410  26.388  1.00  0.00     0.049 A 
ATOM     56  H   UNL A   1      45.690  27.354  27.277  1.00  0.00     0.167 HD
ATOM     57  C   UNL A   1      48.138  28.718  26.851  1.00  0.00     0.074 A 
ATOM     58  C   UNL A   1      49.138  29.765  26.836  1.00  0.00     0.031 C 
ATOM     59  C   UNL A   1      48.345  27.459  26.389  1.00  0.00     0.037 A 
BRANCH  46  60
ATOM     60  C   UNL A   1      43.446  23.729  26.956  1.00  0.00     0.058 A 
ATOM     61  C   UNL A   1      43.096  23.232  25.691  1.00  0.00     0.135 A 
ATOM     62  C   UNL A   1      43.292  22.874  28.059  1.00  0.00     0.135 A 
ATOM     63  F   UNL A   1      43.210  24.011  24.603  1.00  0.00    -0.206 F 
ATOM     64  C   UNL A   1      42.590  21.946  25.527  1.00  0.00     0.059 A 
ATOM     65  C   UNL A   1      42.813  21.573  27.916  1.00  0.00     0.059 A 
ATOM     66  F   UNL A   1      43.611  23.296  29.293  1.00  0.00    -0.206 F 
ATOM     67  C   UNL A   1      42.453  21.124  26.646  1.00  0.00     0.060 A 
BRANCH  67  68
ATOM     68  S   UNL A   1      41.806  19.454  26.416  1.00  0.00     0.124 S 
ATOM     69  O   UNL A   1      42.407  19.083  25.138  1.00  0.00    -0.237 OA
ATOM     70  O   UNL A   1      42.325  18.753  27.586  1.00  0.00    -0.237 OA
ATOM     71  O   UNL A   1      40.359  19.648  26.395  1.00  0.00    -0.744 OA
ENDBRANCH  67  68
ENDBRANCH  46  60
BRANCH  47  72
ATOM     72  C   UNL A   1      46.982  32.923  28.622  1.00  0.00     0.058 A 
ATOM     73  C   UNL A   1      47.548  33.227  29.869  1.00  0.00     0.135 A 
ATOM     74  C   UNL A   1      46.962  33.936  27.650  1.00  0.00     0.135 A 
ATOM     75  F   UNL A   1      47.585  32.293  30.833  1.00  0.00    -0.206 F 
ATOM     76  C   UNL A   1      48.058  34.489  30.151  1.00  0.00     0.059 A 
ATOM     77  C   UNL A   1      47.488  35.199  27.899  1.00  0.00     0.059 A 
ATOM     78  F   UNL A   1      46.450  33.690  26.434  1.00  0.00    -0.206 F 
ATOM     79  C   UNL A   1      48.025  35.469  29.158  1.00  0.00     0.060 A 
BRANCH  79  80
ATOM     80  S   UNL A   1      48.737  37.090  29.513  1.00  0.00     0.124 S 
ATOM     81  O   UNL A   1      47.826  37.592  30.536  1.00  0.00    -0.237 OA
ATOM     82  O   UNL A   1      50.080  36.744  29.967  1.00  0.00    -0.237 OA
ATOM     83  O   UNL A   1      48.677  37.771  28.223  1.00  0.00    -0.744 OA
ENDBRANCH  79  80
ENDBRANCH  47  72
BRANCH  59  84
ATOM     84  C   UNL A   1      49.702  27.154  25.819  1.00  0.00     0.058 A 
ATOM     85  C   UNL A   1      50.781  26.789  26.641  1.00  0.00     0.135 A 
ATOM     86  C   UNL A   1      49.926  27.216  24.434  1.00  0.00     0.135 A 
ATOM     87  F   UNL A   1      50.622  26.721  27.973  1.00  0.00    -0.206 F 
ATOM     88  C   UNL A   1      52.042  26.533  26.115  1.00  0.00     0.059 A 
ATOM     89  C   UNL A   1      51.173  26.937  23.883  1.00  0.00     0.059 A 
ATOM     90  F   UNL A   1      48.927  27.548  23.602  1.00  0.00    -0.206 F 
ATOM     91  C   UNL A   1      52.230  26.616  24.734  1.00  0.00     0.060 A 
BRANCH  91  92
ATOM     92  S   UNL A   1      53.871  26.282  24.060  1.00  0.00     0.124 S 
ATOM     93  O   UNL A   1      54.628  27.427  24.554  1.00  0.00    -0.237 OA
ATOM     94  O   UNL A   1      54.204  24.994  24.663  1.00  0.00    -0.237 OA
ATOM     95  O   UNL A   1      53.647  26.252  22.618  1.00  0.00    -0.744 OA
ENDBRANCH  91  92
ENDBRANCH  59  84
ENDBRANCH  33  34
ENDBRANCH  25  28
ENDBRANCH  23  24
ENDBRANCH  22  23
ENDBRANCH   1  22
TORSDOF 18
ENDMDL
