MODEL 1
REMARK VINA RESULT:     -10.8      0.000      0.000
REMARK SMILES O=C(NCCCCCCNC(=O)c1ccc(C[NH2+]CCOc2ccccc2)nc1)c1ccc(-c2c3nc(c(-c4c(F)cc(S(=O)(=O)[O-])cc4F)c4ccc([nH]4)c(-c4c(F)cc(S(=O)(=O)[O-])cc4F)c4nc(c(-c5c(F)cc(S(=O)(=O)[O-])cc5F)c5ccc2[nH]5)C=C4)C=C3)cc1
REMARK SMILES IDX 8 1 7 2 6 3 5 4 4 5 3 6 1 7 2 8 30 10 31 11 95 12 32 13
REMARK SMILES IDX 94 14 33 15 34 16 35 17 88 18 36 19 93 20 87 21 89 22 37 23
REMARK SMILES IDX 92 24 86 25 85 26 38 28 72 29 51 30 71 31 52 32 55 33 70 34
REMARK SMILES IDX 90 35 53 36 54 37 69 39 91 40 56 41 39 42 40 43 49 44 41 45
REMARK SMILES IDX 42 46 48 47 50 48 43 49 44 50 45 51 46 52 47 53 73 54 74 55
REMARK SMILES IDX 83 56 75 57 76 58 82 59 84 60 77 61 78 62 79 63 80 64 81 65
REMARK SMILES IDX 57 66 58 67 67 68 59 69 60 70 66 71 68 72 61 73 62 74 63 75
REMARK SMILES IDX 64 76 65 77 9 78 10 79 11 80 12 82 13 83 14 84 29 85 15 86
REMARK SMILES IDX 28 87 16 88 17 89 18 90 19 93 20 94 21 95 22 96 23 97 27 98
REMARK SMILES IDX 24 99 26 100 25 101
REMARK H PARENT 3 9 89 27 55 38 10 81 18 91 18 92
REMARK Flexibility Score: inf
ROOT
ATOM      1  C   UNL A   1      32.848  30.056  25.782  1.00  0.00     0.021 C 
ENDROOT
BRANCH   1   2
ATOM      2  C   UNL A   1      33.074  30.709  27.148  1.00  0.00     0.002 C 
BRANCH   2   3
ATOM      3  C   UNL A   1      34.530  30.802  27.617  1.00  0.00     0.002 C 
BRANCH   3   4
ATOM      4  C   UNL A   1      35.040  32.206  27.937  1.00  0.00     0.021 C 
BRANCH   4   5
ATOM      5  C   UNL A   1      36.079  32.284  29.045  1.00  0.00     0.116 C 
BRANCH   5   6
ATOM      6  N   UNL A   1      35.760  31.446  30.188  1.00  0.00    -0.352 N 
ATOM      7  O   UNL A   1      36.019  29.731  31.630  1.00  0.00    -0.269 OA
ATOM      8  C   UNL A   1      36.499  30.426  30.746  1.00  0.00     0.251 C 
ATOM      9  H   UNL A   1      34.896  31.632  30.622  1.00  0.00     0.163 HD
BRANCH   8  10
ATOM     10  C   UNL A   1      37.870  30.160  30.245  1.00  0.00     0.039 A 
ATOM     11  C   UNL A   1      38.116  30.044  28.877  1.00  0.00     0.014 A 
ATOM     12  C   UNL A   1      38.919  30.012  31.159  1.00  0.00     0.014 A 
ATOM     13  C   UNL A   1      39.364  29.628  28.434  1.00  0.00     0.010 A 
ATOM     14  C   UNL A   1      40.202  29.687  30.702  1.00  0.00     0.010 A 
ATOM     15  C   UNL A   1      40.429  29.462  29.337  1.00  0.00    -0.014 A 
BRANCH  15  16
ATOM     16  C   UNL A   1      41.773  29.126  28.797  1.00  0.00     0.031 A 
ATOM     17  C   UNL A   1      42.895  30.128  28.786  1.00  0.00     0.074 A 
ATOM     18  C   UNL A   1      41.989  27.864  28.374  1.00  0.00     0.049 A 
ATOM     19  N   UNL A   1      44.143  29.957  28.427  1.00  0.00    -0.248 NA
ATOM     20  C   UNL A   1      42.583  31.496  29.226  1.00  0.00     0.031 C 
ATOM     21  C   UNL A   1      40.965  26.816  28.306  1.00  0.00     0.029 A 
ATOM     22  N   UNL A   1      43.132  27.236  27.955  1.00  0.00    -0.354 N 
ATOM     23  C   UNL A   1      44.762  31.191  28.588  1.00  0.00     0.074 A 
ATOM     24  C   UNL A   1      43.746  32.112  29.050  1.00  0.00     0.031 C 
ATOM     25  C   UNL A   1      41.538  25.664  27.932  1.00  0.00     0.029 A 
ATOM     26  C   UNL A   1      42.953  25.901  27.677  1.00  0.00     0.049 A 
ATOM     27  H   UNL A   1      43.997  27.695  27.862  1.00  0.00     0.167 HD
ATOM     28  C   UNL A   1      46.062  31.520  28.381  1.00  0.00     0.037 A 
ATOM     29  C   UNL A   1      43.826  24.969  27.253  1.00  0.00     0.037 A 
ATOM     30  C   UNL A   1      47.070  30.594  27.925  1.00  0.00     0.049 A 
ATOM     31  C   UNL A   1      45.261  25.358  27.048  1.00  0.00     0.074 A 
ATOM     32  C   UNL A   1      48.414  30.831  27.687  1.00  0.00     0.029 A 
ATOM     33  N   UNL A   1      46.848  29.255  27.640  1.00  0.00    -0.354 N 
ATOM     34  N   UNL A   1      45.828  26.527  27.224  1.00  0.00    -0.248 NA
ATOM     35  C   UNL A   1      46.173  24.304  26.589  1.00  0.00     0.031 C 
ATOM     36  C   UNL A   1      48.997  29.642  27.232  1.00  0.00     0.029 A 
ATOM     37  C   UNL A   1      48.026  28.654  27.224  1.00  0.00     0.049 A 
ATOM     38  H   UNL A   1      45.980  28.796  27.722  1.00  0.00     0.167 HD
ATOM     39  C   UNL A   1      47.165  26.351  26.893  1.00  0.00     0.074 A 
ATOM     40  C   UNL A   1      47.328  24.953  26.543  1.00  0.00     0.031 C 
ATOM     41  C   UNL A   1      48.166  27.265  26.867  1.00  0.00     0.037 A 
BRANCH  28  42
ATOM     42  C   UNL A   1      46.477  32.942  28.647  1.00  0.00     0.058 A 
ATOM     43  C   UNL A   1      46.975  33.339  29.897  1.00  0.00     0.135 A 
ATOM     44  C   UNL A   1      46.437  33.904  27.624  1.00  0.00     0.135 A 
ATOM     45  F   UNL A   1      47.021  32.464  30.914  1.00  0.00    -0.206 F 
ATOM     46  C   UNL A   1      47.404  34.642  30.130  1.00  0.00     0.059 A 
ATOM     47  C   UNL A   1      46.882  35.209  27.829  1.00  0.00     0.059 A 
ATOM     48  F   UNL A   1      45.971  33.579  26.408  1.00  0.00    -0.206 F 
ATOM     49  C   UNL A   1      47.355  35.570  29.089  1.00  0.00     0.060 A 
BRANCH  49  50
ATOM     50  S   UNL A   1      47.934  37.252  29.405  1.00  0.00     0.124 S 
ATOM     51  O   UNL A   1      48.880  37.443  28.310  1.00  0.00    -0.237 OA
ATOM     52  O   UNL A   1      46.701  38.027  29.318  1.00  0.00    -0.237 OA
ATOM     53  O   UNL A   1      48.524  37.164  30.737  1.00  0.00    -0.744 OA
ENDBRANCH  49  50
ENDBRANCH  28  42
BRANCH  29  54
ATOM     54  C   UNL A   1      43.355  23.586  26.986  1.00  0.00     0.058 A 
ATOM     55  C   UNL A   1      43.087  23.145  25.683  1.00  0.00     0.135 A 
ATOM     56  C   UNL A   1      43.187  22.669  28.036  1.00  0.00     0.135 A 
ATOM     57  F   UNL A   1      43.231  23.986  24.646  1.00  0.00    -0.206 F 
ATOM     58  C   UNL A   1      42.654  21.848  25.429  1.00  0.00     0.059 A 
ATOM     59  C   UNL A   1      42.783  21.359  27.804  1.00  0.00     0.059 A 
ATOM     60  F   UNL A   1      43.452  23.037  29.299  1.00  0.00    -0.206 F 
ATOM     61  C   UNL A   1      42.505  20.962  26.498  1.00  0.00     0.060 A 
BRANCH  61  62
ATOM     62  S   UNL A   1      41.990  19.265  26.162  1.00  0.00     0.124 S 
ATOM     63  O   UNL A   1      42.812  18.936  25.002  1.00  0.00    -0.237 OA
ATOM     64  O   UNL A   1      42.337  18.583  27.405  1.00  0.00    -0.237 OA
ATOM     65  O   UNL A   1      40.559  19.396  25.907  1.00  0.00    -0.744 OA
ENDBRANCH  61  62
ENDBRANCH  29  54
BRANCH  41  66
ATOM     66  C   UNL A   1      49.521  26.770  26.450  1.00  0.00     0.058 A 
ATOM     67  C   UNL A   1      49.955  26.858  25.118  1.00  0.00     0.135 A 
ATOM     68  C   UNL A   1      50.395  26.201  27.391  1.00  0.00     0.135 A 
ATOM     69  F   UNL A   1      49.152  27.387  24.181  1.00  0.00    -0.206 F 
ATOM     70  C   UNL A   1      51.192  26.364  24.724  1.00  0.00     0.059 A 
ATOM     71  C   UNL A   1      51.648  25.723  27.023  1.00  0.00     0.059 A 
ATOM     72  F   UNL A   1      50.031  26.102  28.679  1.00  0.00    -0.206 F 
ATOM     73  C   UNL A   1      52.030  25.791  25.683  1.00  0.00     0.060 A 
BRANCH  73  74
ATOM     74  S   UNL A   1      53.633  25.147  25.162  1.00  0.00     0.124 S 
ATOM     75  O   UNL A   1      53.418  23.708  25.266  1.00  0.00    -0.237 OA
ATOM     76  O   UNL A   1      53.759  25.673  23.805  1.00  0.00    -0.237 OA
ATOM     77  O   UNL A   1      54.559  25.717  26.136  1.00  0.00    -0.744 OA
ENDBRANCH  73  74
ENDBRANCH  41  66
ENDBRANCH  15  16
ENDBRANCH   8  10
ENDBRANCH   5   6
ENDBRANCH   4   5
ENDBRANCH   3   4
ENDBRANCH   2   3
ENDBRANCH   1   2
BRANCH   1  78
ATOM     78  C   UNL A   1      31.433  29.545  25.525  1.00  0.00     0.116 C 
BRANCH  78  79
ATOM     79  N   UNL A   1      30.910  29.987  24.243  1.00  0.00    -0.352 N 
ATOM     80  C   UNL A   1      30.590  29.239  23.138  1.00  0.00     0.252 C 
ATOM     81  H   UNL A   1      30.764  30.957  24.156  1.00  0.00     0.163 HD
ATOM     82  O   UNL A   1      30.301  29.780  22.076  1.00  0.00    -0.269 OA
BRANCH  80  83
ATOM     83  C   UNL A   1      30.613  27.773  23.224  1.00  0.00     0.058 A 
ATOM     84  C   UNL A   1      29.515  27.039  23.669  1.00  0.00     0.017 A 
ATOM     85  C   UNL A   1      31.757  27.091  22.847  1.00  0.00     0.125 A 
ATOM     86  C   UNL A   1      29.631  25.656  23.785  1.00  0.00     0.030 A 
ATOM     87  N   UNL A   1      31.893  25.747  22.951  1.00  0.00    -0.255 NA
ATOM     88  C   UNL A   1      30.835  25.043  23.434  1.00  0.00     0.094 A 
BRANCH  88  89
ATOM     89  C   UNL A   1      30.985  23.534  23.566  1.00  0.00     0.318 C 
BRANCH  89  90
ATOM     90  N   UNL A   1      31.952  23.156  24.602  1.00  0.00    -0.338 N 
ATOM     91  H   UNL A   1      31.510  23.275  25.513  1.00  0.00     0.346 HD
ATOM     92  H   UNL A   1      32.767  23.759  24.481  1.00  0.00     0.346 HD
BRANCH  90  93
ATOM     93  C   UNL A   1      32.427  21.774  24.495  1.00  0.00     0.302 C 
BRANCH  93  94
ATOM     94  C   UNL A   1      33.129  21.195  25.741  1.00  0.00     0.290 C 
BRANCH  94  95
ATOM     95  O   UNL A   1      34.328  20.491  25.380  1.00  0.00    -0.488 OA
BRANCH  95  96
ATOM     96  C   UNL A   1      35.444  21.278  25.441  1.00  0.00     0.119 A 
ATOM     97  C   UNL A   1      36.679  20.844  24.963  1.00  0.00     0.046 A 
ATOM     98  C   UNL A   1      35.324  22.519  26.063  1.00  0.00     0.046 A 
ATOM     99  C   UNL A   1      37.787  21.688  25.056  1.00  0.00     0.004 A 
ATOM    100  C   UNL A   1      36.423  23.370  26.131  1.00  0.00     0.004 A 
ATOM    101  C   UNL A   1      37.655  22.956  25.627  1.00  0.00     0.000 A 
ENDBRANCH  95  96
ENDBRANCH  94  95
ENDBRANCH  93  94
ENDBRANCH  90  93
ENDBRANCH  89  90
ENDBRANCH  88  89
ENDBRANCH  80  83
ENDBRANCH  78  79
ENDBRANCH   1  78
TORSDOF 22
ENDMDL
MODEL 2
REMARK VINA RESULT:     -10.6      1.156      2.082
REMARK SMILES O=C(NCCCCCCNC(=O)c1ccc(C[NH2+]CCOc2ccccc2)nc1)c1ccc(-c2c3nc(c(-c4c(F)cc(S(=O)(=O)[O-])cc4F)c4ccc([nH]4)c(-c4c(F)cc(S(=O)(=O)[O-])cc4F)c4nc(c(-c5c(F)cc(S(=O)(=O)[O-])cc5F)c5ccc2[nH]5)C=C4)C=C3)cc1
REMARK SMILES IDX 8 1 7 2 6 3 5 4 4 5 3 6 1 7 2 8 30 10 31 11 95 12 32 13
REMARK SMILES IDX 94 14 33 15 34 16 35 17 88 18 36 19 93 20 87 21 89 22 37 23
REMARK SMILES IDX 92 24 86 25 85 26 38 28 72 29 51 30 71 31 52 32 55 33 70 34
REMARK SMILES IDX 90 35 53 36 54 37 69 39 91 40 56 41 39 42 40 43 49 44 41 45
REMARK SMILES IDX 42 46 48 47 50 48 43 49 44 50 45 51 46 52 47 53 73 54 74 55
REMARK SMILES IDX 83 56 75 57 76 58 82 59 84 60 77 61 78 62 79 63 80 64 81 65
REMARK SMILES IDX 57 66 58 67 67 68 59 69 60 70 66 71 68 72 61 73 62 74 63 75
REMARK SMILES IDX 64 76 65 77 9 78 10 79 11 80 12 82 13 83 14 84 29 85 15 86
REMARK SMILES IDX 28 87 16 88 17 89 18 90 19 93 20 94 21 95 22 96 23 97 27 98
REMARK SMILES IDX 24 99 26 100 25 101
REMARK H PARENT 3 9 89 27 55 38 10 81 18 91 18 92
REMARK Flexibility Score: inf
ROOT
ATOM      1  C   UNL A   1      32.845  29.839  25.740  1.00  0.00     0.021 C 
ENDROOT
BRANCH   1   2
ATOM      2  C   UNL A   1      33.049  30.763  26.944  1.00  0.00     0.002 C 
BRANCH   2   3
ATOM      3  C   UNL A   1      34.471  30.826  27.511  1.00  0.00     0.002 C 
BRANCH   3   4
ATOM      4  C   UNL A   1      34.984  32.219  27.872  1.00  0.00     0.021 C 
BRANCH   4   5
ATOM      5  C   UNL A   1      36.138  32.251  28.863  1.00  0.00     0.116 C 
BRANCH   5   6
ATOM      6  N   UNL A   1      35.852  31.535  30.095  1.00  0.00    -0.352 N 
ATOM      7  O   UNL A   1      36.167  29.990  31.708  1.00  0.00    -0.269 OA
ATOM      8  C   UNL A   1      36.620  30.594  30.746  1.00  0.00     0.251 C 
ATOM      9  H   UNL A   1      34.992  31.752  30.522  1.00  0.00     0.163 HD
BRANCH   8  10
ATOM     10  C   UNL A   1      37.987  30.299  30.252  1.00  0.00     0.039 A 
ATOM     11  C   UNL A   1      38.229  30.135  28.888  1.00  0.00     0.014 A 
ATOM     12  C   UNL A   1      39.037  30.173  31.169  1.00  0.00     0.014 A 
ATOM     13  C   UNL A   1      39.473  29.692  28.457  1.00  0.00     0.010 A 
ATOM     14  C   UNL A   1      40.316  29.822  30.720  1.00  0.00     0.010 A 
ATOM     15  C   UNL A   1      40.538  29.548  29.363  1.00  0.00    -0.014 A 
BRANCH  15  16
ATOM     16  C   UNL A   1      41.878  29.182  28.833  1.00  0.00     0.031 A 
ATOM     17  C   UNL A   1      43.021  30.160  28.826  1.00  0.00     0.074 A 
ATOM     18  C   UNL A   1      42.069  27.914  28.414  1.00  0.00     0.049 A 
ATOM     19  N   UNL A   1      44.267  29.961  28.475  1.00  0.00    -0.248 NA
ATOM     20  C   UNL A   1      42.735  31.536  29.261  1.00  0.00     0.031 C 
ATOM     21  C   UNL A   1      41.024  26.888  28.343  1.00  0.00     0.029 A 
ATOM     22  N   UNL A   1      43.201  27.261  28.005  1.00  0.00    -0.354 N 
ATOM     23  C   UNL A   1      44.912  31.182  28.637  1.00  0.00     0.074 A 
ATOM     24  C   UNL A   1      43.912  32.126  29.091  1.00  0.00     0.031 C 
ATOM     25  C   UNL A   1      41.575  25.723  27.976  1.00  0.00     0.029 A 
ATOM     26  C   UNL A   1      42.996  25.929  27.729  1.00  0.00     0.049 A 
ATOM     27  H   UNL A   1      44.077  27.701  27.916  1.00  0.00     0.167 HD
ATOM     28  C   UNL A   1      46.219  31.483  28.437  1.00  0.00     0.037 A 
ATOM     29  C   UNL A   1      43.852  24.978  27.313  1.00  0.00     0.037 A 
ATOM     30  C   UNL A   1      47.210  30.535  27.991  1.00  0.00     0.049 A 
ATOM     31  C   UNL A   1      45.296  25.336  27.116  1.00  0.00     0.074 A 
ATOM     32  C   UNL A   1      48.560  30.742  27.760  1.00  0.00     0.029 A 
ATOM     33  N   UNL A   1      46.961  29.199  27.708  1.00  0.00    -0.354 N 
ATOM     34  N   UNL A   1      45.886  26.493  27.292  1.00  0.00    -0.248 NA
ATOM     35  C   UNL A   1      46.188  24.261  26.666  1.00  0.00     0.031 C 
ATOM     36  C   UNL A   1      49.121  29.540  27.312  1.00  0.00     0.029 A 
ATOM     37  C   UNL A   1      48.129  28.573  27.301  1.00  0.00     0.049 A 
ATOM     38  H   UNL A   1      46.084  28.759  27.785  1.00  0.00     0.167 HD
ATOM     39  C   UNL A   1      47.222  26.288  26.971  1.00  0.00     0.074 A 
ATOM     40  C   UNL A   1      47.357  24.886  26.626  1.00  0.00     0.031 C 
ATOM     41  C   UNL A   1      48.242  27.180  26.949  1.00  0.00     0.037 A 
BRANCH  28  42
ATOM     42  C   UNL A   1      46.663  32.896  28.702  1.00  0.00     0.058 A 
ATOM     43  C   UNL A   1      46.583  33.888  27.713  1.00  0.00     0.135 A 
ATOM     44  C   UNL A   1      47.114  33.280  29.976  1.00  0.00     0.135 A 
ATOM     45  F   UNL A   1      46.174  33.574  26.474  1.00  0.00    -0.206 F 
ATOM     46  C   UNL A   1      46.948  35.206  27.971  1.00  0.00     0.059 A 
ATOM     47  C   UNL A   1      47.464  34.598  30.264  1.00  0.00     0.059 A 
ATOM     48  F   UNL A   1      47.209  32.372  30.961  1.00  0.00    -0.206 F 
ATOM     49  C   UNL A   1      47.386  35.551  29.250  1.00  0.00     0.060 A 
BRANCH  49  50
ATOM     50  S   UNL A   1      47.838  37.270  29.572  1.00  0.00     0.124 S 
ATOM     51  O   UNL A   1      49.055  37.107  30.361  1.00  0.00    -0.237 OA
ATOM     52  O   UNL A   1      48.023  37.802  28.226  1.00  0.00    -0.237 OA
ATOM     53  O   UNL A   1      46.685  37.795  30.298  1.00  0.00    -0.744 OA
ENDBRANCH  49  50
ENDBRANCH  28  42
BRANCH  29  54
ATOM     54  C   UNL A   1      43.352  23.605  27.047  1.00  0.00     0.058 A 
ATOM     55  C   UNL A   1      43.219  23.117  25.739  1.00  0.00     0.135 A 
ATOM     56  C   UNL A   1      43.023  22.742  28.105  1.00  0.00     0.135 A 
ATOM     57  F   UNL A   1      43.520  23.905  24.695  1.00  0.00    -0.206 F 
ATOM     58  C   UNL A   1      42.760  21.828  25.487  1.00  0.00     0.059 A 
ATOM     59  C   UNL A   1      42.590  21.441  27.879  1.00  0.00     0.059 A 
ATOM     60  F   UNL A   1      43.155  23.155  29.375  1.00  0.00    -0.206 F 
ATOM     61  C   UNL A   1      42.448  20.998  26.566  1.00  0.00     0.060 A 
BRANCH  61  62
ATOM     62  S   UNL A   1      41.900  19.309  26.238  1.00  0.00     0.124 S 
ATOM     63  O   UNL A   1      42.633  18.997  25.016  1.00  0.00    -0.237 OA
ATOM     64  O   UNL A   1      42.332  18.603  27.440  1.00  0.00    -0.237 OA
ATOM     65  O   UNL A   1      40.455  19.452  26.091  1.00  0.00    -0.744 OA
ENDBRANCH  61  62
ENDBRANCH  29  54
BRANCH  41  66
ATOM     66  C   UNL A   1      49.589  26.655  26.542  1.00  0.00     0.058 A 
ATOM     67  C   UNL A   1      50.473  26.102  27.481  1.00  0.00     0.135 A 
ATOM     68  C   UNL A   1      50.000  26.706  25.200  1.00  0.00     0.135 A 
ATOM     69  F   UNL A   1      50.128  26.037  28.776  1.00  0.00    -0.206 F 
ATOM     70  C   UNL A   1      51.735  25.652  27.112  1.00  0.00     0.059 A 
ATOM     71  C   UNL A   1      51.249  26.239  24.805  1.00  0.00     0.059 A 
ATOM     72  F   UNL A   1      49.187  27.218  24.262  1.00  0.00    -0.206 F 
ATOM     73  C   UNL A   1      52.117  25.731  25.772  1.00  0.00     0.060 A 
BRANCH  73  74
ATOM     74  S   UNL A   1      53.760  25.150  25.301  1.00  0.00     0.124 S 
ATOM     75  O   UNL A   1      54.586  25.715  26.362  1.00  0.00    -0.237 OA
ATOM     76  O   UNL A   1      53.601  23.698  25.327  1.00  0.00    -0.237 OA
ATOM     77  O   UNL A   1      53.956  25.729  23.975  1.00  0.00    -0.744 OA
ENDBRANCH  73  74
ENDBRANCH  41  66
ENDBRANCH  15  16
ENDBRANCH   8  10
ENDBRANCH   5   6
ENDBRANCH   4   5
ENDBRANCH   3   4
ENDBRANCH   2   3
ENDBRANCH   1   2
BRANCH   1  78
ATOM     78  C   UNL A   1      31.415  29.352  25.521  1.00  0.00     0.116 C 
BRANCH  78  79
ATOM     79  N   UNL A   1      30.851  29.839  24.273  1.00  0.00    -0.352 N 
ATOM     80  C   UNL A   1      30.748  29.195  23.065  1.00  0.00     0.252 C 
ATOM     81  H   UNL A   1      30.494  30.756  24.297  1.00  0.00     0.163 HD
ATOM     82  O   UNL A   1      30.382  29.799  22.062  1.00  0.00    -0.269 OA
BRANCH  80  83
ATOM     83  C   UNL A   1      31.098  27.772  22.970  1.00  0.00     0.058 A 
ATOM     84  C   UNL A   1      30.259  26.768  23.450  1.00  0.00     0.017 A 
ATOM     85  C   UNL A   1      32.296  27.408  22.381  1.00  0.00     0.125 A 
ATOM     86  C   UNL A   1      30.685  25.444  23.384  1.00  0.00     0.030 A 
ATOM     87  N   UNL A   1      32.732  26.128  22.304  1.00  0.00    -0.255 NA
ATOM     88  C   UNL A   1      31.931  25.158  22.821  1.00  0.00     0.094 A 
BRANCH  88  89
ATOM     89  C   UNL A   1      32.419  23.718  22.750  1.00  0.00     0.318 C 
BRANCH  89  90
ATOM     90  N   UNL A   1      32.787  23.188  24.067  1.00  0.00    -0.338 N 
ATOM     91  H   UNL A   1      31.950  23.164  24.649  1.00  0.00     0.346 HD
ATOM     92  H   UNL A   1      33.509  23.803  24.444  1.00  0.00     0.346 HD
BRANCH  90  93
ATOM     93  C   UNL A   1      33.357  21.839  24.025  1.00  0.00     0.302 C 
BRANCH  93  94
ATOM     94  C   UNL A   1      32.473  20.706  24.586  1.00  0.00     0.290 C 
BRANCH  94  95
ATOM     95  O   UNL A   1      33.195  19.908  25.538  1.00  0.00    -0.488 OA
BRANCH  95  96
ATOM     96  C   UNL A   1      33.305  18.599  25.158  1.00  0.00     0.119 A 
ATOM     97  C   UNL A   1      34.069  18.213  24.058  1.00  0.00     0.046 A 
ATOM     98  C   UNL A   1      32.566  17.658  25.871  1.00  0.00     0.046 A 
ATOM     99  C   UNL A   1      34.142  16.861  23.713  1.00  0.00     0.004 A 
ATOM    100  C   UNL A   1      32.659  16.308  25.541  1.00  0.00     0.004 A 
ATOM    101  C   UNL A   1      33.448  15.909  24.463  1.00  0.00     0.000 A 
ENDBRANCH  95  96
ENDBRANCH  94  95
ENDBRANCH  93  94
ENDBRANCH  90  93
ENDBRANCH  89  90
ENDBRANCH  88  89
ENDBRANCH  80  83
ENDBRANCH  78  79
ENDBRANCH   1  78
TORSDOF 22
ENDMDL
MODEL 3
REMARK VINA RESULT:     -10.5      1.171      8.260
REMARK SMILES O=C(NCCCCCCNC(=O)c1ccc(C[NH2+]CCOc2ccccc2)nc1)c1ccc(-c2c3nc(c(-c4c(F)cc(S(=O)(=O)[O-])cc4F)c4ccc([nH]4)c(-c4c(F)cc(S(=O)(=O)[O-])cc4F)c4nc(c(-c5c(F)cc(S(=O)(=O)[O-])cc5F)c5ccc2[nH]5)C=C4)C=C3)cc1
REMARK SMILES IDX 8 1 7 2 6 3 5 4 4 5 3 6 1 7 2 8 30 10 31 11 95 12 32 13
REMARK SMILES IDX 94 14 33 15 34 16 35 17 88 18 36 19 93 20 87 21 89 22 37 23
REMARK SMILES IDX 92 24 86 25 85 26 38 28 72 29 51 30 71 31 52 32 55 33 70 34
REMARK SMILES IDX 90 35 53 36 54 37 69 39 91 40 56 41 39 42 40 43 49 44 41 45
REMARK SMILES IDX 42 46 48 47 50 48 43 49 44 50 45 51 46 52 47 53 73 54 74 55
REMARK SMILES IDX 83 56 75 57 76 58 82 59 84 60 77 61 78 62 79 63 80 64 81 65
REMARK SMILES IDX 57 66 58 67 67 68 59 69 60 70 66 71 68 72 61 73 62 74 63 75
REMARK SMILES IDX 64 76 65 77 9 78 10 79 11 80 12 82 13 83 14 84 29 85 15 86
REMARK SMILES IDX 28 87 16 88 17 89 18 90 19 93 20 94 21 95 22 96 23 97 27 98
REMARK SMILES IDX 24 99 26 100 25 101
REMARK H PARENT 3 9 89 27 55 38 10 81 18 91 18 92
REMARK Flexibility Score: inf
ROOT
ATOM      1  C   UNL A   1      31.548  29.985  26.101  1.00  0.00     0.021 C 
ENDROOT
BRANCH   1   2
ATOM      2  C   UNL A   1      32.729  30.375  26.994  1.00  0.00     0.002 C 
BRANCH   2   3
ATOM      3  C   UNL A   1      34.107  29.881  26.541  1.00  0.00     0.002 C 
BRANCH   3   4
ATOM      4  C   UNL A   1      35.055  29.435  27.653  1.00  0.00     0.021 C 
BRANCH   4   5
ATOM      5  C   UNL A   1      35.795  30.557  28.366  1.00  0.00     0.116 C 
BRANCH   5   6
ATOM      6  N   UNL A   1      35.702  30.472  29.814  1.00  0.00    -0.352 N 
ATOM      7  O   UNL A   1      36.334  29.871  31.894  1.00  0.00    -0.269 OA
ATOM      8  C   UNL A   1      36.629  29.993  30.713  1.00  0.00     0.251 C 
ATOM      9  H   UNL A   1      34.861  30.801  30.204  1.00  0.00     0.163 HD
BRANCH   8  10
ATOM     10  C   UNL A   1      37.976  29.599  30.233  1.00  0.00     0.039 A 
ATOM     11  C   UNL A   1      38.900  29.021  31.105  1.00  0.00     0.014 A 
ATOM     12  C   UNL A   1      38.322  29.822  28.896  1.00  0.00     0.014 A 
ATOM     13  C   UNL A   1      40.208  28.816  30.686  1.00  0.00     0.010 A 
ATOM     14  C   UNL A   1      39.615  29.522  28.450  1.00  0.00     0.010 A 
ATOM     15  C   UNL A   1      40.579  29.045  29.349  1.00  0.00    -0.014 A 
BRANCH  15  16
ATOM     16  C   UNL A   1      41.962  28.701  28.927  1.00  0.00     0.031 A 
ATOM     17  C   UNL A   1      42.321  27.324  28.438  1.00  0.00     0.074 A 
ATOM     18  C   UNL A   1      42.887  29.681  28.926  1.00  0.00     0.049 A 
ATOM     19  N   UNL A   1      43.462  26.896  27.957  1.00  0.00    -0.248 NA
ATOM     20  C   UNL A   1      41.276  26.291  28.501  1.00  0.00     0.031 C 
ATOM     21  C   UNL A   1      42.662  31.047  29.411  1.00  0.00     0.029 A 
ATOM     22  N   UNL A   1      44.182  29.700  28.478  1.00  0.00    -0.354 N 
ATOM     23  C   UNL A   1      43.277  25.549  27.667  1.00  0.00     0.074 A 
ATOM     24  C   UNL A   1      41.921  25.220  28.054  1.00  0.00     0.031 C 
ATOM     25  C   UNL A   1      43.757  31.784  29.178  1.00  0.00     0.029 A 
ATOM     26  C   UNL A   1      44.780  30.934  28.583  1.00  0.00     0.049 A 
ATOM     27  H   UNL A   1      44.640  28.908  28.116  1.00  0.00     0.167 HD
ATOM     28  C   UNL A   1      44.155  24.673  27.118  1.00  0.00     0.037 A 
ATOM     29  C   UNL A   1      46.019  31.339  28.249  1.00  0.00     0.037 A 
ATOM     30  C   UNL A   1      45.502  25.011  26.730  1.00  0.00     0.049 A 
ATOM     31  C   UNL A   1      46.963  30.351  27.628  1.00  0.00     0.074 A 
ATOM     32  C   UNL A   1      46.467  24.194  26.164  1.00  0.00     0.029 A 
ATOM     33  N   UNL A   1      46.077  26.266  26.865  1.00  0.00    -0.354 N 
ATOM     34  N   UNL A   1      46.761  29.087  27.347  1.00  0.00    -0.248 NA
ATOM     35  C   UNL A   1      48.300  30.844  27.278  1.00  0.00     0.031 C 
ATOM     36  C   UNL A   1      47.633  24.948  25.983  1.00  0.00     0.029 A 
ATOM     37  C   UNL A   1      47.382  26.246  26.399  1.00  0.00     0.049 A 
ATOM     38  H   UNL A   1      45.624  27.058  27.237  1.00  0.00     0.167 HD
ATOM     39  C   UNL A   1      47.948  28.629  26.789  1.00  0.00     0.074 A 
ATOM     40  C   UNL A   1      48.849  29.764  26.739  1.00  0.00     0.031 C 
ATOM     41  C   UNL A   1      48.269  27.381  26.370  1.00  0.00     0.037 A 
BRANCH  28  42
ATOM     42  C   UNL A   1      43.689  23.259  26.897  1.00  0.00     0.058 A 
ATOM     43  C   UNL A   1      43.435  22.393  27.972  1.00  0.00     0.135 A 
ATOM     44  C   UNL A   1      43.434  22.782  25.600  1.00  0.00     0.135 A 
ATOM     45  F   UNL A   1      43.676  22.792  29.231  1.00  0.00    -0.206 F 
ATOM     46  C   UNL A   1      42.959  21.102  27.770  1.00  0.00     0.059 A 
ATOM     47  C   UNL A   1      42.936  21.500  25.376  1.00  0.00     0.059 A 
ATOM     48  F   UNL A   1      43.658  23.568  24.535  1.00  0.00    -0.206 F 
ATOM     49  C   UNL A   1      42.711  20.665  26.469  1.00  0.00     0.060 A 
BRANCH  49  50
ATOM     50  S   UNL A   1      42.075  18.991  26.228  1.00  0.00     0.124 S 
ATOM     51  O   UNL A   1      42.992  18.476  25.215  1.00  0.00    -0.237 OA
ATOM     52  O   UNL A   1      42.213  18.410  27.559  1.00  0.00    -0.237 OA
ATOM     53  O   UNL A   1      40.703  19.209  25.780  1.00  0.00    -0.744 OA
ENDBRANCH  49  50
ENDBRANCH  28  42
BRANCH  29  54
ATOM     54  C   UNL A   1      46.430  32.742  28.510  1.00  0.00     0.058 A 
ATOM     55  C   UNL A   1      46.201  33.757  27.571  1.00  0.00     0.135 A 
ATOM     56  C   UNL A   1      47.040  33.098  29.724  1.00  0.00     0.135 A 
ATOM     57  F   UNL A   1      45.622  33.466  26.395  1.00  0.00    -0.206 F 
ATOM     58  C   UNL A   1      46.577  35.073  27.817  1.00  0.00     0.059 A 
ATOM     59  C   UNL A   1      47.398  34.411  30.005  1.00  0.00     0.059 A 
ATOM     60  F   UNL A   1      47.260  32.165  30.665  1.00  0.00    -0.206 F 
ATOM     61  C   UNL A   1      47.175  35.389  29.039  1.00  0.00     0.060 A 
BRANCH  61  62
ATOM     62  S   UNL A   1      47.618  37.107  29.376  1.00  0.00     0.124 S 
ATOM     63  O   UNL A   1      48.926  37.201  28.739  1.00  0.00    -0.237 OA
ATOM     64  O   UNL A   1      46.536  37.840  28.726  1.00  0.00    -0.237 OA
ATOM     65  O   UNL A   1      47.617  37.170  30.835  1.00  0.00    -0.744 OA
ENDBRANCH  61  62
ENDBRANCH  29  54
BRANCH  41  66
ATOM     66  C   UNL A   1      49.652  27.191  25.817  1.00  0.00     0.058 A 
ATOM     67  C   UNL A   1      50.747  26.936  26.657  1.00  0.00     0.135 A 
ATOM     68  C   UNL A   1      49.886  27.265  24.435  1.00  0.00     0.135 A 
ATOM     69  F   UNL A   1      50.575  26.863  27.987  1.00  0.00    -0.206 F 
ATOM     70  C   UNL A   1      52.034  26.799  26.151  1.00  0.00     0.059 A 
ATOM     71  C   UNL A   1      51.162  27.106  23.904  1.00  0.00     0.059 A 
ATOM     72  F   UNL A   1      48.871  27.497  23.588  1.00  0.00    -0.206 F 
ATOM     73  C   UNL A   1      52.233  26.893  24.773  1.00  0.00     0.060 A 
BRANCH  73  74
ATOM     74  S   UNL A   1      53.908  26.719  24.123  1.00  0.00     0.124 S 
ATOM     75  O   UNL A   1      54.559  27.905  24.670  1.00  0.00    -0.237 OA
ATOM     76  O   UNL A   1      54.336  25.443  24.689  1.00  0.00    -0.237 OA
ATOM     77  O   UNL A   1      53.711  26.721  22.676  1.00  0.00    -0.744 OA
ENDBRANCH  73  74
ENDBRANCH  41  66
ENDBRANCH  15  16
ENDBRANCH   8  10
ENDBRANCH   5   6
ENDBRANCH   4   5
ENDBRANCH   3   4
ENDBRANCH   2   3
ENDBRANCH   1   2
BRANCH   1  78
ATOM     78  C   UNL A   1      31.917  29.355  24.761  1.00  0.00     0.116 C 
BRANCH  78  79
ATOM     79  N   UNL A   1      30.940  29.645  23.726  1.00  0.00    -0.352 N 
ATOM     80  C   UNL A   1      30.430  28.810  22.763  1.00  0.00     0.252 C 
ATOM     81  H   UNL A   1      30.595  30.567  23.713  1.00  0.00     0.163 HD
ATOM     82  O   UNL A   1      29.721  29.249  21.863  1.00  0.00    -0.269 OA
BRANCH  80  83
ATOM     83  C   UNL A   1      30.752  27.377  22.802  1.00  0.00     0.058 A 
ATOM     84  C   UNL A   1      29.996  26.466  23.535  1.00  0.00     0.017 A 
ATOM     85  C   UNL A   1      31.838  26.910  22.083  1.00  0.00     0.125 A 
ATOM     86  C   UNL A   1      30.399  25.134  23.577  1.00  0.00     0.030 A 
ATOM     87  N   UNL A   1      32.249  25.619  22.107  1.00  0.00    -0.255 NA
ATOM     88  C   UNL A   1      31.537  24.745  22.867  1.00  0.00     0.094 A 
BRANCH  88  89
ATOM     89  C   UNL A   1      31.999  23.296  22.909  1.00  0.00     0.318 C 
BRANCH  89  90
ATOM     90  N   UNL A   1      33.292  23.103  22.244  1.00  0.00    -0.338 N 
ATOM     91  H   UNL A   1      33.535  23.965  21.757  1.00  0.00     0.346 HD
ATOM     92  H   UNL A   1      33.184  22.312  21.609  1.00  0.00     0.346 HD
BRANCH  90  93
ATOM     93  C   UNL A   1      34.386  22.766  23.159  1.00  0.00     0.302 C 
BRANCH  93  94
ATOM     94  C   UNL A   1      33.980  22.112  24.496  1.00  0.00     0.290 C 
BRANCH  94  95
ATOM     95  O   UNL A   1      34.504  22.847  25.613  1.00  0.00    -0.488 OA
BRANCH  95  96
ATOM     96  C   UNL A   1      33.811  23.999  25.861  1.00  0.00     0.119 A 
ATOM     97  C   UNL A   1      34.329  25.254  25.546  1.00  0.00     0.046 A 
ATOM     98  C   UNL A   1      32.583  23.885  26.509  1.00  0.00     0.046 A 
ATOM     99  C   UNL A   1      33.579  26.398  25.826  1.00  0.00     0.004 A 
ATOM    100  C   UNL A   1      31.825  25.025  26.765  1.00  0.00     0.004 A 
ATOM    101  C   UNL A   1      32.322  26.281  26.423  1.00  0.00     0.000 A 
ENDBRANCH  95  96
ENDBRANCH  94  95
ENDBRANCH  93  94
ENDBRANCH  90  93
ENDBRANCH  89  90
ENDBRANCH  88  89
ENDBRANCH  80  83
ENDBRANCH  78  79
ENDBRANCH   1  78
TORSDOF 22
ENDMDL
