MODEL 1
REMARK VINA RESULT:     -10.3      0.000      0.000
REMARK SMILES C[NH2+][C@]1(C(=O)NCCCCCCNC(=O)c2ccc(-c3c4nc(c(-c5c(F)cc(S(=O)(=O)[O-])cc5F)c5ccc([nH]5)c(-c5c(F)cc(S(=O)(=O)[O-])cc5F)c5nc(c(-c6c(F)cc(S(=O)(=O)[O-])cc6F)c6ccc3[nH]6)C=C5)C=C4)cc2)CC[C@H](SC2CCCCC2)C1
REMARK SMILES IDX 10 1 9 2 8 3 7 4 6 5 4 6 5 7 3 9 82 10 92 11 83 12 84 13
REMARK SMILES IDX 2 14 1 15 85 18 86 19 87 20 91 21 88 22 90 23 89 24 11 25
REMARK SMILES IDX 12 26 13 27 14 28 15 30 16 31 17 32 81 33 18 34 80 35 19 36
REMARK SMILES IDX 20 37 21 38 74 39 22 40 79 41 73 42 75 43 23 44 78 45 72 46
REMARK SMILES IDX 71 47 24 49 58 50 37 51 57 52 38 53 41 54 56 55 76 56 39 57
REMARK SMILES IDX 40 58 55 60 77 61 42 62 25 63 26 64 35 65 27 66 28 67 34 68
REMARK SMILES IDX 36 69 29 70 30 71 31 72 32 73 33 74 59 75 60 76 69 77 61 78
REMARK SMILES IDX 62 79 68 80 70 81 63 82 64 83 65 84 66 85 67 86 43 87 44 88
REMARK SMILES IDX 53 89 45 90 46 91 52 92 54 93 47 94 48 95 49 96 50 97 51 98
REMARK H PARENT 6 8 2 16 2 17 13 29 75 48 41 59
REMARK Flexibility Score: inf
ROOT
ATOM      1  C   UNL A   1      33.520  26.378  25.846  1.00  0.00     0.002 C 
ENDROOT
BRANCH   1   2
ATOM      2  C   UNL A   1      32.783  26.248  24.512  1.00  0.00     0.002 C 
BRANCH   2   3
ATOM      3  C   UNL A   1      31.260  26.136  24.631  1.00  0.00     0.021 C 
BRANCH   3   4
ATOM      4  C   UNL A   1      30.675  24.882  23.970  1.00  0.00     0.116 C 
BRANCH   4   5
ATOM      5  N   UNL A   1      30.464  23.842  24.960  1.00  0.00    -0.351 N 
ATOM      6  C   UNL A   1      31.071  22.641  25.190  1.00  0.00     0.281 C 
ATOM      7  O   UNL A   1      30.465  21.924  25.996  1.00  0.00    -0.268 OA
ATOM      8  H   UNL A   1      29.738  24.043  25.593  1.00  0.00     0.163 HD
BRANCH   6   9
ATOM      9  C   UNL A   1      32.455  22.244  24.559  1.00  0.00     0.176 C 
ATOM     10  C   UNL A   1      32.699  22.900  23.190  1.00  0.00     0.080 C 
ATOM     11  C   UNL A   1      33.635  22.768  25.404  1.00  0.00     0.093 C 
ATOM     12  C   UNL A   1      34.206  23.040  23.045  1.00  0.00     0.022 C 
ATOM     13  C   UNL A   1      34.822  22.960  24.444  1.00  0.00     0.054 C 
BRANCH   9  14
ATOM     14  N   UNL A   1      32.553  20.780  24.273  1.00  0.00    -0.336 N 
ATOM     15  C   UNL A   1      32.882  19.916  25.396  1.00  0.00     0.331 C 
ATOM     16  H   UNL A   1      31.652  20.476  23.903  1.00  0.00     0.346 HD
ATOM     17  H   UNL A   1      33.333  20.685  23.623  1.00  0.00     0.346 HD
ENDBRANCH   9  14
BRANCH  13  18
ATOM     18  S   UNL A   1      36.029  21.578  24.595  1.00  0.00    -0.155 SA
BRANCH  18  19
ATOM     19  C   UNL A   1      37.289  22.235  25.779  1.00  0.00     0.047 C 
ATOM     20  C   UNL A   1      38.662  21.571  25.639  1.00  0.00     0.014 C 
ATOM     21  C   UNL A   1      37.391  23.764  25.754  1.00  0.00     0.014 C 
ATOM     22  C   UNL A   1      39.652  22.082  26.680  1.00  0.00     0.001 C 
ATOM     23  C   UNL A   1      38.414  24.271  26.777  1.00  0.00     0.001 C 
ATOM     24  C   UNL A   1      39.773  23.600  26.602  1.00  0.00     0.000 C 
ENDBRANCH  18  19
ENDBRANCH  13  18
ENDBRANCH   6   9
ENDBRANCH   4   5
ENDBRANCH   3   4
ENDBRANCH   2   3
ENDBRANCH   1   2
BRANCH   1  25
ATOM     25  C   UNL A   1      33.375  27.742  26.525  1.00  0.00     0.021 C 
BRANCH  25  26
ATOM     26  C   UNL A   1      34.233  28.841  25.905  1.00  0.00     0.116 C 
BRANCH  26  27
ATOM     27  N   UNL A   1      33.858  30.154  26.406  1.00  0.00    -0.352 N 
ATOM     28  C   UNL A   1      34.356  30.842  27.484  1.00  0.00     0.251 C 
ATOM     29  H   UNL A   1      33.149  30.614  25.901  1.00  0.00     0.163 HD
ATOM     30  O   UNL A   1      33.755  31.817  27.923  1.00  0.00    -0.269 OA
BRANCH  28  31
ATOM     31  C   UNL A   1      35.617  30.396  28.115  1.00  0.00     0.039 A 
ATOM     32  C   UNL A   1      36.832  30.864  27.613  1.00  0.00     0.014 A 
ATOM     33  C   UNL A   1      35.593  29.509  29.197  1.00  0.00     0.014 A 
ATOM     34  C   UNL A   1      38.025  30.480  28.228  1.00  0.00     0.010 A 
ATOM     35  C   UNL A   1      36.777  29.188  29.853  1.00  0.00     0.010 A 
ATOM     36  C   UNL A   1      38.006  29.663  29.371  1.00  0.00    -0.014 A 
BRANCH  36  37
ATOM     37  C   UNL A   1      39.260  29.290  30.073  1.00  0.00     0.031 A 
ATOM     38  C   UNL A   1      39.686  30.035  31.309  1.00  0.00     0.074 A 
ATOM     39  C   UNL A   1      40.044  28.321  29.560  1.00  0.00     0.049 A 
ATOM     40  N   UNL A   1      40.774  29.901  32.020  1.00  0.00    -0.248 NA
ATOM     41  C   UNL A   1      38.779  31.090  31.794  1.00  0.00     0.031 C 
ATOM     42  C   UNL A   1      39.760  27.559  28.341  1.00  0.00     0.029 A 
ATOM     43  N   UNL A   1      41.245  27.815  29.993  1.00  0.00    -0.354 N 
ATOM     44  C   UNL A   1      40.691  30.856  33.026  1.00  0.00     0.074 A 
ATOM     45  C   UNL A   1      39.473  31.602  32.800  1.00  0.00     0.031 C 
ATOM     46  C   UNL A   1      40.744  26.669  28.139  1.00  0.00     0.029 A 
ATOM     47  C   UNL A   1      41.749  26.823  29.186  1.00  0.00     0.049 A 
ATOM     48  H   UNL A   1      41.701  28.135  30.805  1.00  0.00     0.167 HD
ATOM     49  C   UNL A   1      41.541  31.076  34.058  1.00  0.00     0.037 A 
ATOM     50  C   UNL A   1      42.896  26.121  29.277  1.00  0.00     0.037 A 
ATOM     51  C   UNL A   1      42.741  30.312  34.287  1.00  0.00     0.049 A 
ATOM     52  C   UNL A   1      43.828  26.388  30.428  1.00  0.00     0.074 A 
ATOM     53  C   UNL A   1      43.640  30.419  35.334  1.00  0.00     0.029 A 
ATOM     54  N   UNL A   1      43.211  29.304  33.458  1.00  0.00    -0.354 N 
ATOM     55  N   UNL A   1      43.703  27.254  31.405  1.00  0.00    -0.248 NA
ATOM     56  C   UNL A   1      45.052  25.580  30.492  1.00  0.00     0.031 C 
ATOM     57  C   UNL A   1      44.679  29.509  35.110  1.00  0.00     0.029 A 
ATOM     58  C   UNL A   1      44.398  28.796  33.955  1.00  0.00     0.049 A 
ATOM     59  H   UNL A   1      42.764  28.995  32.636  1.00  0.00     0.167 HD
ATOM     60  C   UNL A   1      44.817  27.075  32.218  1.00  0.00     0.074 A 
ATOM     61  C   UNL A   1      45.599  26.009  31.622  1.00  0.00     0.031 C 
ATOM     62  C   UNL A   1      45.161  27.730  33.353  1.00  0.00     0.037 A 
BRANCH  49  63
ATOM     63  C   UNL A   1      41.203  32.182  35.020  1.00  0.00     0.058 A 
ATOM     64  C   UNL A   1      40.325  31.981  36.098  1.00  0.00     0.135 A 
ATOM     65  C   UNL A   1      41.791  33.451  34.887  1.00  0.00     0.135 A 
ATOM     66  F   UNL A   1      39.722  30.793  36.266  1.00  0.00    -0.206 F 
ATOM     67  C   UNL A   1      40.020  33.003  36.991  1.00  0.00     0.059 A 
ATOM     68  C   UNL A   1      41.524  34.479  35.785  1.00  0.00     0.059 A 
ATOM     69  F   UNL A   1      42.637  33.701  33.874  1.00  0.00    -0.206 F 
ATOM     70  C   UNL A   1      40.625  34.250  36.826  1.00  0.00     0.060 A 
BRANCH  70  71
ATOM     71  S   UNL A   1      40.224  35.563  37.998  1.00  0.00     0.124 S 
ATOM     72  O   UNL A   1      39.993  36.692  37.101  1.00  0.00    -0.237 OA
ATOM     73  O   UNL A   1      39.040  35.033  38.666  1.00  0.00    -0.237 OA
ATOM     74  O   UNL A   1      41.421  35.657  38.828  1.00  0.00    -0.744 OA
ENDBRANCH  70  71
ENDBRANCH  49  63
BRANCH  50  75
ATOM     75  C   UNL A   1      43.215  25.084  28.258  1.00  0.00     0.058 A 
ATOM     76  C   UNL A   1      42.935  23.730  28.494  1.00  0.00     0.135 A 
ATOM     77  C   UNL A   1      43.794  25.426  27.026  1.00  0.00     0.135 A 
ATOM     78  F   UNL A   1      42.387  23.352  29.660  1.00  0.00    -0.206 F 
ATOM     79  C   UNL A   1      43.232  22.748  27.554  1.00  0.00     0.059 A 
ATOM     80  C   UNL A   1      44.076  24.467  26.059  1.00  0.00     0.059 A 
ATOM     81  F   UNL A   1      44.065  26.709  26.742  1.00  0.00    -0.206 F 
ATOM     82  C   UNL A   1      43.801  23.128  26.337  1.00  0.00     0.060 A 
BRANCH  82  83
ATOM     83  S   UNL A   1      44.142  21.852  25.105  1.00  0.00     0.124 S 
ATOM     84  O   UNL A   1      43.958  22.589  23.860  1.00  0.00    -0.237 OA
ATOM     85  O   UNL A   1      45.515  21.475  25.428  1.00  0.00    -0.237 OA
ATOM     86  O   UNL A   1      43.136  20.833  25.391  1.00  0.00    -0.744 OA
ENDBRANCH  82  83
ENDBRANCH  50  75
BRANCH  62  87
ATOM     87  C   UNL A   1      46.420  27.292  34.052  1.00  0.00     0.058 A 
ATOM     88  C   UNL A   1      46.414  26.271  35.014  1.00  0.00     0.135 A 
ATOM     89  C   UNL A   1      47.656  27.867  33.713  1.00  0.00     0.135 A 
ATOM     90  F   UNL A   1      45.259  25.692  35.380  1.00  0.00    -0.206 F 
ATOM     91  C   UNL A   1      47.586  25.851  35.634  1.00  0.00     0.059 A 
ATOM     92  C   UNL A   1      48.844  27.443  34.298  1.00  0.00     0.059 A 
ATOM     93  F   UNL A   1      47.719  28.841  32.791  1.00  0.00    -0.206 F 
ATOM     94  C   UNL A   1      48.798  26.441  35.267  1.00  0.00     0.060 A 
BRANCH  94  95
ATOM     95  S   UNL A   1      50.316  25.862  36.053  1.00  0.00     0.124 S 
ATOM     96  O   UNL A   1      50.389  24.486  35.571  1.00  0.00    -0.237 OA
ATOM     97  O   UNL A   1      51.315  26.777  35.513  1.00  0.00    -0.237 OA
ATOM     98  O   UNL A   1      50.041  26.013  37.478  1.00  0.00    -0.744 OA
ENDBRANCH  94  95
ENDBRANCH  62  87
ENDBRANCH  36  37
ENDBRANCH  28  31
ENDBRANCH  26  27
ENDBRANCH  25  26
ENDBRANCH   1  25
TORSDOF 19
ENDMDL
MODEL 2
REMARK VINA RESULT:     -10.2      3.057      9.386
REMARK SMILES C[NH2+][C@]1(C(=O)NCCCCCCNC(=O)c2ccc(-c3c4nc(c(-c5c(F)cc(S(=O)(=O)[O-])cc5F)c5ccc([nH]5)c(-c5c(F)cc(S(=O)(=O)[O-])cc5F)c5nc(c(-c6c(F)cc(S(=O)(=O)[O-])cc6F)c6ccc3[nH]6)C=C5)C=C4)cc2)CC[C@H](SC2CCCCC2)C1
REMARK SMILES IDX 10 1 9 2 8 3 7 4 6 5 4 6 5 7 3 9 82 10 92 11 83 12 84 13
REMARK SMILES IDX 2 14 1 15 85 18 86 19 87 20 91 21 88 22 90 23 89 24 11 25
REMARK SMILES IDX 12 26 13 27 14 28 15 30 16 31 17 32 81 33 18 34 80 35 19 36
REMARK SMILES IDX 20 37 21 38 74 39 22 40 79 41 73 42 75 43 23 44 78 45 72 46
REMARK SMILES IDX 71 47 24 49 58 50 37 51 57 52 38 53 41 54 56 55 76 56 39 57
REMARK SMILES IDX 40 58 55 60 77 61 42 62 25 63 26 64 35 65 27 66 28 67 34 68
REMARK SMILES IDX 36 69 29 70 30 71 31 72 32 73 33 74 59 75 60 76 69 77 61 78
REMARK SMILES IDX 62 79 68 80 70 81 63 82 64 83 65 84 66 85 67 86 43 87 44 88
REMARK SMILES IDX 53 89 45 90 46 91 52 92 54 93 47 94 48 95 49 96 50 97 51 98
REMARK H PARENT 6 8 2 16 2 17 13 29 75 48 41 59
REMARK Flexibility Score: inf
ROOT
ATOM      1  C   UNL A   1      38.088  22.876  26.047  1.00  0.00     0.002 C 
ENDROOT
BRANCH   1   2
ATOM      2  C   UNL A   1      37.465  22.223  24.811  1.00  0.00     0.002 C 
BRANCH   2   3
ATOM      3  C   UNL A   1      36.818  20.858  25.066  1.00  0.00     0.021 C 
BRANCH   3   4
ATOM      4  C   UNL A   1      35.291  20.856  24.920  1.00  0.00     0.116 C 
BRANCH   4   5
ATOM      5  N   UNL A   1      34.660  21.038  26.214  1.00  0.00    -0.351 N 
ATOM      6  C   UNL A   1      33.944  22.061  26.764  1.00  0.00     0.281 C 
ATOM      7  O   UNL A   1      33.757  21.940  27.980  1.00  0.00    -0.268 OA
ATOM      8  H   UNL A   1      34.770  20.267  26.816  1.00  0.00     0.163 HD
BRANCH   6   9
ATOM      9  C   UNL A   1      33.339  23.238  25.915  1.00  0.00     0.176 C 
ATOM     10  C   UNL A   1      34.370  24.329  25.583  1.00  0.00     0.080 C 
ATOM     11  C   UNL A   1      32.889  22.757  24.519  1.00  0.00     0.093 C 
ATOM     12  C   UNL A   1      33.923  24.956  24.271  1.00  0.00     0.022 C 
ATOM     13  C   UNL A   1      32.979  23.970  23.578  1.00  0.00     0.054 C 
BRANCH   9  14
ATOM     14  N   UNL A   1      32.265  23.977  26.647  1.00  0.00    -0.336 N 
ATOM     15  C   UNL A   1      30.962  23.333  26.717  1.00  0.00     0.331 C 
ATOM     16  H   UNL A   1      32.588  24.125  27.603  1.00  0.00     0.346 HD
ATOM     17  H   UNL A   1      32.114  24.831  26.111  1.00  0.00     0.346 HD
ENDBRANCH   9  14
BRANCH  13  18
ATOM     18  S   UNL A   1      31.317  24.698  23.270  1.00  0.00    -0.155 SA
BRANCH  18  19
ATOM     19  C   UNL A   1      31.578  26.506  23.561  1.00  0.00     0.047 C 
ATOM     20  C   UNL A   1      31.000  27.392  22.453  1.00  0.00     0.014 C 
ATOM     21  C   UNL A   1      31.115  26.958  24.951  1.00  0.00     0.014 C 
ATOM     22  C   UNL A   1      31.301  28.868  22.688  1.00  0.00     0.001 C 
ATOM     23  C   UNL A   1      31.385  28.451  25.169  1.00  0.00     0.001 C 
ATOM     24  C   UNL A   1      30.787  29.306  24.056  1.00  0.00     0.000 C 
ENDBRANCH  18  19
ENDBRANCH  13  18
ENDBRANCH   6   9
ENDBRANCH   4   5
ENDBRANCH   3   4
ENDBRANCH   2   3
ENDBRANCH   1   2
BRANCH   1  25
ATOM     25  C   UNL A   1      39.368  22.201  26.548  1.00  0.00     0.021 C 
BRANCH  25  26
ATOM     26  C   UNL A   1      40.390  23.166  27.142  1.00  0.00     0.116 C 
BRANCH  26  27
ATOM     27  N   UNL A   1      41.173  23.816  26.103  1.00  0.00    -0.352 N 
ATOM     28  C   UNL A   1      41.557  25.130  26.005  1.00  0.00     0.251 C 
ATOM     29  H   UNL A   1      41.471  23.231  25.369  1.00  0.00     0.163 HD
ATOM     30  O   UNL A   1      41.989  25.567  24.944  1.00  0.00    -0.269 OA
BRANCH  28  31
ATOM     31  C   UNL A   1      41.439  26.014  27.184  1.00  0.00     0.039 A 
ATOM     32  C   UNL A   1      42.416  26.987  27.405  1.00  0.00     0.014 A 
ATOM     33  C   UNL A   1      40.368  25.873  28.073  1.00  0.00     0.014 A 
ATOM     34  C   UNL A   1      42.292  27.852  28.494  1.00  0.00     0.010 A 
ATOM     35  C   UNL A   1      40.207  26.784  29.112  1.00  0.00     0.010 A 
ATOM     36  C   UNL A   1      41.171  27.778  29.339  1.00  0.00    -0.014 A 
BRANCH  36  37
ATOM     37  C   UNL A   1      40.993  28.725  30.467  1.00  0.00     0.031 A 
ATOM     38  C   UNL A   1      41.856  28.609  31.695  1.00  0.00     0.074 A 
ATOM     39  C   UNL A   1      40.014  29.650  30.410  1.00  0.00     0.049 A 
ATOM     40  N   UNL A   1      41.809  29.298  32.805  1.00  0.00    -0.248 NA
ATOM     41  C   UNL A   1      42.892  27.562  31.682  1.00  0.00     0.031 C 
ATOM     42  C   UNL A   1      39.084  29.829  29.293  1.00  0.00     0.029 A 
ATOM     43  N   UNL A   1      39.631  30.608  31.316  1.00  0.00    -0.354 N 
ATOM     44  C   UNL A   1      42.796  28.764  33.625  1.00  0.00     0.074 A 
ATOM     45  C   UNL A   1      43.387  27.656  32.908  1.00  0.00     0.031 C 
ATOM     46  C   UNL A   1      38.256  30.848  29.569  1.00  0.00     0.029 A 
ATOM     47  C   UNL A   1      38.566  31.369  30.897  1.00  0.00     0.049 A 
ATOM     48  H   UNL A   1      40.077  30.736  32.184  1.00  0.00     0.167 HD
ATOM     49  C   UNL A   1      43.189  29.174  34.855  1.00  0.00     0.037 A 
ATOM     50  C   UNL A   1      37.908  32.369  31.516  1.00  0.00     0.037 A 
ATOM     51  C   UNL A   1      42.607  30.292  35.553  1.00  0.00     0.049 A 
ATOM     52  C   UNL A   1      38.358  32.802  32.885  1.00  0.00     0.074 A 
ATOM     53  C   UNL A   1      42.971  30.823  36.779  1.00  0.00     0.029 A 
ATOM     54  N   UNL A   1      41.541  31.049  35.090  1.00  0.00    -0.354 N 
ATOM     55  N   UNL A   1      39.334  32.326  33.621  1.00  0.00    -0.248 NA
ATOM     56  C   UNL A   1      37.623  33.912  33.506  1.00  0.00     0.031 C 
ATOM     57  C   UNL A   1      42.092  31.869  37.078  1.00  0.00     0.029 A 
ATOM     58  C   UNL A   1      41.217  32.028  36.014  1.00  0.00     0.049 A 
ATOM     59  H   UNL A   1      41.082  30.911  34.229  1.00  0.00     0.167 HD
ATOM     60  C   UNL A   1      39.350  33.096  34.778  1.00  0.00     0.074 A 
ATOM     61  C   UNL A   1      38.292  34.077  34.639  1.00  0.00     0.031 C 
ATOM     62  C   UNL A   1      40.166  33.002  35.857  1.00  0.00     0.037 A 
BRANCH  49  63
ATOM     63  C   UNL A   1      44.302  28.413  35.524  1.00  0.00     0.058 A 
ATOM     64  C   UNL A   1      45.651  28.740  35.312  1.00  0.00     0.135 A 
ATOM     65  C   UNL A   1      44.017  27.368  36.419  1.00  0.00     0.135 A 
ATOM     66  F   UNL A   1      45.983  29.720  34.456  1.00  0.00    -0.206 F 
ATOM     67  C   UNL A   1      46.678  28.041  35.938  1.00  0.00     0.059 A 
ATOM     68  C   UNL A   1      45.027  26.675  37.079  1.00  0.00     0.059 A 
ATOM     69  F   UNL A   1      42.745  27.012  36.660  1.00  0.00    -0.206 F 
ATOM     70  C   UNL A   1      46.355  27.009  36.821  1.00  0.00     0.060 A 
BRANCH  70  71
ATOM     71  S   UNL A   1      47.700  26.117  37.630  1.00  0.00     0.124 S 
ATOM     72  O   UNL A   1      47.446  24.748  37.192  1.00  0.00    -0.237 OA
ATOM     73  O   UNL A   1      48.883  26.754  37.062  1.00  0.00    -0.237 OA
ATOM     74  O   UNL A   1      47.473  26.373  39.050  1.00  0.00    -0.744 OA
ENDBRANCH  70  71
ENDBRANCH  49  63
BRANCH  50  75
ATOM     75  C   UNL A   1      36.769  33.043  30.837  1.00  0.00     0.058 A 
ATOM     76  C   UNL A   1      35.446  32.805  31.239  1.00  0.00     0.135 A 
ATOM     77  C   UNL A   1      36.978  33.944  29.782  1.00  0.00     0.135 A 
ATOM     78  F   UNL A   1      35.193  31.946  32.239  1.00  0.00    -0.206 F 
ATOM     79  C   UNL A   1      34.369  33.423  30.610  1.00  0.00     0.059 A 
ATOM     80  C   UNL A   1      35.921  34.595  29.155  1.00  0.00     0.059 A 
ATOM     81  F   UNL A   1      38.225  34.221  29.370  1.00  0.00    -0.206 F 
ATOM     82  C   UNL A   1      34.618  34.320  29.570  1.00  0.00     0.060 A 
BRANCH  82  83
ATOM     83  S   UNL A   1      33.218  35.151  28.789  1.00  0.00     0.124 S 
ATOM     84  O   UNL A   1      32.642  34.072  27.994  1.00  0.00    -0.237 OA
ATOM     85  O   UNL A   1      32.436  35.581  29.945  1.00  0.00    -0.237 OA
ATOM     86  O   UNL A   1      33.847  36.228  28.031  1.00  0.00    -0.744 OA
ENDBRANCH  82  83
ENDBRANCH  50  75
BRANCH  62  87
ATOM     87  C   UNL A   1      39.976  34.007  36.960  1.00  0.00     0.058 A 
ATOM     88  C   UNL A   1      40.607  35.260  36.935  1.00  0.00     0.135 A 
ATOM     89  C   UNL A   1      39.106  33.731  38.029  1.00  0.00     0.135 A 
ATOM     90  F   UNL A   1      41.453  35.572  35.941  1.00  0.00    -0.206 F 
ATOM     91  C   UNL A   1      40.402  36.196  37.944  1.00  0.00     0.059 A 
ATOM     92  C   UNL A   1      38.863  34.663  39.032  1.00  0.00     0.059 A 
ATOM     93  F   UNL A   1      38.468  32.552  38.095  1.00  0.00    -0.206 F 
ATOM     94  C   UNL A   1      39.526  35.890  38.988  1.00  0.00     0.060 A 
BRANCH  94  95
ATOM     95  S   UNL A   1      39.242  37.127  40.271  1.00  0.00     0.124 S 
ATOM     96  O   UNL A   1      40.608  37.463  40.661  1.00  0.00    -0.237 OA
ATOM     97  O   UNL A   1      38.516  38.165  39.547  1.00  0.00    -0.237 OA
ATOM     98  O   UNL A   1      38.462  36.407  41.272  1.00  0.00    -0.744 OA
ENDBRANCH  94  95
ENDBRANCH  62  87
ENDBRANCH  36  37
ENDBRANCH  28  31
ENDBRANCH  26  27
ENDBRANCH  25  26
ENDBRANCH   1  25
TORSDOF 19
ENDMDL
MODEL 3
REMARK VINA RESULT:     -10.2      5.038      6.476
REMARK SMILES C[NH2+][C@]1(C(=O)NCCCCCCNC(=O)c2ccc(-c3c4nc(c(-c5c(F)cc(S(=O)(=O)[O-])cc5F)c5ccc([nH]5)c(-c5c(F)cc(S(=O)(=O)[O-])cc5F)c5nc(c(-c6c(F)cc(S(=O)(=O)[O-])cc6F)c6ccc3[nH]6)C=C5)C=C4)cc2)CC[C@H](SC2CCCCC2)C1
REMARK SMILES IDX 10 1 9 2 8 3 7 4 6 5 4 6 5 7 3 9 82 10 92 11 83 12 84 13
REMARK SMILES IDX 2 14 1 15 85 18 86 19 87 20 91 21 88 22 90 23 89 24 11 25
REMARK SMILES IDX 12 26 13 27 14 28 15 30 16 31 17 32 81 33 18 34 80 35 19 36
REMARK SMILES IDX 20 37 21 38 74 39 22 40 79 41 73 42 75 43 23 44 78 45 72 46
REMARK SMILES IDX 71 47 24 49 58 50 37 51 57 52 38 53 41 54 56 55 76 56 39 57
REMARK SMILES IDX 40 58 55 60 77 61 42 62 25 63 26 64 35 65 27 66 28 67 34 68
REMARK SMILES IDX 36 69 29 70 30 71 31 72 32 73 33 74 59 75 60 76 69 77 61 78
REMARK SMILES IDX 62 79 68 80 70 81 63 82 64 83 65 84 66 85 67 86 43 87 44 88
REMARK SMILES IDX 53 89 45 90 46 91 52 92 54 93 47 94 48 95 49 96 50 97 51 98
REMARK H PARENT 6 8 2 16 2 17 13 29 75 48 41 59
REMARK Flexibility Score: inf
ROOT
ATOM      1  C   UNL A   1      34.538  29.573  27.198  1.00  0.00     0.002 C 
ENDROOT
BRANCH   1   2
ATOM      2  C   UNL A   1      33.169  28.895  27.265  1.00  0.00     0.002 C 
BRANCH   2   3
ATOM      3  C   UNL A   1      32.120  29.473  26.310  1.00  0.00     0.021 C 
BRANCH   3   4
ATOM      4  C   UNL A   1      32.278  29.008  24.858  1.00  0.00     0.116 C 
BRANCH   4   5
ATOM      5  N   UNL A   1      31.006  28.539  24.338  1.00  0.00    -0.351 N 
ATOM      6  C   UNL A   1      30.601  27.349  23.806  1.00  0.00     0.281 C 
ATOM      7  O   UNL A   1      29.490  27.399  23.265  1.00  0.00    -0.268 OA
ATOM      8  H   UNL A   1      30.292  29.215  24.377  1.00  0.00     0.163 HD
BRANCH   6   9
ATOM      9  C   UNL A   1      31.430  26.021  23.946  1.00  0.00     0.176 C 
ATOM     10  C   UNL A   1      31.944  25.782  25.375  1.00  0.00     0.080 C 
ATOM     11  C   UNL A   1      30.555  24.776  23.685  1.00  0.00     0.093 C 
ATOM     12  C   UNL A   1      32.060  24.275  25.542  1.00  0.00     0.022 C 
ATOM     13  C   UNL A   1      31.182  23.615  24.476  1.00  0.00     0.054 C 
BRANCH   9  14
ATOM     14  N   UNL A   1      32.676  26.035  23.119  1.00  0.00    -0.336 N 
ATOM     15  C   UNL A   1      32.503  25.957  21.676  1.00  0.00     0.331 C 
ATOM     16  H   UNL A   1      33.173  26.902  23.324  1.00  0.00     0.346 HD
ATOM     17  H   UNL A   1      33.178  25.186  23.375  1.00  0.00     0.346 HD
ENDBRANCH   9  14
BRANCH  13  18
ATOM     18  S   UNL A   1      32.146  22.503  23.372  1.00  0.00    -0.155 SA
BRANCH  18  19
ATOM     19  C   UNL A   1      33.838  22.513  24.120  1.00  0.00     0.047 C 
ATOM     20  C   UNL A   1      34.292  21.139  24.621  1.00  0.00     0.014 C 
ATOM     21  C   UNL A   1      34.887  23.163  23.211  1.00  0.00     0.014 C 
ATOM     22  C   UNL A   1      35.656  21.201  25.299  1.00  0.00     0.001 C 
ATOM     23  C   UNL A   1      36.265  23.190  23.882  1.00  0.00     0.001 C 
ATOM     24  C   UNL A   1      36.693  21.805  24.358  1.00  0.00     0.000 C 
ENDBRANCH  18  19
ENDBRANCH  13  18
ENDBRANCH   6   9
ENDBRANCH   4   5
ENDBRANCH   3   4
ENDBRANCH   2   3
ENDBRANCH   1   2
BRANCH   1  25
ATOM     25  C   UNL A   1      34.540  31.048  27.611  1.00  0.00     0.021 C 
BRANCH  25  26
ATOM     26  C   UNL A   1      35.786  31.478  28.380  1.00  0.00     0.116 C 
BRANCH  26  27
ATOM     27  N   UNL A   1      35.636  31.243  29.808  1.00  0.00    -0.352 N 
ATOM     28  C   UNL A   1      36.412  30.481  30.644  1.00  0.00     0.251 C 
ATOM     29  H   UNL A   1      34.872  31.696  30.233  1.00  0.00     0.163 HD
ATOM     30  O   UNL A   1      36.001  30.181  31.761  1.00  0.00    -0.269 OA
BRANCH  28  31
ATOM     31  C   UNL A   1      37.740  30.020  30.189  1.00  0.00     0.039 A 
ATOM     32  C   UNL A   1      38.024  30.007  28.822  1.00  0.00     0.014 A 
ATOM     33  C   UNL A   1      38.698  29.592  31.114  1.00  0.00     0.014 A 
ATOM     34  C   UNL A   1      39.290  29.611  28.386  1.00  0.00     0.010 A 
ATOM     35  C   UNL A   1      39.981  29.269  30.683  1.00  0.00     0.010 A 
ATOM     36  C   UNL A   1      40.288  29.268  29.314  1.00  0.00    -0.014 A 
BRANCH  36  37
ATOM     37  C   UNL A   1      41.657  28.898  28.872  1.00  0.00     0.031 A 
ATOM     38  C   UNL A   1      42.736  29.944  28.798  1.00  0.00     0.074 A 
ATOM     39  C   UNL A   1      41.909  27.633  28.480  1.00  0.00     0.049 A 
ATOM     40  N   UNL A   1      43.968  29.831  28.378  1.00  0.00    -0.248 NA
ATOM     41  C   UNL A   1      42.373  31.304  29.231  1.00  0.00     0.031 C 
ATOM     42  C   UNL A   1      40.931  26.542  28.462  1.00  0.00     0.029 A 
ATOM     43  N   UNL A   1      43.061  27.052  28.011  1.00  0.00    -0.354 N 
ATOM     44  C   UNL A   1      44.524  31.100  28.483  1.00  0.00     0.074 A 
ATOM     45  C   UNL A   1      43.478  31.981  28.952  1.00  0.00     0.031 C 
ATOM     46  C   UNL A   1      41.530  25.422  28.030  1.00  0.00     0.029 A 
ATOM     47  C   UNL A   1      42.921  25.720  27.700  1.00  0.00     0.049 A 
ATOM     48  H   UNL A   1      43.907  27.544  27.907  1.00  0.00     0.167 HD
ATOM     49  C   UNL A   1      45.796  31.492  28.233  1.00  0.00     0.037 A 
ATOM     50  C   UNL A   1      43.810  24.841  27.199  1.00  0.00     0.037 A 
ATOM     51  C   UNL A   1      46.837  30.602  27.785  1.00  0.00     0.049 A 
ATOM     52  C   UNL A   1      45.216  25.301  26.922  1.00  0.00     0.074 A 
ATOM     53  C   UNL A   1      48.172  30.887  27.556  1.00  0.00     0.029 A 
ATOM     54  N   UNL A   1      46.661  29.256  27.497  1.00  0.00    -0.354 N 
ATOM     55  N   UNL A   1      45.741  26.492  27.085  1.00  0.00    -0.248 NA
ATOM     56  C   UNL A   1      46.152  24.297  26.398  1.00  0.00     0.031 C 
ATOM     57  C   UNL A   1      48.791  29.726  27.082  1.00  0.00     0.029 A 
ATOM     58  C   UNL A   1      47.856  28.702  27.070  1.00  0.00     0.049 A 
ATOM     59  H   UNL A   1      45.811  28.766  27.584  1.00  0.00     0.167 HD
ATOM     60  C   UNL A   1      47.075  26.374  26.714  1.00  0.00     0.074 A 
ATOM     61  C   UNL A   1      47.279  24.993  26.327  1.00  0.00     0.031 C 
ATOM     62  C   UNL A   1      48.044  27.323  26.695  1.00  0.00     0.037 A 
BRANCH  49  63
ATOM     63  C   UNL A   1      46.136  32.943  28.440  1.00  0.00     0.058 A 
ATOM     64  C   UNL A   1      46.599  33.423  29.676  1.00  0.00     0.135 A 
ATOM     65  C   UNL A   1      46.035  33.860  27.381  1.00  0.00     0.135 A 
ATOM     66  F   UNL A   1      46.701  32.595  30.728  1.00  0.00    -0.206 F 
ATOM     67  C   UNL A   1      46.920  34.764  29.863  1.00  0.00     0.059 A 
ATOM     68  C   UNL A   1      46.380  35.199  27.537  1.00  0.00     0.059 A 
ATOM     69  F   UNL A   1      45.598  33.457  26.177  1.00  0.00    -0.206 F 
ATOM     70  C   UNL A   1      46.808  35.644  28.786  1.00  0.00     0.060 A 
BRANCH  70  71
ATOM     71  S   UNL A   1      47.236  37.379  29.045  1.00  0.00     0.124 S 
ATOM     72  O   UNL A   1      46.939  37.544  30.465  1.00  0.00    -0.237 OA
ATOM     73  O   UNL A   1      48.650  37.408  28.686  1.00  0.00    -0.237 OA
ATOM     74  O   UNL A   1      46.345  38.090  28.132  1.00  0.00    -0.744 OA
ENDBRANCH  70  71
ENDBRANCH  49  63
BRANCH  50  75
ATOM     75  C   UNL A   1      43.402  23.432  26.947  1.00  0.00     0.058 A 
ATOM     76  C   UNL A   1      43.208  22.537  28.009  1.00  0.00     0.135 A 
ATOM     77  C   UNL A   1      43.185  22.957  25.645  1.00  0.00     0.135 A 
ATOM     78  F   UNL A   1      43.408  22.941  29.273  1.00  0.00    -0.206 F 
ATOM     79  C   UNL A   1      42.832  21.215  27.790  1.00  0.00     0.059 A 
ATOM     80  C   UNL A   1      42.782  21.649  25.400  1.00  0.00     0.059 A 
ATOM     81  F   UNL A   1      43.338  23.779  24.594  1.00  0.00    -0.206 F 
ATOM     82  C   UNL A   1      42.618  20.781  26.480  1.00  0.00     0.060 A 
BRANCH  82  83
ATOM     83  S   UNL A   1      42.086  19.077  26.208  1.00  0.00     0.124 S 
ATOM     84  O   UNL A   1      43.000  18.649  25.155  1.00  0.00    -0.237 OA
ATOM     85  O   UNL A   1      42.298  18.478  27.522  1.00  0.00    -0.237 OA
ATOM     86  O   UNL A   1      40.689  19.222  25.811  1.00  0.00    -0.744 OA
ENDBRANCH  82  83
ENDBRANCH  50  75
BRANCH  62  87
ATOM     87  C   UNL A   1      49.425  26.895  26.278  1.00  0.00     0.058 A 
ATOM     88  C   UNL A   1      50.326  26.319  27.187  1.00  0.00     0.135 A 
ATOM     89  C   UNL A   1      49.830  27.014  24.939  1.00  0.00     0.135 A 
ATOM     90  F   UNL A   1      49.992  26.188  28.480  1.00  0.00    -0.206 F 
ATOM     91  C   UNL A   1      51.590  25.898  26.787  1.00  0.00     0.059 A 
ATOM     92  C   UNL A   1      51.078  26.573  24.510  1.00  0.00     0.059 A 
ATOM     93  F   UNL A   1      49.003  27.548  24.026  1.00  0.00    -0.206 F 
ATOM     94  C   UNL A   1      51.957  26.027  25.445  1.00  0.00     0.060 A 
BRANCH  94  95
ATOM     95  S   UNL A   1      53.587  25.443  24.933  1.00  0.00     0.124 S 
ATOM     96  O   UNL A   1      53.484  24.012  25.203  1.00  0.00    -0.237 OA
ATOM     97  O   UNL A   1      53.624  25.822  23.525  1.00  0.00    -0.237 OA
ATOM     98  O   UNL A   1      54.500  26.181  25.799  1.00  0.00    -0.744 OA
ENDBRANCH  94  95
ENDBRANCH  62  87
ENDBRANCH  36  37
ENDBRANCH  28  31
ENDBRANCH  26  27
ENDBRANCH  25  26
ENDBRANCH   1  25
TORSDOF 19
ENDMDL
