MODEL 1
REMARK VINA RESULT:     -12.1      0.000      0.000
REMARK SMILES O=C(NCCCCCCNC(=O)[C@@H]1CCCC[C@H]1C(=O)Nc1ccc(NC(=O)c2ccco2)cc1)c1ccc(-c2c3nc(c(-c4c(F)cc(S(=O)(=O)[O-])cc4F)c4ccc([nH]4)c(-c4c(F)cc(S(=O)(=O)[O-])cc4F)c4nc(c(-c5c(F)cc(S(=O)(=O)[O-])cc5F)c5ccc2[nH]5)C=C4)C=C3)cc1
REMARK SMILES IDX 7 1 6 2 5 3 4 4 3 5 1 6 2 7 36 9 37 10 101 11 38 12 100 13
REMARK SMILES IDX 39 14 40 15 41 16 94 17 42 18 99 19 93 20 95 21 43 22 98 23
REMARK SMILES IDX 92 24 91 25 44 27 78 28 57 29 77 30 58 31 61 32 76 33 96 34
REMARK SMILES IDX 59 35 60 36 75 38 97 39 62 40 45 41 46 42 55 43 47 44 48 45
REMARK SMILES IDX 54 46 56 47 49 48 50 49 51 50 52 51 53 52 79 53 80 54 89 55
REMARK SMILES IDX 81 56 82 57 88 58 90 59 83 60 84 61 85 62 86 63 87 64 63 65
REMARK SMILES IDX 64 66 73 67 65 68 66 69 72 70 74 71 67 72 68 73 69 74 70 75
REMARK SMILES IDX 71 76 8 77 9 78 10 79 11 80 12 82 13 83 14 84 18 85 15 86
REMARK SMILES IDX 17 87 16 88 19 89 20 90 21 91 22 93 23 94 35 95 24 96 34 97
REMARK SMILES IDX 25 98 26 99 27 100 28 102 29 103 30 104 33 105 31 106 32 107
REMARK H PARENT 3 8 95 26 61 37 10 81 21 92 26 101
REMARK Flexibility Score: inf
ROOT
ATOM      1  C   UNL A   1      32.154  28.306  27.584  1.00  0.00     0.002 C 
ENDROOT
BRANCH   1   2
ATOM      2  C   UNL A   1      33.503  28.481  26.879  1.00  0.00     0.002 C 
BRANCH   2   3
ATOM      3  C   UNL A   1      34.210  29.810  27.142  1.00  0.00     0.021 C 
BRANCH   3   4
ATOM      4  C   UNL A   1      35.576  29.680  27.801  1.00  0.00     0.116 C 
BRANCH   4   5
ATOM      5  N   UNL A   1      35.517  29.942  29.227  1.00  0.00    -0.352 N 
ATOM      6  O   UNL A   1      36.226  29.825  31.367  1.00  0.00    -0.269 OA
ATOM      7  C   UNL A   1      36.494  29.749  30.171  1.00  0.00     0.251 C 
ATOM      8  H   UNL A   1      34.665  30.305  29.562  1.00  0.00     0.163 HD
BRANCH   7   9
ATOM      9  C   UNL A   1      37.870  29.432  29.732  1.00  0.00     0.039 A 
ATOM     10  C   UNL A   1      38.788  28.880  30.631  1.00  0.00     0.014 A 
ATOM     11  C   UNL A   1      38.244  29.690  28.412  1.00  0.00     0.014 A 
ATOM     12  C   UNL A   1      40.108  28.696  30.242  1.00  0.00     0.010 A 
ATOM     13  C   UNL A   1      39.553  29.427  27.999  1.00  0.00     0.010 A 
ATOM     14  C   UNL A   1      40.500  28.946  28.915  1.00  0.00    -0.014 A 
BRANCH  14  15
ATOM     15  C   UNL A   1      41.885  28.615  28.496  1.00  0.00     0.031 A 
ATOM     16  C   UNL A   1      42.255  27.232  28.041  1.00  0.00     0.074 A 
ATOM     17  C   UNL A   1      42.808  29.596  28.514  1.00  0.00     0.049 A 
ATOM     18  N   UNL A   1      43.415  26.786  27.630  1.00  0.00    -0.248 NA
ATOM     19  C   UNL A   1      41.192  26.215  28.053  1.00  0.00     0.031 C 
ATOM     20  C   UNL A   1      42.562  30.973  28.956  1.00  0.00     0.029 A 
ATOM     21  N   UNL A   1      44.125  29.601  28.139  1.00  0.00    -0.354 N 
ATOM     22  C   UNL A   1      43.230  25.436  27.353  1.00  0.00     0.074 A 
ATOM     23  C   UNL A   1      41.849  25.131  27.662  1.00  0.00     0.031 C 
ATOM     24  C   UNL A   1      43.675  31.697  28.783  1.00  0.00     0.029 A 
ATOM     25  C   UNL A   1      44.730  30.828  28.276  1.00  0.00     0.049 A 
ATOM     26  H   UNL A   1      44.593  28.802  27.804  1.00  0.00     0.167 HD
ATOM     27  C   UNL A   1      44.131  24.541  26.880  1.00  0.00     0.037 A 
ATOM     28  C   UNL A   1      45.998  31.210  28.034  1.00  0.00     0.037 A 
ATOM     29  C   UNL A   1      45.500  24.863  26.564  1.00  0.00     0.049 A 
ATOM     30  C   UNL A   1      46.974  30.197  27.516  1.00  0.00     0.074 A 
ATOM     31  C   UNL A   1      46.484  24.033  26.052  1.00  0.00     0.029 A 
ATOM     32  N   UNL A   1      46.082  26.111  26.733  1.00  0.00    -0.354 N 
ATOM     33  N   UNL A   1      46.774  28.931  27.236  1.00  0.00    -0.248 NA
ATOM     34  C   UNL A   1      48.348  30.659  27.284  1.00  0.00     0.031 C 
ATOM     35  C   UNL A   1      47.669  24.771  25.945  1.00  0.00     0.029 A 
ATOM     36  C   UNL A   1      47.413  26.071  26.351  1.00  0.00     0.049 A 
ATOM     37  H   UNL A   1      45.616  26.909  27.075  1.00  0.00     0.167 HD
ATOM     38  C   UNL A   1      47.995  28.447  26.784  1.00  0.00     0.074 A 
ATOM     39  C   UNL A   1      48.921  29.562  26.810  1.00  0.00     0.031 C 
ATOM     40  C   UNL A   1      48.320  27.192  26.387  1.00  0.00     0.037 A 
BRANCH  27  41
ATOM     41  C   UNL A   1      43.671  23.121  26.689  1.00  0.00     0.058 A 
ATOM     42  C   UNL A   1      43.567  22.545  25.413  1.00  0.00     0.135 A 
ATOM     43  C   UNL A   1      43.372  22.313  27.797  1.00  0.00     0.135 A 
ATOM     44  F   UNL A   1      43.827  23.275  24.317  1.00  0.00    -0.206 F 
ATOM     45  C   UNL A   1      43.158  21.225  25.242  1.00  0.00     0.059 A 
ATOM     46  C   UNL A   1      42.982  20.984  27.651  1.00  0.00     0.059 A 
ATOM     47  F   UNL A   1      43.455  22.813  29.040  1.00  0.00    -0.206 F 
ATOM     48  C   UNL A   1      42.864  20.453  26.366  1.00  0.00     0.060 A 
BRANCH  48  49
ATOM     49  S   UNL A   1      42.333  18.744  26.128  1.00  0.00     0.124 S 
ATOM     50  O   UNL A   1      42.512  18.196  27.469  1.00  0.00    -0.237 OA
ATOM     51  O   UNL A   1      40.952  18.903  25.689  1.00  0.00    -0.237 OA
ATOM     52  O   UNL A   1      43.256  18.239  25.116  1.00  0.00    -0.744 OA
ENDBRANCH  48  49
ENDBRANCH  27  41
BRANCH  28  53
ATOM     53  C   UNL A   1      46.400  32.617  28.284  1.00  0.00     0.058 A 
ATOM     54  C   UNL A   1      46.958  33.003  29.511  1.00  0.00     0.135 A 
ATOM     55  C   UNL A   1      46.275  33.595  27.284  1.00  0.00     0.135 A 
ATOM     56  F   UNL A   1      47.096  32.103  30.497  1.00  0.00    -0.206 F 
ATOM     57  C   UNL A   1      47.370  34.311  29.743  1.00  0.00     0.059 A 
ATOM     58  C   UNL A   1      46.703  34.903  27.483  1.00  0.00     0.059 A 
ATOM     59  F   UNL A   1      45.766  33.269  26.085  1.00  0.00    -0.206 F 
ATOM     60  C   UNL A   1      47.241  35.253  28.720  1.00  0.00     0.060 A 
BRANCH  60  61
ATOM     61  S   UNL A   1      47.835  36.934  29.008  1.00  0.00     0.124 S 
ATOM     62  O   UNL A   1      47.350  37.623  27.817  1.00  0.00    -0.237 OA
ATOM     63  O   UNL A   1      47.176  37.285  30.262  1.00  0.00    -0.237 OA
ATOM     64  O   UNL A   1      49.282  36.765  29.096  1.00  0.00    -0.744 OA
ENDBRANCH  60  61
ENDBRANCH  28  53
BRANCH  40  65
ATOM     65  C   UNL A   1      49.733  26.969  25.930  1.00  0.00     0.058 A 
ATOM     66  C   UNL A   1      50.733  26.539  26.816  1.00  0.00     0.135 A 
ATOM     67  C   UNL A   1      50.084  27.163  24.585  1.00  0.00     0.135 A 
ATOM     68  F   UNL A   1      50.448  26.349  28.114  1.00  0.00    -0.206 F 
ATOM     69  C   UNL A   1      52.040  26.335  26.390  1.00  0.00     0.059 A 
ATOM     70  C   UNL A   1      51.380  26.942  24.132  1.00  0.00     0.059 A 
ATOM     71  F   UNL A   1      49.162  27.567  23.697  1.00  0.00    -0.206 F 
ATOM     72  C   UNL A   1      52.356  26.542  25.045  1.00  0.00     0.060 A 
BRANCH  72  73
ATOM     73  S   UNL A   1      54.051  26.255  24.497  1.00  0.00     0.124 S 
ATOM     74  O   UNL A   1      54.779  27.267  25.255  1.00  0.00    -0.237 OA
ATOM     75  O   UNL A   1      54.283  24.872  24.900  1.00  0.00    -0.237 OA
ATOM     76  O   UNL A   1      53.982  26.477  23.056  1.00  0.00    -0.744 OA
ENDBRANCH  72  73
ENDBRANCH  40  65
ENDBRANCH  14  15
ENDBRANCH   7   9
ENDBRANCH   4   5
ENDBRANCH   3   4
ENDBRANCH   2   3
ENDBRANCH   1   2
BRANCH   1  77
ATOM     77  C   UNL A   1      31.333  27.097  27.130  1.00  0.00     0.021 C 
BRANCH  77  78
ATOM     78  C   UNL A   1      32.132  26.043  26.372  1.00  0.00     0.116 C 
BRANCH  78  79
ATOM     79  N   UNL A   1      31.372  24.824  26.190  1.00  0.00    -0.356 N 
ATOM     80  C   UNL A   1      31.755  23.603  25.744  1.00  0.00     0.223 C 
ATOM     81  H   UNL A   1      30.421  24.893  26.430  1.00  0.00     0.163 HD
ATOM     82  O   UNL A   1      30.894  22.725  25.633  1.00  0.00    -0.275 OA
BRANCH  80  83
ATOM     83  C   UNL A   1      33.200  23.298  25.384  1.00  0.00     0.091 C 
ATOM     84  C   UNL A   1      34.186  23.582  26.525  1.00  0.00     0.014 C 
ATOM     85  C   UNL A   1      33.613  23.860  24.018  1.00  0.00     0.091 C 
ATOM     86  C   UNL A   1      35.610  23.212  26.120  1.00  0.00     0.001 C 
ATOM     87  C   UNL A   1      35.078  23.548  23.676  1.00  0.00     0.014 C 
ATOM     88  C   UNL A   1      36.015  23.916  24.829  1.00  0.00     0.001 C 
BRANCH  85  89
ATOM     89  C   UNL A   1      32.637  23.602  22.851  1.00  0.00     0.228 C 
ATOM     90  O   UNL A   1      32.625  22.483  22.321  1.00  0.00    -0.274 OA
ATOM     91  N   UNL A   1      31.676  24.478  22.433  1.00  0.00    -0.326 N 
ATOM     92  H   UNL A   1      31.019  24.096  21.807  1.00  0.00     0.169 HD
BRANCH  91  93
ATOM     93  C   UNL A   1      31.467  25.820  22.743  1.00  0.00     0.041 A 
ATOM     94  C   UNL A   1      30.214  26.210  23.195  1.00  0.00     0.028 A 
ATOM     95  C   UNL A   1      32.446  26.787  22.580  1.00  0.00     0.028 A 
ATOM     96  C   UNL A   1      30.030  27.500  23.704  1.00  0.00     0.028 A 
ATOM     97  C   UNL A   1      32.282  28.057  23.133  1.00  0.00     0.028 A 
ATOM     98  C   UNL A   1      31.096  28.396  23.785  1.00  0.00     0.041 A 
BRANCH  98  99
ATOM     99  N   UNL A   1      31.091  29.617  24.482  1.00  0.00    -0.319 N 
ATOM    100  C   UNL A   1      30.330  30.764  24.375  1.00  0.00     0.291 C 
ATOM    101  H   UNL A   1      31.770  29.662  25.193  1.00  0.00     0.170 HD
ATOM    102  O   UNL A   1      30.577  31.677  25.168  1.00  0.00    -0.265 OA
BRANCH 100 103
ATOM    103  C   UNL A   1      29.281  30.855  23.394  1.00  0.00     0.191 A 
ATOM    104  C   UNL A   1      27.910  31.007  23.504  1.00  0.00     0.056 A 
ATOM    105  O   UNL A   1      29.626  30.751  22.074  1.00  0.00    -0.459 OA
ATOM    106  C   UNL A   1      27.393  30.943  22.185  1.00  0.00     0.043 A 
ATOM    107  C   UNL A   1      28.478  30.797  21.354  1.00  0.00     0.196 A 
ENDBRANCH 100 103
ENDBRANCH  98  99
ENDBRANCH  91  93
ENDBRANCH  85  89
ENDBRANCH  80  83
ENDBRANCH  78  79
ENDBRANCH  77  78
ENDBRANCH   1  77
TORSDOF 20
ENDMDL
MODEL 2
REMARK VINA RESULT:     -11.9      1.527      8.796
REMARK SMILES O=C(NCCCCCCNC(=O)[C@@H]1CCCC[C@H]1C(=O)Nc1ccc(NC(=O)c2ccco2)cc1)c1ccc(-c2c3nc(c(-c4c(F)cc(S(=O)(=O)[O-])cc4F)c4ccc([nH]4)c(-c4c(F)cc(S(=O)(=O)[O-])cc4F)c4nc(c(-c5c(F)cc(S(=O)(=O)[O-])cc5F)c5ccc2[nH]5)C=C4)C=C3)cc1
REMARK SMILES IDX 7 1 6 2 5 3 4 4 3 5 1 6 2 7 36 9 37 10 101 11 38 12 100 13
REMARK SMILES IDX 39 14 40 15 41 16 94 17 42 18 99 19 93 20 95 21 43 22 98 23
REMARK SMILES IDX 92 24 91 25 44 27 78 28 57 29 77 30 58 31 61 32 76 33 96 34
REMARK SMILES IDX 59 35 60 36 75 38 97 39 62 40 45 41 46 42 55 43 47 44 48 45
REMARK SMILES IDX 54 46 56 47 49 48 50 49 51 50 52 51 53 52 79 53 80 54 89 55
REMARK SMILES IDX 81 56 82 57 88 58 90 59 83 60 84 61 85 62 86 63 87 64 63 65
REMARK SMILES IDX 64 66 73 67 65 68 66 69 72 70 74 71 67 72 68 73 69 74 70 75
REMARK SMILES IDX 71 76 8 77 9 78 10 79 11 80 12 82 13 83 14 84 18 85 15 86
REMARK SMILES IDX 17 87 16 88 19 89 20 90 21 91 22 93 23 94 35 95 24 96 34 97
REMARK SMILES IDX 25 98 26 99 27 100 28 102 29 103 30 104 33 105 31 106 32 107
REMARK H PARENT 3 8 95 26 61 37 10 81 21 92 26 101
REMARK Flexibility Score: inf
ROOT
ATOM      1  C   UNL A   1      34.001  30.965  27.248  1.00  0.00     0.002 C 
ENDROOT
BRANCH   1   2
ATOM      2  C   UNL A   1      34.172  32.178  28.168  1.00  0.00     0.002 C 
BRANCH   2   3
ATOM      3  C   UNL A   1      35.435  33.006  27.931  1.00  0.00     0.021 C 
BRANCH   3   4
ATOM      4  C   UNL A   1      36.505  32.847  29.001  1.00  0.00     0.116 C 
BRANCH   4   5
ATOM      5  N   UNL A   1      36.047  32.029  30.109  1.00  0.00    -0.352 N 
ATOM      6  O   UNL A   1      35.981  30.187  31.411  1.00  0.00    -0.269 OA
ATOM      7  C   UNL A   1      36.598  30.873  30.601  1.00  0.00     0.251 C 
ATOM      8  H   UNL A   1      35.234  32.345  30.568  1.00  0.00     0.163 HD
BRANCH   7   9
ATOM      9  C   UNL A   1      37.937  30.454  30.132  1.00  0.00     0.039 A 
ATOM     10  C   UNL A   1      39.005  30.371  31.030  1.00  0.00     0.014 A 
ATOM     11  C   UNL A   1      38.123  30.143  28.784  1.00  0.00     0.014 A 
ATOM     12  C   UNL A   1      40.281  30.091  30.559  1.00  0.00     0.010 A 
ATOM     13  C   UNL A   1      39.393  29.782  28.326  1.00  0.00     0.010 A 
ATOM     14  C   UNL A   1      40.485  29.771  29.206  1.00  0.00    -0.014 A 
BRANCH  14  15
ATOM     15  C   UNL A   1      41.836  29.348  28.759  1.00  0.00     0.031 A 
ATOM     16  C   UNL A   1      42.981  30.319  28.702  1.00  0.00     0.074 A 
ATOM     17  C   UNL A   1      42.019  28.057  28.420  1.00  0.00     0.049 A 
ATOM     18  N   UNL A   1      44.222  30.104  28.348  1.00  0.00    -0.248 NA
ATOM     19  C   UNL A   1      42.700  31.711  29.085  1.00  0.00     0.031 C 
ATOM     20  C   UNL A   1      40.970  27.031  28.420  1.00  0.00     0.029 A 
ATOM     21  N   UNL A   1      43.143  27.379  28.030  1.00  0.00    -0.354 N 
ATOM     22  C   UNL A   1      44.867  31.331  28.445  1.00  0.00     0.074 A 
ATOM     23  C   UNL A   1      43.873  32.293  28.874  1.00  0.00     0.031 C 
ATOM     24  C   UNL A   1      41.510  25.849  28.095  1.00  0.00     0.029 A 
ATOM     25  C   UNL A   1      42.926  26.040  27.804  1.00  0.00     0.049 A 
ATOM     26  H   UNL A   1      44.022  27.809  27.921  1.00  0.00     0.167 HD
ATOM     27  C   UNL A   1      46.168  31.623  28.205  1.00  0.00     0.037 A 
ATOM     28  C   UNL A   1      43.768  25.074  27.394  1.00  0.00     0.037 A 
ATOM     29  C   UNL A   1      47.150  30.651  27.791  1.00  0.00     0.049 A 
ATOM     30  C   UNL A   1      45.202  25.427  27.130  1.00  0.00     0.074 A 
ATOM     31  C   UNL A   1      48.501  30.841  27.550  1.00  0.00     0.029 A 
ATOM     32  N   UNL A   1      46.889  29.309  27.555  1.00  0.00    -0.354 N 
ATOM     33  N   UNL A   1      45.799  26.588  27.252  1.00  0.00    -0.248 NA
ATOM     34  C   UNL A   1      46.076  24.342  26.668  1.00  0.00     0.031 C 
ATOM     35  C   UNL A   1      49.048  29.621  27.133  1.00  0.00     0.029 A 
ATOM     36  C   UNL A   1      48.047  28.663  27.155  1.00  0.00     0.049 A 
ATOM     37  H   UNL A   1      46.009  28.879  27.656  1.00  0.00     0.167 HD
ATOM     38  C   UNL A   1      47.123  26.372  26.892  1.00  0.00     0.074 A 
ATOM     39  C   UNL A   1      47.243  24.964  26.568  1.00  0.00     0.031 C 
ATOM     40  C   UNL A   1      48.146  27.260  26.833  1.00  0.00     0.037 A 
BRANCH  27  41
ATOM     41  C   UNL A   1      46.606  33.053  28.365  1.00  0.00     0.058 A 
ATOM     42  C   UNL A   1      46.534  33.970  27.304  1.00  0.00     0.135 A 
ATOM     43  C   UNL A   1      47.063  33.524  29.606  1.00  0.00     0.135 A 
ATOM     44  F   UNL A   1      46.116  33.571  26.092  1.00  0.00    -0.206 F 
ATOM     45  C   UNL A   1      46.923  35.297  27.462  1.00  0.00     0.059 A 
ATOM     46  C   UNL A   1      47.437  34.853  29.793  1.00  0.00     0.059 A 
ATOM     47  F   UNL A   1      47.152  32.690  30.654  1.00  0.00    -0.206 F 
ATOM     48  C   UNL A   1      47.377  35.729  28.709  1.00  0.00     0.060 A 
BRANCH  48  49
ATOM     49  S   UNL A   1      47.880  37.453  28.898  1.00  0.00     0.124 S 
ATOM     50  O   UNL A   1      46.899  38.134  28.059  1.00  0.00    -0.237 OA
ATOM     51  O   UNL A   1      47.741  37.665  30.334  1.00  0.00    -0.237 OA
ATOM     52  O   UNL A   1      49.251  37.463  28.396  1.00  0.00    -0.744 OA
ENDBRANCH  48  49
ENDBRANCH  27  41
BRANCH  28  53
ATOM     53  C   UNL A   1      43.265  23.689  27.213  1.00  0.00     0.058 A 
ATOM     54  C   UNL A   1      43.136  22.819  28.305  1.00  0.00     0.135 A 
ATOM     55  C   UNL A   1      42.862  23.222  25.952  1.00  0.00     0.135 A 
ATOM     56  F   UNL A   1      43.509  23.221  29.530  1.00  0.00    -0.206 F 
ATOM     57  C   UNL A   1      42.633  21.532  28.153  1.00  0.00     0.059 A 
ATOM     58  C   UNL A   1      42.333  21.949  25.778  1.00  0.00     0.059 A 
ATOM     59  F   UNL A   1      42.948  24.026  24.879  1.00  0.00    -0.206 F 
ATOM     60  C   UNL A   1      42.231  21.107  26.885  1.00  0.00     0.060 A 
BRANCH  60  61
ATOM     61  S   UNL A   1      41.522  19.456  26.706  1.00  0.00     0.124 S 
ATOM     62  O   UNL A   1      42.718  18.644  26.514  1.00  0.00    -0.237 OA
ATOM     63  O   UNL A   1      40.826  19.278  27.976  1.00  0.00    -0.237 OA
ATOM     64  O   UNL A   1      40.654  19.591  25.540  1.00  0.00    -0.744 OA
ENDBRANCH  60  61
ENDBRANCH  28  53
BRANCH  40  65
ATOM     65  C   UNL A   1      49.487  26.725  26.421  1.00  0.00     0.058 A 
ATOM     66  C   UNL A   1      49.928  26.792  25.090  1.00  0.00     0.135 A 
ATOM     67  C   UNL A   1      50.351  26.160  27.373  1.00  0.00     0.135 A 
ATOM     68  F   UNL A   1      49.134  27.315  24.142  1.00  0.00    -0.206 F 
ATOM     69  C   UNL A   1      51.169  26.295  24.712  1.00  0.00     0.059 A 
ATOM     70  C   UNL A   1      51.606  25.677  27.021  1.00  0.00     0.059 A 
ATOM     71  F   UNL A   1      49.978  26.079  28.660  1.00  0.00    -0.206 F 
ATOM     72  C   UNL A   1      52.001  25.735  25.684  1.00  0.00     0.060 A 
BRANCH  72  73
ATOM     73  S   UNL A   1      53.619  25.110  25.187  1.00  0.00     0.124 S 
ATOM     74  O   UNL A   1      54.479  25.667  26.227  1.00  0.00    -0.237 OA
ATOM     75  O   UNL A   1      53.426  23.665  25.230  1.00  0.00    -0.237 OA
ATOM     76  O   UNL A   1      53.803  25.672  23.852  1.00  0.00    -0.744 OA
ENDBRANCH  72  73
ENDBRANCH  40  65
ENDBRANCH  14  15
ENDBRANCH   7   9
ENDBRANCH   4   5
ENDBRANCH   3   4
ENDBRANCH   2   3
ENDBRANCH   1   2
BRANCH   1  77
ATOM     77  C   UNL A   1      32.597  30.356  27.226  1.00  0.00     0.021 C 
BRANCH  77  78
ATOM     78  C   UNL A   1      32.384  29.306  26.141  1.00  0.00     0.116 C 
BRANCH  78  79
ATOM     79  N   UNL A   1      31.360  29.709  25.200  1.00  0.00    -0.356 N 
ATOM     80  C   UNL A   1      30.972  29.155  24.026  1.00  0.00     0.223 C 
ATOM     81  H   UNL A   1      30.864  30.519  25.455  1.00  0.00     0.163 HD
ATOM     82  O   UNL A   1      30.092  29.724  23.374  1.00  0.00    -0.275 OA
BRANCH  80  83
ATOM     83  C   UNL A   1      31.588  27.867  23.505  1.00  0.00     0.091 C 
ATOM     84  C   UNL A   1      32.703  28.097  22.476  1.00  0.00     0.014 C 
ATOM     85  C   UNL A   1      30.544  26.818  23.102  1.00  0.00     0.091 C 
ATOM     86  C   UNL A   1      33.313  26.772  22.026  1.00  0.00     0.001 C 
ATOM     87  C   UNL A   1      31.186  25.528  22.570  1.00  0.00     0.014 C 
ATOM     88  C   UNL A   1      32.241  25.823  21.501  1.00  0.00     0.001 C 
BRANCH  85  89
ATOM     89  C   UNL A   1      29.402  26.571  24.110  1.00  0.00     0.228 C 
ATOM     90  O   UNL A   1      28.295  27.083  23.892  1.00  0.00    -0.274 OA
ATOM     91  N   UNL A   1      29.472  25.714  25.170  1.00  0.00    -0.326 N 
ATOM     92  H   UNL A   1      28.608  25.529  25.604  1.00  0.00     0.169 HD
BRANCH  91  93
ATOM     93  C   UNL A   1      30.559  25.056  25.740  1.00  0.00     0.041 A 
ATOM     94  C   UNL A   1      30.454  23.694  25.992  1.00  0.00     0.028 A 
ATOM     95  C   UNL A   1      31.724  25.710  26.104  1.00  0.00     0.028 A 
ATOM     96  C   UNL A   1      31.588  22.969  26.371  1.00  0.00     0.028 A 
ATOM     97  C   UNL A   1      32.869  24.984  26.433  1.00  0.00     0.028 A 
ATOM     98  C   UNL A   1      32.832  23.591  26.481  1.00  0.00     0.041 A 
BRANCH  98  99
ATOM     99  N   UNL A   1      34.068  22.935  26.623  1.00  0.00    -0.319 N 
ATOM    100  C   UNL A   1      34.575  21.753  26.120  1.00  0.00     0.291 C 
ATOM    101  H   UNL A   1      34.702  23.419  27.199  1.00  0.00     0.170 HD
ATOM    102  O   UNL A   1      35.731  21.460  26.435  1.00  0.00    -0.265 OA
BRANCH 100 103
ATOM    103  C   UNL A   1      33.780  20.932  25.246  1.00  0.00     0.191 A 
ATOM    104  C   UNL A   1      33.369  21.088  23.934  1.00  0.00     0.056 A 
ATOM    105  O   UNL A   1      33.272  19.765  25.749  1.00  0.00    -0.459 OA
ATOM    106  C   UNL A   1      32.530  19.984  23.642  1.00  0.00     0.043 A 
ATOM    107  C   UNL A   1      32.512  19.205  24.775  1.00  0.00     0.196 A 
ENDBRANCH 100 103
ENDBRANCH  98  99
ENDBRANCH  91  93
ENDBRANCH  85  89
ENDBRANCH  80  83
ENDBRANCH  78  79
ENDBRANCH  77  78
ENDBRANCH   1  77
TORSDOF 20
ENDMDL
MODEL 3
REMARK VINA RESULT:     -11.8      1.448      4.044
REMARK SMILES O=C(NCCCCCCNC(=O)[C@@H]1CCCC[C@H]1C(=O)Nc1ccc(NC(=O)c2ccco2)cc1)c1ccc(-c2c3nc(c(-c4c(F)cc(S(=O)(=O)[O-])cc4F)c4ccc([nH]4)c(-c4c(F)cc(S(=O)(=O)[O-])cc4F)c4nc(c(-c5c(F)cc(S(=O)(=O)[O-])cc5F)c5ccc2[nH]5)C=C4)C=C3)cc1
REMARK SMILES IDX 7 1 6 2 5 3 4 4 3 5 1 6 2 7 36 9 37 10 101 11 38 12 100 13
REMARK SMILES IDX 39 14 40 15 41 16 94 17 42 18 99 19 93 20 95 21 43 22 98 23
REMARK SMILES IDX 92 24 91 25 44 27 78 28 57 29 77 30 58 31 61 32 76 33 96 34
REMARK SMILES IDX 59 35 60 36 75 38 97 39 62 40 45 41 46 42 55 43 47 44 48 45
REMARK SMILES IDX 54 46 56 47 49 48 50 49 51 50 52 51 53 52 79 53 80 54 89 55
REMARK SMILES IDX 81 56 82 57 88 58 90 59 83 60 84 61 85 62 86 63 87 64 63 65
REMARK SMILES IDX 64 66 73 67 65 68 66 69 72 70 74 71 67 72 68 73 69 74 70 75
REMARK SMILES IDX 71 76 8 77 9 78 10 79 11 80 12 82 13 83 14 84 18 85 15 86
REMARK SMILES IDX 17 87 16 88 19 89 20 90 21 91 22 93 23 94 35 95 24 96 34 97
REMARK SMILES IDX 25 98 26 99 27 100 28 102 29 103 30 104 33 105 31 106 32 107
REMARK H PARENT 3 8 95 26 61 37 10 81 21 92 26 101
REMARK Flexibility Score: inf
ROOT
ATOM      1  C   UNL A   1      33.549  31.283  27.504  1.00  0.00     0.002 C 
ENDROOT
BRANCH   1   2
ATOM      2  C   UNL A   1      35.073  31.378  27.630  1.00  0.00     0.002 C 
BRANCH   2   3
ATOM      3  C   UNL A   1      35.605  32.728  28.113  1.00  0.00     0.021 C 
BRANCH   3   4
ATOM      4  C   UNL A   1      36.600  32.641  29.262  1.00  0.00     0.116 C 
BRANCH   4   5
ATOM      5  N   UNL A   1      36.148  31.737  30.303  1.00  0.00    -0.352 N 
ATOM      6  O   UNL A   1      36.105  29.803  31.466  1.00  0.00    -0.269 OA
ATOM      7  C   UNL A   1      36.716  30.557  30.714  1.00  0.00     0.251 C 
ATOM      8  H   UNL A   1      35.326  32.003  30.777  1.00  0.00     0.163 HD
BRANCH   7   9
ATOM      9  C   UNL A   1      38.065  30.197  30.227  1.00  0.00     0.039 A 
ATOM     10  C   UNL A   1      38.306  30.055  28.858  1.00  0.00     0.014 A 
ATOM     11  C   UNL A   1      39.095  30.000  31.149  1.00  0.00     0.014 A 
ATOM     12  C   UNL A   1      39.544  29.603  28.419  1.00  0.00     0.010 A 
ATOM     13  C   UNL A   1      40.364  29.623  30.699  1.00  0.00     0.010 A 
ATOM     14  C   UNL A   1      40.593  29.403  29.333  1.00  0.00    -0.014 A 
BRANCH  14  15
ATOM     15  C   UNL A   1      41.940  29.048  28.821  1.00  0.00     0.031 A 
ATOM     16  C   UNL A   1      42.245  27.666  28.316  1.00  0.00     0.074 A 
ATOM     17  C   UNL A   1      42.887  30.006  28.801  1.00  0.00     0.049 A 
ATOM     18  N   UNL A   1      43.365  27.201  27.825  1.00  0.00    -0.248 NA
ATOM     19  C   UNL A   1      41.159  26.675  28.374  1.00  0.00     0.031 C 
ATOM     20  C   UNL A   1      42.704  31.378  29.285  1.00  0.00     0.029 A 
ATOM     21  N   UNL A   1      44.178  29.987  28.344  1.00  0.00    -0.354 N 
ATOM     22  C   UNL A   1      43.129  25.863  27.533  1.00  0.00     0.074 A 
ATOM     23  C   UNL A   1      41.762  25.585  27.921  1.00  0.00     0.031 C 
ATOM     24  C   UNL A   1      43.823  32.079  29.057  1.00  0.00     0.029 A 
ATOM     25  C   UNL A   1      44.822  31.195  28.467  1.00  0.00     0.049 A 
ATOM     26  H   UNL A   1      44.604  29.184  27.964  1.00  0.00     0.167 HD
ATOM     27  C   UNL A   1      43.975  24.956  26.986  1.00  0.00     0.037 A 
ATOM     28  C   UNL A   1      46.081  31.552  28.155  1.00  0.00     0.037 A 
ATOM     29  C   UNL A   1      45.330  25.251  26.592  1.00  0.00     0.049 A 
ATOM     30  C   UNL A   1      46.997  30.526  27.556  1.00  0.00     0.074 A 
ATOM     31  C   UNL A   1      46.259  24.409  26.002  1.00  0.00     0.029 A 
ATOM     32  N   UNL A   1      45.953  26.481  26.749  1.00  0.00    -0.354 N 
ATOM     33  N   UNL A   1      46.748  29.272  27.264  1.00  0.00    -0.248 NA
ATOM     34  C   UNL A   1      48.365  30.960  27.248  1.00  0.00     0.031 C 
ATOM     35  C   UNL A   1      47.453  25.120  25.837  1.00  0.00     0.029 A 
ATOM     36  C   UNL A   1      47.257  26.417  26.284  1.00  0.00     0.049 A 
ATOM     37  H   UNL A   1      45.531  27.282  27.135  1.00  0.00     0.167 HD
ATOM     38  C   UNL A   1      47.926  28.768  26.727  1.00  0.00     0.074 A 
ATOM     39  C   UNL A   1      48.880  29.859  26.717  1.00  0.00     0.031 C 
ATOM     40  C   UNL A   1      48.193  27.514  26.285  1.00  0.00     0.037 A 
BRANCH  27  41
ATOM     41  C   UNL A   1      43.468  23.552  26.796  1.00  0.00     0.058 A 
ATOM     42  C   UNL A   1      43.131  23.056  25.527  1.00  0.00     0.135 A 
ATOM     43  C   UNL A   1      43.359  22.680  27.890  1.00  0.00     0.135 A 
ATOM     44  F   UNL A   1      43.204  23.851  24.448  1.00  0.00    -0.206 F 
ATOM     45  C   UNL A   1      42.679  21.751  25.353  1.00  0.00     0.059 A 
ATOM     46  C   UNL A   1      42.930  21.363  27.737  1.00  0.00     0.059 A 
ATOM     47  F   UNL A   1      43.669  23.103  29.125  1.00  0.00    -0.206 F 
ATOM     48  C   UNL A   1      42.579  20.912  26.464  1.00  0.00     0.060 A 
BRANCH  48  49
ATOM     49  S   UNL A   1      41.989  19.223  26.223  1.00  0.00     0.124 S 
ATOM     50  O   UNL A   1      40.561  19.442  26.018  1.00  0.00    -0.237 OA
ATOM     51  O   UNL A   1      42.739  18.793  25.048  1.00  0.00    -0.237 OA
ATOM     52  O   UNL A   1      42.349  18.556  27.471  1.00  0.00    -0.744 OA
ENDBRANCH  48  49
ENDBRANCH  27  41
BRANCH  28  53
ATOM     53  C   UNL A   1      46.535  32.943  28.406  1.00  0.00     0.058 A 
ATOM     54  C   UNL A   1      46.444  33.924  27.409  1.00  0.00     0.135 A 
ATOM     55  C   UNL A   1      47.026  33.329  29.663  1.00  0.00     0.135 A 
ATOM     56  F   UNL A   1      45.981  33.601  26.192  1.00  0.00    -0.206 F 
ATOM     57  C   UNL A   1      46.834  35.238  27.645  1.00  0.00     0.059 A 
ATOM     58  C   UNL A   1      47.398  34.641  29.931  1.00  0.00     0.059 A 
ATOM     59  F   UNL A   1      47.112  32.430  30.657  1.00  0.00    -0.206 F 
ATOM     60  C   UNL A   1      47.307  35.588  28.912  1.00  0.00     0.060 A 
BRANCH  60  61
ATOM     61  S   UNL A   1      47.752  37.308  29.228  1.00  0.00     0.124 S 
ATOM     62  O   UNL A   1      48.682  37.575  28.136  1.00  0.00    -0.237 OA
ATOM     63  O   UNL A   1      46.461  37.983  29.146  1.00  0.00    -0.237 OA
ATOM     64  O   UNL A   1      48.340  37.260  30.563  1.00  0.00    -0.744 OA
ENDBRANCH  60  61
ENDBRANCH  28  53
BRANCH  40  65
ATOM     65  C   UNL A   1      49.569  27.267  25.736  1.00  0.00     0.058 A 
ATOM     66  C   UNL A   1      50.630  26.869  26.564  1.00  0.00     0.135 A 
ATOM     67  C   UNL A   1      49.821  27.404  24.362  1.00  0.00     0.135 A 
ATOM     68  F   UNL A   1      50.440  26.733  27.887  1.00  0.00    -0.206 F 
ATOM     69  C   UNL A   1      51.902  26.642  26.053  1.00  0.00     0.059 A 
ATOM     70  C   UNL A   1      51.081  27.160  23.826  1.00  0.00     0.059 A 
ATOM     71  F   UNL A   1      48.838  27.775  23.528  1.00  0.00    -0.206 F 
ATOM     72  C   UNL A   1      52.119  26.793  24.682  1.00  0.00     0.060 A 
BRANCH  72  73
ATOM     73  S   UNL A   1      53.770  26.476  24.024  1.00  0.00     0.124 S 
ATOM     74  O   UNL A   1      54.409  27.776  24.202  1.00  0.00    -0.237 OA
ATOM     75  O   UNL A   1      54.255  25.407  24.889  1.00  0.00    -0.237 OA
ATOM     76  O   UNL A   1      53.513  26.086  22.641  1.00  0.00    -0.744 OA
ENDBRANCH  72  73
ENDBRANCH  40  65
ENDBRANCH  14  15
ENDBRANCH   7   9
ENDBRANCH   4   5
ENDBRANCH   3   4
ENDBRANCH   2   3
ENDBRANCH   1   2
BRANCH   1  77
ATOM     77  C   UNL A   1      33.001  29.871  27.285  1.00  0.00     0.021 C 
BRANCH  77  78
ATOM     78  C   UNL A   1      33.052  29.393  25.838  1.00  0.00     0.116 C 
BRANCH  78  79
ATOM     79  N   UNL A   1      31.854  29.758  25.111  1.00  0.00    -0.356 N 
ATOM     80  C   UNL A   1      31.243  29.162  24.060  1.00  0.00     0.223 C 
ATOM     81  H   UNL A   1      31.410  30.574  25.435  1.00  0.00     0.163 HD
ATOM     82  O   UNL A   1      30.242  29.703  23.581  1.00  0.00    -0.275 OA
BRANCH  80  83
ATOM     83  C   UNL A   1      31.756  27.859  23.467  1.00  0.00     0.091 C 
ATOM     84  C   UNL A   1      32.875  28.058  22.436  1.00  0.00     0.014 C 
ATOM     85  C   UNL A   1      30.633  26.913  23.026  1.00  0.00     0.091 C 
ATOM     86  C   UNL A   1      33.380  26.716  21.914  1.00  0.00     0.001 C 
ATOM     87  C   UNL A   1      31.171  25.607  22.423  1.00  0.00     0.014 C 
ATOM     88  C   UNL A   1      32.235  25.877  21.356  1.00  0.00     0.001 C 
BRANCH  85  89
ATOM     89  C   UNL A   1      29.484  26.701  24.036  1.00  0.00     0.228 C 
ATOM     90  O   UNL A   1      28.378  27.202  23.793  1.00  0.00    -0.274 OA
ATOM     91  N   UNL A   1      29.550  25.883  25.127  1.00  0.00    -0.326 N 
ATOM     92  H   UNL A   1      28.683  25.713  25.562  1.00  0.00     0.169 HD
BRANCH  91  93
ATOM     93  C   UNL A   1      30.634  25.248  25.727  1.00  0.00     0.041 A 
ATOM     94  C   UNL A   1      30.438  24.000  26.302  1.00  0.00     0.028 A 
ATOM     95  C   UNL A   1      31.889  25.828  25.811  1.00  0.00     0.028 A 
ATOM     96  C   UNL A   1      31.540  23.252  26.730  1.00  0.00     0.028 A 
ATOM     97  C   UNL A   1      32.996  25.067  26.188  1.00  0.00     0.028 A 
ATOM     98  C   UNL A   1      32.839  23.734  26.568  1.00  0.00     0.041 A 
BRANCH  98  99
ATOM     99  N   UNL A   1      34.018  22.988  26.739  1.00  0.00    -0.319 N 
ATOM    100  C   UNL A   1      34.481  21.810  26.187  1.00  0.00     0.291 C 
ATOM    101  H   UNL A   1      34.643  23.389  27.385  1.00  0.00     0.170 HD
ATOM    102  O   UNL A   1      35.594  21.419  26.551  1.00  0.00    -0.265 OA
BRANCH 100 103
ATOM    103  C   UNL A   1      33.695  21.103  25.211  1.00  0.00     0.191 A 
ATOM    104  C   UNL A   1      33.295  21.421  23.925  1.00  0.00     0.056 A 
ATOM    105  O   UNL A   1      33.184  19.882  25.561  1.00  0.00    -0.459 OA
ATOM    106  C   UNL A   1      32.459  20.361  23.491  1.00  0.00     0.043 A 
ATOM    107  C   UNL A   1      32.433  19.447  24.518  1.00  0.00     0.196 A 
ENDBRANCH 100 103
ENDBRANCH  98  99
ENDBRANCH  91  93
ENDBRANCH  85  89
ENDBRANCH  80  83
ENDBRANCH  78  79
ENDBRANCH  77  78
ENDBRANCH   1  77
TORSDOF 20
ENDMDL
