MODEL 1
REMARK VINA RESULT:     -10.6      0.000      0.000
REMARK SMILES C[C@H]([NH2+][C@@H]1CCOC2(CCC2)C1)C(=O)NCCCCCCNC(=O)c1ccc(-c2c3nc(c(-c4c(F)cc(S(=O)(=O)[O-])cc4F)c4ccc([nH]4)c(-c4c(F)cc(S(=O)(=O)[O-])cc4F)c4nc(c(-c5c(F)cc(S(=O)(=O)[O-])cc5F)c5ccc2[nH]5)C=C4)C=C3)cc1
REMARK SMILES IDX 19 1 18 2 17 3 16 4 15 5 13 6 14 7 2 9 1 10 3 11 4 14 5 15
REMARK SMILES IDX 12 16 6 17 8 18 7 19 9 20 11 21 10 22 20 23 21 24 22 25
REMARK SMILES IDX 23 26 24 28 25 29 26 30 90 31 27 32 89 33 28 34 29 35 30 36
REMARK SMILES IDX 83 37 31 38 88 39 82 40 84 41 32 42 87 43 81 44 80 45 33 47
REMARK SMILES IDX 67 48 46 49 66 50 47 51 50 52 65 53 85 54 48 55 49 56 64 58
REMARK SMILES IDX 86 59 51 60 34 61 35 62 44 63 36 64 37 65 43 66 45 67 38 68
REMARK SMILES IDX 39 69 40 70 41 71 42 72 68 73 69 74 78 75 70 76 71 77 77 78
REMARK SMILES IDX 79 79 72 80 73 81 74 82 75 83 76 84 52 85 53 86 62 87 54 88
REMARK SMILES IDX 55 89 61 90 63 91 56 92 57 93 58 94 59 95 60 96
REMARK H PARENT 15 8 3 12 3 13 22 27 84 46 50 57
REMARK Flexibility Score: inf
ROOT
ATOM      1  C   UNL A   1      32.042  28.327  25.006  1.00  0.00     0.002 C 
ENDROOT
BRANCH   1   2
ATOM      2  C   UNL A   1      31.746  29.388  23.939  1.00  0.00     0.002 C 
BRANCH   2   3
ATOM      3  C   UNL A   1      30.869  28.886  22.789  1.00  0.00     0.021 C 
BRANCH   3   4
ATOM      4  C   UNL A   1      30.794  27.363  22.736  1.00  0.00     0.116 C 
BRANCH   4   5
ATOM      5  N   UNL A   1      31.577  26.872  21.612  1.00  0.00    -0.351 N 
ATOM      6  C   UNL A   1      32.514  25.879  21.564  1.00  0.00     0.277 C 
ATOM      7  O   UNL A   1      33.123  25.705  20.505  1.00  0.00    -0.268 OA
ATOM      8  H   UNL A   1      31.404  27.324  20.755  1.00  0.00     0.163 HD
BRANCH   6   9
ATOM      9  C   UNL A   1      32.734  24.944  22.776  1.00  0.00     0.269 C 
ATOM     10  C   UNL A   1      34.102  25.340  23.342  1.00  0.00     0.086 C 
BRANCH   9  11
ATOM     11  N   UNL A   1      32.623  23.534  22.357  1.00  0.00    -0.334 N 
ATOM     12  H   UNL A   1      33.559  23.135  22.426  1.00  0.00     0.347 HD
ATOM     13  H   UNL A   1      32.201  23.603  21.431  1.00  0.00     0.347 HD
BRANCH  11  14
ATOM     14  C   UNL A   1      31.722  22.615  23.061  1.00  0.00     0.188 C 
ATOM     15  C   UNL A   1      30.989  23.043  24.324  1.00  0.00     0.093 C 
ATOM     16  C   UNL A   1      32.466  21.317  23.400  1.00  0.00     0.100 C 
ATOM     17  C   UNL A   1      31.879  23.179  25.542  1.00  0.00     0.167 C 
ATOM     18  C   UNL A   1      33.517  21.560  24.480  1.00  0.00     0.074 C 
ATOM     19  O   UNL A   1      33.018  22.334  25.609  1.00  0.00    -0.375 OA
ATOM     20  C   UNL A   1      34.220  20.249  24.984  1.00  0.00     0.036 C 
ATOM     21  C   UNL A   1      34.935  21.928  23.911  1.00  0.00     0.036 C 
ATOM     22  C   UNL A   1      35.542  21.040  25.001  1.00  0.00     0.006 C 
ENDBRANCH  11  14
ENDBRANCH   9  11
ENDBRANCH   6   9
ENDBRANCH   4   5
ENDBRANCH   3   4
ENDBRANCH   2   3
ENDBRANCH   1   2
BRANCH   1  23
ATOM     23  C   UNL A   1      33.514  28.231  25.408  1.00  0.00     0.021 C 
BRANCH  23  24
ATOM     24  C   UNL A   1      33.759  28.396  26.904  1.00  0.00     0.116 C 
BRANCH  24  25
ATOM     25  N   UNL A   1      33.595  29.781  27.321  1.00  0.00    -0.352 N 
ATOM     26  C   UNL A   1      34.437  30.563  28.066  1.00  0.00     0.251 C 
ATOM     27  H   UNL A   1      32.762  30.216  27.026  1.00  0.00     0.163 HD
ATOM     28  O   UNL A   1      34.041  31.632  28.526  1.00  0.00    -0.269 OA
BRANCH  26  29
ATOM     29  C   UNL A   1      35.815  30.103  28.320  1.00  0.00     0.039 A 
ATOM     30  C   UNL A   1      36.753  30.164  27.287  1.00  0.00     0.014 A 
ATOM     31  C   UNL A   1      36.181  29.620  29.581  1.00  0.00     0.014 A 
ATOM     32  C   UNL A   1      38.073  29.787  27.535  1.00  0.00     0.010 A 
ATOM     33  C   UNL A   1      37.512  29.321  29.846  1.00  0.00     0.010 A 
ATOM     34  C   UNL A   1      38.470  29.394  28.825  1.00  0.00    -0.014 A 
BRANCH  34  35
ATOM     35  C   UNL A   1      39.884  29.055  29.122  1.00  0.00     0.031 A 
ATOM     36  C   UNL A   1      40.797  30.088  29.724  1.00  0.00     0.074 A 
ATOM     37  C   UNL A   1      40.357  27.835  28.797  1.00  0.00     0.049 A 
ATOM     38  N   UNL A   1      42.073  30.002  29.998  1.00  0.00    -0.248 NA
ATOM     39  C   UNL A   1      40.205  31.400  30.037  1.00  0.00     0.031 C 
ATOM     40  C   UNL A   1      39.579  26.767  28.164  1.00  0.00     0.029 A 
ATOM     41  N   UNL A   1      41.608  27.290  28.942  1.00  0.00    -0.354 N 
ATOM     42  C   UNL A   1      42.437  31.243  30.505  1.00  0.00     0.074 A 
ATOM     43  C   UNL A   1      41.263  32.085  30.445  1.00  0.00     0.031 C 
ATOM     44  C   UNL A   1      40.362  25.690  28.000  1.00  0.00     0.029 A 
ATOM     45  C   UNL A   1      41.707  26.001  28.472  1.00  0.00     0.049 A 
ATOM     46  H   UNL A   1      42.364  27.776  29.345  1.00  0.00     0.167 HD
ATOM     47  C   UNL A   1      43.636  31.638  30.997  1.00  0.00     0.037 A 
ATOM     48  C   UNL A   1      42.766  25.169  28.418  1.00  0.00     0.037 A 
ATOM     49  C   UNL A   1      44.794  30.785  31.070  1.00  0.00     0.049 A 
ATOM     50  C   UNL A   1      44.090  25.637  28.958  1.00  0.00     0.074 A 
ATOM     51  C   UNL A   1      46.040  31.073  31.601  1.00  0.00     0.029 A 
ATOM     52  N   UNL A   1      44.853  29.483  30.597  1.00  0.00    -0.354 N 
ATOM     53  N   UNL A   1      44.400  26.794  29.494  1.00  0.00    -0.248 NA
ATOM     54  C   UNL A   1      45.208  24.686  28.893  1.00  0.00     0.031 C 
ATOM     55  C   UNL A   1      46.867  29.963  31.399  1.00  0.00     0.029 A 
ATOM     56  C   UNL A   1      46.120  28.962  30.800  1.00  0.00     0.049 A 
ATOM     57  H   UNL A   1      44.104  29.000  30.179  1.00  0.00     0.167 HD
ATOM     58  C   UNL A   1      45.740  26.698  29.857  1.00  0.00     0.074 A 
ATOM     59  C   UNL A   1      46.175  25.366  29.493  1.00  0.00     0.031 C 
ATOM     60  C   UNL A   1      46.536  27.628  30.440  1.00  0.00     0.037 A 
BRANCH  47  61
ATOM     61  C   UNL A   1      43.757  33.051  31.502  1.00  0.00     0.058 A 
ATOM     62  C   UNL A   1      44.207  34.094  30.676  1.00  0.00     0.135 A 
ATOM     63  C   UNL A   1      43.369  33.376  32.812  1.00  0.00     0.135 A 
ATOM     64  F   UNL A   1      44.607  33.840  29.421  1.00  0.00    -0.206 F 
ATOM     65  C   UNL A   1      44.293  35.404  31.139  1.00  0.00     0.059 A 
ATOM     66  C   UNL A   1      43.416  34.684  33.286  1.00  0.00     0.059 A 
ATOM     67  F   UNL A   1      42.931  32.419  33.645  1.00  0.00    -0.206 F 
ATOM     68  C   UNL A   1      43.891  35.690  32.445  1.00  0.00     0.060 A 
BRANCH  68  69
ATOM     69  S   UNL A   1      43.991  37.397  33.020  1.00  0.00     0.124 S 
ATOM     70  O   UNL A   1      42.843  37.470  33.919  1.00  0.00    -0.237 OA
ATOM     71  O   UNL A   1      45.302  37.432  33.661  1.00  0.00    -0.237 OA
ATOM     72  O   UNL A   1      43.876  38.178  31.792  1.00  0.00    -0.744 OA
ENDBRANCH  68  69
ENDBRANCH  47  61
BRANCH  48  73
ATOM     73  C   UNL A   1      42.614  23.806  27.841  1.00  0.00     0.058 A 
ATOM     74  C   UNL A   1      42.623  23.601  26.454  1.00  0.00     0.135 A 
ATOM     75  C   UNL A   1      42.457  22.679  28.665  1.00  0.00     0.135 A 
ATOM     76  F   UNL A   1      42.765  24.645  25.622  1.00  0.00    -0.206 F 
ATOM     77  C   UNL A   1      42.456  22.335  25.901  1.00  0.00     0.059 A 
ATOM     78  C   UNL A   1      42.319  21.399  28.137  1.00  0.00     0.059 A 
ATOM     79  F   UNL A   1      42.460  22.816  30.000  1.00  0.00    -0.206 F 
ATOM     80  C   UNL A   1      42.306  21.239  26.753  1.00  0.00     0.060 A 
BRANCH  80  81
ATOM     81  S   UNL A   1      42.123  19.596  26.026  1.00  0.00     0.124 S 
ATOM     82  O   UNL A   1      42.541  18.740  27.129  1.00  0.00    -0.237 OA
ATOM     83  O   UNL A   1      40.702  19.565  25.696  1.00  0.00    -0.237 OA
ATOM     84  O   UNL A   1      43.025  19.635  24.879  1.00  0.00    -0.744 OA
ENDBRANCH  80  81
ENDBRANCH  48  73
BRANCH  60  85
ATOM     85  C   UNL A   1      47.952  27.230  30.757  1.00  0.00     0.058 A 
ATOM     86  C   UNL A   1      48.281  26.534  31.931  1.00  0.00     0.135 A 
ATOM     87  C   UNL A   1      48.986  27.503  29.847  1.00  0.00     0.135 A 
ATOM     88  F   UNL A   1      47.332  26.254  32.839  1.00  0.00    -0.206 F 
ATOM     89  C   UNL A   1      49.589  26.147  32.203  1.00  0.00     0.059 A 
ATOM     90  C   UNL A   1      50.295  27.096  30.083  1.00  0.00     0.059 A 
ATOM     91  F   UNL A   1      48.725  28.155  28.702  1.00  0.00    -0.206 F 
ATOM     92  C   UNL A   1      50.589  26.429  31.271  1.00  0.00     0.060 A 
BRANCH  92  93
ATOM     93  S   UNL A   1      52.275  25.889  31.621  1.00  0.00     0.124 S 
ATOM     94  O   UNL A   1      52.682  26.842  32.649  1.00  0.00    -0.237 OA
ATOM     95  O   UNL A   1      52.074  24.516  32.074  1.00  0.00    -0.237 OA
ATOM     96  O   UNL A   1      52.952  26.027  30.336  1.00  0.00    -0.744 OA
ENDBRANCH  92  93
ENDBRANCH  60  85
ENDBRANCH  34  35
ENDBRANCH  26  29
ENDBRANCH  24  25
ENDBRANCH  23  24
ENDBRANCH   1  23
TORSDOF 18
ENDMDL
MODEL 2
REMARK VINA RESULT:     -10.6      1.208      2.118
REMARK SMILES C[C@H]([NH2+][C@@H]1CCOC2(CCC2)C1)C(=O)NCCCCCCNC(=O)c1ccc(-c2c3nc(c(-c4c(F)cc(S(=O)(=O)[O-])cc4F)c4ccc([nH]4)c(-c4c(F)cc(S(=O)(=O)[O-])cc4F)c4nc(c(-c5c(F)cc(S(=O)(=O)[O-])cc5F)c5ccc2[nH]5)C=C4)C=C3)cc1
REMARK SMILES IDX 19 1 18 2 17 3 16 4 15 5 13 6 14 7 2 9 1 10 3 11 4 14 5 15
REMARK SMILES IDX 12 16 6 17 8 18 7 19 9 20 11 21 10 22 20 23 21 24 22 25
REMARK SMILES IDX 23 26 24 28 25 29 26 30 90 31 27 32 89 33 28 34 29 35 30 36
REMARK SMILES IDX 83 37 31 38 88 39 82 40 84 41 32 42 87 43 81 44 80 45 33 47
REMARK SMILES IDX 67 48 46 49 66 50 47 51 50 52 65 53 85 54 48 55 49 56 64 58
REMARK SMILES IDX 86 59 51 60 34 61 35 62 44 63 36 64 37 65 43 66 45 67 38 68
REMARK SMILES IDX 39 69 40 70 41 71 42 72 68 73 69 74 78 75 70 76 71 77 77 78
REMARK SMILES IDX 79 79 72 80 73 81 74 82 75 83 76 84 52 85 53 86 62 87 54 88
REMARK SMILES IDX 55 89 61 90 63 91 56 92 57 93 58 94 59 95 60 96
REMARK H PARENT 15 8 3 12 3 13 22 27 84 46 50 57
REMARK Flexibility Score: inf
ROOT
ATOM      1  C   UNL A   1      32.165  26.649  26.193  1.00  0.00     0.002 C 
ENDROOT
BRANCH   1   2
ATOM      2  C   UNL A   1      30.692  26.540  25.782  1.00  0.00     0.002 C 
BRANCH   2   3
ATOM      3  C   UNL A   1      30.478  26.328  24.281  1.00  0.00     0.021 C 
BRANCH   3   4
ATOM      4  C   UNL A   1      30.648  24.869  23.869  1.00  0.00     0.116 C 
BRANCH   4   5
ATOM      5  N   UNL A   1      30.310  24.000  24.986  1.00  0.00    -0.351 N 
ATOM      6  C   UNL A   1      30.942  22.881  25.448  1.00  0.00     0.277 C 
ATOM      7  O   UNL A   1      30.407  22.247  26.363  1.00  0.00    -0.268 OA
ATOM      8  H   UNL A   1      29.504  24.260  25.487  1.00  0.00     0.163 HD
BRANCH   6   9
ATOM      9  C   UNL A   1      32.330  22.476  24.900  1.00  0.00     0.269 C 
ATOM     10  C   UNL A   1      32.220  20.977  24.602  1.00  0.00     0.086 C 
BRANCH   9  11
ATOM     11  N   UNL A   1      33.384  22.839  25.866  1.00  0.00    -0.334 N 
ATOM     12  H   UNL A   1      33.919  21.989  26.046  1.00  0.00     0.347 HD
ATOM     13  H   UNL A   1      32.856  23.242  26.640  1.00  0.00     0.347 HD
BRANCH  11  14
ATOM     14  C   UNL A   1      34.358  23.889  25.550  1.00  0.00     0.188 C 
ATOM     15  C   UNL A   1      34.425  24.510  24.162  1.00  0.00     0.093 C 
ATOM     16  C   UNL A   1      35.773  23.402  25.885  1.00  0.00     0.100 C 
ATOM     17  C   UNL A   1      34.995  23.593  23.100  1.00  0.00     0.167 C 
ATOM     18  C   UNL A   1      36.215  22.309  24.915  1.00  0.00     0.074 C 
ATOM     19  O   UNL A   1      35.957  22.636  23.519  1.00  0.00    -0.375 OA
ATOM     20  C   UNL A   1      37.710  21.863  25.104  1.00  0.00     0.036 C 
ATOM     21  C   UNL A   1      35.871  20.855  25.402  1.00  0.00     0.036 C 
ATOM     22  C   UNL A   1      37.240  20.414  24.872  1.00  0.00     0.006 C 
ENDBRANCH  11  14
ENDBRANCH   9  11
ENDBRANCH   6   9
ENDBRANCH   4   5
ENDBRANCH   3   4
ENDBRANCH   2   3
ENDBRANCH   1   2
BRANCH   1  23
ATOM     23  C   UNL A   1      32.445  27.715  27.253  1.00  0.00     0.021 C 
BRANCH  23  24
ATOM     24  C   UNL A   1      33.707  28.530  26.993  1.00  0.00     0.116 C 
BRANCH  24  25
ATOM     25  N   UNL A   1      33.551  29.910  27.430  1.00  0.00    -0.352 N 
ATOM     26  C   UNL A   1      34.405  30.679  28.176  1.00  0.00     0.251 C 
ATOM     27  H   UNL A   1      32.717  30.351  27.151  1.00  0.00     0.163 HD
ATOM     28  O   UNL A   1      34.017  31.743  28.655  1.00  0.00    -0.269 OA
BRANCH  26  29
ATOM     29  C   UNL A   1      35.784  30.213  28.407  1.00  0.00     0.039 A 
ATOM     30  C   UNL A   1      36.719  30.320  27.375  1.00  0.00     0.014 A 
ATOM     31  C   UNL A   1      36.154  29.678  29.646  1.00  0.00     0.014 A 
ATOM     32  C   UNL A   1      38.041  29.937  27.605  1.00  0.00     0.010 A 
ATOM     33  C   UNL A   1      37.487  29.372  29.895  1.00  0.00     0.010 A 
ATOM     34  C   UNL A   1      38.442  29.491  28.876  1.00  0.00    -0.014 A 
BRANCH  34  35
ATOM     35  C   UNL A   1      39.858  29.143  29.154  1.00  0.00     0.031 A 
ATOM     36  C   UNL A   1      40.784  30.170  29.747  1.00  0.00     0.074 A 
ATOM     37  C   UNL A   1      40.320  27.921  28.822  1.00  0.00     0.049 A 
ATOM     38  N   UNL A   1      42.063  30.077  30.005  1.00  0.00    -0.248 NA
ATOM     39  C   UNL A   1      40.204  31.485  30.068  1.00  0.00     0.031 C 
ATOM     40  C   UNL A   1      39.528  26.858  28.199  1.00  0.00     0.029 A 
ATOM     41  N   UNL A   1      41.569  27.369  28.952  1.00  0.00    -0.354 N 
ATOM     42  C   UNL A   1      42.440  31.316  30.508  1.00  0.00     0.074 A 
ATOM     43  C   UNL A   1      41.270  32.164  30.464  1.00  0.00     0.031 C 
ATOM     44  C   UNL A   1      40.303  25.777  28.024  1.00  0.00     0.029 A 
ATOM     45  C   UNL A   1      41.655  26.080  28.479  1.00  0.00     0.049 A 
ATOM     46  H   UNL A   1      42.332  27.850  29.346  1.00  0.00     0.167 HD
ATOM     47  C   UNL A   1      43.647  31.703  30.986  1.00  0.00     0.037 A 
ATOM     48  C   UNL A   1      42.708  25.242  28.411  1.00  0.00     0.037 A 
ATOM     49  C   UNL A   1      44.801  30.844  31.044  1.00  0.00     0.049 A 
ATOM     50  C   UNL A   1      44.042  25.701  28.935  1.00  0.00     0.074 A 
ATOM     51  C   UNL A   1      46.055  31.124  31.559  1.00  0.00     0.029 A 
ATOM     52  N   UNL A   1      44.846  29.541  30.569  1.00  0.00    -0.354 N 
ATOM     53  N   UNL A   1      44.365  26.857  29.469  1.00  0.00    -0.248 NA
ATOM     54  C   UNL A   1      45.153  24.745  28.856  1.00  0.00     0.031 C 
ATOM     55  C   UNL A   1      46.873  30.009  31.346  1.00  0.00     0.029 A 
ATOM     56  C   UNL A   1      46.114  29.013  30.755  1.00  0.00     0.049 A 
ATOM     57  H   UNL A   1      44.090  29.063  30.159  1.00  0.00     0.167 HD
ATOM     58  C   UNL A   1      45.708  26.752  29.815  1.00  0.00     0.074 A 
ATOM     59  C   UNL A   1      46.132  25.418  29.445  1.00  0.00     0.031 C 
ATOM     60  C   UNL A   1      46.517  27.677  30.389  1.00  0.00     0.037 A 
BRANCH  47  61
ATOM     61  C   UNL A   1      43.782  33.115  31.491  1.00  0.00     0.058 A 
ATOM     62  C   UNL A   1      44.266  34.148  30.672  1.00  0.00     0.135 A 
ATOM     63  C   UNL A   1      43.375  33.449  32.792  1.00  0.00     0.135 A 
ATOM     64  F   UNL A   1      44.686  33.884  29.425  1.00  0.00    -0.206 F 
ATOM     65  C   UNL A   1      44.365  35.457  31.134  1.00  0.00     0.059 A 
ATOM     66  C   UNL A   1      43.435  34.757  33.265  1.00  0.00     0.059 A 
ATOM     67  F   UNL A   1      42.905  32.501  33.619  1.00  0.00    -0.206 F 
ATOM     68  C   UNL A   1      43.943  35.752  32.432  1.00  0.00     0.060 A 
BRANCH  68  69
ATOM     69  S   UNL A   1      44.062  37.459  33.006  1.00  0.00     0.124 S 
ATOM     70  O   UNL A   1      43.100  37.465  34.104  1.00  0.00    -0.237 OA
ATOM     71  O   UNL A   1      45.466  37.560  33.391  1.00  0.00    -0.237 OA
ATOM     72  O   UNL A   1      43.678  38.240  31.834  1.00  0.00    -0.744 OA
ENDBRANCH  68  69
ENDBRANCH  47  61
BRANCH  48  73
ATOM     73  C   UNL A   1      42.542  23.880  27.835  1.00  0.00     0.058 A 
ATOM     74  C   UNL A   1      42.415  22.755  28.663  1.00  0.00     0.135 A 
ATOM     75  C   UNL A   1      42.507  23.675  26.447  1.00  0.00     0.135 A 
ATOM     76  F   UNL A   1      42.448  22.895  29.997  1.00  0.00    -0.206 F 
ATOM     77  C   UNL A   1      42.287  21.473  28.138  1.00  0.00     0.059 A 
ATOM     78  C   UNL A   1      42.347  22.407  25.897  1.00  0.00     0.059 A 
ATOM     79  F   UNL A   1      42.605  24.719  25.609  1.00  0.00    -0.206 F 
ATOM     80  C   UNL A   1      42.252  21.309  26.752  1.00  0.00     0.060 A 
BRANCH  80  81
ATOM     81  S   UNL A   1      42.051  19.645  26.080  1.00  0.00     0.124 S 
ATOM     82  O   UNL A   1      42.992  19.662  24.966  1.00  0.00    -0.237 OA
ATOM     83  O   UNL A   1      42.422  18.810  27.218  1.00  0.00    -0.237 OA
ATOM     84  O   UNL A   1      40.639  19.601  25.714  1.00  0.00    -0.744 OA
ENDBRANCH  80  81
ENDBRANCH  48  73
BRANCH  60  85
ATOM     85  C   UNL A   1      47.934  27.270  30.689  1.00  0.00     0.058 A 
ATOM     86  C   UNL A   1      48.269  26.543  31.841  1.00  0.00     0.135 A 
ATOM     87  C   UNL A   1      48.964  27.569  29.781  1.00  0.00     0.135 A 
ATOM     88  F   UNL A   1      47.325  26.238  32.746  1.00  0.00    -0.206 F 
ATOM     89  C   UNL A   1      49.579  26.149  32.096  1.00  0.00     0.059 A 
ATOM     90  C   UNL A   1      50.275  27.155  29.999  1.00  0.00     0.059 A 
ATOM     91  F   UNL A   1      48.698  28.252  28.656  1.00  0.00    -0.206 F 
ATOM     92  C   UNL A   1      50.574  26.456  31.167  1.00  0.00     0.060 A 
BRANCH  92  93
ATOM     93  S   UNL A   1      52.262  25.907  31.494  1.00  0.00     0.124 S 
ATOM     94  O   UNL A   1      52.858  25.982  30.164  1.00  0.00    -0.237 OA
ATOM     95  O   UNL A   1      52.731  26.898  32.456  1.00  0.00    -0.237 OA
ATOM     96  O   UNL A   1      52.085  24.559  32.026  1.00  0.00    -0.744 OA
ENDBRANCH  92  93
ENDBRANCH  60  85
ENDBRANCH  34  35
ENDBRANCH  26  29
ENDBRANCH  24  25
ENDBRANCH  23  24
ENDBRANCH   1  23
TORSDOF 18
ENDMDL
MODEL 3
REMARK VINA RESULT:     -10.6      5.072      7.371
REMARK SMILES C[C@H]([NH2+][C@@H]1CCOC2(CCC2)C1)C(=O)NCCCCCCNC(=O)c1ccc(-c2c3nc(c(-c4c(F)cc(S(=O)(=O)[O-])cc4F)c4ccc([nH]4)c(-c4c(F)cc(S(=O)(=O)[O-])cc4F)c4nc(c(-c5c(F)cc(S(=O)(=O)[O-])cc5F)c5ccc2[nH]5)C=C4)C=C3)cc1
REMARK SMILES IDX 19 1 18 2 17 3 16 4 15 5 13 6 14 7 2 9 1 10 3 11 4 14 5 15
REMARK SMILES IDX 12 16 6 17 8 18 7 19 9 20 11 21 10 22 20 23 21 24 22 25
REMARK SMILES IDX 23 26 24 28 25 29 26 30 90 31 27 32 89 33 28 34 29 35 30 36
REMARK SMILES IDX 83 37 31 38 88 39 82 40 84 41 32 42 87 43 81 44 80 45 33 47
REMARK SMILES IDX 67 48 46 49 66 50 47 51 50 52 65 53 85 54 48 55 49 56 64 58
REMARK SMILES IDX 86 59 51 60 34 61 35 62 44 63 36 64 37 65 43 66 45 67 38 68
REMARK SMILES IDX 39 69 40 70 41 71 42 72 68 73 69 74 78 75 70 76 71 77 77 78
REMARK SMILES IDX 79 79 72 80 73 81 74 82 75 83 76 84 52 85 53 86 62 87 54 88
REMARK SMILES IDX 55 89 61 90 63 91 56 92 57 93 58 94 59 95 60 96
REMARK H PARENT 15 8 3 12 3 13 22 27 84 46 50 57
REMARK Flexibility Score: inf
ROOT
ATOM      1  C   UNL A   1      35.125  34.190  27.944  1.00  0.00     0.002 C 
ENDROOT
BRANCH   1   2
ATOM      2  C   UNL A   1      33.685  33.762  28.250  1.00  0.00     0.002 C 
BRANCH   2   3
ATOM      3  C   UNL A   1      32.895  34.781  29.075  1.00  0.00     0.021 C 
BRANCH   3   4
ATOM      4  C   UNL A   1      33.705  36.038  29.378  1.00  0.00     0.116 C 
BRANCH   4   5
ATOM      5  N   UNL A   1      33.562  36.389  30.782  1.00  0.00    -0.351 N 
ATOM      6  C   UNL A   1      34.040  35.760  31.896  1.00  0.00     0.277 C 
ATOM      7  O   UNL A   1      33.703  36.196  33.001  1.00  0.00    -0.268 OA
ATOM      8  H   UNL A   1      33.041  37.206  30.957  1.00  0.00     0.163 HD
BRANCH   6   9
ATOM      9  C   UNL A   1      35.048  34.595  31.771  1.00  0.00     0.269 C 
ATOM     10  C   UNL A   1      34.301  33.363  32.295  1.00  0.00     0.086 C 
BRANCH   9  11
ATOM     11  N   UNL A   1      36.292  34.917  32.496  1.00  0.00    -0.334 N 
ATOM     12  H   UNL A   1      36.065  35.671  33.143  1.00  0.00     0.347 HD
ATOM     13  H   UNL A   1      36.950  35.117  31.742  1.00  0.00     0.347 HD
BRANCH  11  14
ATOM     14  C   UNL A   1      36.989  33.889  33.276  1.00  0.00     0.188 C 
ATOM     15  C   UNL A   1      37.812  34.254  34.503  1.00  0.00     0.093 C 
ATOM     16  C   UNL A   1      37.905  33.071  32.357  1.00  0.00     0.100 C 
ATOM     17  C   UNL A   1      39.112  34.965  34.189  1.00  0.00     0.167 C 
ATOM     18  C   UNL A   1      39.088  33.911  31.882  1.00  0.00     0.074 C 
ATOM     19  O   UNL A   1      39.740  34.649  32.955  1.00  0.00    -0.375 OA
ATOM     20  C   UNL A   1      40.147  33.098  31.055  1.00  0.00     0.036 C 
ATOM     21  C   UNL A   1      38.823  34.666  30.530  1.00  0.00     0.036 C 
ATOM     22  C   UNL A   1      40.259  34.319  30.120  1.00  0.00     0.006 C 
ENDBRANCH  11  14
ENDBRANCH   9  11
ENDBRANCH   6   9
ENDBRANCH   4   5
ENDBRANCH   3   4
ENDBRANCH   2   3
ENDBRANCH   1   2
BRANCH   1  23
ATOM     23  C   UNL A   1      36.195  33.297  28.574  1.00  0.00     0.021 C 
BRANCH  23  24
ATOM     24  C   UNL A   1      35.911  31.805  28.444  1.00  0.00     0.116 C 
BRANCH  24  25
ATOM     25  N   UNL A   1      35.636  31.200  29.739  1.00  0.00    -0.352 N 
ATOM     26  C   UNL A   1      36.388  30.300  30.447  1.00  0.00     0.251 C 
ATOM     27  H   UNL A   1      34.793  31.476  30.165  1.00  0.00     0.163 HD
ATOM     28  O   UNL A   1      35.900  29.713  31.411  1.00  0.00    -0.269 OA
BRANCH  26  29
ATOM     29  C   UNL A   1      37.779  30.036  30.035  1.00  0.00     0.039 A 
ATOM     30  C   UNL A   1      38.729  29.726  31.009  1.00  0.00     0.014 A 
ATOM     31  C   UNL A   1      38.140  30.087  28.684  1.00  0.00     0.014 A 
ATOM     32  C   UNL A   1      40.033  29.416  30.622  1.00  0.00     0.010 A 
ATOM     33  C   UNL A   1      39.417  29.702  28.296  1.00  0.00     0.010 A 
ATOM     34  C   UNL A   1      40.379  29.369  29.260  1.00  0.00    -0.014 A 
BRANCH  34  35
ATOM     35  C   UNL A   1      41.744  28.977  28.829  1.00  0.00     0.031 A 
ATOM     36  C   UNL A   1      42.835  30.010  28.747  1.00  0.00     0.074 A 
ATOM     37  C   UNL A   1      41.984  27.703  28.461  1.00  0.00     0.049 A 
ATOM     38  N   UNL A   1      44.069  29.876  28.336  1.00  0.00    -0.248 NA
ATOM     39  C   UNL A   1      42.486  31.382  29.155  1.00  0.00     0.031 C 
ATOM     40  C   UNL A   1      40.993  26.624  28.453  1.00  0.00     0.029 A 
ATOM     41  N   UNL A   1      43.132  27.100  28.011  1.00  0.00    -0.354 N 
ATOM     42  C   UNL A   1      44.640  31.139  28.428  1.00  0.00     0.074 A 
ATOM     43  C   UNL A   1      43.602  32.041  28.876  1.00  0.00     0.031 C 
ATOM     44  C   UNL A   1      41.582  25.489  28.045  1.00  0.00     0.029 A 
ATOM     45  C   UNL A   1      42.977  25.766  27.718  1.00  0.00     0.049 A 
ATOM     46  H   UNL A   1      43.986  27.579  27.906  1.00  0.00     0.167 HD
ATOM     47  C   UNL A   1      45.919  31.510  28.184  1.00  0.00     0.037 A 
ATOM     48  C   UNL A   1      43.857  24.869  27.232  1.00  0.00     0.037 A 
ATOM     49  C   UNL A   1      46.951  30.600  27.757  1.00  0.00     0.049 A 
ATOM     50  C   UNL A   1      45.269  25.309  26.955  1.00  0.00     0.074 A 
ATOM     51  C   UNL A   1      48.291  30.865  27.534  1.00  0.00     0.029 A 
ATOM     52  N   UNL A   1      46.760  29.253  27.485  1.00  0.00    -0.354 N 
ATOM     53  N   UNL A   1      45.809  26.496  27.110  1.00  0.00    -0.248 NA
ATOM     54  C   UNL A   1      46.195  24.290  26.444  1.00  0.00     0.031 C 
ATOM     55  C   UNL A   1      48.898  29.691  27.076  1.00  0.00     0.029 A 
ATOM     56  C   UNL A   1      47.952  28.679  27.072  1.00  0.00     0.049 A 
ATOM     57  H   UNL A   1      45.904  28.775  27.573  1.00  0.00     0.167 HD
ATOM     58  C   UNL A   1      47.144  26.356  26.744  1.00  0.00     0.074 A 
ATOM     59  C   UNL A   1      47.332  24.968  26.375  1.00  0.00     0.031 C 
ATOM     60  C   UNL A   1      48.125  27.292  26.717  1.00  0.00     0.037 A 
BRANCH  47  61
ATOM     61  C   UNL A   1      46.281  32.958  28.378  1.00  0.00     0.058 A 
ATOM     62  C   UNL A   1      46.724  33.448  29.617  1.00  0.00     0.135 A 
ATOM     63  C   UNL A   1      46.233  33.856  27.300  1.00  0.00     0.135 A 
ATOM     64  F   UNL A   1      46.773  32.639  30.687  1.00  0.00    -0.206 F 
ATOM     65  C   UNL A   1      47.082  34.782  29.787  1.00  0.00     0.059 A 
ATOM     66  C   UNL A   1      46.617  35.187  27.438  1.00  0.00     0.059 A 
ATOM     67  F   UNL A   1      45.816  33.442  26.092  1.00  0.00    -0.206 F 
ATOM     68  C   UNL A   1      47.029  35.643  28.689  1.00  0.00     0.060 A 
BRANCH  68  69
ATOM     69  S   UNL A   1      47.516  37.365  28.924  1.00  0.00     0.124 S 
ATOM     70  O   UNL A   1      46.246  37.979  29.301  1.00  0.00    -0.237 OA
ATOM     71  O   UNL A   1      48.511  37.264  29.987  1.00  0.00    -0.237 OA
ATOM     72  O   UNL A   1      48.036  37.754  27.617  1.00  0.00    -0.744 OA
ENDBRANCH  68  69
ENDBRANCH  47  61
BRANCH  48  73
ATOM     73  C   UNL A   1      43.433  23.464  26.987  1.00  0.00     0.058 A 
ATOM     74  C   UNL A   1      43.116  23.018  25.696  1.00  0.00     0.135 A 
ATOM     75  C   UNL A   1      43.335  22.538  28.039  1.00  0.00     0.135 A 
ATOM     76  F   UNL A   1      43.188  23.864  24.657  1.00  0.00    -0.206 F 
ATOM     77  C   UNL A   1      42.692  21.714  25.457  1.00  0.00     0.059 A 
ATOM     78  C   UNL A   1      42.945  21.220  27.821  1.00  0.00     0.059 A 
ATOM     79  F   UNL A   1      43.645  22.907  29.291  1.00  0.00    -0.206 F 
ATOM     80  C   UNL A   1      42.611  20.822  26.527  1.00  0.00     0.060 A 
BRANCH  80  81
ATOM     81  S   UNL A   1      42.093  19.123  26.202  1.00  0.00     0.124 S 
ATOM     82  O   UNL A   1      43.008  18.737  25.134  1.00  0.00    -0.237 OA
ATOM     83  O   UNL A   1      42.313  18.484  27.495  1.00  0.00    -0.237 OA
ATOM     84  O   UNL A   1      40.694  19.269  25.812  1.00  0.00    -0.744 OA
ENDBRANCH  80  81
ENDBRANCH  48  73
BRANCH  60  85
ATOM     85  C   UNL A   1      49.502  26.843  26.310  1.00  0.00     0.058 A 
ATOM     86  C   UNL A   1      50.388  26.250  27.222  1.00  0.00     0.135 A 
ATOM     87  C   UNL A   1      49.921  26.963  24.974  1.00  0.00     0.135 A 
ATOM     88  F   UNL A   1      50.042  26.118  28.513  1.00  0.00    -0.206 F 
ATOM     89  C   UNL A   1      51.650  25.813  26.831  1.00  0.00     0.059 A 
ATOM     90  C   UNL A   1      51.165  26.504  24.554  1.00  0.00     0.059 A 
ATOM     91  F   UNL A   1      49.109  27.513  24.057  1.00  0.00    -0.206 F 
ATOM     92  C   UNL A   1      52.028  25.942  25.493  1.00  0.00     0.060 A 
BRANCH  92  93
ATOM     93  S   UNL A   1      53.654  25.339  24.993  1.00  0.00     0.124 S 
ATOM     94  O   UNL A   1      54.510  25.908  26.029  1.00  0.00    -0.237 OA
ATOM     95  O   UNL A   1      53.477  23.891  25.040  1.00  0.00    -0.237 OA
ATOM     96  O   UNL A   1      53.830  25.900  23.657  1.00  0.00    -0.744 OA
ENDBRANCH  92  93
ENDBRANCH  60  85
ENDBRANCH  34  35
ENDBRANCH  26  29
ENDBRANCH  24  25
ENDBRANCH  23  24
ENDBRANCH   1  23
TORSDOF 18
ENDMDL
