MODEL 1
REMARK VINA RESULT:     -11.3      0.000      0.000
REMARK SMILES CC(=O)N[C@@]1(C(=O)NCCCCCCNC(=O)c2ccc(-c3c4nc(c(-c5c(F)cc(S(=O)(=O)[O-])cc5F)c5ccc([nH]5)c(-c5c(F)cc(S(=O)(=O)[O-])cc5F)c5nc(c(-c6c(F)cc(S(=O)(=O)[O-])cc6F)c6ccc3[nH]6)C=C5)C=C4)cc2)CCCc2ccccc21
REMARK SMILES IDX 12 1 11 2 10 3 9 4 8 5 6 6 7 7 5 9 84 10 92 11 85 12 87 13
REMARK SMILES IDX 91 14 86 15 88 16 90 17 89 18 4 19 1 20 2 21 3 22 13 24
REMARK SMILES IDX 14 25 15 26 16 27 17 29 18 30 19 31 83 32 20 33 82 34 21 35
REMARK SMILES IDX 22 36 23 37 76 38 24 39 81 40 75 41 77 42 25 43 80 44 74 45
REMARK SMILES IDX 73 46 26 48 60 49 39 50 59 51 40 52 43 53 58 54 78 55 41 56
REMARK SMILES IDX 42 57 57 59 79 60 44 61 27 62 28 63 37 64 29 65 30 66 36 67
REMARK SMILES IDX 38 68 31 69 32 70 33 71 34 72 35 73 61 74 62 75 71 76 63 77
REMARK SMILES IDX 64 78 70 79 72 80 65 81 66 82 67 83 68 84 69 85 45 86 46 87
REMARK SMILES IDX 55 88 47 89 48 90 54 91 56 92 49 93 50 94 51 95 52 96 53 97
REMARK H PARENT 8 8 4 23 15 28 77 47 43 58
REMARK Flexibility Score: inf
ROOT
ATOM      1  C   UNL A   1      31.631  27.559  25.558  1.00  0.00     0.002 C 
ENDROOT
BRANCH   1   2
ATOM      2  C   UNL A   1      30.644  26.411  25.323  1.00  0.00     0.002 C 
BRANCH   2   3
ATOM      3  C   UNL A   1      30.576  25.291  26.370  1.00  0.00     0.021 C 
BRANCH   3   4
ATOM      4  C   UNL A   1      31.090  23.915  25.952  1.00  0.00     0.116 C 
BRANCH   4   5
ATOM      5  N   UNL A   1      32.007  23.271  26.876  1.00  0.00    -0.354 N 
ATOM      6  C   UNL A   1      33.361  23.030  26.765  1.00  0.00     0.250 C 
ATOM      7  O   UNL A   1      33.897  22.572  27.782  1.00  0.00    -0.272 OA
ATOM      8  H   UNL A   1      31.597  22.955  27.713  1.00  0.00     0.163 HD
BRANCH   6   9
ATOM      9  C   UNL A   1      34.137  23.105  25.374  1.00  0.00     0.144 C 
ATOM     10  C   UNL A   1      33.519  21.933  24.534  1.00  0.00     0.044 C 
ATOM     11  C   UNL A   1      35.668  22.850  25.504  1.00  0.00    -0.010 A 
ATOM     12  C   UNL A   1      33.923  20.547  25.039  1.00  0.00     0.008 C 
ATOM     13  C   UNL A   1      36.222  21.552  25.421  1.00  0.00    -0.042 A 
ATOM     14  C   UNL A   1      36.586  23.900  25.700  1.00  0.00     0.007 A 
ATOM     15  C   UNL A   1      35.426  20.356  24.967  1.00  0.00     0.036 C 
ATOM     16  C   UNL A   1      37.604  21.346  25.636  1.00  0.00     0.004 A 
ATOM     17  C   UNL A   1      37.953  23.693  25.896  1.00  0.00     0.000 A 
ATOM     18  C   UNL A   1      38.462  22.410  25.891  1.00  0.00     0.000 A 
BRANCH   9  19
ATOM     19  N   UNL A   1      33.856  24.350  24.611  1.00  0.00    -0.338 N 
ATOM     20  C   UNL A   1      33.791  23.544  22.232  1.00  0.00     0.114 C 
ATOM     21  C   UNL A   1      33.602  24.599  23.299  1.00  0.00     0.217 C 
ATOM     22  O   UNL A   1      33.269  25.744  22.990  1.00  0.00    -0.275 OA
ATOM     23  H   UNL A   1      33.854  25.160  25.172  1.00  0.00     0.164 HD
ENDBRANCH   9  19
ENDBRANCH   6   9
ENDBRANCH   4   5
ENDBRANCH   3   4
ENDBRANCH   2   3
ENDBRANCH   1   2
BRANCH   1  24
ATOM     24  C   UNL A   1      32.133  27.783  26.985  1.00  0.00     0.021 C 
BRANCH  24  25
ATOM     25  C   UNL A   1      33.496  28.450  27.140  1.00  0.00     0.116 C 
BRANCH  25  26
ATOM     26  N   UNL A   1      33.419  29.847  27.531  1.00  0.00    -0.352 N 
ATOM     27  C   UNL A   1      34.376  30.649  28.103  1.00  0.00     0.251 C 
ATOM     28  H   UNL A   1      32.554  30.283  27.359  1.00  0.00     0.163 HD
ATOM     29  O   UNL A   1      34.079  31.795  28.443  1.00  0.00    -0.269 OA
BRANCH  27  30
ATOM     30  C   UNL A   1      35.746  30.141  28.347  1.00  0.00     0.039 A 
ATOM     31  C   UNL A   1      36.678  30.198  27.306  1.00  0.00     0.014 A 
ATOM     32  C   UNL A   1      36.119  29.601  29.582  1.00  0.00     0.014 A 
ATOM     33  C   UNL A   1      37.995  29.781  27.524  1.00  0.00     0.010 A 
ATOM     34  C   UNL A   1      37.450  29.255  29.819  1.00  0.00     0.010 A 
ATOM     35  C   UNL A   1      38.403  29.341  28.794  1.00  0.00    -0.014 A 
BRANCH  35  36
ATOM     36  C   UNL A   1      39.822  28.981  29.065  1.00  0.00     0.031 A 
ATOM     37  C   UNL A   1      40.766  29.997  29.654  1.00  0.00     0.074 A 
ATOM     38  C   UNL A   1      40.275  27.756  28.727  1.00  0.00     0.049 A 
ATOM     39  N   UNL A   1      42.044  29.885  29.910  1.00  0.00    -0.248 NA
ATOM     40  C   UNL A   1      40.208  31.322  29.976  1.00  0.00     0.031 C 
ATOM     41  C   UNL A   1      39.471  26.699  28.108  1.00  0.00     0.029 A 
ATOM     42  N   UNL A   1      41.521  27.193  28.844  1.00  0.00    -0.354 N 
ATOM     43  C   UNL A   1      42.447  31.123  30.398  1.00  0.00     0.074 A 
ATOM     44  C   UNL A   1      41.286  31.986  30.368  1.00  0.00     0.031 C 
ATOM     45  C   UNL A   1      40.237  25.612  27.922  1.00  0.00     0.029 A 
ATOM     46  C   UNL A   1      41.597  25.905  28.365  1.00  0.00     0.049 A 
ATOM     47  H   UNL A   1      42.291  27.668  29.233  1.00  0.00     0.167 HD
ATOM     48  C   UNL A   1      43.668  31.501  30.846  1.00  0.00     0.037 A 
ATOM     49  C   UNL A   1      42.642  25.059  28.283  1.00  0.00     0.037 A 
ATOM     50  C   UNL A   1      44.810  30.625  30.907  1.00  0.00     0.049 A 
ATOM     51  C   UNL A   1      43.989  25.508  28.786  1.00  0.00     0.074 A 
ATOM     52  C   UNL A   1      46.066  30.889  31.426  1.00  0.00     0.029 A 
ATOM     53  N   UNL A   1      44.841  29.323  30.429  1.00  0.00    -0.354 N 
ATOM     54  N   UNL A   1      44.327  26.654  29.329  1.00  0.00    -0.248 NA
ATOM     55  C   UNL A   1      45.097  24.550  28.671  1.00  0.00     0.031 C 
ATOM     56  C   UNL A   1      46.875  29.770  31.206  1.00  0.00     0.029 A 
ATOM     57  C   UNL A   1      46.104  28.784  30.610  1.00  0.00     0.049 A 
ATOM     58  H   UNL A   1      44.079  28.852  30.022  1.00  0.00     0.167 HD
ATOM     59  C   UNL A   1      45.675  26.538  29.653  1.00  0.00     0.074 A 
ATOM     60  C   UNL A   1      46.087  25.208  29.257  1.00  0.00     0.031 C 
ATOM     61  C   UNL A   1      46.498  27.451  30.227  1.00  0.00     0.037 A 
BRANCH  48  62
ATOM     62  C   UNL A   1      43.849  32.922  31.307  1.00  0.00     0.058 A 
ATOM     63  C   UNL A   1      44.307  33.930  30.445  1.00  0.00     0.135 A 
ATOM     64  C   UNL A   1      43.480  33.295  32.611  1.00  0.00     0.135 A 
ATOM     65  F   UNL A   1      44.688  33.629  29.194  1.00  0.00    -0.206 F 
ATOM     66  C   UNL A   1      44.407  35.254  30.863  1.00  0.00     0.059 A 
ATOM     67  C   UNL A   1      43.543  34.617  33.041  1.00  0.00     0.059 A 
ATOM     68  F   UNL A   1      43.037  32.371  33.478  1.00  0.00    -0.206 F 
ATOM     69  C   UNL A   1      44.015  35.589  32.160  1.00  0.00     0.060 A 
BRANCH  69  70
ATOM     70  S   UNL A   1      44.114  37.318  32.671  1.00  0.00     0.124 S 
ATOM     71  O   UNL A   1      43.885  38.009  31.405  1.00  0.00    -0.237 OA
ATOM     72  O   UNL A   1      43.035  37.415  33.648  1.00  0.00    -0.237 OA
ATOM     73  O   UNL A   1      45.463  37.437  33.214  1.00  0.00    -0.744 OA
ENDBRANCH  69  70
ENDBRANCH  48  62
BRANCH  49  74
ATOM     74  C   UNL A   1      42.469  23.695  27.708  1.00  0.00     0.058 A 
ATOM     75  C   UNL A   1      42.316  22.575  28.539  1.00  0.00     0.135 A 
ATOM     76  C   UNL A   1      42.485  23.479  26.321  1.00  0.00     0.135 A 
ATOM     77  F   UNL A   1      42.300  22.725  29.871  1.00  0.00    -0.206 F 
ATOM     78  C   UNL A   1      42.224  21.287  28.020  1.00  0.00     0.059 A 
ATOM     79  C   UNL A   1      42.362  22.204  25.776  1.00  0.00     0.059 A 
ATOM     80  F   UNL A   1      42.610  24.517  25.479  1.00  0.00    -0.206 F 
ATOM     81  C   UNL A   1      42.253  21.112  26.635  1.00  0.00     0.060 A 
BRANCH  81  82
ATOM     82  S   UNL A   1      42.127  19.437  25.971  1.00  0.00     0.124 S 
ATOM     83  O   UNL A   1      42.975  19.527  24.788  1.00  0.00    -0.237 OA
ATOM     84  O   UNL A   1      42.648  18.631  27.071  1.00  0.00    -0.237 OA
ATOM     85  O   UNL A   1      40.698  19.284  25.714  1.00  0.00    -0.744 OA
ENDBRANCH  81  82
ENDBRANCH  49  74
BRANCH  61  86
ATOM     86  C   UNL A   1      47.914  27.031  30.511  1.00  0.00     0.058 A 
ATOM     87  C   UNL A   1      48.958  27.275  29.604  1.00  0.00     0.135 A 
ATOM     88  C   UNL A   1      48.240  26.420  31.734  1.00  0.00     0.135 A 
ATOM     89  F   UNL A   1      48.702  27.850  28.419  1.00  0.00    -0.206 F 
ATOM     90  C   UNL A   1      50.269  26.905  29.889  1.00  0.00     0.059 A 
ATOM     91  C   UNL A   1      49.548  26.072  32.052  1.00  0.00     0.059 A 
ATOM     92  F   UNL A   1      47.283  26.174  32.642  1.00  0.00    -0.206 F 
ATOM     93  C   UNL A   1      50.555  26.308  31.117  1.00  0.00     0.060 A 
BRANCH  93  94
ATOM     94  S   UNL A   1      52.265  25.865  31.487  1.00  0.00     0.124 S 
ATOM     95  O   UNL A   1      52.115  24.501  31.983  1.00  0.00    -0.237 OA
ATOM     96  O   UNL A   1      52.910  25.999  30.185  1.00  0.00    -0.237 OA
ATOM     97  O   UNL A   1      52.665  26.854  32.484  1.00  0.00    -0.744 OA
ENDBRANCH  93  94
ENDBRANCH  61  86
ENDBRANCH  35  36
ENDBRANCH  27  30
ENDBRANCH  25  26
ENDBRANCH  24  25
ENDBRANCH   1  24
TORSDOF 17
ENDMDL
MODEL 2
REMARK VINA RESULT:     -11.2      0.997      2.123
REMARK SMILES CC(=O)N[C@@]1(C(=O)NCCCCCCNC(=O)c2ccc(-c3c4nc(c(-c5c(F)cc(S(=O)(=O)[O-])cc5F)c5ccc([nH]5)c(-c5c(F)cc(S(=O)(=O)[O-])cc5F)c5nc(c(-c6c(F)cc(S(=O)(=O)[O-])cc6F)c6ccc3[nH]6)C=C5)C=C4)cc2)CCCc2ccccc21
REMARK SMILES IDX 12 1 11 2 10 3 9 4 8 5 6 6 7 7 5 9 84 10 92 11 85 12 87 13
REMARK SMILES IDX 91 14 86 15 88 16 90 17 89 18 4 19 1 20 2 21 3 22 13 24
REMARK SMILES IDX 14 25 15 26 16 27 17 29 18 30 19 31 83 32 20 33 82 34 21 35
REMARK SMILES IDX 22 36 23 37 76 38 24 39 81 40 75 41 77 42 25 43 80 44 74 45
REMARK SMILES IDX 73 46 26 48 60 49 39 50 59 51 40 52 43 53 58 54 78 55 41 56
REMARK SMILES IDX 42 57 57 59 79 60 44 61 27 62 28 63 37 64 29 65 30 66 36 67
REMARK SMILES IDX 38 68 31 69 32 70 33 71 34 72 35 73 61 74 62 75 71 76 63 77
REMARK SMILES IDX 64 78 70 79 72 80 65 81 66 82 67 83 68 84 69 85 45 86 46 87
REMARK SMILES IDX 55 88 47 89 48 90 54 91 56 92 49 93 50 94 51 95 52 96 53 97
REMARK H PARENT 8 8 4 23 15 28 77 47 43 58
REMARK Flexibility Score: inf
ROOT
ATOM      1  C   UNL A   1      31.682  28.297  25.323  1.00  0.00     0.002 C 
ENDROOT
BRANCH   1   2
ATOM      2  C   UNL A   1      31.291  28.097  23.856  1.00  0.00     0.002 C 
BRANCH   2   3
ATOM      3  C   UNL A   1      32.282  27.373  22.936  1.00  0.00     0.021 C 
BRANCH   3   4
ATOM      4  C   UNL A   1      31.758  26.167  22.158  1.00  0.00     0.116 C 
BRANCH   4   5
ATOM      5  N   UNL A   1      32.759  25.211  21.719  1.00  0.00    -0.354 N 
ATOM      6  C   UNL A   1      33.223  24.064  22.329  1.00  0.00     0.250 C 
ATOM      7  O   UNL A   1      33.994  23.380  21.643  1.00  0.00    -0.272 OA
ATOM      8  H   UNL A   1      33.171  25.413  20.848  1.00  0.00     0.163 HD
BRANCH   6   9
ATOM      9  C   UNL A   1      32.986  23.756  23.876  1.00  0.00     0.144 C 
ATOM     10  C   UNL A   1      34.063  24.635  24.604  1.00  0.00     0.044 C 
ATOM     11  C   UNL A   1      33.241  22.267  24.257  1.00  0.00    -0.010 A 
ATOM     12  C   UNL A   1      35.493  24.130  24.405  1.00  0.00     0.008 C 
ATOM     13  C   UNL A   1      34.516  21.801  24.649  1.00  0.00    -0.042 A 
ATOM     14  C   UNL A   1      32.211  21.307  24.242  1.00  0.00     0.007 A 
ATOM     15  C   UNL A   1      35.661  22.729  24.961  1.00  0.00     0.036 C 
ATOM     16  C   UNL A   1      34.732  20.426  24.899  1.00  0.00     0.004 A 
ATOM     17  C   UNL A   1      32.426  19.952  24.505  1.00  0.00     0.000 A 
ATOM     18  C   UNL A   1      33.696  19.504  24.808  1.00  0.00     0.000 A 
BRANCH   9  19
ATOM     19  N   UNL A   1      31.666  24.226  24.372  1.00  0.00    -0.338 N 
ATOM     20  C   UNL A   1      31.940  24.122  26.868  1.00  0.00     0.114 C 
ATOM     21  C   UNL A   1      31.183  24.499  25.614  1.00  0.00     0.217 C 
ATOM     22  O   UNL A   1      30.066  25.011  25.691  1.00  0.00    -0.275 OA
ATOM     23  H   UNL A   1      31.007  24.370  23.654  1.00  0.00     0.164 HD
ENDBRANCH   9  19
ENDBRANCH   6   9
ENDBRANCH   4   5
ENDBRANCH   3   4
ENDBRANCH   2   3
ENDBRANCH   1   2
BRANCH   1  24
ATOM     24  C   UNL A   1      33.153  28.106  25.698  1.00  0.00     0.021 C 
BRANCH  24  25
ATOM     25  C   UNL A   1      33.533  28.365  27.152  1.00  0.00     0.116 C 
BRANCH  25  26
ATOM     26  N   UNL A   1      33.452  29.763  27.535  1.00  0.00    -0.352 N 
ATOM     27  C   UNL A   1      34.404  30.570  28.110  1.00  0.00     0.251 C 
ATOM     28  H   UNL A   1      32.586  30.196  27.357  1.00  0.00     0.163 HD
ATOM     29  O   UNL A   1      34.102  31.717  28.443  1.00  0.00    -0.269 OA
BRANCH  27  30
ATOM     30  C   UNL A   1      35.773  30.066  28.363  1.00  0.00     0.039 A 
ATOM     31  C   UNL A   1      36.703  30.099  27.319  1.00  0.00     0.014 A 
ATOM     32  C   UNL A   1      36.149  29.556  29.610  1.00  0.00     0.014 A 
ATOM     33  C   UNL A   1      38.020  29.685  27.544  1.00  0.00     0.010 A 
ATOM     34  C   UNL A   1      37.479  29.214  29.852  1.00  0.00     0.010 A 
ATOM     35  C   UNL A   1      38.431  29.275  28.823  1.00  0.00    -0.014 A 
BRANCH  35  36
ATOM     36  C   UNL A   1      39.850  28.920  29.100  1.00  0.00     0.031 A 
ATOM     37  C   UNL A   1      40.785  29.936  29.702  1.00  0.00     0.074 A 
ATOM     38  C   UNL A   1      40.311  27.700  28.756  1.00  0.00     0.049 A 
ATOM     39  N   UNL A   1      42.062  29.829  29.965  1.00  0.00    -0.248 NA
ATOM     40  C   UNL A   1      40.218  31.256  30.031  1.00  0.00     0.031 C 
ATOM     41  C   UNL A   1      39.516  26.643  28.123  1.00  0.00     0.029 A 
ATOM     42  N   UNL A   1      41.560  27.142  28.875  1.00  0.00    -0.354 N 
ATOM     43  C   UNL A   1      42.456  31.065  30.465  1.00  0.00     0.074 A 
ATOM     44  C   UNL A   1      41.290  31.922  30.435  1.00  0.00     0.031 C 
ATOM     45  C   UNL A   1      40.289  25.562  27.934  1.00  0.00     0.029 A 
ATOM     46  C   UNL A   1      41.644  25.858  28.387  1.00  0.00     0.049 A 
ATOM     47  H   UNL A   1      42.325  27.618  29.273  1.00  0.00     0.167 HD
ATOM     48  C   UNL A   1      43.672  31.445  30.923  1.00  0.00     0.037 A 
ATOM     49  C   UNL A   1      42.694  25.018  28.305  1.00  0.00     0.037 A 
ATOM     50  C   UNL A   1      44.819  30.575  30.984  1.00  0.00     0.049 A 
ATOM     51  C   UNL A   1      44.036  25.470  28.819  1.00  0.00     0.074 A 
ATOM     52  C   UNL A   1      46.070  30.841  31.513  1.00  0.00     0.029 A 
ATOM     53  N   UNL A   1      44.858  29.277  30.496  1.00  0.00    -0.354 N 
ATOM     54  N   UNL A   1      44.365  26.614  29.374  1.00  0.00    -0.248 NA
ATOM     55  C   UNL A   1      45.150  24.519  28.704  1.00  0.00     0.031 C 
ATOM     56  C   UNL A   1      46.885  29.728  31.289  1.00  0.00     0.029 A 
ATOM     57  C   UNL A   1      46.124  28.743  30.680  1.00  0.00     0.049 A 
ATOM     58  H   UNL A   1      44.101  28.806  30.082  1.00  0.00     0.167 HD
ATOM     59  C   UNL A   1      45.711  26.502  29.705  1.00  0.00     0.074 A 
ATOM     60  C   UNL A   1      46.133  25.177  29.300  1.00  0.00     0.031 C 
ATOM     61  C   UNL A   1      46.526  27.415  30.290  1.00  0.00     0.037 A 
BRANCH  48  62
ATOM     62  C   UNL A   1      43.843  32.864  31.396  1.00  0.00     0.058 A 
ATOM     63  C   UNL A   1      44.108  33.917  30.508  1.00  0.00     0.135 A 
ATOM     64  C   UNL A   1      43.658  33.184  32.752  1.00  0.00     0.135 A 
ATOM     65  F   UNL A   1      44.310  33.667  29.204  1.00  0.00    -0.206 F 
ATOM     66  C   UNL A   1      44.198  35.235  30.947  1.00  0.00     0.059 A 
ATOM     67  C   UNL A   1      43.712  34.498  33.209  1.00  0.00     0.059 A 
ATOM     68  F   UNL A   1      43.403  32.216  33.646  1.00  0.00    -0.206 F 
ATOM     69  C   UNL A   1      43.991  35.516  32.298  1.00  0.00     0.060 A 
BRANCH  69  70
ATOM     70  S   UNL A   1      44.071  37.236  32.842  1.00  0.00     0.124 S 
ATOM     71  O   UNL A   1      45.370  37.270  33.509  1.00  0.00    -0.237 OA
ATOM     72  O   UNL A   1      43.987  37.965  31.582  1.00  0.00    -0.237 OA
ATOM     73  O   UNL A   1      42.913  37.370  33.721  1.00  0.00    -0.744 OA
ENDBRANCH  69  70
ENDBRANCH  48  62
BRANCH  49  74
ATOM     74  C   UNL A   1      42.531  23.658  27.718  1.00  0.00     0.058 A 
ATOM     75  C   UNL A   1      42.374  22.531  28.539  1.00  0.00     0.135 A 
ATOM     76  C   UNL A   1      42.563  23.452  26.330  1.00  0.00     0.135 A 
ATOM     77  F   UNL A   1      42.343  22.673  29.873  1.00  0.00    -0.206 F 
ATOM     78  C   UNL A   1      42.292  21.247  28.010  1.00  0.00     0.059 A 
ATOM     79  C   UNL A   1      42.450  22.180  25.775  1.00  0.00     0.059 A 
ATOM     80  F   UNL A   1      42.693  24.496  25.497  1.00  0.00    -0.206 F 
ATOM     81  C   UNL A   1      42.335  21.082  26.625  1.00  0.00     0.060 A 
BRANCH  81  82
ATOM     82  S   UNL A   1      42.222  19.412  25.948  1.00  0.00     0.124 S 
ATOM     83  O   UNL A   1      40.789  19.291  25.704  1.00  0.00    -0.237 OA
ATOM     84  O   UNL A   1      43.066  19.504  24.761  1.00  0.00    -0.237 OA
ATOM     85  O   UNL A   1      42.752  18.577  27.022  1.00  0.00    -0.744 OA
ENDBRANCH  81  82
ENDBRANCH  49  74
BRANCH  61  86
ATOM     86  C   UNL A   1      47.943  26.999  30.579  1.00  0.00     0.058 A 
ATOM     87  C   UNL A   1      48.986  27.229  29.667  1.00  0.00     0.135 A 
ATOM     88  C   UNL A   1      48.271  26.409  31.812  1.00  0.00     0.135 A 
ATOM     89  F   UNL A   1      48.728  27.785  28.473  1.00  0.00    -0.206 F 
ATOM     90  C   UNL A   1      50.297  26.864  29.956  1.00  0.00     0.059 A 
ATOM     91  C   UNL A   1      49.579  26.067  32.134  1.00  0.00     0.059 A 
ATOM     92  F   UNL A   1      47.314  26.177  32.725  1.00  0.00    -0.206 F 
ATOM     93  C   UNL A   1      50.584  26.287  31.194  1.00  0.00     0.060 A 
BRANCH  93  94
ATOM     94  S   UNL A   1      52.296  25.851  31.569  1.00  0.00     0.124 S 
ATOM     95  O   UNL A   1      52.622  26.815  32.615  1.00  0.00    -0.237 OA
ATOM     96  O   UNL A   1      52.175  24.462  32.001  1.00  0.00    -0.237 OA
ATOM     97  O   UNL A   1      52.984  26.049  30.298  1.00  0.00    -0.744 OA
ENDBRANCH  93  94
ENDBRANCH  61  86
ENDBRANCH  35  36
ENDBRANCH  27  30
ENDBRANCH  25  26
ENDBRANCH  24  25
ENDBRANCH   1  24
TORSDOF 17
ENDMDL
MODEL 3
REMARK VINA RESULT:     -11.0      4.896     10.655
REMARK SMILES CC(=O)N[C@@]1(C(=O)NCCCCCCNC(=O)c2ccc(-c3c4nc(c(-c5c(F)cc(S(=O)(=O)[O-])cc5F)c5ccc([nH]5)c(-c5c(F)cc(S(=O)(=O)[O-])cc5F)c5nc(c(-c6c(F)cc(S(=O)(=O)[O-])cc6F)c6ccc3[nH]6)C=C5)C=C4)cc2)CCCc2ccccc21
REMARK SMILES IDX 12 1 11 2 10 3 9 4 8 5 6 6 7 7 5 9 84 10 92 11 85 12 87 13
REMARK SMILES IDX 91 14 86 15 88 16 90 17 89 18 4 19 1 20 2 21 3 22 13 24
REMARK SMILES IDX 14 25 15 26 16 27 17 29 18 30 19 31 83 32 20 33 82 34 21 35
REMARK SMILES IDX 22 36 23 37 76 38 24 39 81 40 75 41 77 42 25 43 80 44 74 45
REMARK SMILES IDX 73 46 26 48 60 49 39 50 59 51 40 52 43 53 58 54 78 55 41 56
REMARK SMILES IDX 42 57 57 59 79 60 44 61 27 62 28 63 37 64 29 65 30 66 36 67
REMARK SMILES IDX 38 68 31 69 32 70 33 71 34 72 35 73 61 74 62 75 71 76 63 77
REMARK SMILES IDX 64 78 70 79 72 80 65 81 66 82 67 83 68 84 69 85 45 86 46 87
REMARK SMILES IDX 55 88 47 89 48 90 54 91 56 92 49 93 50 94 51 95 52 96 53 97
REMARK H PARENT 8 8 4 23 15 28 77 47 43 58
REMARK Flexibility Score: inf
ROOT
ATOM      1  C   UNL A   1      36.468  23.566  25.942  1.00  0.00     0.002 C 
ENDROOT
BRANCH   1   2
ATOM      2  C   UNL A   1      35.294  22.605  26.158  1.00  0.00     0.002 C 
BRANCH   2   3
ATOM      3  C   UNL A   1      33.928  23.202  26.519  1.00  0.00     0.021 C 
BRANCH   3   4
ATOM      4  C   UNL A   1      33.486  24.445  25.750  1.00  0.00     0.116 C 
BRANCH   4   5
ATOM      5  N   UNL A   1      32.318  25.134  26.271  1.00  0.00    -0.354 N 
ATOM      6  C   UNL A   1      31.615  26.205  25.760  1.00  0.00     0.250 C 
ATOM      7  O   UNL A   1      30.576  26.490  26.371  1.00  0.00    -0.272 OA
ATOM      8  H   UNL A   1      31.975  24.781  27.123  1.00  0.00     0.163 HD
BRANCH   6   9
ATOM      9  C   UNL A   1      32.202  27.157  24.623  1.00  0.00     0.144 C 
ATOM     10  C   UNL A   1      33.481  27.785  25.281  1.00  0.00     0.044 C 
ATOM     11  C   UNL A   1      31.241  28.319  24.230  1.00  0.00    -0.010 A 
ATOM     12  C   UNL A   1      33.161  28.789  26.389  1.00  0.00     0.008 C 
ATOM     13  C   UNL A   1      31.264  29.567  24.894  1.00  0.00    -0.042 A 
ATOM     14  C   UNL A   1      30.305  28.193  23.186  1.00  0.00     0.007 A 
ATOM     15  C   UNL A   1      32.358  29.959  25.852  1.00  0.00     0.036 C 
ATOM     16  C   UNL A   1      30.317  30.567  24.574  1.00  0.00     0.004 A 
ATOM     17  C   UNL A   1      29.381  29.190  22.864  1.00  0.00     0.000 A 
ATOM     18  C   UNL A   1      29.368  30.371  23.578  1.00  0.00     0.000 A 
BRANCH   9  19
ATOM     19  N   UNL A   1      32.677  26.416  23.425  1.00  0.00    -0.338 N 
ATOM     20  C   UNL A   1      33.946  28.171  22.150  1.00  0.00     0.114 C 
ATOM     21  C   UNL A   1      33.495  26.748  22.390  1.00  0.00     0.217 C 
ATOM     22  O   UNL A   1      33.810  25.854  21.604  1.00  0.00    -0.275 OA
ATOM     23  H   UNL A   1      32.327  25.497  23.369  1.00  0.00     0.164 HD
ENDBRANCH   9  19
ENDBRANCH   6   9
ENDBRANCH   4   5
ENDBRANCH   3   4
ENDBRANCH   2   3
ENDBRANCH   1   2
BRANCH   1  24
ATOM     24  C   UNL A   1      37.882  23.010  26.116  1.00  0.00     0.021 C 
BRANCH  24  25
ATOM     25  C   UNL A   1      38.884  23.893  26.852  1.00  0.00     0.116 C 
BRANCH  25  26
ATOM     26  N   UNL A   1      40.046  24.243  26.055  1.00  0.00    -0.352 N 
ATOM     27  C   UNL A   1      40.969  25.244  26.245  1.00  0.00     0.251 C 
ATOM     28  H   UNL A   1      40.196  23.680  25.262  1.00  0.00     0.163 HD
ATOM     29  O   UNL A   1      41.840  25.433  25.394  1.00  0.00    -0.269 OA
BRANCH  27  30
ATOM     30  C   UNL A   1      40.906  26.118  27.440  1.00  0.00     0.039 A 
ATOM     31  C   UNL A   1      41.831  27.159  27.558  1.00  0.00     0.014 A 
ATOM     32  C   UNL A   1      39.954  25.918  28.445  1.00  0.00     0.014 A 
ATOM     33  C   UNL A   1      41.759  28.037  28.645  1.00  0.00     0.010 A 
ATOM     34  C   UNL A   1      39.838  26.838  29.487  1.00  0.00     0.010 A 
ATOM     35  C   UNL A   1      40.738  27.908  29.599  1.00  0.00    -0.014 A 
BRANCH  35  36
ATOM     36  C   UNL A   1      40.592  28.888  30.710  1.00  0.00     0.031 A 
ATOM     37  C   UNL A   1      41.456  28.779  31.940  1.00  0.00     0.074 A 
ATOM     38  C   UNL A   1      39.641  29.842  30.636  1.00  0.00     0.049 A 
ATOM     39  N   UNL A   1      41.437  29.505  33.028  1.00  0.00    -0.248 NA
ATOM     40  C   UNL A   1      42.456  27.698  31.961  1.00  0.00     0.031 C 
ATOM     41  C   UNL A   1      38.710  30.024  29.518  1.00  0.00     0.029 A 
ATOM     42  N   UNL A   1      39.288  30.832  31.520  1.00  0.00    -0.354 N 
ATOM     43  C   UNL A   1      42.400  28.958  33.869  1.00  0.00     0.074 A 
ATOM     44  C   UNL A   1      42.960  27.816  33.181  1.00  0.00     0.031 C 
ATOM     45  C   UNL A   1      37.913  31.073  29.774  1.00  0.00     0.029 A 
ATOM     46  C   UNL A   1      38.240  31.614  31.089  1.00  0.00     0.049 A 
ATOM     47  H   UNL A   1      39.743  30.970  32.382  1.00  0.00     0.167 HD
ATOM     48  C   UNL A   1      42.792  29.381  35.095  1.00  0.00     0.037 A 
ATOM     49  C   UNL A   1      37.608  32.642  31.688  1.00  0.00     0.037 A 
ATOM     50  C   UNL A   1      42.255  30.541  35.758  1.00  0.00     0.049 A 
ATOM     51  C   UNL A   1      38.064  33.087  33.053  1.00  0.00     0.074 A 
ATOM     52  C   UNL A   1      42.650  31.101  36.961  1.00  0.00     0.029 A 
ATOM     53  N   UNL A   1      41.208  31.315  35.281  1.00  0.00    -0.354 N 
ATOM     54  N   UNL A   1      39.040  32.613  33.793  1.00  0.00    -0.248 NA
ATOM     55  C   UNL A   1      37.341  34.210  33.666  1.00  0.00     0.031 C 
ATOM     56  C   UNL A   1      41.800  32.175  37.244  1.00  0.00     0.029 A 
ATOM     57  C   UNL A   1      40.920  32.326  36.184  1.00  0.00     0.049 A 
ATOM     58  H   UNL A   1      40.739  31.169  34.429  1.00  0.00     0.167 HD
ATOM     59  C   UNL A   1      39.068  33.403  34.937  1.00  0.00     0.074 A 
ATOM     60  C   UNL A   1      38.021  34.392  34.787  1.00  0.00     0.031 C 
ATOM     61  C   UNL A   1      39.886  33.317  36.015  1.00  0.00     0.037 A 
BRANCH  48  62
ATOM     62  C   UNL A   1      43.853  28.591  35.814  1.00  0.00     0.058 A 
ATOM     63  C   UNL A   1      45.214  28.920  35.723  1.00  0.00     0.135 A 
ATOM     64  C   UNL A   1      43.491  27.539  36.673  1.00  0.00     0.135 A 
ATOM     65  F   UNL A   1      45.619  29.905  34.906  1.00  0.00    -0.206 F 
ATOM     66  C   UNL A   1      46.181  28.226  36.445  1.00  0.00     0.059 A 
ATOM     67  C   UNL A   1      44.437  26.851  37.428  1.00  0.00     0.059 A 
ATOM     68  F   UNL A   1      42.204  27.182  36.798  1.00  0.00    -0.206 F 
ATOM     69  C   UNL A   1      45.781  27.198  37.301  1.00  0.00     0.060 A 
BRANCH  69  70
ATOM     70  S   UNL A   1      47.044  26.336  38.261  1.00  0.00     0.124 S 
ATOM     71  O   UNL A   1      46.381  25.066  38.541  1.00  0.00    -0.237 OA
ATOM     72  O   UNL A   1      48.159  26.274  37.322  1.00  0.00    -0.237 OA
ATOM     73  O   UNL A   1      47.247  27.205  39.416  1.00  0.00    -0.744 OA
ENDBRANCH  69  70
ENDBRANCH  48  62
BRANCH  49  74
ATOM     74  C   UNL A   1      36.475  33.333  31.010  1.00  0.00     0.058 A 
ATOM     75  C   UNL A   1      36.700  34.186  29.918  1.00  0.00     0.135 A 
ATOM     76  C   UNL A   1      35.153  33.183  31.457  1.00  0.00     0.135 A 
ATOM     77  F   UNL A   1      37.945  34.368  29.455  1.00  0.00    -0.206 F 
ATOM     78  C   UNL A   1      35.663  34.894  29.318  1.00  0.00     0.059 A 
ATOM     79  C   UNL A   1      34.094  33.855  30.853  1.00  0.00     0.059 A 
ATOM     80  F   UNL A   1      34.879  32.366  32.486  1.00  0.00    -0.206 F 
ATOM     81  C   UNL A   1      34.363  34.724  29.797  1.00  0.00     0.060 A 
BRANCH  81  82
ATOM     82  S   UNL A   1      33.023  35.643  29.008  1.00  0.00     0.124 S 
ATOM     83  O   UNL A   1      32.394  34.606  28.198  1.00  0.00    -0.237 OA
ATOM     84  O   UNL A   1      32.254  36.111  30.157  1.00  0.00    -0.237 OA
ATOM     85  O   UNL A   1      33.723  36.686  28.265  1.00  0.00    -0.744 OA
ENDBRANCH  81  82
ENDBRANCH  49  74
BRANCH  61  86
ATOM     86  C   UNL A   1      39.722  34.349  37.098  1.00  0.00     0.058 A 
ATOM     87  C   UNL A   1      38.883  34.139  38.204  1.00  0.00     0.135 A 
ATOM     88  C   UNL A   1      40.459  35.545  37.053  1.00  0.00     0.135 A 
ATOM     89  F   UNL A   1      38.153  33.017  38.294  1.00  0.00    -0.206 F 
ATOM     90  C   UNL A   1      38.759  35.090  39.212  1.00  0.00     0.059 A 
ATOM     91  C   UNL A   1      40.375  36.494  38.066  1.00  0.00     0.059 A 
ATOM     92  F   UNL A   1      41.285  35.792  36.024  1.00  0.00    -0.206 F 
ATOM     93  C   UNL A   1      39.512  36.262  39.137  1.00  0.00     0.060 A 
BRANCH  93  94
ATOM     94  S   UNL A   1      39.368  37.471  40.470  1.00  0.00     0.124 S 
ATOM     95  O   UNL A   1      38.264  38.300  39.997  1.00  0.00    -0.237 OA
ATOM     96  O   UNL A   1      39.079  36.627  41.625  1.00  0.00    -0.237 OA
ATOM     97  O   UNL A   1      40.676  38.120  40.485  1.00  0.00    -0.744 OA
ENDBRANCH  93  94
ENDBRANCH  61  86
ENDBRANCH  35  36
ENDBRANCH  27  30
ENDBRANCH  25  26
ENDBRANCH  24  25
ENDBRANCH   1  24
TORSDOF 17
ENDMDL
