MODEL 1
REMARK VINA RESULT:     -11.2      0.000      0.000
REMARK SMILES CC[C@@](C)(NS(=O)(=O)c1ccc(F)c(F)c1)C(=O)NCCCCCCNC(=O)c1ccc(-c2c3nc(c(-c4c(F)cc(S(=O)(=O)[O-])cc4F)c4ccc([nH]4)c(-c4c(F)cc(S(=O)(=O)[O-])cc4F)c4nc(c(-c5c(F)cc(S(=O)(=O)[O-])cc5F)c5ccc2[nH]5)C=C4)C=C3)cc1
REMARK SMILES IDX 22 1 21 2 20 3 19 4 17 5 18 6 3 8 4 9 2 10 1 11 5 12 6 14
REMARK SMILES IDX 7 15 8 16 9 17 10 18 16 19 11 20 14 21 12 22 15 23 13 24
REMARK SMILES IDX 23 25 24 26 25 27 26 28 27 29 28 31 29 32 30 33 94 34 31 35
REMARK SMILES IDX 93 36 32 37 33 38 34 39 87 40 35 41 92 42 86 43 88 44 36 45
REMARK SMILES IDX 91 46 85 47 84 48 37 50 71 51 50 52 70 53 51 54 54 55 69 56
REMARK SMILES IDX 89 57 52 58 53 59 68 61 90 62 55 63 38 64 39 65 48 66 40 67
REMARK SMILES IDX 41 68 47 69 49 70 42 71 43 72 44 73 45 74 46 75 72 76 73 77
REMARK SMILES IDX 82 78 74 79 75 80 81 81 83 82 76 83 77 84 78 85 79 86 80 87
REMARK SMILES IDX 56 88 57 89 66 90 58 91 59 92 65 93 67 94 60 95 61 96 62 97
REMARK SMILES IDX 63 98 64 99
REMARK H PARENT 19 7 5 13 26 30 88 49 54 60
REMARK Flexibility Score: inf
ROOT
ATOM      1  C   UNL A   1      39.609  22.295  26.464  1.00  0.00     0.002 C 
ENDROOT
BRANCH   1   2
ATOM      2  C   UNL A   1      38.699  23.527  26.504  1.00  0.00     0.021 C 
BRANCH   2   3
ATOM      3  C   UNL A   1      37.269  23.478  25.918  1.00  0.00     0.116 C 
BRANCH   3   4
ATOM      4  N   UNL A   1      37.095  23.220  24.487  1.00  0.00    -0.354 N 
ATOM      5  C   UNL A   1      36.094  23.187  23.555  1.00  0.00     0.241 C 
ATOM      6  O   UNL A   1      36.509  22.945  22.410  1.00  0.00    -0.273 OA
ATOM      7  H   UNL A   1      37.960  23.006  24.069  1.00  0.00     0.163 HD
BRANCH   5   8
ATOM      8  C   UNL A   1      34.572  23.319  23.794  1.00  0.00     0.108 C 
ATOM      9  C   UNL A   1      33.831  23.434  22.457  1.00  0.00     0.040 C 
BRANCH   8  10
ATOM     10  C   UNL A   1      34.004  22.019  24.522  1.00  0.00     0.030 C 
ATOM     11  C   UNL A   1      32.898  21.193  23.889  1.00  0.00     0.006 C 
ENDBRANCH   8  10
BRANCH   8  12
ATOM     12  N   UNL A   1      34.081  24.332  24.760  1.00  0.00    -0.196 NA
ATOM     13  H   UNL A   1      34.466  25.201  24.389  1.00  0.00     0.142 HD
BRANCH  12  14
ATOM     14  S   UNL A   1      32.603  24.799  25.310  1.00  0.00     0.241 S 
ATOM     15  O   UNL A   1      31.711  24.886  24.189  1.00  0.00    -0.207 OA
ATOM     16  O   UNL A   1      32.340  23.816  26.346  1.00  0.00    -0.207 OA
BRANCH  14  17
ATOM     17  C   UNL A   1      32.653  26.371  26.153  1.00  0.00     0.085 A 
ATOM     18  C   UNL A   1      31.494  26.879  26.749  1.00  0.00     0.025 A 
ATOM     19  C   UNL A   1      33.758  27.206  26.085  1.00  0.00     0.064 A 
ATOM     20  C   UNL A   1      31.467  28.195  27.248  1.00  0.00     0.044 A 
ATOM     21  C   UNL A   1      33.742  28.504  26.582  1.00  0.00     0.160 A 
ATOM     22  C   UNL A   1      32.596  29.004  27.158  1.00  0.00     0.158 A 
ATOM     23  F   UNL A   1      34.829  29.276  26.428  1.00  0.00    -0.204 F 
ATOM     24  F   UNL A   1      32.556  30.268  27.597  1.00  0.00    -0.204 F 
ENDBRANCH  14  17
ENDBRANCH  12  14
ENDBRANCH   8  12
ENDBRANCH   5   8
ENDBRANCH   3   4
ENDBRANCH   2   3
ENDBRANCH   1   2
BRANCH   1  25
ATOM     25  C   UNL A   1      40.609  22.149  27.601  1.00  0.00     0.002 C 
BRANCH  25  26
ATOM     26  C   UNL A   1      42.070  22.092  27.165  1.00  0.00     0.021 C 
BRANCH  26  27
ATOM     27  C   UNL A   1      42.786  23.437  27.132  1.00  0.00     0.116 C 
BRANCH  27  28
ATOM     28  N   UNL A   1      42.441  24.236  25.962  1.00  0.00    -0.352 N 
ATOM     29  C   UNL A   1      41.900  25.502  25.948  1.00  0.00     0.251 C 
ATOM     30  H   UNL A   1      42.612  23.823  25.084  1.00  0.00     0.163 HD
ATOM     31  O   UNL A   1      41.504  26.024  24.914  1.00  0.00    -0.269 OA
BRANCH  29  32
ATOM     32  C   UNL A   1      41.800  26.206  27.239  1.00  0.00     0.039 A 
ATOM     33  C   UNL A   1      42.683  27.246  27.526  1.00  0.00     0.014 A 
ATOM     34  C   UNL A   1      40.721  25.918  28.080  1.00  0.00     0.014 A 
ATOM     35  C   UNL A   1      42.447  28.044  28.646  1.00  0.00     0.010 A 
ATOM     36  C   UNL A   1      40.441  26.770  29.140  1.00  0.00     0.010 A 
ATOM     37  C   UNL A   1      41.307  27.832  29.442  1.00  0.00    -0.014 A 
BRANCH  37  38
ATOM     38  C   UNL A   1      41.021  28.704  30.608  1.00  0.00     0.031 A 
ATOM     39  C   UNL A   1      41.868  28.596  31.846  1.00  0.00     0.074 A 
ATOM     40  C   UNL A   1      39.980  29.560  30.564  1.00  0.00     0.049 A 
ATOM     41  N   UNL A   1      41.802  29.284  32.956  1.00  0.00    -0.248 NA
ATOM     42  C   UNL A   1      42.908  27.553  31.851  1.00  0.00     0.031 C 
ATOM     43  C   UNL A   1      39.046  29.702  29.444  1.00  0.00     0.029 A 
ATOM     44  N   UNL A   1      39.537  30.480  31.480  1.00  0.00    -0.354 N 
ATOM     45  C   UNL A   1      42.775  28.747  33.790  1.00  0.00     0.074 A 
ATOM     46  C   UNL A   1      43.368  27.633  33.090  1.00  0.00     0.031 C 
ATOM     47  C   UNL A   1      38.177  30.689  29.717  1.00  0.00     0.029 A 
ATOM     48  C   UNL A   1      38.472  31.229  31.040  1.00  0.00     0.049 A 
ATOM     49  H   UNL A   1      39.944  30.593  32.369  1.00  0.00     0.167 HD
ATOM     50  C   UNL A   1      43.161  29.167  35.020  1.00  0.00     0.037 A 
ATOM     51  C   UNL A   1      37.820  32.249  31.631  1.00  0.00     0.037 A 
ATOM     52  C   UNL A   1      42.580  30.297  35.693  1.00  0.00     0.049 A 
ATOM     53  C   UNL A   1      38.279  32.711  32.989  1.00  0.00     0.074 A 
ATOM     54  C   UNL A   1      42.945  30.861  36.901  1.00  0.00     0.029 A 
ATOM     55  N   UNL A   1      41.504  31.033  35.216  1.00  0.00    -0.354 N 
ATOM     56  N   UNL A   1      39.263  32.255  33.727  1.00  0.00    -0.248 NA
ATOM     57  C   UNL A   1      37.544  33.832  33.589  1.00  0.00     0.031 C 
ATOM     58  C   UNL A   1      42.054  31.903  37.183  1.00  0.00     0.029 A 
ATOM     59  C   UNL A   1      41.170  32.026  36.122  1.00  0.00     0.049 A 
ATOM     60  H   UNL A   1      41.045  30.873  34.360  1.00  0.00     0.167 HD
ATOM     61  C   UNL A   1      39.284  33.050  34.869  1.00  0.00     0.074 A 
ATOM     62  C   UNL A   1      38.224  34.026  34.710  1.00  0.00     0.031 C 
ATOM     63  C   UNL A   1      40.104  32.982  35.948  1.00  0.00     0.037 A 
BRANCH  50  64
ATOM     64  C   UNL A   1      44.253  28.390  35.705  1.00  0.00     0.058 A 
ATOM     65  C   UNL A   1      45.614  28.672  35.492  1.00  0.00     0.135 A 
ATOM     66  C   UNL A   1      43.937  27.343  36.586  1.00  0.00     0.135 A 
ATOM     67  F   UNL A   1      45.978  29.651  34.647  1.00  0.00    -0.206 F 
ATOM     68  C   UNL A   1      46.618  27.917  36.088  1.00  0.00     0.059 A 
ATOM     69  C   UNL A   1      44.926  26.596  37.220  1.00  0.00     0.059 A 
ATOM     70  F   UNL A   1      42.655  27.027  36.827  1.00  0.00    -0.206 F 
ATOM     71  C   UNL A   1      46.264  26.877  36.948  1.00  0.00     0.060 A 
BRANCH  71  72
ATOM     72  S   UNL A   1      47.577  25.896  37.703  1.00  0.00     0.124 S 
ATOM     73  O   UNL A   1      47.847  24.916  36.656  1.00  0.00    -0.237 OA
ATOM     74  O   UNL A   1      48.622  26.891  37.922  1.00  0.00    -0.237 OA
ATOM     75  O   UNL A   1      46.955  25.367  38.913  1.00  0.00    -0.744 OA
ENDBRANCH  71  72
ENDBRANCH  50  64
BRANCH  51  76
ATOM     76  C   UNL A   1      36.711  32.941  30.920  1.00  0.00     0.058 A 
ATOM     77  C   UNL A   1      35.379  32.767  31.324  1.00  0.00     0.135 A 
ATOM     78  C   UNL A   1      36.955  33.802  29.838  1.00  0.00     0.135 A 
ATOM     79  F   UNL A   1      35.091  31.949  32.349  1.00  0.00    -0.206 F 
ATOM     80  C   UNL A   1      34.328  33.412  30.679  1.00  0.00     0.059 A 
ATOM     81  C   UNL A   1      35.923  34.478  29.193  1.00  0.00     0.059 A 
ATOM     82  F   UNL A   1      38.213  34.016  29.420  1.00  0.00    -0.206 F 
ATOM     83  C   UNL A   1      34.611  34.270  29.616  1.00  0.00     0.060 A 
BRANCH  83  84
ATOM     84  S   UNL A   1      33.245  35.148  28.826  1.00  0.00     0.124 S 
ATOM     85  O   UNL A   1      33.924  36.314  28.273  1.00  0.00    -0.237 OA
ATOM     86  O   UNL A   1      32.770  34.165  27.857  1.00  0.00    -0.237 OA
ATOM     87  O   UNL A   1      32.332  35.415  29.934  1.00  0.00    -0.744 OA
ENDBRANCH  83  84
ENDBRANCH  51  76
BRANCH  63  88
ATOM     88  C   UNL A   1      39.898  34.008  37.028  1.00  0.00     0.058 A 
ATOM     89  C   UNL A   1      39.131  33.734  38.171  1.00  0.00     0.135 A 
ATOM     90  C   UNL A   1      40.496  35.275  36.928  1.00  0.00     0.135 A 
ATOM     91  F   UNL A   1      38.535  32.540  38.315  1.00  0.00    -0.206 F 
ATOM     92  C   UNL A   1      38.928  34.694  39.157  1.00  0.00     0.059 A 
ATOM     93  C   UNL A   1      40.335  36.239  37.918  1.00  0.00     0.059 A 
ATOM     94  F   UNL A   1      41.254  35.585  35.864  1.00  0.00    -0.206 F 
ATOM     95  C   UNL A   1      39.531  35.946  39.019  1.00  0.00     0.060 A 
BRANCH  95  96
ATOM     96  S   UNL A   1      39.261  37.183  40.304  1.00  0.00     0.124 S 
ATOM     97  O   UNL A   1      38.468  38.178  39.589  1.00  0.00    -0.237 OA
ATOM     98  O   UNL A   1      38.551  36.421  41.327  1.00  0.00    -0.237 OA
ATOM     99  O   UNL A   1      40.613  37.598  40.666  1.00  0.00    -0.744 OA
ENDBRANCH  95  96
ENDBRANCH  63  88
ENDBRANCH  37  38
ENDBRANCH  29  32
ENDBRANCH  27  28
ENDBRANCH  26  27
ENDBRANCH  25  26
ENDBRANCH   1  25
TORSDOF 20
ENDMDL
MODEL 2
REMARK VINA RESULT:     -11.1      1.191      2.208
REMARK SMILES CC[C@@](C)(NS(=O)(=O)c1ccc(F)c(F)c1)C(=O)NCCCCCCNC(=O)c1ccc(-c2c3nc(c(-c4c(F)cc(S(=O)(=O)[O-])cc4F)c4ccc([nH]4)c(-c4c(F)cc(S(=O)(=O)[O-])cc4F)c4nc(c(-c5c(F)cc(S(=O)(=O)[O-])cc5F)c5ccc2[nH]5)C=C4)C=C3)cc1
REMARK SMILES IDX 22 1 21 2 20 3 19 4 17 5 18 6 3 8 4 9 2 10 1 11 5 12 6 14
REMARK SMILES IDX 7 15 8 16 9 17 10 18 16 19 11 20 14 21 12 22 15 23 13 24
REMARK SMILES IDX 23 25 24 26 25 27 26 28 27 29 28 31 29 32 30 33 94 34 31 35
REMARK SMILES IDX 93 36 32 37 33 38 34 39 87 40 35 41 92 42 86 43 88 44 36 45
REMARK SMILES IDX 91 46 85 47 84 48 37 50 71 51 50 52 70 53 51 54 54 55 69 56
REMARK SMILES IDX 89 57 52 58 53 59 68 61 90 62 55 63 38 64 39 65 48 66 40 67
REMARK SMILES IDX 41 68 47 69 49 70 42 71 43 72 44 73 45 74 46 75 72 76 73 77
REMARK SMILES IDX 82 78 74 79 75 80 81 81 83 82 76 83 77 84 78 85 79 86 80 87
REMARK SMILES IDX 56 88 57 89 66 90 58 91 59 92 65 93 67 94 60 95 61 96 62 97
REMARK SMILES IDX 63 98 64 99
REMARK H PARENT 19 7 5 13 26 30 88 49 54 60
REMARK Flexibility Score: inf
ROOT
ATOM      1  C   UNL A   1      39.374  22.792  26.881  1.00  0.00     0.002 C 
ENDROOT
BRANCH   1   2
ATOM      2  C   UNL A   1      38.248  22.558  25.870  1.00  0.00     0.021 C 
BRANCH   2   3
ATOM      3  C   UNL A   1      37.003  23.474  25.839  1.00  0.00     0.116 C 
BRANCH   3   4
ATOM      4  N   UNL A   1      35.787  23.043  26.532  1.00  0.00    -0.354 N 
ATOM      5  C   UNL A   1      34.797  22.108  26.402  1.00  0.00     0.241 C 
ATOM      6  O   UNL A   1      33.978  22.139  27.335  1.00  0.00    -0.273 OA
ATOM      7  H   UNL A   1      35.636  23.593  27.335  1.00  0.00     0.163 HD
BRANCH   5   8
ATOM      8  C   UNL A   1      34.559  21.138  25.222  1.00  0.00     0.108 C 
ATOM      9  C   UNL A   1      35.752  20.185  25.067  1.00  0.00     0.040 C 
BRANCH   8  10
ATOM     10  C   UNL A   1      33.278  20.228  25.493  1.00  0.00     0.030 C 
ATOM     11  C   UNL A   1      32.376  19.793  24.352  1.00  0.00     0.006 C 
ENDBRANCH   8  10
BRANCH   8  12
ATOM     12  N   UNL A   1      34.150  21.689  23.907  1.00  0.00    -0.196 NA
ATOM     13  H   UNL A   1      33.171  21.409  23.842  1.00  0.00     0.142 HD
BRANCH  12  14
ATOM     14  S   UNL A   1      34.146  23.183  23.218  1.00  0.00     0.241 S 
ATOM     15  O   UNL A   1      35.503  23.547  22.924  1.00  0.00    -0.207 OA
ATOM     16  O   UNL A   1      33.207  23.010  22.124  1.00  0.00    -0.207 OA
BRANCH  14  17
ATOM     17  C   UNL A   1      33.415  24.420  24.276  1.00  0.00     0.085 A 
ATOM     18  C   UNL A   1      34.126  25.588  24.576  1.00  0.00     0.025 A 
ATOM     19  C   UNL A   1      32.236  24.192  24.969  1.00  0.00     0.064 A 
ATOM     20  C   UNL A   1      33.650  26.481  25.554  1.00  0.00     0.044 A 
ATOM     21  C   UNL A   1      31.755  25.072  25.931  1.00  0.00     0.160 A 
ATOM     22  C   UNL A   1      32.462  26.215  26.230  1.00  0.00     0.158 A 
ATOM     23  F   UNL A   1      30.638  24.757  26.604  1.00  0.00    -0.204 F 
ATOM     24  F   UNL A   1      32.031  27.044  27.188  1.00  0.00    -0.204 F 
ENDBRANCH  14  17
ENDBRANCH  12  14
ENDBRANCH   8  12
ENDBRANCH   5   8
ENDBRANCH   3   4
ENDBRANCH   2   3
ENDBRANCH   1   2
BRANCH   1  25
ATOM     25  C   UNL A   1      40.695  22.088  26.607  1.00  0.00     0.002 C 
BRANCH  25  26
ATOM     26  C   UNL A   1      41.761  22.289  27.680  1.00  0.00     0.021 C 
BRANCH  26  27
ATOM     27  C   UNL A   1      42.714  23.452  27.433  1.00  0.00     0.116 C 
BRANCH  27  28
ATOM     28  N   UNL A   1      42.362  24.234  26.253  1.00  0.00    -0.352 N 
ATOM     29  C   UNL A   1      41.807  25.494  26.224  1.00  0.00     0.251 C 
ATOM     30  H   UNL A   1      42.541  23.814  25.380  1.00  0.00     0.163 HD
ATOM     31  O   UNL A   1      41.408  25.999  25.183  1.00  0.00    -0.269 OA
BRANCH  29  32
ATOM     32  C   UNL A   1      41.697  26.211  27.506  1.00  0.00     0.039 A 
ATOM     33  C   UNL A   1      42.622  27.206  27.821  1.00  0.00     0.014 A 
ATOM     34  C   UNL A   1      40.573  25.986  28.307  1.00  0.00     0.014 A 
ATOM     35  C   UNL A   1      42.386  28.022  28.927  1.00  0.00     0.010 A 
ATOM     36  C   UNL A   1      40.298  26.859  29.352  1.00  0.00     0.010 A 
ATOM     37  C   UNL A   1      41.207  27.876  29.681  1.00  0.00    -0.014 A 
BRANCH  37  38
ATOM     38  C   UNL A   1      40.924  28.770  30.830  1.00  0.00     0.031 A 
ATOM     39  C   UNL A   1      41.758  28.667  32.078  1.00  0.00     0.074 A 
ATOM     40  C   UNL A   1      39.897  29.641  30.764  1.00  0.00     0.049 A 
ATOM     41  N   UNL A   1      41.692  29.373  33.177  1.00  0.00    -0.248 NA
ATOM     42  C   UNL A   1      42.781  27.609  32.109  1.00  0.00     0.031 C 
ATOM     43  C   UNL A   1      38.976  29.780  29.634  1.00  0.00     0.029 A 
ATOM     44  N   UNL A   1      39.461  30.582  31.662  1.00  0.00    -0.354 N 
ATOM     45  C   UNL A   1      42.649  28.834  34.029  1.00  0.00     0.074 A 
ATOM     46  C   UNL A   1      43.232  27.700  33.350  1.00  0.00     0.031 C 
ATOM     47  C   UNL A   1      38.120  30.785  29.883  1.00  0.00     0.029 A 
ATOM     48  C   UNL A   1      38.411  31.340  31.200  1.00  0.00     0.049 A 
ATOM     49  H   UNL A   1      39.861  30.702  32.553  1.00  0.00     0.167 HD
ATOM     50  C   UNL A   1      43.030  29.267  35.255  1.00  0.00     0.037 A 
ATOM     51  C   UNL A   1      37.770  32.379  31.770  1.00  0.00     0.037 A 
ATOM     52  C   UNL A   1      42.462  30.416  35.905  1.00  0.00     0.049 A 
ATOM     53  C   UNL A   1      38.223  32.855  33.125  1.00  0.00     0.074 A 
ATOM     54  C   UNL A   1      42.824  30.992  37.109  1.00  0.00     0.029 A 
ATOM     55  N   UNL A   1      41.402  31.161  35.408  1.00  0.00    -0.354 N 
ATOM     56  N   UNL A   1      39.193  32.395  33.880  1.00  0.00    -0.248 NA
ATOM     57  C   UNL A   1      37.500  33.995  33.702  1.00  0.00     0.031 C 
ATOM     58  C   UNL A   1      41.947  32.052  37.366  1.00  0.00     0.029 A 
ATOM     59  C   UNL A   1      41.075  32.173  36.295  1.00  0.00     0.049 A 
ATOM     60  H   UNL A   1      40.948  30.995  34.550  1.00  0.00     0.167 HD
ATOM     61  C   UNL A   1      39.216  33.206  35.009  1.00  0.00     0.074 A 
ATOM     62  C   UNL A   1      38.174  34.197  34.826  1.00  0.00     0.031 C 
ATOM     63  C   UNL A   1      40.025  33.143  36.097  1.00  0.00     0.037 A 
BRANCH  50  64
ATOM     64  C   UNL A   1      44.104  28.484  35.962  1.00  0.00     0.058 A 
ATOM     65  C   UNL A   1      43.801  27.440  36.853  1.00  0.00     0.135 A 
ATOM     66  C   UNL A   1      45.460  28.784  35.751  1.00  0.00     0.135 A 
ATOM     67  F   UNL A   1      42.522  27.118  37.108  1.00  0.00    -0.206 F 
ATOM     68  C   UNL A   1      44.796  26.755  37.543  1.00  0.00     0.059 A 
ATOM     69  C   UNL A   1      46.474  28.089  36.404  1.00  0.00     0.059 A 
ATOM     70  F   UNL A   1      45.810  29.771  34.913  1.00  0.00    -0.206 F 
ATOM     71  C   UNL A   1      46.131  27.090  37.314  1.00  0.00     0.060 A 
BRANCH  71  72
ATOM     72  S   UNL A   1      47.411  26.204  38.227  1.00  0.00     0.124 S 
ATOM     73  O   UNL A   1      46.620  25.510  39.238  1.00  0.00    -0.237 OA
ATOM     74  O   UNL A   1      48.001  25.358  37.194  1.00  0.00    -0.237 OA
ATOM     75  O   UNL A   1      48.273  27.271  38.728  1.00  0.00    -0.744 OA
ENDBRANCH  71  72
ENDBRANCH  50  64
BRANCH  51  76
ATOM     76  C   UNL A   1      36.678  33.077  31.038  1.00  0.00     0.058 A 
ATOM     77  C   UNL A   1      35.336  32.893  31.402  1.00  0.00     0.135 A 
ATOM     78  C   UNL A   1      36.949  33.955  29.977  1.00  0.00     0.135 A 
ATOM     79  F   UNL A   1      35.023  32.059  32.407  1.00  0.00    -0.206 F 
ATOM     80  C   UNL A   1      34.301  33.543  30.738  1.00  0.00     0.059 A 
ATOM     81  C   UNL A   1      35.933  34.637  29.313  1.00  0.00     0.059 A 
ATOM     82  F   UNL A   1      38.217  34.180  29.597  1.00  0.00    -0.206 F 
ATOM     83  C   UNL A   1      34.611  34.418  29.696  1.00  0.00     0.060 A 
BRANCH  83  84
ATOM     84  S   UNL A   1      33.264  35.302  28.880  1.00  0.00     0.124 S 
ATOM     85  O   UNL A   1      32.684  34.255  28.048  1.00  0.00    -0.237 OA
ATOM     86  O   UNL A   1      32.455  35.740  30.014  1.00  0.00    -0.237 OA
ATOM     87  O   UNL A   1      33.951  36.372  28.162  1.00  0.00    -0.744 OA
ENDBRANCH  83  84
ENDBRANCH  51  76
BRANCH  63  88
ATOM     88  C   UNL A   1      39.825  34.188  37.160  1.00  0.00     0.058 A 
ATOM     89  C   UNL A   1      40.405  35.462  37.062  1.00  0.00     0.135 A 
ATOM     90  C   UNL A   1      39.021  33.918  38.279  1.00  0.00     0.135 A 
ATOM     91  F   UNL A   1      41.185  35.771  36.014  1.00  0.00    -0.206 F 
ATOM     92  C   UNL A   1      40.232  36.417  38.058  1.00  0.00     0.059 A 
ATOM     93  C   UNL A   1      38.806  34.869  39.271  1.00  0.00     0.059 A 
ATOM     94  F   UNL A   1      38.428  32.721  38.415  1.00  0.00    -0.206 F 
ATOM     95  C   UNL A   1      39.433  36.109  39.161  1.00  0.00     0.060 A 
BRANCH  95  96
ATOM     96  S   UNL A   1      39.216  37.356  40.447  1.00  0.00     0.124 S 
ATOM     97  O   UNL A   1      38.798  36.537  41.581  1.00  0.00    -0.237 OA
ATOM     98  O   UNL A   1      40.550  37.941  40.545  1.00  0.00    -0.237 OA
ATOM     99  O   UNL A   1      38.191  38.237  39.897  1.00  0.00    -0.744 OA
ENDBRANCH  95  96
ENDBRANCH  63  88
ENDBRANCH  37  38
ENDBRANCH  29  32
ENDBRANCH  27  28
ENDBRANCH  26  27
ENDBRANCH  25  26
ENDBRANCH   1  25
TORSDOF 20
ENDMDL
MODEL 3
REMARK VINA RESULT:     -11.1      2.527      3.712
REMARK SMILES CC[C@@](C)(NS(=O)(=O)c1ccc(F)c(F)c1)C(=O)NCCCCCCNC(=O)c1ccc(-c2c3nc(c(-c4c(F)cc(S(=O)(=O)[O-])cc4F)c4ccc([nH]4)c(-c4c(F)cc(S(=O)(=O)[O-])cc4F)c4nc(c(-c5c(F)cc(S(=O)(=O)[O-])cc5F)c5ccc2[nH]5)C=C4)C=C3)cc1
REMARK SMILES IDX 22 1 21 2 20 3 19 4 17 5 18 6 3 8 4 9 2 10 1 11 5 12 6 14
REMARK SMILES IDX 7 15 8 16 9 17 10 18 16 19 11 20 14 21 12 22 15 23 13 24
REMARK SMILES IDX 23 25 24 26 25 27 26 28 27 29 28 31 29 32 30 33 94 34 31 35
REMARK SMILES IDX 93 36 32 37 33 38 34 39 87 40 35 41 92 42 86 43 88 44 36 45
REMARK SMILES IDX 91 46 85 47 84 48 37 50 71 51 50 52 70 53 51 54 54 55 69 56
REMARK SMILES IDX 89 57 52 58 53 59 68 61 90 62 55 63 38 64 39 65 48 66 40 67
REMARK SMILES IDX 41 68 47 69 49 70 42 71 43 72 44 73 45 74 46 75 72 76 73 77
REMARK SMILES IDX 82 78 74 79 75 80 81 81 83 82 76 83 77 84 78 85 79 86 80 87
REMARK SMILES IDX 56 88 57 89 66 90 58 91 59 92 65 93 67 94 60 95 61 96 62 97
REMARK SMILES IDX 63 98 64 99
REMARK H PARENT 19 7 5 13 26 30 88 49 54 60
REMARK Flexibility Score: inf
ROOT
ATOM      1  C   UNL A   1      39.997  22.016  26.762  1.00  0.00     0.002 C 
ENDROOT
BRANCH   1   2
ATOM      2  C   UNL A   1      39.296  23.239  26.166  1.00  0.00     0.021 C 
BRANCH   2   3
ATOM      3  C   UNL A   1      37.753  23.314  26.092  1.00  0.00     0.116 C 
BRANCH   3   4
ATOM      4  N   UNL A   1      37.103  23.324  24.779  1.00  0.00    -0.354 N 
ATOM      5  C   UNL A   1      35.994  22.807  24.170  1.00  0.00     0.241 C 
ATOM      6  O   UNL A   1      35.876  23.176  22.990  1.00  0.00    -0.273 OA
ATOM      7  H   UNL A   1      37.622  23.868  24.143  1.00  0.00     0.163 HD
BRANCH   5   8
ATOM      8  C   UNL A   1      34.983  21.789  24.747  1.00  0.00     0.108 C 
ATOM      9  C   UNL A   1      35.722  20.594  25.362  1.00  0.00     0.040 C 
BRANCH   8  10
ATOM     10  C   UNL A   1      34.128  22.452  25.920  1.00  0.00     0.030 C 
ATOM     11  C   UNL A   1      34.126  21.853  27.315  1.00  0.00     0.006 C 
ENDBRANCH   8  10
BRANCH   8  12
ATOM     12  N   UNL A   1      33.856  21.333  23.898  1.00  0.00    -0.196 NA
ATOM     13  H   UNL A   1      34.332  20.947  23.083  1.00  0.00     0.142 HD
BRANCH  12  14
ATOM     14  S   UNL A   1      32.587  20.306  24.096  1.00  0.00     0.241 S 
ATOM     15  O   UNL A   1      31.745  20.825  25.136  1.00  0.00    -0.207 OA
ATOM     16  O   UNL A   1      32.062  20.208  22.746  1.00  0.00    -0.207 OA
BRANCH  14  17
ATOM     17  C   UNL A   1      33.106  18.653  24.522  1.00  0.00     0.085 A 
ATOM     18  C   UNL A   1      34.036  17.985  23.716  1.00  0.00     0.025 A 
ATOM     19  C   UNL A   1      32.485  17.923  25.524  1.00  0.00     0.064 A 
ATOM     20  C   UNL A   1      34.311  16.622  23.925  1.00  0.00     0.044 A 
ATOM     21  C   UNL A   1      32.756  16.577  25.741  1.00  0.00     0.160 A 
ATOM     22  C   UNL A   1      33.664  15.922  24.940  1.00  0.00     0.158 A 
ATOM     23  F   UNL A   1      32.074  15.919  26.690  1.00  0.00    -0.204 F 
ATOM     24  F   UNL A   1      33.897  14.615  25.112  1.00  0.00    -0.204 F 
ENDBRANCH  14  17
ENDBRANCH  12  14
ENDBRANCH   8  12
ENDBRANCH   5   8
ENDBRANCH   3   4
ENDBRANCH   2   3
ENDBRANCH   1   2
BRANCH   1  25
ATOM     25  C   UNL A   1      41.028  22.282  27.849  1.00  0.00     0.002 C 
BRANCH  25  26
ATOM     26  C   UNL A   1      42.480  22.196  27.388  1.00  0.00     0.021 C 
BRANCH  26  27
ATOM     27  C   UNL A   1      43.176  23.539  27.195  1.00  0.00     0.116 C 
BRANCH  27  28
ATOM     28  N   UNL A   1      42.683  24.273  26.035  1.00  0.00    -0.352 N 
ATOM     29  C   UNL A   1      42.003  25.470  26.035  1.00  0.00     0.251 C 
ATOM     30  H   UNL A   1      42.854  23.866  25.155  1.00  0.00     0.163 HD
ATOM     31  O   UNL A   1      41.498  25.925  25.017  1.00  0.00    -0.269 OA
BRANCH  29  32
ATOM     32  C   UNL A   1      41.892  26.182  27.320  1.00  0.00     0.039 A 
ATOM     33  C   UNL A   1      42.783  27.213  27.615  1.00  0.00     0.014 A 
ATOM     34  C   UNL A   1      40.796  25.912  28.146  1.00  0.00     0.014 A 
ATOM     35  C   UNL A   1      42.538  28.019  28.727  1.00  0.00     0.010 A 
ATOM     36  C   UNL A   1      40.510  26.772  29.197  1.00  0.00     0.010 A 
ATOM     37  C   UNL A   1      41.384  27.825  29.507  1.00  0.00    -0.014 A 
BRANCH  37  38
ATOM     38  C   UNL A   1      41.090  28.707  30.663  1.00  0.00     0.031 A 
ATOM     39  C   UNL A   1      41.930  28.609  31.908  1.00  0.00     0.074 A 
ATOM     40  C   UNL A   1      40.049  29.562  30.606  1.00  0.00     0.049 A 
ATOM     41  N   UNL A   1      41.856  29.306  33.012  1.00  0.00    -0.248 NA
ATOM     42  C   UNL A   1      42.969  27.566  31.929  1.00  0.00     0.031 C 
ATOM     43  C   UNL A   1      39.123  29.695  29.479  1.00  0.00     0.029 A 
ATOM     44  N   UNL A   1      39.601  30.490  31.512  1.00  0.00    -0.354 N 
ATOM     45  C   UNL A   1      42.823  28.776  33.857  1.00  0.00     0.074 A 
ATOM     46  C   UNL A   1      43.422  27.656  33.169  1.00  0.00     0.031 C 
ATOM     47  C   UNL A   1      38.252  30.684  29.738  1.00  0.00     0.029 A 
ATOM     48  C   UNL A   1      38.538  31.235  31.058  1.00  0.00     0.049 A 
ATOM     49  H   UNL A   1      40.002  30.610  32.403  1.00  0.00     0.167 HD
ATOM     50  C   UNL A   1      43.202  29.206  35.085  1.00  0.00     0.037 A 
ATOM     51  C   UNL A   1      37.883  32.260  31.637  1.00  0.00     0.037 A 
ATOM     52  C   UNL A   1      42.617  30.342  35.745  1.00  0.00     0.049 A 
ATOM     53  C   UNL A   1      38.333  32.733  32.994  1.00  0.00     0.074 A 
ATOM     54  C   UNL A   1      42.974  30.916  36.951  1.00  0.00     0.029 A 
ATOM     55  N   UNL A   1      41.544  31.073  35.256  1.00  0.00    -0.354 N 
ATOM     56  N   UNL A   1      39.312  32.283  33.742  1.00  0.00    -0.248 NA
ATOM     57  C   UNL A   1      37.593  33.858  33.580  1.00  0.00     0.031 C 
ATOM     58  C   UNL A   1      42.081  31.960  37.219  1.00  0.00     0.029 A 
ATOM     59  C   UNL A   1      41.204  32.075  36.151  1.00  0.00     0.049 A 
ATOM     60  H   UNL A   1      41.090  30.906  34.398  1.00  0.00     0.167 HD
ATOM     61  C   UNL A   1      39.326  33.087  34.877  1.00  0.00     0.074 A 
ATOM     62  C   UNL A   1      38.267  34.062  34.704  1.00  0.00     0.031 C 
ATOM     63  C   UNL A   1      40.139  33.029  35.962  1.00  0.00     0.037 A 
BRANCH  50  64
ATOM     64  C   UNL A   1      44.290  28.435  35.784  1.00  0.00     0.058 A 
ATOM     65  C   UNL A   1      45.651  28.726  35.588  1.00  0.00     0.135 A 
ATOM     66  C   UNL A   1      43.969  27.386  36.659  1.00  0.00     0.135 A 
ATOM     67  F   UNL A   1      46.020  29.707  34.750  1.00  0.00    -0.206 F 
ATOM     68  C   UNL A   1      46.652  27.976  36.197  1.00  0.00     0.059 A 
ATOM     69  C   UNL A   1      44.953  26.644  37.306  1.00  0.00     0.059 A 
ATOM     70  F   UNL A   1      42.686  27.062  36.884  1.00  0.00    -0.206 F 
ATOM     71  C   UNL A   1      46.293  26.933  37.052  1.00  0.00     0.060 A 
BRANCH  71  72
ATOM     72  S   UNL A   1      47.603  25.959  37.822  1.00  0.00     0.124 S 
ATOM     73  O   UNL A   1      47.647  24.789  36.951  1.00  0.00    -0.237 OA
ATOM     74  O   UNL A   1      48.750  26.856  37.736  1.00  0.00    -0.237 OA
ATOM     75  O   UNL A   1      47.099  25.718  39.171  1.00  0.00    -0.744 OA
ENDBRANCH  71  72
ENDBRANCH  50  64
BRANCH  51  76
ATOM     76  C   UNL A   1      36.778  32.945  30.913  1.00  0.00     0.058 A 
ATOM     77  C   UNL A   1      35.442  32.762  31.300  1.00  0.00     0.135 A 
ATOM     78  C   UNL A   1      37.030  33.811  29.837  1.00  0.00     0.135 A 
ATOM     79  F   UNL A   1      35.146  31.940  32.319  1.00  0.00    -0.206 F 
ATOM     80  C   UNL A   1      34.395  33.401  30.643  1.00  0.00     0.059 A 
ATOM     81  C   UNL A   1      36.002  34.482  29.180  1.00  0.00     0.059 A 
ATOM     82  F   UNL A   1      38.292  34.034  29.435  1.00  0.00    -0.206 F 
ATOM     83  C   UNL A   1      34.686  34.264  29.586  1.00  0.00     0.060 A 
BRANCH  83  84
ATOM     84  S   UNL A   1      33.325  35.134  28.780  1.00  0.00     0.124 S 
ATOM     85  O   UNL A   1      34.032  36.179  28.051  1.00  0.00    -0.237 OA
ATOM     86  O   UNL A   1      32.727  34.079  27.966  1.00  0.00    -0.237 OA
ATOM     87  O   UNL A   1      32.506  35.589  29.900  1.00  0.00    -0.744 OA
ENDBRANCH  83  84
ENDBRANCH  51  76
BRANCH  63  88
ATOM     88  C   UNL A   1      39.925  34.063  37.033  1.00  0.00     0.058 A 
ATOM     89  C   UNL A   1      39.129  33.808  38.160  1.00  0.00     0.135 A 
ATOM     90  C   UNL A   1      40.546  35.320  36.940  1.00  0.00     0.135 A 
ATOM     91  F   UNL A   1      38.511  32.624  38.296  1.00  0.00    -0.206 F 
ATOM     92  C   UNL A   1      38.921  34.776  39.136  1.00  0.00     0.059 A 
ATOM     93  C   UNL A   1      40.379  36.291  37.921  1.00  0.00     0.059 A 
ATOM     94  F   UNL A   1      41.332  35.612  35.891  1.00  0.00    -0.206 F 
ATOM     95  C   UNL A   1      39.547  36.017  39.006  1.00  0.00     0.060 A 
BRANCH  95  96
ATOM     96  S   UNL A   1      39.269  37.265  40.278  1.00  0.00     0.124 S 
ATOM     97  O   UNL A   1      40.634  37.686  40.578  1.00  0.00    -0.237 OA
ATOM     98  O   UNL A   1      38.441  38.244  39.581  1.00  0.00    -0.237 OA
ATOM     99  O   UNL A   1      38.592  36.525  41.339  1.00  0.00    -0.744 OA
ENDBRANCH  95  96
ENDBRANCH  63  88
ENDBRANCH  37  38
ENDBRANCH  29  32
ENDBRANCH  27  28
ENDBRANCH  26  27
ENDBRANCH  25  26
ENDBRANCH   1  25
TORSDOF 20
ENDMDL
