MODEL 1
REMARK VINA RESULT:     -10.6      0.000      0.000
REMARK SMILES COc1cc(Cl)cc(/C=C/C(=O)NCCCCCCNC(=O)c2ccc(-c3c4nc(c(-c5c(F)cc(S(=O)(=O)[O-])cc5F)c5ccc([nH]5)c(-c5c(F)cc(S(=O)(=O)[O-])cc5F)c5nc(c(-c6c(F)cc(S(=O)(=O)[O-])cc6F)c6ccc3[nH]6)C=C5)C=C4)cc2)c1OC
REMARK SMILES IDX 17 1 16 2 15 3 14 4 13 5 11 6 12 7 10 9 9 10 8 11 3 12 4 13
REMARK SMILES IDX 89 14 5 15 6 16 7 17 2 18 1 19 90 20 91 21 18 22 19 23 20 24
REMARK SMILES IDX 21 25 22 27 23 28 24 29 88 30 25 31 87 32 26 33 27 34 28 35
REMARK SMILES IDX 81 36 29 37 86 38 80 39 82 40 30 41 85 42 79 43 78 44 31 46
REMARK SMILES IDX 65 47 44 48 64 49 45 50 48 51 63 52 83 53 46 54 47 55 62 57
REMARK SMILES IDX 84 58 49 59 32 60 33 61 42 62 34 63 35 64 41 65 43 66 36 67
REMARK SMILES IDX 37 68 38 69 39 70 40 71 66 72 67 73 76 74 68 75 69 76 75 77
REMARK SMILES IDX 77 78 70 79 71 80 72 81 73 82 74 83 50 84 51 85 60 86 52 87
REMARK SMILES IDX 53 88 59 89 61 90 54 91 55 92 56 93 57 94 58 95
REMARK H PARENT 13 8 20 26 82 45 48 56
REMARK Flexibility Score: inf
ROOT
ATOM      1  C   UNL A   1      33.194  29.171  24.632  1.00  0.00     0.002 C 
ENDROOT
BRANCH   1   2
ATOM      2  C   UNL A   1      32.873  28.917  23.153  1.00  0.00     0.002 C 
BRANCH   2   3
ATOM      3  C   UNL A   1      31.395  28.633  22.851  1.00  0.00     0.021 C 
BRANCH   3   4
ATOM      4  C   UNL A   1      31.099  27.158  22.579  1.00  0.00     0.116 C 
BRANCH   4   5
ATOM      5  N   UNL A   1      31.749  26.729  21.353  1.00  0.00    -0.353 N 
ATOM      6  C   UNL A   1      32.690  25.774  21.137  1.00  0.00     0.244 C 
ATOM      7  O   UNL A   1      33.058  25.526  19.990  1.00  0.00    -0.270 OA
ATOM      8  H   UNL A   1      31.459  27.210  20.544  1.00  0.00     0.163 HD
BRANCH   6   9
ATOM      9  C   UNL A   1      33.210  24.954  22.252  1.00  0.00     0.072 C 
ATOM     10  C   UNL A   1      33.457  23.637  22.183  1.00  0.00     0.018 C 
BRANCH  10  11
ATOM     11  C   UNL A   1      33.991  22.864  23.322  1.00  0.00     0.022 A 
ATOM     12  C   UNL A   1      33.812  21.067  24.954  1.00  0.00     0.162 A 
ATOM     13  C   UNL A   1      35.047  21.450  25.494  1.00  0.00     0.071 A 
ATOM     14  C   UNL A   1      33.275  21.759  23.852  1.00  0.00     0.168 A 
ATOM     15  C   UNL A   1      35.730  22.544  24.974  1.00  0.00     0.045 A 
ATOM     16  Cl  UNL A   1      37.239  23.015  25.656  1.00  0.00    -0.084 Cl
ATOM     17  C   UNL A   1      35.207  23.255  23.902  1.00  0.00     0.032 A 
BRANCH  12  18
ATOM     18  O   UNL A   1      33.194  19.947  25.451  1.00  0.00    -0.493 OA
ATOM     19  C   UNL A   1      33.634  18.737  24.832  1.00  0.00     0.278 C 
ENDBRANCH  12  18
BRANCH  14  20
ATOM     20  O   UNL A   1      32.104  21.477  23.189  1.00  0.00    -0.492 OA
ATOM     21  C   UNL A   1      32.051  20.365  22.306  1.00  0.00     0.278 C 
ENDBRANCH  14  20
ENDBRANCH  10  11
ENDBRANCH   6   9
ENDBRANCH   4   5
ENDBRANCH   3   4
ENDBRANCH   2   3
ENDBRANCH   1   2
BRANCH   1  22
ATOM     22  C   UNL A   1      33.578  27.926  25.437  1.00  0.00     0.021 C 
BRANCH  22  23
ATOM     23  C   UNL A   1      33.790  28.176  26.927  1.00  0.00     0.116 C 
BRANCH  23  24
ATOM     24  N   UNL A   1      33.611  29.577  27.271  1.00  0.00    -0.352 N 
ATOM     25  C   UNL A   1      34.449  30.422  27.954  1.00  0.00     0.251 C 
ATOM     26  H   UNL A   1      32.763  29.978  26.969  1.00  0.00     0.163 HD
ATOM     27  O   UNL A   1      34.032  31.505  28.349  1.00  0.00    -0.269 OA
BRANCH  25  28
ATOM     28  C   UNL A   1      35.849  30.022  28.220  1.00  0.00     0.039 A 
ATOM     29  C   UNL A   1      36.789  30.134  27.191  1.00  0.00     0.014 A 
ATOM     30  C   UNL A   1      36.229  29.508  29.463  1.00  0.00     0.014 A 
ATOM     31  C   UNL A   1      38.116  29.769  27.425  1.00  0.00     0.010 A 
ATOM     32  C   UNL A   1      37.566  29.214  29.716  1.00  0.00     0.010 A 
ATOM     33  C   UNL A   1      38.521  29.327  28.696  1.00  0.00    -0.014 A 
BRANCH  33  34
ATOM     34  C   UNL A   1      39.937  28.968  28.961  1.00  0.00     0.031 A 
ATOM     35  C   UNL A   1      40.861  29.954  29.622  1.00  0.00     0.074 A 
ATOM     36  C   UNL A   1      40.401  27.764  28.573  1.00  0.00     0.049 A 
ATOM     37  N   UNL A   1      42.123  29.820  29.941  1.00  0.00    -0.248 NA
ATOM     38  C   UNL A   1      40.297  31.274  29.946  1.00  0.00     0.031 C 
ATOM     39  C   UNL A   1      39.615  26.740  27.881  1.00  0.00     0.029 A 
ATOM     40  N   UNL A   1      41.641  27.195  28.711  1.00  0.00    -0.354 N 
ATOM     41  C   UNL A   1      42.505  31.034  30.497  1.00  0.00     0.074 A 
ATOM     42  C   UNL A   1      41.359  31.915  30.410  1.00  0.00     0.031 C 
ATOM     43  C   UNL A   1      40.379  25.650  27.698  1.00  0.00     0.029 A 
ATOM     44  C   UNL A   1      41.713  25.910  28.230  1.00  0.00     0.049 A 
ATOM     45  H   UNL A   1      42.406  27.663  29.117  1.00  0.00     0.167 HD
ATOM     46  C   UNL A   1      43.692  31.380  31.055  1.00  0.00     0.037 A 
ATOM     47  C   UNL A   1      42.736  25.035  28.230  1.00  0.00     0.037 A 
ATOM     48  C   UNL A   1      44.827  30.497  31.147  1.00  0.00     0.049 A 
ATOM     49  C   UNL A   1      44.047  25.440  28.846  1.00  0.00     0.074 A 
ATOM     50  C   UNL A   1      46.061  30.733  31.726  1.00  0.00     0.029 A 
ATOM     51  N   UNL A   1      44.866  29.206  30.638  1.00  0.00    -0.354 N 
ATOM     52  N   UNL A   1      44.376  26.575  29.416  1.00  0.00    -0.248 NA
ATOM     53  C   UNL A   1      45.121  24.438  28.827  1.00  0.00     0.031 C 
ATOM     54  C   UNL A   1      46.859  29.598  31.531  1.00  0.00     0.029 A 
ATOM     55  C   UNL A   1      46.108  28.639  30.872  1.00  0.00     0.049 A 
ATOM     56  H   UNL A   1      44.120  28.759  30.177  1.00  0.00     0.167 HD
ATOM     57  C   UNL A   1      45.688  26.415  29.848  1.00  0.00     0.074 A 
ATOM     58  C   UNL A   1      46.085  25.070  29.483  1.00  0.00     0.031 C 
ATOM     59  C   UNL A   1      46.491  27.301  30.492  1.00  0.00     0.037 A 
BRANCH  46  60
ATOM     60  C   UNL A   1      43.808  32.779  31.601  1.00  0.00     0.058 A 
ATOM     61  C   UNL A   1      44.195  33.859  30.788  1.00  0.00     0.135 A 
ATOM     62  C   UNL A   1      43.561  33.043  32.958  1.00  0.00     0.135 A 
ATOM     63  F   UNL A   1      44.456  33.663  29.484  1.00  0.00    -0.206 F 
ATOM     64  C   UNL A   1      44.391  35.133  31.309  1.00  0.00     0.059 A 
ATOM     65  C   UNL A   1      43.721  34.318  33.496  1.00  0.00     0.059 A 
ATOM     66  F   UNL A   1      43.184  32.053  33.782  1.00  0.00    -0.206 F 
ATOM     67  C   UNL A   1      44.163  35.349  32.669  1.00  0.00     0.060 A 
BRANCH  67  68
ATOM     68  S   UNL A   1      44.472  36.994  33.346  1.00  0.00     0.124 S 
ATOM     69  O   UNL A   1      45.169  36.669  34.587  1.00  0.00    -0.237 OA
ATOM     70  O   UNL A   1      45.286  37.615  32.307  1.00  0.00    -0.237 OA
ATOM     71  O   UNL A   1      43.133  37.552  33.506  1.00  0.00    -0.744 OA
ENDBRANCH  67  68
ENDBRANCH  46  60
BRANCH  47  72
ATOM     72  C   UNL A   1      42.535  23.666  27.687  1.00  0.00     0.058 A 
ATOM     73  C   UNL A   1      42.613  23.430  26.306  1.00  0.00     0.135 A 
ATOM     74  C   UNL A   1      42.303  22.568  28.528  1.00  0.00     0.135 A 
ATOM     75  F   UNL A   1      42.829  24.451  25.462  1.00  0.00    -0.206 F 
ATOM     76  C   UNL A   1      42.464  22.153  25.776  1.00  0.00     0.059 A 
ATOM     77  C   UNL A   1      42.171  21.278  28.023  1.00  0.00     0.059 A 
ATOM     78  F   UNL A   1      42.235  22.741  29.857  1.00  0.00    -0.206 F 
ATOM     79  C   UNL A   1      42.250  21.081  26.645  1.00  0.00     0.060 A 
BRANCH  79  80
ATOM     80  S   UNL A   1      42.131  19.419  25.950  1.00  0.00     0.124 S 
ATOM     81  O   UNL A   1      42.641  18.604  27.046  1.00  0.00    -0.237 OA
ATOM     82  O   UNL A   1      40.701  19.302  25.678  1.00  0.00    -0.237 OA
ATOM     83  O   UNL A   1      42.981  19.489  24.766  1.00  0.00    -0.744 OA
ENDBRANCH  79  80
ENDBRANCH  47  72
BRANCH  59  84
ATOM     84  C   UNL A   1      47.870  26.825  30.862  1.00  0.00     0.058 A 
ATOM     85  C   UNL A   1      48.109  26.094  32.036  1.00  0.00     0.135 A 
ATOM     86  C   UNL A   1      48.965  27.102  30.028  1.00  0.00     0.135 A 
ATOM     87  F   UNL A   1      47.098  25.808  32.872  1.00  0.00    -0.206 F 
ATOM     88  C   UNL A   1      49.392  25.693  32.393  1.00  0.00     0.059 A 
ATOM     89  C   UNL A   1      50.252  26.685  30.350  1.00  0.00     0.059 A 
ATOM     90  F   UNL A   1      48.789  27.785  28.885  1.00  0.00    -0.206 F 
ATOM     91  C   UNL A   1      50.459  25.998  31.546  1.00  0.00     0.060 A 
BRANCH  91  92
ATOM     92  S   UNL A   1      52.122  25.479  32.021  1.00  0.00     0.124 S 
ATOM     93  O   UNL A   1      52.886  25.815  30.825  1.00  0.00    -0.237 OA
ATOM     94  O   UNL A   1      52.385  26.305  33.195  1.00  0.00    -0.237 OA
ATOM     95  O   UNL A   1      51.967  24.052  32.288  1.00  0.00    -0.744 OA
ENDBRANCH  91  92
ENDBRANCH  59  84
ENDBRANCH  33  34
ENDBRANCH  25  28
ENDBRANCH  23  24
ENDBRANCH  22  23
ENDBRANCH   1  22
TORSDOF 19
ENDMDL
MODEL 2
REMARK VINA RESULT:     -10.4      2.860      3.715
REMARK SMILES COc1cc(Cl)cc(/C=C/C(=O)NCCCCCCNC(=O)c2ccc(-c3c4nc(c(-c5c(F)cc(S(=O)(=O)[O-])cc5F)c5ccc([nH]5)c(-c5c(F)cc(S(=O)(=O)[O-])cc5F)c5nc(c(-c6c(F)cc(S(=O)(=O)[O-])cc6F)c6ccc3[nH]6)C=C5)C=C4)cc2)c1OC
REMARK SMILES IDX 17 1 16 2 15 3 14 4 13 5 11 6 12 7 10 9 9 10 8 11 3 12 4 13
REMARK SMILES IDX 89 14 5 15 6 16 7 17 2 18 1 19 90 20 91 21 18 22 19 23 20 24
REMARK SMILES IDX 21 25 22 27 23 28 24 29 88 30 25 31 87 32 26 33 27 34 28 35
REMARK SMILES IDX 81 36 29 37 86 38 80 39 82 40 30 41 85 42 79 43 78 44 31 46
REMARK SMILES IDX 65 47 44 48 64 49 45 50 48 51 63 52 83 53 46 54 47 55 62 57
REMARK SMILES IDX 84 58 49 59 32 60 33 61 42 62 34 63 35 64 41 65 43 66 36 67
REMARK SMILES IDX 37 68 38 69 39 70 40 71 66 72 67 73 76 74 68 75 69 76 75 77
REMARK SMILES IDX 77 78 70 79 71 80 72 81 73 82 74 83 50 84 51 85 60 86 52 87
REMARK SMILES IDX 53 88 59 89 61 90 54 91 55 92 56 93 57 94 58 95
REMARK H PARENT 13 8 20 26 82 45 48 56
REMARK Flexibility Score: inf
ROOT
ATOM      1  C   UNL A   1      34.891  28.930  27.219  1.00  0.00     0.002 C 
ENDROOT
BRANCH   1   2
ATOM      2  C   UNL A   1      33.779  28.128  26.532  1.00  0.00     0.002 C 
BRANCH   2   3
ATOM      3  C   UNL A   1      33.258  28.734  25.221  1.00  0.00     0.021 C 
BRANCH   3   4
ATOM      4  C   UNL A   1      32.338  27.799  24.437  1.00  0.00     0.116 C 
BRANCH   4   5
ATOM      5  N   UNL A   1      32.840  27.610  23.087  1.00  0.00    -0.353 N 
ATOM      6  C   UNL A   1      33.481  26.557  22.519  1.00  0.00     0.244 C 
ATOM      7  O   UNL A   1      33.761  26.583  21.322  1.00  0.00    -0.270 OA
ATOM      8  H   UNL A   1      32.690  28.373  22.482  1.00  0.00     0.163 HD
BRANCH   6   9
ATOM      9  C   UNL A   1      33.760  25.329  23.296  1.00  0.00     0.072 C 
ATOM     10  C   UNL A   1      33.810  24.092  22.780  1.00  0.00     0.018 C 
BRANCH  10  11
ATOM     11  C   UNL A   1      34.107  22.898  23.596  1.00  0.00     0.022 A 
ATOM     12  C   UNL A   1      33.393  20.977  24.910  1.00  0.00     0.162 A 
ATOM     13  C   UNL A   1      34.736  20.657  25.151  1.00  0.00     0.071 A 
ATOM     14  C   UNL A   1      33.061  22.093  24.117  1.00  0.00     0.168 A 
ATOM     15  C   UNL A   1      35.750  21.464  24.646  1.00  0.00     0.045 A 
ATOM     16  Cl  UNL A   1      37.395  21.070  24.962  1.00  0.00    -0.084 Cl
ATOM     17  C   UNL A   1      35.444  22.582  23.881  1.00  0.00     0.032 A 
BRANCH  12  18
ATOM     18  O   UNL A   1      32.420  20.127  25.371  1.00  0.00    -0.493 OA
ATOM     19  C   UNL A   1      32.518  18.809  24.829  1.00  0.00     0.278 C 
ENDBRANCH  12  18
BRANCH  14  20
ATOM     20  O   UNL A   1      31.800  22.506  23.758  1.00  0.00    -0.492 OA
ATOM     21  C   UNL A   1      30.988  23.182  24.708  1.00  0.00     0.278 C 
ENDBRANCH  14  20
ENDBRANCH  10  11
ENDBRANCH   6   9
ENDBRANCH   4   5
ENDBRANCH   3   4
ENDBRANCH   2   3
ENDBRANCH   1   2
BRANCH   1  22
ATOM     22  C   UNL A   1      34.563  30.403  27.482  1.00  0.00     0.021 C 
BRANCH  22  23
ATOM     23  C   UNL A   1      35.656  31.175  28.214  1.00  0.00     0.116 C 
BRANCH  23  24
ATOM     24  N   UNL A   1      35.566  31.002  29.655  1.00  0.00    -0.352 N 
ATOM     25  C   UNL A   1      36.421  30.355  30.511  1.00  0.00     0.251 C 
ATOM     26  H   UNL A   1      34.775  31.409  30.078  1.00  0.00     0.163 HD
ATOM     27  O   UNL A   1      36.065  30.115  31.660  1.00  0.00    -0.269 OA
BRANCH  25  28
ATOM     28  C   UNL A   1      37.764  29.942  30.046  1.00  0.00     0.039 A 
ATOM     29  C   UNL A   1      38.036  29.953  28.675  1.00  0.00     0.014 A 
ATOM     30  C   UNL A   1      38.740  29.513  30.950  1.00  0.00     0.014 A 
ATOM     31  C   UNL A   1      39.300  29.575  28.217  1.00  0.00     0.010 A 
ATOM     32  C   UNL A   1      40.021  29.207  30.498  1.00  0.00     0.010 A 
ATOM     33  C   UNL A   1      40.310  29.220  29.127  1.00  0.00    -0.014 A 
BRANCH  33  34
ATOM     34  C   UNL A   1      41.666  28.847  28.650  1.00  0.00     0.031 A 
ATOM     35  C   UNL A   1      42.767  29.871  28.613  1.00  0.00     0.074 A 
ATOM     36  C   UNL A   1      41.896  27.593  28.217  1.00  0.00     0.049 A 
ATOM     37  N   UNL A   1      44.013  29.733  28.236  1.00  0.00    -0.248 NA
ATOM     38  C   UNL A   1      42.414  31.237  29.030  1.00  0.00     0.031 C 
ATOM     39  C   UNL A   1      40.898  26.522  28.161  1.00  0.00     0.029 A 
ATOM     40  N   UNL A   1      43.043  27.003  27.749  1.00  0.00    -0.354 N 
ATOM     41  C   UNL A   1      44.591  30.990  28.367  1.00  0.00     0.074 A 
ATOM     42  C   UNL A   1      43.541  31.892  28.793  1.00  0.00     0.031 C 
ATOM     43  C   UNL A   1      41.487  25.395  27.731  1.00  0.00     0.029 A 
ATOM     44  C   UNL A   1      42.893  25.669  27.452  1.00  0.00     0.049 A 
ATOM     45  H   UNL A   1      43.892  27.489  27.638  1.00  0.00     0.167 HD
ATOM     46  C   UNL A   1      45.882  31.358  28.177  1.00  0.00     0.037 A 
ATOM     47  C   UNL A   1      43.793  24.767  27.016  1.00  0.00     0.037 A 
ATOM     48  C   UNL A   1      46.924  30.455  27.761  1.00  0.00     0.049 A 
ATOM     49  C   UNL A   1      45.218  25.196  26.804  1.00  0.00     0.074 A 
ATOM     50  C   UNL A   1      48.270  30.714  27.577  1.00  0.00     0.029 A 
ATOM     51  N   UNL A   1      46.732  29.114  27.458  1.00  0.00    -0.354 N 
ATOM     52  N   UNL A   1      45.760  26.378  26.983  1.00  0.00    -0.248 NA
ATOM     53  C   UNL A   1      46.154  24.165  26.340  1.00  0.00     0.031 C 
ATOM     54  C   UNL A   1      48.885  29.540  27.124  1.00  0.00     0.029 A 
ATOM     55  C   UNL A   1      47.931  28.536  27.070  1.00  0.00     0.049 A 
ATOM     56  H   UNL A   1      45.870  28.641  27.510  1.00  0.00     0.167 HD
ATOM     57  C   UNL A   1      47.109  26.226  26.679  1.00  0.00     0.074 A 
ATOM     58  C   UNL A   1      47.298  24.835  26.316  1.00  0.00     0.031 C 
ATOM     59  C   UNL A   1      48.101  27.152  26.701  1.00  0.00     0.037 A 
BRANCH  46  60
ATOM     60  C   UNL A   1      46.222  32.805  28.418  1.00  0.00     0.058 A 
ATOM     61  C   UNL A   1      46.166  33.758  27.385  1.00  0.00     0.135 A 
ATOM     62  C   UNL A   1      46.638  33.245  29.685  1.00  0.00     0.135 A 
ATOM     63  F   UNL A   1      45.787  33.392  26.148  1.00  0.00    -0.206 F 
ATOM     64  C   UNL A   1      46.567  35.074  27.583  1.00  0.00     0.059 A 
ATOM     65  C   UNL A   1      47.014  34.566  29.914  1.00  0.00     0.059 A 
ATOM     66  F   UNL A   1      46.705  32.381  30.711  1.00  0.00    -0.206 F 
ATOM     67  C   UNL A   1      47.002  35.466  28.850  1.00  0.00     0.060 A 
BRANCH  67  68
ATOM     68  S   UNL A   1      47.570  37.164  29.083  1.00  0.00     0.124 S 
ATOM     69  O   UNL A   1      46.553  37.912  28.350  1.00  0.00    -0.237 OA
ATOM     70  O   UNL A   1      47.540  37.310  30.535  1.00  0.00    -0.237 OA
ATOM     71  O   UNL A   1      48.901  37.161  28.484  1.00  0.00    -0.744 OA
ENDBRANCH  67  68
ENDBRANCH  46  60
BRANCH  47  72
ATOM     72  C   UNL A   1      43.381  23.353  26.819  1.00  0.00     0.058 A 
ATOM     73  C   UNL A   1      43.215  22.499  27.920  1.00  0.00     0.135 A 
ATOM     74  C   UNL A   1      43.107  22.838  25.543  1.00  0.00     0.135 A 
ATOM     75  F   UNL A   1      43.470  22.946  29.159  1.00  0.00    -0.206 F 
ATOM     76  C   UNL A   1      42.796  21.182  27.764  1.00  0.00     0.059 A 
ATOM     77  C   UNL A   1      42.666  21.530  25.364  1.00  0.00     0.059 A 
ATOM     78  F   UNL A   1      43.237  23.620  24.460  1.00  0.00    -0.206 F 
ATOM     79  C   UNL A   1      42.517  20.709  26.481  1.00  0.00     0.060 A 
BRANCH  79  80
ATOM     80  S   UNL A   1      41.903  19.021  26.298  1.00  0.00     0.124 S 
ATOM     81  O   UNL A   1      42.926  18.426  25.447  1.00  0.00    -0.237 OA
ATOM     82  O   UNL A   1      41.872  18.555  27.682  1.00  0.00    -0.237 OA
ATOM     83  O   UNL A   1      40.594  19.206  25.679  1.00  0.00    -0.744 OA
ENDBRANCH  79  80
ENDBRANCH  47  72
BRANCH  59  84
ATOM     84  C   UNL A   1      49.484  26.676  26.346  1.00  0.00     0.058 A 
ATOM     85  C   UNL A   1      49.983  26.770  25.038  1.00  0.00     0.135 A 
ATOM     86  C   UNL A   1      50.319  26.122  27.329  1.00  0.00     0.135 A 
ATOM     87  F   UNL A   1      49.223  27.286  24.058  1.00  0.00    -0.206 F 
ATOM     88  C   UNL A   1      51.247  26.291  24.707  1.00  0.00     0.059 A 
ATOM     89  C   UNL A   1      51.597  25.664  27.028  1.00  0.00     0.059 A 
ATOM     90  F   UNL A   1      49.896  26.023  28.599  1.00  0.00    -0.206 F 
ATOM     91  C   UNL A   1      52.045  25.733  25.708  1.00  0.00     0.060 A 
BRANCH  91  92
ATOM     92  S   UNL A   1      53.680  25.108  25.268  1.00  0.00     0.124 S 
ATOM     93  O   UNL A   1      53.893  25.734  23.969  1.00  0.00    -0.237 OA
ATOM     94  O   UNL A   1      54.511  25.608  26.358  1.00  0.00    -0.237 OA
ATOM     95  O   UNL A   1      53.494  23.660  25.245  1.00  0.00    -0.744 OA
ENDBRANCH  91  92
ENDBRANCH  59  84
ENDBRANCH  33  34
ENDBRANCH  25  28
ENDBRANCH  23  24
ENDBRANCH  22  23
ENDBRANCH   1  22
TORSDOF 19
ENDMDL
MODEL 3
REMARK VINA RESULT:     -10.3      2.666      3.272
REMARK SMILES COc1cc(Cl)cc(/C=C/C(=O)NCCCCCCNC(=O)c2ccc(-c3c4nc(c(-c5c(F)cc(S(=O)(=O)[O-])cc5F)c5ccc([nH]5)c(-c5c(F)cc(S(=O)(=O)[O-])cc5F)c5nc(c(-c6c(F)cc(S(=O)(=O)[O-])cc6F)c6ccc3[nH]6)C=C5)C=C4)cc2)c1OC
REMARK SMILES IDX 17 1 16 2 15 3 14 4 13 5 11 6 12 7 10 9 9 10 8 11 3 12 4 13
REMARK SMILES IDX 89 14 5 15 6 16 7 17 2 18 1 19 90 20 91 21 18 22 19 23 20 24
REMARK SMILES IDX 21 25 22 27 23 28 24 29 88 30 25 31 87 32 26 33 27 34 28 35
REMARK SMILES IDX 81 36 29 37 86 38 80 39 82 40 30 41 85 42 79 43 78 44 31 46
REMARK SMILES IDX 65 47 44 48 64 49 45 50 48 51 63 52 83 53 46 54 47 55 62 57
REMARK SMILES IDX 84 58 49 59 32 60 33 61 42 62 34 63 35 64 41 65 43 66 36 67
REMARK SMILES IDX 37 68 38 69 39 70 40 71 66 72 67 73 76 74 68 75 69 76 75 77
REMARK SMILES IDX 77 78 70 79 71 80 72 81 73 82 74 83 50 84 51 85 60 86 52 87
REMARK SMILES IDX 53 88 59 89 61 90 54 91 55 92 56 93 57 94 58 95
REMARK H PARENT 13 8 20 26 82 45 48 56
REMARK Flexibility Score: inf
ROOT
ATOM      1  C   UNL A   1      33.778  28.386  24.230  1.00  0.00     0.002 C 
ENDROOT
BRANCH   1   2
ATOM      2  C   UNL A   1      32.602  28.701  23.297  1.00  0.00     0.002 C 
BRANCH   2   3
ATOM      3  C   UNL A   1      31.244  28.154  23.759  1.00  0.00     0.021 C 
BRANCH   3   4
ATOM      4  C   UNL A   1      30.670  27.081  22.835  1.00  0.00     0.116 C 
BRANCH   4   5
ATOM      5  N   UNL A   1      31.598  26.794  21.754  1.00  0.00    -0.353 N 
ATOM      6  C   UNL A   1      32.404  25.723  21.540  1.00  0.00     0.244 C 
ATOM      7  O   UNL A   1      33.070  25.655  20.508  1.00  0.00    -0.270 OA
ATOM      8  H   UNL A   1      31.651  27.493  21.063  1.00  0.00     0.163 HD
BRANCH   6   9
ATOM      9  C   UNL A   1      32.421  24.584  22.483  1.00  0.00     0.072 C 
ATOM     10  C   UNL A   1      33.400  23.670  22.561  1.00  0.00     0.018 C 
BRANCH  10  11
ATOM     11  C   UNL A   1      33.377  22.556  23.530  1.00  0.00     0.022 A 
ATOM     12  C   UNL A   1      33.908  21.609  25.709  1.00  0.00     0.162 A 
ATOM     13  C   UNL A   1      33.317  20.401  25.314  1.00  0.00     0.071 A 
ATOM     14  C   UNL A   1      33.932  22.707  24.827  1.00  0.00     0.168 A 
ATOM     15  C   UNL A   1      32.791  20.263  24.035  1.00  0.00     0.045 A 
ATOM     16  Cl  UNL A   1      32.082  18.769  23.557  1.00  0.00    -0.084 Cl
ATOM     17  C   UNL A   1      32.825  21.326  23.142  1.00  0.00     0.032 A 
BRANCH  12  18
ATOM     18  O   UNL A   1      34.364  21.731  26.997  1.00  0.00    -0.493 OA
ATOM     19  C   UNL A   1      33.380  22.243  27.898  1.00  0.00     0.278 C 
ENDBRANCH  12  18
BRANCH  14  20
ATOM     20  O   UNL A   1      34.433  23.962  25.083  1.00  0.00    -0.492 OA
ATOM     21  C   UNL A   1      35.837  24.147  25.189  1.00  0.00     0.278 C 
ENDBRANCH  14  20
ENDBRANCH  10  11
ENDBRANCH   6   9
ENDBRANCH   4   5
ENDBRANCH   3   4
ENDBRANCH   2   3
ENDBRANCH   1   2
BRANCH   1  22
ATOM     22  C   UNL A   1      33.445  27.464  25.407  1.00  0.00     0.021 C 
BRANCH  22  23
ATOM     23  C   UNL A   1      33.736  28.060  26.781  1.00  0.00     0.116 C 
BRANCH  23  24
ATOM     24  N   UNL A   1      33.587  29.506  26.785  1.00  0.00    -0.352 N 
ATOM     25  C   UNL A   1      34.326  30.458  27.443  1.00  0.00     0.251 C 
ATOM     26  H   UNL A   1      32.848  29.853  26.235  1.00  0.00     0.163 HD
ATOM     27  O   UNL A   1      33.911  31.610  27.510  1.00  0.00    -0.269 OA
BRANCH  25  28
ATOM     28  C   UNL A   1      35.612  30.091  28.075  1.00  0.00     0.039 A 
ATOM     29  C   UNL A   1      36.794  30.261  27.347  1.00  0.00     0.014 A 
ATOM     30  C   UNL A   1      35.655  29.551  29.364  1.00  0.00     0.014 A 
ATOM     31  C   UNL A   1      38.018  29.928  27.929  1.00  0.00     0.010 A 
ATOM     32  C   UNL A   1      36.882  29.289  29.968  1.00  0.00     0.010 A 
ATOM     33  C   UNL A   1      38.075  29.460  29.253  1.00  0.00    -0.014 A 
BRANCH  33  34
ATOM     34  C   UNL A   1      39.376  29.135  29.890  1.00  0.00     0.031 A 
ATOM     35  C   UNL A   1      39.824  29.869  31.124  1.00  0.00     0.074 A 
ATOM     36  C   UNL A   1      40.172  28.200  29.335  1.00  0.00     0.049 A 
ATOM     37  N   UNL A   1      40.920  29.720  31.823  1.00  0.00    -0.248 NA
ATOM     38  C   UNL A   1      38.932  30.928  31.623  1.00  0.00     0.031 C 
ATOM     39  C   UNL A   1      39.869  27.452  28.113  1.00  0.00     0.029 A 
ATOM     40  N   UNL A   1      41.392  27.714  29.729  1.00  0.00    -0.354 N 
ATOM     41  C   UNL A   1      40.853  30.665  32.840  1.00  0.00     0.074 A 
ATOM     42  C   UNL A   1      39.641  31.427  32.625  1.00  0.00     0.031 C 
ATOM     43  C   UNL A   1      40.855  26.569  27.884  1.00  0.00     0.029 A 
ATOM     44  C   UNL A   1      41.871  26.710  28.922  1.00  0.00     0.049 A 
ATOM     45  H   UNL A   1      41.878  28.053  30.515  1.00  0.00     0.167 HD
ATOM     46  C   UNL A   1      41.706  30.865  33.875  1.00  0.00     0.037 A 
ATOM     47  C   UNL A   1      42.996  25.976  29.018  1.00  0.00     0.037 A 
ATOM     48  C   UNL A   1      42.907  30.099  34.088  1.00  0.00     0.049 A 
ATOM     49  C   UNL A   1      43.934  26.219  30.168  1.00  0.00     0.074 A 
ATOM     50  C   UNL A   1      43.820  30.193  35.123  1.00  0.00     0.029 A 
ATOM     51  N   UNL A   1      43.365  29.097  33.243  1.00  0.00    -0.354 N 
ATOM     52  N   UNL A   1      43.829  27.081  31.151  1.00  0.00    -0.248 NA
ATOM     53  C   UNL A   1      45.137  25.380  30.224  1.00  0.00     0.031 C 
ATOM     54  C   UNL A   1      44.851  29.275  34.883  1.00  0.00     0.029 A 
ATOM     55  C   UNL A   1      44.557  28.577  33.723  1.00  0.00     0.049 A 
ATOM     56  H   UNL A   1      42.910  28.800  32.423  1.00  0.00     0.167 HD
ATOM     57  C   UNL A   1      44.941  26.871  31.959  1.00  0.00     0.074 A 
ATOM     58  C   UNL A   1      45.696  25.791  31.354  1.00  0.00     0.031 C 
ATOM     59  C   UNL A   1      45.302  27.509  33.102  1.00  0.00     0.037 A 
BRANCH  46  60
ATOM     60  C   UNL A   1      41.359  31.965  34.844  1.00  0.00     0.058 A 
ATOM     61  C   UNL A   1      40.536  31.731  35.961  1.00  0.00     0.135 A 
ATOM     62  C   UNL A   1      41.825  33.273  34.643  1.00  0.00     0.135 A 
ATOM     63  F   UNL A   1      40.050  30.501  36.196  1.00  0.00    -0.206 F 
ATOM     64  C   UNL A   1      40.142  32.762  36.805  1.00  0.00     0.059 A 
ATOM     65  C   UNL A   1      41.468  34.316  35.494  1.00  0.00     0.059 A 
ATOM     66  F   UNL A   1      42.619  33.555  33.597  1.00  0.00    -0.206 F 
ATOM     67  C   UNL A   1      40.603  34.056  36.555  1.00  0.00     0.060 A 
BRANCH  67  68
ATOM     68  S   UNL A   1      40.042  35.396  37.626  1.00  0.00     0.124 S 
ATOM     69  O   UNL A   1      41.144  35.485  38.579  1.00  0.00    -0.237 OA
ATOM     70  O   UNL A   1      39.918  36.513  36.695  1.00  0.00    -0.237 OA
ATOM     71  O   UNL A   1      38.783  34.893  38.167  1.00  0.00    -0.744 OA
ENDBRANCH  67  68
ENDBRANCH  46  60
BRANCH  47  72
ATOM     72  C   UNL A   1      43.258  24.898  28.029  1.00  0.00     0.058 A 
ATOM     73  C   UNL A   1      43.881  25.189  26.807  1.00  0.00     0.135 A 
ATOM     74  C   UNL A   1      42.931  23.560  28.297  1.00  0.00     0.135 A 
ATOM     75  F   UNL A   1      44.207  26.455  26.505  1.00  0.00    -0.206 F 
ATOM     76  C   UNL A   1      44.169  24.192  25.880  1.00  0.00     0.059 A 
ATOM     77  C   UNL A   1      43.229  22.542  27.396  1.00  0.00     0.059 A 
ATOM     78  F   UNL A   1      42.347  23.230  29.460  1.00  0.00    -0.206 F 
ATOM     79  C   UNL A   1      43.845  22.869  26.188  1.00  0.00     0.060 A 
BRANCH  79  80
ATOM     80  S   UNL A   1      44.290  21.576  25.010  1.00  0.00     0.124 S 
ATOM     81  O   UNL A   1      45.620  21.201  25.471  1.00  0.00    -0.237 OA
ATOM     82  O   UNL A   1      43.235  20.589  25.226  1.00  0.00    -0.237 OA
ATOM     83  O   UNL A   1      44.238  22.263  23.723  1.00  0.00    -0.744 OA
ENDBRANCH  79  80
ENDBRANCH  47  72
BRANCH  59  84
ATOM     84  C   UNL A   1      46.559  27.034  33.779  1.00  0.00     0.058 A 
ATOM     85  C   UNL A   1      46.541  26.003  34.731  1.00  0.00     0.135 A 
ATOM     86  C   UNL A   1      47.798  27.617  33.467  1.00  0.00     0.135 A 
ATOM     87  F   UNL A   1      45.382  25.417  35.070  1.00  0.00    -0.206 F 
ATOM     88  C   UNL A   1      47.700  25.597  35.383  1.00  0.00     0.059 A 
ATOM     89  C   UNL A   1      48.974  27.205  34.085  1.00  0.00     0.059 A 
ATOM     90  F   UNL A   1      47.874  28.596  32.552  1.00  0.00    -0.206 F 
ATOM     91  C   UNL A   1      48.912  26.208  35.058  1.00  0.00     0.060 A 
BRANCH  91  92
ATOM     92  S   UNL A   1      50.410  25.678  35.915  1.00  0.00     0.124 S 
ATOM     93  O   UNL A   1      51.106  24.948  34.862  1.00  0.00    -0.237 OA
ATOM     94  O   UNL A   1      51.012  26.948  36.310  1.00  0.00    -0.237 OA
ATOM     95  O   UNL A   1      49.901  24.864  37.015  1.00  0.00    -0.744 OA
ENDBRANCH  91  92
ENDBRANCH  59  84
ENDBRANCH  33  34
ENDBRANCH  25  28
ENDBRANCH  23  24
ENDBRANCH  22  23
ENDBRANCH   1  22
TORSDOF 19
ENDMDL
