MODEL 1
REMARK VINA RESULT:     -12.2      0.000      0.000
REMARK SMILES C[C@H](NC(=O)c1c(C(=O)NCCCCCCNC(=O)c2ccc(-c3c4nc(c(-c5c(F)cc(S(=O)(=O)[O-])cc5F)c5ccc([nH]5)c(-c5c(F)cc(S(=O)(=O)[O-])cc5F)c5nc(c(-c6c(F)cc(S(=O)(=O)[O-])cc6F)c6ccc3[nH]6)C=C5)C=C4)cc2)cnn1C)[C@]12C[C@H]3C[C@H](C[C@H](C3)C1)C2
REMARK SMILES IDX 13 1 12 2 11 3 10 4 8 5 9 6 7 8 6 9 88 10 86 11 87 12 89 13
REMARK SMILES IDX 4 14 3 15 5 17 2 18 1 19 90 20 91 21 98 22 99 23 92 24 96 25
REMARK SMILES IDX 94 26 93 27 97 28 95 29 14 30 15 31 16 32 17 33 18 34 19 36
REMARK SMILES IDX 20 37 21 38 85 39 22 40 84 41 23 42 24 43 25 44 78 45 26 46
REMARK SMILES IDX 83 47 77 48 79 49 27 50 82 51 76 52 75 53 28 55 62 56 41 57
REMARK SMILES IDX 61 58 42 59 45 60 60 61 80 62 43 63 44 64 59 66 81 67 46 68
REMARK SMILES IDX 29 69 30 70 39 71 31 72 32 73 38 74 40 75 33 76 34 77 35 78
REMARK SMILES IDX 36 79 37 80 63 81 64 82 73 83 65 84 66 85 72 86 74 87 67 88
REMARK SMILES IDX 68 89 69 90 70 91 71 92 47 93 48 94 57 95 49 96 50 97 56 98
REMARK SMILES IDX 58 99 51 100 52 101 53 102 54 103 55 104
REMARK H PARENT 10 7 3 16 17 35 79 54 45 65
REMARK Flexibility Score: inf
ROOT
ATOM      1  C   UNL A   1      34.498  32.131  28.011  1.00  0.00     0.002 C 
ENDROOT
BRANCH   1   2
ATOM      2  C   UNL A   1      34.733  30.687  27.573  1.00  0.00     0.021 C 
BRANCH   2   3
ATOM      3  C   UNL A   1      33.674  30.052  26.683  1.00  0.00     0.116 C 
BRANCH   3   4
ATOM      4  N   UNL A   1      32.598  29.417  27.396  1.00  0.00    -0.352 N 
ATOM      5  C   UNL A   1      32.055  28.165  27.330  1.00  0.00     0.255 C 
ATOM      6  O   UNL A   1      31.105  27.971  28.105  1.00  0.00    -0.269 OA
ATOM      7  H   UNL A   1      32.166  30.001  28.062  1.00  0.00     0.163 HD
BRANCH   5   8
ATOM      8  C   UNL A   1      32.461  27.090  26.428  1.00  0.00     0.090 A 
ATOM      9  C   UNL A   1      31.829  26.252  25.507  1.00  0.00     0.138 A 
ATOM     10  N   UNL A   1      32.837  25.545  24.888  1.00  0.00    -0.262 N 
ATOM     11  C   UNL A   1      33.825  26.679  26.341  1.00  0.00     0.149 A 
ATOM     12  N   UNL A   1      34.046  25.719  25.446  1.00  0.00    -0.180 NA
ATOM     13  C   UNL A   1      32.733  24.660  23.748  1.00  0.00     0.174 C 
BRANCH   9  14
ATOM     14  C   UNL A   1      30.462  26.133  25.080  1.00  0.00     0.270 C 
ATOM     15  N   UNL A   1      30.008  27.056  24.155  1.00  0.00    -0.348 N 
ATOM     16  H   UNL A   1      29.059  26.964  23.907  1.00  0.00     0.164 HD
ATOM     17  O   UNL A   1      29.707  25.270  25.475  1.00  0.00    -0.267 OA
BRANCH  15  18
ATOM     18  C   UNL A   1      30.724  28.152  23.487  1.00  0.00     0.085 C 
ATOM     19  C   UNL A   1      31.510  27.612  22.284  1.00  0.00     0.031 C 
BRANCH  18  20
ATOM     20  C   UNL A   1      29.778  29.353  23.131  1.00  0.00    -0.009 C 
ATOM     21  C   UNL A   1      30.112  29.939  21.727  1.00  0.00     0.012 C 
ATOM     22  C   UNL A   1      29.860  30.509  24.163  1.00  0.00     0.012 C 
ATOM     23  C   UNL A   1      28.304  28.851  23.079  1.00  0.00     0.012 C 
ATOM     24  C   UNL A   1      29.151  31.081  21.358  1.00  0.00    -0.010 C 
ATOM     25  C   UNL A   1      28.894  31.649  23.797  1.00  0.00    -0.010 C 
ATOM     26  C   UNL A   1      27.339  29.988  22.712  1.00  0.00    -0.010 C 
ATOM     27  C   UNL A   1      27.715  30.541  21.332  1.00  0.00     0.007 C 
ATOM     28  C   UNL A   1      29.262  32.195  22.411  1.00  0.00     0.007 C 
ATOM     29  C   UNL A   1      27.457  31.102  23.761  1.00  0.00     0.007 C 
ENDBRANCH  18  20
ENDBRANCH  15  18
ENDBRANCH   9  14
ENDBRANCH   5   8
ENDBRANCH   3   4
ENDBRANCH   2   3
ENDBRANCH   1   2
BRANCH   1  30
ATOM     30  C   UNL A   1      35.703  33.071  28.010  1.00  0.00     0.002 C 
BRANCH  30  31
ATOM     31  C   UNL A   1      35.924  33.952  29.243  1.00  0.00     0.021 C 
BRANCH  31  32
ATOM     32  C   UNL A   1      36.734  33.362  30.394  1.00  0.00     0.116 C 
BRANCH  32  33
ATOM     33  N   UNL A   1      36.139  32.181  30.985  1.00  0.00    -0.352 N 
ATOM     34  C   UNL A   1      36.619  30.896  31.070  1.00  0.00     0.251 C 
ATOM     35  H   UNL A   1      35.253  32.321  31.389  1.00  0.00     0.163 HD
ATOM     36  O   UNL A   1      35.909  30.026  31.570  1.00  0.00    -0.269 OA
BRANCH  34  37
ATOM     37  C   UNL A   1      37.954  30.529  30.538  1.00  0.00     0.039 A 
ATOM     38  C   UNL A   1      38.980  30.276  31.459  1.00  0.00     0.014 A 
ATOM     39  C   UNL A   1      38.228  30.476  29.166  1.00  0.00     0.014 A 
ATOM     40  C   UNL A   1      40.254  29.908  31.010  1.00  0.00     0.010 A 
ATOM     41  C   UNL A   1      39.491  30.068  28.720  1.00  0.00     0.010 A 
ATOM     42  C   UNL A   1      40.513  29.774  29.636  1.00  0.00    -0.014 A 
BRANCH  42  43
ATOM     43  C   UNL A   1      41.845  29.326  29.154  1.00  0.00     0.031 A 
ATOM     44  C   UNL A   1      42.998  30.287  29.079  1.00  0.00     0.074 A 
ATOM     45  C   UNL A   1      42.009  28.055  28.741  1.00  0.00     0.049 A 
ATOM     46  N   UNL A   1      44.210  30.093  28.626  1.00  0.00    -0.248 NA
ATOM     47  C   UNL A   1      42.747  31.652  29.561  1.00  0.00     0.031 C 
ATOM     48  C   UNL A   1      40.966  27.029  28.725  1.00  0.00     0.029 A 
ATOM     49  N   UNL A   1      43.113  27.413  28.244  1.00  0.00    -0.354 N 
ATOM     50  C   UNL A   1      44.860  31.313  28.740  1.00  0.00     0.074 A 
ATOM     51  C   UNL A   1      43.904  32.245  29.299  1.00  0.00     0.031 C 
ATOM     52  C   UNL A   1      41.485  25.884  28.251  1.00  0.00     0.029 A 
ATOM     53  C   UNL A   1      42.889  26.099  27.915  1.00  0.00     0.049 A 
ATOM     54  H   UNL A   1      43.987  27.854  28.133  1.00  0.00     0.167 HD
ATOM     55  C   UNL A   1      46.136  31.625  28.412  1.00  0.00     0.037 A 
ATOM     56  C   UNL A   1      43.718  25.170  27.400  1.00  0.00     0.037 A 
ATOM     57  C   UNL A   1      47.102  30.693  27.892  1.00  0.00     0.049 A 
ATOM     58  C   UNL A   1      45.146  25.522  27.110  1.00  0.00     0.074 A 
ATOM     59  C   UNL A   1      48.429  30.917  27.567  1.00  0.00     0.029 A 
ATOM     60  N   UNL A   1      46.852  29.355  27.632  1.00  0.00    -0.354 N 
ATOM     61  N   UNL A   1      45.752  26.675  27.244  1.00  0.00    -0.248 NA
ATOM     62  C   UNL A   1      46.007  24.447  26.602  1.00  0.00     0.031 C 
ATOM     63  C   UNL A   1      48.978  29.714  27.103  1.00  0.00     0.029 A 
ATOM     64  C   UNL A   1      47.996  28.741  27.151  1.00  0.00     0.049 A 
ATOM     65  H   UNL A   1      45.986  28.908  27.768  1.00  0.00     0.167 HD
ATOM     66  C   UNL A   1      47.066  26.464  26.846  1.00  0.00     0.074 A 
ATOM     67  C   UNL A   1      47.171  25.069  26.471  1.00  0.00     0.031 C 
ATOM     68  C   UNL A   1      48.089  27.350  26.790  1.00  0.00     0.037 A 
BRANCH  55  69
ATOM     69  C   UNL A   1      46.554  33.052  28.602  1.00  0.00     0.058 A 
ATOM     70  C   UNL A   1      47.105  33.493  29.818  1.00  0.00     0.135 A 
ATOM     71  C   UNL A   1      46.396  33.983  27.557  1.00  0.00     0.135 A 
ATOM     72  F   UNL A   1      47.259  32.641  30.848  1.00  0.00    -0.206 F 
ATOM     73  C   UNL A   1      47.465  34.827  29.997  1.00  0.00     0.059 A 
ATOM     74  C   UNL A   1      46.762  35.319  27.713  1.00  0.00     0.059 A 
ATOM     75  F   UNL A   1      45.870  33.604  26.379  1.00  0.00    -0.206 F 
ATOM     76  C   UNL A   1      47.277  35.735  28.945  1.00  0.00     0.060 A 
BRANCH  76  77
ATOM     77  S   UNL A   1      47.717  37.472  29.188  1.00  0.00     0.124 S 
ATOM     78  O   UNL A   1      49.176  37.397  29.172  1.00  0.00    -0.237 OA
ATOM     79  O   UNL A   1      47.099  38.119  28.033  1.00  0.00    -0.237 OA
ATOM     80  O   UNL A   1      47.111  37.783  30.481  1.00  0.00    -0.744 OA
ENDBRANCH  76  77
ENDBRANCH  55  69
BRANCH  56  81
ATOM     81  C   UNL A   1      43.209  23.801  27.145  1.00  0.00     0.058 A 
ATOM     82  C   UNL A   1      42.928  23.375  25.835  1.00  0.00     0.135 A 
ATOM     83  C   UNL A   1      43.025  22.890  28.200  1.00  0.00     0.135 A 
ATOM     84  F   UNL A   1      43.088  24.220  24.802  1.00  0.00    -0.206 F 
ATOM     85  C   UNL A   1      42.482  22.083  25.574  1.00  0.00     0.059 A 
ATOM     86  C   UNL A   1      42.590  21.590  27.960  1.00  0.00     0.059 A 
ATOM     87  F   UNL A   1      43.292  23.256  29.465  1.00  0.00    -0.206 F 
ATOM     88  C   UNL A   1      42.317  21.196  26.644  1.00  0.00     0.060 A 
BRANCH  88  89
ATOM     89  S   UNL A   1      41.808  19.494  26.307  1.00  0.00     0.124 S 
ATOM     90  O   UNL A   1      42.262  18.814  27.515  1.00  0.00    -0.237 OA
ATOM     91  O   UNL A   1      40.363  19.629  26.151  1.00  0.00    -0.237 OA
ATOM     92  O   UNL A   1      42.539  19.179  25.082  1.00  0.00    -0.744 OA
ENDBRANCH  88  89
ENDBRANCH  56  81
BRANCH  68  93
ATOM     93  C   UNL A   1      49.415  26.833  26.321  1.00  0.00     0.058 A 
ATOM     94  C   UNL A   1      49.808  26.960  24.979  1.00  0.00     0.135 A 
ATOM     95  C   UNL A   1      50.310  26.235  27.226  1.00  0.00     0.135 A 
ATOM     96  F   UNL A   1      48.982  27.519  24.077  1.00  0.00    -0.206 F 
ATOM     97  C   UNL A   1      51.050  26.500  24.544  1.00  0.00     0.059 A 
ATOM     98  C   UNL A   1      51.559  25.776  26.815  1.00  0.00     0.059 A 
ATOM     99  F   UNL A   1      49.976  26.094  28.521  1.00  0.00    -0.206 F 
ATOM    100  C   UNL A   1      51.917  25.905  25.469  1.00  0.00     0.060 A 
BRANCH 100 101
ATOM    101  S   UNL A   1      53.541  25.335  24.914  1.00  0.00     0.124 S 
ATOM    102  O   UNL A   1      54.426  26.093  25.795  1.00  0.00    -0.237 OA
ATOM    103  O   UNL A   1      53.475  23.898  25.164  1.00  0.00    -0.237 OA
ATOM    104  O   UNL A   1      53.560  25.724  23.507  1.00  0.00    -0.744 OA
ENDBRANCH 100 101
ENDBRANCH  68  93
ENDBRANCH  42  43
ENDBRANCH  34  37
ENDBRANCH  32  33
ENDBRANCH  31  32
ENDBRANCH  30  31
ENDBRANCH   1  30
TORSDOF 19
ENDMDL
MODEL 2
REMARK VINA RESULT:     -12.0      6.355     11.518
REMARK SMILES C[C@H](NC(=O)c1c(C(=O)NCCCCCCNC(=O)c2ccc(-c3c4nc(c(-c5c(F)cc(S(=O)(=O)[O-])cc5F)c5ccc([nH]5)c(-c5c(F)cc(S(=O)(=O)[O-])cc5F)c5nc(c(-c6c(F)cc(S(=O)(=O)[O-])cc6F)c6ccc3[nH]6)C=C5)C=C4)cc2)cnn1C)[C@]12C[C@H]3C[C@H](C[C@H](C3)C1)C2
REMARK SMILES IDX 13 1 12 2 11 3 10 4 8 5 9 6 7 8 6 9 88 10 86 11 87 12 89 13
REMARK SMILES IDX 4 14 3 15 5 17 2 18 1 19 90 20 91 21 98 22 99 23 92 24 96 25
REMARK SMILES IDX 94 26 93 27 97 28 95 29 14 30 15 31 16 32 17 33 18 34 19 36
REMARK SMILES IDX 20 37 21 38 85 39 22 40 84 41 23 42 24 43 25 44 78 45 26 46
REMARK SMILES IDX 83 47 77 48 79 49 27 50 82 51 76 52 75 53 28 55 62 56 41 57
REMARK SMILES IDX 61 58 42 59 45 60 60 61 80 62 43 63 44 64 59 66 81 67 46 68
REMARK SMILES IDX 29 69 30 70 39 71 31 72 32 73 38 74 40 75 33 76 34 77 35 78
REMARK SMILES IDX 36 79 37 80 63 81 64 82 73 83 65 84 66 85 72 86 74 87 67 88
REMARK SMILES IDX 68 89 69 90 70 91 71 92 47 93 48 94 57 95 49 96 50 97 56 98
REMARK SMILES IDX 58 99 51 100 52 101 53 102 54 103 55 104
REMARK H PARENT 10 7 3 16 17 35 79 54 45 65
REMARK Flexibility Score: inf
ROOT
ATOM      1  C   UNL A   1      34.921  21.972  25.666  1.00  0.00     0.002 C 
ENDROOT
BRANCH   1   2
ATOM      2  C   UNL A   1      33.551  21.728  26.293  1.00  0.00     0.021 C 
BRANCH   2   3
ATOM      3  C   UNL A   1      32.338  22.244  25.532  1.00  0.00     0.116 C 
BRANCH   3   4
ATOM      4  N   UNL A   1      32.647  22.878  24.278  1.00  0.00    -0.352 N 
ATOM      5  C   UNL A   1      32.901  24.177  23.935  1.00  0.00     0.255 C 
ATOM      6  O   UNL A   1      33.118  24.360  22.727  1.00  0.00    -0.269 OA
ATOM      7  H   UNL A   1      32.682  22.255  23.517  1.00  0.00     0.163 HD
BRANCH   5   8
ATOM      8  C   UNL A   1      32.897  25.328  24.835  1.00  0.00     0.090 A 
ATOM      9  C   UNL A   1      31.934  26.176  25.384  1.00  0.00     0.138 A 
ATOM     10  N   UNL A   1      32.608  26.984  26.274  1.00  0.00    -0.262 N 
ATOM     11  C   UNL A   1      34.112  25.832  25.389  1.00  0.00     0.149 A 
ATOM     12  N   UNL A   1      33.943  26.856  26.222  1.00  0.00    -0.180 NA
ATOM     13  C   UNL A   1      32.050  27.927  27.219  1.00  0.00     0.174 C 
BRANCH   9  14
ATOM     14  C   UNL A   1      30.503  26.231  25.262  1.00  0.00     0.270 C 
ATOM     15  N   UNL A   1      29.979  27.177  24.401  1.00  0.00    -0.348 N 
ATOM     16  H   UNL A   1      28.995  27.208  24.364  1.00  0.00     0.164 HD
ATOM     17  O   UNL A   1      29.749  25.491  25.859  1.00  0.00    -0.267 OA
BRANCH  15  18
ATOM     18  C   UNL A   1      30.665  28.144  23.531  1.00  0.00     0.085 C 
ATOM     19  C   UNL A   1      31.278  27.423  22.323  1.00  0.00     0.031 C 
BRANCH  18  20
ATOM     20  C   UNL A   1      29.745  29.354  23.141  1.00  0.00    -0.009 C 
ATOM     21  C   UNL A   1      30.127  29.927  21.744  1.00  0.00     0.012 C 
ATOM     22  C   UNL A   1      29.811  30.515  24.169  1.00  0.00     0.012 C 
ATOM     23  C   UNL A   1      28.268  28.869  23.050  1.00  0.00     0.012 C 
ATOM     24  C   UNL A   1      29.191  31.078  21.341  1.00  0.00    -0.010 C 
ATOM     25  C   UNL A   1      28.870  31.664  23.768  1.00  0.00    -0.010 C 
ATOM     26  C   UNL A   1      27.327  30.015  22.647  1.00  0.00    -0.010 C 
ATOM     27  C   UNL A   1      27.750  30.556  21.276  1.00  0.00     0.007 C 
ATOM     28  C   UNL A   1      29.285  32.198  22.390  1.00  0.00     0.007 C 
ATOM     29  C   UNL A   1      27.428  31.135  23.694  1.00  0.00     0.007 C 
ENDBRANCH  18  20
ENDBRANCH  15  18
ENDBRANCH   9  14
ENDBRANCH   5   8
ENDBRANCH   3   4
ENDBRANCH   2   3
ENDBRANCH   1   2
BRANCH   1  30
ATOM     30  C   UNL A   1      35.871  22.921  26.395  1.00  0.00     0.002 C 
BRANCH  30  31
ATOM     31  C   UNL A   1      37.201  23.265  25.717  1.00  0.00     0.021 C 
BRANCH  31  32
ATOM     32  C   UNL A   1      38.130  24.236  26.439  1.00  0.00     0.116 C 
BRANCH  32  33
ATOM     33  N   UNL A   1      39.506  24.173  25.992  1.00  0.00    -0.352 N 
ATOM     34  C   UNL A   1      40.616  24.843  26.446  1.00  0.00     0.251 C 
ATOM     35  H   UNL A   1      39.672  23.552  25.247  1.00  0.00     0.163 HD
ATOM     36  O   UNL A   1      41.690  24.677  25.871  1.00  0.00    -0.269 OA
BRANCH  34  37
ATOM     37  C   UNL A   1      40.539  25.791  27.584  1.00  0.00     0.039 A 
ATOM     38  C   UNL A   1      41.486  26.822  27.644  1.00  0.00     0.014 A 
ATOM     39  C   UNL A   1      39.595  25.660  28.609  1.00  0.00     0.014 A 
ATOM     40  C   UNL A   1      41.447  27.754  28.688  1.00  0.00     0.010 A 
ATOM     41  C   UNL A   1      39.532  26.616  29.630  1.00  0.00     0.010 A 
ATOM     42  C   UNL A   1      40.452  27.675  29.675  1.00  0.00    -0.014 A 
BRANCH  42  43
ATOM     43  C   UNL A   1      40.368  28.695  30.753  1.00  0.00     0.031 A 
ATOM     44  C   UNL A   1      41.260  28.613  31.959  1.00  0.00     0.074 A 
ATOM     45  C   UNL A   1      39.453  29.679  30.665  1.00  0.00     0.049 A 
ATOM     46  N   UNL A   1      41.283  29.373  33.024  1.00  0.00    -0.248 NA
ATOM     47  C   UNL A   1      42.242  27.521  31.977  1.00  0.00     0.031 C 
ATOM     48  C   UNL A   1      38.500  29.855  29.569  1.00  0.00     0.029 A 
ATOM     49  N   UNL A   1      39.167  30.711  31.521  1.00  0.00    -0.354 N 
ATOM     50  C   UNL A   1      42.259  28.838  33.852  1.00  0.00     0.074 A 
ATOM     51  C   UNL A   1      42.801  27.684  33.168  1.00  0.00     0.031 C 
ATOM     52  C   UNL A   1      37.743  30.937  29.815  1.00  0.00     0.029 A 
ATOM     53  C   UNL A   1      38.144  31.519  31.092  1.00  0.00     0.049 A 
ATOM     54  H   UNL A   1      39.652  30.859  32.365  1.00  0.00     0.167 HD
ATOM     55  C   UNL A   1      42.668  29.272  35.068  1.00  0.00     0.037 A 
ATOM     56  C   UNL A   1      37.588  32.607  31.660  1.00  0.00     0.037 A 
ATOM     57  C   UNL A   1      42.160  30.442  35.736  1.00  0.00     0.049 A 
ATOM     58  C   UNL A   1      38.104  33.109  32.975  1.00  0.00     0.074 A 
ATOM     59  C   UNL A   1      42.544  30.976  36.955  1.00  0.00     0.029 A 
ATOM     60  N   UNL A   1      41.166  31.269  35.238  1.00  0.00    -0.354 N 
ATOM     61  N   UNL A   1      39.044  32.605  33.736  1.00  0.00    -0.248 NA
ATOM     62  C   UNL A   1      37.490  34.330  33.510  1.00  0.00     0.031 C 
ATOM     63  C   UNL A   1      41.776  32.123  37.195  1.00  0.00     0.029 A 
ATOM     64  C   UNL A   1      40.922  32.308  36.122  1.00  0.00     0.049 A 
ATOM     65  H   UNL A   1      40.700  31.137  34.382  1.00  0.00     0.167 HD
ATOM     66  C   UNL A   1      39.140  33.451  34.834  1.00  0.00     0.074 A 
ATOM     67  C   UNL A   1      38.167  34.504  34.638  1.00  0.00     0.031 C 
ATOM     68  C   UNL A   1      39.957  33.355  35.910  1.00  0.00     0.037 A 
BRANCH  55  69
ATOM     69  C   UNL A   1      43.720  28.459  35.759  1.00  0.00     0.058 A 
ATOM     70  C   UNL A   1      43.375  27.406  36.624  1.00  0.00     0.135 A 
ATOM     71  C   UNL A   1      45.085  28.741  35.553  1.00  0.00     0.135 A 
ATOM     72  F   UNL A   1      42.084  27.113  36.863  1.00  0.00    -0.206 F 
ATOM     73  C   UNL A   1      44.358  26.673  37.286  1.00  0.00     0.059 A 
ATOM     74  C   UNL A   1      46.083  28.010  36.195  1.00  0.00     0.059 A 
ATOM     75  F   UNL A   1      45.459  29.741  34.736  1.00  0.00    -0.206 F 
ATOM     76  C   UNL A   1      45.708  26.990  37.075  1.00  0.00     0.060 A 
BRANCH  76  77
ATOM     77  S   UNL A   1      46.982  26.057  37.956  1.00  0.00     0.124 S 
ATOM     78  O   UNL A   1      46.922  24.774  37.260  1.00  0.00    -0.237 OA
ATOM     79  O   UNL A   1      48.181  26.857  37.717  1.00  0.00    -0.237 OA
ATOM     80  O   UNL A   1      46.492  26.057  39.332  1.00  0.00    -0.744 OA
ENDBRANCH  76  77
ENDBRANCH  55  69
BRANCH  56  81
ATOM     81  C   UNL A   1      36.481  33.308  30.964  1.00  0.00     0.058 A 
ATOM     82  C   UNL A   1      35.159  33.189  31.426  1.00  0.00     0.135 A 
ATOM     83  C   UNL A   1      36.732  34.128  29.851  1.00  0.00     0.135 A 
ATOM     84  F   UNL A   1      34.881  32.410  32.485  1.00  0.00    -0.206 F 
ATOM     85  C   UNL A   1      34.112  33.866  30.806  1.00  0.00     0.059 A 
ATOM     86  C   UNL A   1      35.702  34.821  29.222  1.00  0.00     0.059 A 
ATOM     87  F   UNL A   1      37.984  34.275  29.386  1.00  0.00    -0.206 F 
ATOM     88  C   UNL A   1      34.395  34.682  29.705  1.00  0.00     0.060 A 
BRANCH  88  89
ATOM     89  S   UNL A   1      33.053  35.622  28.938  1.00  0.00     0.124 S 
ATOM     90  O   UNL A   1      33.800  36.609  28.166  1.00  0.00    -0.237 OA
ATOM     91  O   UNL A   1      32.358  34.596  28.167  1.00  0.00    -0.237 OA
ATOM     92  O   UNL A   1      32.321  36.133  30.095  1.00  0.00    -0.744 OA
ENDBRANCH  88  89
ENDBRANCH  56  81
BRANCH  68  93
ATOM     93  C   UNL A   1      39.844  34.427  36.950  1.00  0.00     0.058 A 
ATOM     94  C   UNL A   1      40.576  35.621  36.844  1.00  0.00     0.135 A 
ATOM     95  C   UNL A   1      38.973  34.272  38.045  1.00  0.00     0.135 A 
ATOM     96  F   UNL A   1      41.424  35.811  35.818  1.00  0.00    -0.206 F 
ATOM     97  C   UNL A   1      40.455  36.629  37.799  1.00  0.00     0.059 A 
ATOM     98  C   UNL A   1      38.831  35.270  39.005  1.00  0.00     0.059 A 
ATOM     99  F   UNL A   1      38.252  33.146  38.185  1.00  0.00    -0.206 F 
ATOM    100  C   UNL A   1      39.584  36.442  38.878  1.00  0.00     0.060 A 
BRANCH 100 101
ATOM    101  S   UNL A   1      39.401  37.761  40.103  1.00  0.00     0.124 S 
ATOM    102  O   UNL A   1      38.199  38.434  39.621  1.00  0.00    -0.237 OA
ATOM    103  O   UNL A   1      39.257  37.017  41.351  1.00  0.00    -0.237 OA
ATOM    104  O   UNL A   1      40.648  38.510  39.963  1.00  0.00    -0.744 OA
ENDBRANCH 100 101
ENDBRANCH  68  93
ENDBRANCH  42  43
ENDBRANCH  34  37
ENDBRANCH  32  33
ENDBRANCH  31  32
ENDBRANCH  30  31
ENDBRANCH   1  30
TORSDOF 19
ENDMDL
MODEL 3
REMARK VINA RESULT:     -11.9      1.650      4.132
REMARK SMILES C[C@H](NC(=O)c1c(C(=O)NCCCCCCNC(=O)c2ccc(-c3c4nc(c(-c5c(F)cc(S(=O)(=O)[O-])cc5F)c5ccc([nH]5)c(-c5c(F)cc(S(=O)(=O)[O-])cc5F)c5nc(c(-c6c(F)cc(S(=O)(=O)[O-])cc6F)c6ccc3[nH]6)C=C5)C=C4)cc2)cnn1C)[C@]12C[C@H]3C[C@H](C[C@H](C3)C1)C2
REMARK SMILES IDX 13 1 12 2 11 3 10 4 8 5 9 6 7 8 6 9 88 10 86 11 87 12 89 13
REMARK SMILES IDX 4 14 3 15 5 17 2 18 1 19 90 20 91 21 98 22 99 23 92 24 96 25
REMARK SMILES IDX 94 26 93 27 97 28 95 29 14 30 15 31 16 32 17 33 18 34 19 36
REMARK SMILES IDX 20 37 21 38 85 39 22 40 84 41 23 42 24 43 25 44 78 45 26 46
REMARK SMILES IDX 83 47 77 48 79 49 27 50 82 51 76 52 75 53 28 55 62 56 41 57
REMARK SMILES IDX 61 58 42 59 45 60 60 61 80 62 43 63 44 64 59 66 81 67 46 68
REMARK SMILES IDX 29 69 30 70 39 71 31 72 32 73 38 74 40 75 33 76 34 77 35 78
REMARK SMILES IDX 36 79 37 80 63 81 64 82 73 83 65 84 66 85 72 86 74 87 67 88
REMARK SMILES IDX 68 89 69 90 70 91 71 92 47 93 48 94 57 95 49 96 50 97 56 98
REMARK SMILES IDX 58 99 51 100 52 101 53 102 54 103 55 104
REMARK H PARENT 10 7 3 16 17 35 79 54 45 65
REMARK Flexibility Score: inf
ROOT
ATOM      1  C   UNL A   1      34.311  28.959  27.244  1.00  0.00     0.002 C 
ENDROOT
BRANCH   1   2
ATOM      2  C   UNL A   1      32.959  29.229  26.589  1.00  0.00     0.021 C 
BRANCH   2   3
ATOM      3  C   UNL A   1      31.720  28.752  27.334  1.00  0.00     0.116 C 
BRANCH   3   4
ATOM      4  N   UNL A   1      31.595  27.321  27.427  1.00  0.00    -0.352 N 
ATOM      5  C   UNL A   1      31.360  26.351  26.495  1.00  0.00     0.255 C 
ATOM      6  O   UNL A   1      31.300  25.198  26.952  1.00  0.00    -0.269 OA
ATOM      7  H   UNL A   1      31.697  26.974  28.343  1.00  0.00     0.163 HD
BRANCH   5   8
ATOM      8  C   UNL A   1      31.141  26.556  25.065  1.00  0.00     0.090 A 
ATOM      9  C   UNL A   1      31.943  26.682  23.929  1.00  0.00     0.138 A 
ATOM     10  N   UNL A   1      31.075  26.720  22.859  1.00  0.00    -0.262 N 
ATOM     11  C   UNL A   1      29.822  26.666  24.532  1.00  0.00     0.149 A 
ATOM     12  N   UNL A   1      29.782  26.808  23.209  1.00  0.00    -0.180 NA
ATOM     13  C   UNL A   1      31.399  26.685  21.449  1.00  0.00     0.174 C 
BRANCH   9  14
ATOM     14  C   UNL A   1      33.367  26.651  23.735  1.00  0.00     0.270 C 
ATOM     15  N   UNL A   1      33.951  25.412  23.546  1.00  0.00    -0.348 N 
ATOM     16  H   UNL A   1      34.931  25.425  23.446  1.00  0.00     0.164 HD
ATOM     17  O   UNL A   1      34.064  27.644  23.717  1.00  0.00    -0.267 OA
BRANCH  15  18
ATOM     18  C   UNL A   1      33.333  24.080  23.470  1.00  0.00     0.085 C 
ATOM     19  C   UNL A   1      33.280  23.606  22.012  1.00  0.00     0.031 C 
BRANCH  18  20
ATOM     20  C   UNL A   1      34.014  23.051  24.441  1.00  0.00    -0.009 C 
ATOM     21  C   UNL A   1      33.110  21.803  24.666  1.00  0.00     0.012 C 
ATOM     22  C   UNL A   1      34.341  23.661  25.831  1.00  0.00     0.012 C 
ATOM     23  C   UNL A   1      35.344  22.547  23.807  1.00  0.00     0.012 C 
ATOM     24  C   UNL A   1      33.800  20.773  25.574  1.00  0.00    -0.010 C 
ATOM     25  C   UNL A   1      35.037  22.632  26.737  1.00  0.00    -0.010 C 
ATOM     26  C   UNL A   1      36.039  21.517  24.711  1.00  0.00    -0.010 C 
ATOM     27  C   UNL A   1      35.108  20.316  24.914  1.00  0.00     0.007 C 
ATOM     28  C   UNL A   1      34.111  21.424  26.932  1.00  0.00     0.007 C 
ATOM     29  C   UNL A   1      36.342  22.168  26.068  1.00  0.00     0.007 C 
ENDBRANCH  18  20
ENDBRANCH  15  18
ENDBRANCH   9  14
ENDBRANCH   5   8
ENDBRANCH   3   4
ENDBRANCH   2   3
ENDBRANCH   1   2
BRANCH   1  30
ATOM     30  C   UNL A   1      35.312  30.113  27.294  1.00  0.00     0.002 C 
BRANCH  30  31
ATOM     31  C   UNL A   1      34.866  31.420  27.956  1.00  0.00     0.021 C 
BRANCH  31  32
ATOM     32  C   UNL A   1      35.766  32.005  29.040  1.00  0.00     0.116 C 
BRANCH  32  33
ATOM     33  N   UNL A   1      35.624  31.362  30.330  1.00  0.00    -0.352 N 
ATOM     34  C   UNL A   1      36.500  30.559  31.020  1.00  0.00     0.251 C 
ATOM     35  H   UNL A   1      34.766  31.526  30.783  1.00  0.00     0.163 HD
ATOM     36  O   UNL A   1      36.143  30.067  32.088  1.00  0.00    -0.269 OA
BRANCH  34  37
ATOM     37  C   UNL A   1      37.848  30.243  30.488  1.00  0.00     0.039 A 
ATOM     38  C   UNL A   1      38.890  30.062  31.408  1.00  0.00     0.014 A 
ATOM     39  C   UNL A   1      38.116  30.169  29.117  1.00  0.00     0.014 A 
ATOM     40  C   UNL A   1      40.177  29.744  30.960  1.00  0.00     0.010 A 
ATOM     41  C   UNL A   1      39.395  29.811  28.672  1.00  0.00     0.010 A 
ATOM     42  C   UNL A   1      40.435  29.589  29.588  1.00  0.00    -0.014 A 
BRANCH  42  43
ATOM     43  C   UNL A   1      41.784  29.193  29.108  1.00  0.00     0.031 A 
ATOM     44  C   UNL A   1      42.899  30.198  29.037  1.00  0.00     0.074 A 
ATOM     45  C   UNL A   1      41.997  27.930  28.693  1.00  0.00     0.049 A 
ATOM     46  N   UNL A   1      44.119  30.051  28.587  1.00  0.00    -0.248 NA
ATOM     47  C   UNL A   1      42.595  31.551  29.521  1.00  0.00     0.031 C 
ATOM     48  C   UNL A   1      40.995  26.865  28.673  1.00  0.00     0.029 A 
ATOM     49  N   UNL A   1      43.127  27.332  28.197  1.00  0.00    -0.354 N 
ATOM     50  C   UNL A   1      44.721  31.295  28.704  1.00  0.00     0.074 A 
ATOM     51  C   UNL A   1      43.729  32.188  29.263  1.00  0.00     0.031 C 
ATOM     52  C   UNL A   1      41.558  25.741  28.198  1.00  0.00     0.029 A 
ATOM     53  C   UNL A   1      42.953  26.011  27.866  1.00  0.00     0.049 A 
ATOM     54  H   UNL A   1      43.983  27.806  28.089  1.00  0.00     0.167 HD
ATOM     55  C   UNL A   1      45.986  31.657  28.379  1.00  0.00     0.037 A 
ATOM     56  C   UNL A   1      43.818  25.115  27.351  1.00  0.00     0.037 A 
ATOM     57  C   UNL A   1      46.988  30.763  27.860  1.00  0.00     0.049 A 
ATOM     58  C   UNL A   1      45.232  25.522  27.064  1.00  0.00     0.074 A 
ATOM     59  C   UNL A   1      48.306  31.038  27.538  1.00  0.00     0.029 A 
ATOM     60  N   UNL A   1      46.789  29.417  27.596  1.00  0.00    -0.354 N 
ATOM     61  N   UNL A   1      45.794  26.698  27.202  1.00  0.00    -0.248 NA
ATOM     62  C   UNL A   1      46.135  24.482  26.556  1.00  0.00     0.031 C 
ATOM     63  C   UNL A   1      48.902  29.858  27.074  1.00  0.00     0.029 A 
ATOM     64  C   UNL A   1      47.957  28.848  27.117  1.00  0.00     0.049 A 
ATOM     65  H   UNL A   1      45.941  28.936  27.730  1.00  0.00     0.167 HD
ATOM     66  C   UNL A   1      47.116  26.537  26.806  1.00  0.00     0.074 A 
ATOM     67  C   UNL A   1      47.275  25.149  26.429  1.00  0.00     0.031 C 
ATOM     68  C   UNL A   1      48.104  27.462  26.755  1.00  0.00     0.037 A 
BRANCH  55  69
ATOM     69  C   UNL A   1      46.348  33.098  28.573  1.00  0.00     0.058 A 
ATOM     70  C   UNL A   1      46.163  34.039  27.545  1.00  0.00     0.135 A 
ATOM     71  C   UNL A   1      46.888  33.536  29.798  1.00  0.00     0.135 A 
ATOM     72  F   UNL A   1      45.666  33.662  26.353  1.00  0.00    -0.206 F 
ATOM     73  C   UNL A   1      46.529  35.372  27.723  1.00  0.00     0.059 A 
ATOM     74  C   UNL A   1      47.248  34.867  29.999  1.00  0.00     0.059 A 
ATOM     75  F   UNL A   1      47.084  32.668  30.806  1.00  0.00    -0.206 F 
ATOM     76  C   UNL A   1      47.083  35.774  28.947  1.00  0.00     0.060 A 
BRANCH  76  77
ATOM     77  S   UNL A   1      47.584  37.497  29.166  1.00  0.00     0.124 S 
ATOM     78  O   UNL A   1      48.732  37.344  30.057  1.00  0.00    -0.237 OA
ATOM     79  O   UNL A   1      47.889  37.913  27.799  1.00  0.00    -0.237 OA
ATOM     80  O   UNL A   1      46.397  38.108  29.758  1.00  0.00    -0.744 OA
ENDBRANCH  76  77
ENDBRANCH  55  69
BRANCH  56  81
ATOM     81  C   UNL A   1      43.363  23.728  27.093  1.00  0.00     0.058 A 
ATOM     82  C   UNL A   1      43.272  22.798  28.143  1.00  0.00     0.135 A 
ATOM     83  C   UNL A   1      42.983  23.320  25.802  1.00  0.00     0.135 A 
ATOM     84  F   UNL A   1      43.631  23.151  29.390  1.00  0.00    -0.206 F 
ATOM     85  C   UNL A   1      42.815  21.502  27.925  1.00  0.00     0.059 A 
ATOM     86  C   UNL A   1      42.513  22.032  25.564  1.00  0.00     0.059 A 
ATOM     87  F   UNL A   1      43.045  24.183  24.774  1.00  0.00    -0.206 F 
ATOM     88  C   UNL A   1      42.436  21.129  26.631  1.00  0.00     0.060 A 
BRANCH  88  89
ATOM     89  S   UNL A   1      41.771  19.469  26.352  1.00  0.00     0.124 S 
ATOM     90  O   UNL A   1      40.348  19.752  26.205  1.00  0.00    -0.237 OA
ATOM     91  O   UNL A   1      42.473  19.056  25.139  1.00  0.00    -0.237 OA
ATOM     92  O   UNL A   1      42.162  18.761  27.568  1.00  0.00    -0.744 OA
ENDBRANCH  88  89
ENDBRANCH  56  81
BRANCH  68  93
ATOM     93  C   UNL A   1      49.450  26.997  26.287  1.00  0.00     0.058 A 
ATOM     94  C   UNL A   1      50.363  26.408  27.176  1.00  0.00     0.135 A 
ATOM     95  C   UNL A   1      49.816  27.114  24.933  1.00  0.00     0.135 A 
ATOM     96  F   UNL A   1      50.058  26.281  28.480  1.00  0.00    -0.206 F 
ATOM     97  C   UNL A   1      51.606  25.955  26.740  1.00  0.00     0.059 A 
ATOM     98  C   UNL A   1      51.049  26.659  24.474  1.00  0.00     0.059 A 
ATOM     99  F   UNL A   1      48.972  27.670  24.046  1.00  0.00    -0.206 F 
ATOM    100  C   UNL A   1      51.942  26.089  25.387  1.00  0.00     0.060 A 
BRANCH 100 101
ATOM    101  S   UNL A   1      53.543  25.473  24.811  1.00  0.00     0.124 S 
ATOM    102  O   UNL A   1      54.462  26.254  25.634  1.00  0.00    -0.237 OA
ATOM    103  O   UNL A   1      53.464  24.048  25.121  1.00  0.00    -0.237 OA
ATOM    104  O   UNL A   1      53.526  25.805  23.389  1.00  0.00    -0.744 OA
ENDBRANCH 100 101
ENDBRANCH  68  93
ENDBRANCH  42  43
ENDBRANCH  34  37
ENDBRANCH  32  33
ENDBRANCH  31  32
ENDBRANCH  30  31
ENDBRANCH   1  30
TORSDOF 19
ENDMDL
