MODEL 1
REMARK VINA RESULT:     -12.2      0.000      0.000
REMARK SMILES Cc1ccc(C)c(NC(=O)/C=C/C(=O)NCCCCCCNC(=O)c2ccc(-c3c4nc(c(-c5c(F)cc(S(=O)(=O)[O-])cc5F)c5ccc([nH]5)c(-c5c(F)cc(S(=O)(=O)[O-])cc5F)c5nc(c(-c6c(F)cc(S(=O)(=O)[O-])cc6F)c6ccc3[nH]6)C=C5)C=C4)cc2)c1
REMARK SMILES IDX 19 1 18 2 17 3 16 4 15 5 13 6 14 7 12 9 11 10 9 11 8 12
REMARK SMILES IDX 10 14 7 15 1 16 2 17 3 18 91 19 4 20 5 21 6 22 20 23 21 24
REMARK SMILES IDX 22 25 23 26 24 28 25 29 26 30 90 31 27 32 89 33 28 34 29 35
REMARK SMILES IDX 30 36 83 37 31 38 88 39 82 40 84 41 32 42 87 43 81 44 80 45
REMARK SMILES IDX 33 47 67 48 46 49 66 50 47 51 50 52 65 53 85 54 48 55 49 56
REMARK SMILES IDX 64 58 86 59 51 60 34 61 35 62 44 63 36 64 37 65 43 66 45 67
REMARK SMILES IDX 38 68 39 69 40 70 41 71 42 72 68 73 69 74 78 75 70 76 71 77
REMARK SMILES IDX 77 78 79 79 72 80 73 81 74 82 75 83 76 84 52 85 53 86 62 87
REMARK SMILES IDX 54 88 55 89 61 90 63 91 56 92 57 93 58 94 59 95 60 96
REMARK H PARENT 15 8 8 13 22 27 84 46 50 57
REMARK Flexibility Score: inf
ROOT
ATOM      1  C   UNL A   1      31.813  28.814  25.470  1.00  0.00     0.002 C 
ENDROOT
BRANCH   1   2
ATOM      2  C   UNL A   1      31.118  27.809  24.542  1.00  0.00     0.002 C 
BRANCH   2   3
ATOM      3  C   UNL A   1      30.151  26.797  25.162  1.00  0.00     0.021 C 
BRANCH   3   4
ATOM      4  C   UNL A   1      30.722  25.412  25.452  1.00  0.00     0.116 C 
BRANCH   4   5
ATOM      5  N   UNL A   1      29.935  24.660  26.410  1.00  0.00    -0.353 N 
ATOM      6  C   UNL A   1      30.009  23.341  26.736  1.00  0.00     0.244 C 
ATOM      7  O   UNL A   1      29.584  22.965  27.827  1.00  0.00    -0.270 OA
ATOM      8  H   UNL A   1      29.251  25.177  26.894  1.00  0.00     0.163 HD
BRANCH   6   9
ATOM      9  C   UNL A   1      30.578  22.343  25.807  1.00  0.00     0.077 C 
ATOM     10  C   UNL A   1      31.781  21.795  26.024  1.00  0.00     0.077 C 
BRANCH  10  11
ATOM     11  C   UNL A   1      32.478  21.043  24.977  1.00  0.00     0.248 C 
ATOM     12  N   UNL A   1      33.361  21.670  24.147  1.00  0.00    -0.322 N 
ATOM     13  H   UNL A   1      33.853  21.050  23.561  1.00  0.00     0.170 HD
ATOM     14  O   UNL A   1      32.227  19.846  24.845  1.00  0.00    -0.270 OA
BRANCH  12  15
ATOM     15  C   UNL A   1      33.717  23.025  23.956  1.00  0.00     0.044 A 
ATOM     16  C   UNL A   1      32.776  25.600  21.288  1.00  0.00     0.044 C 
ATOM     17  C   UNL A   1      33.256  24.996  22.572  1.00  0.00    -0.049 A 
ATOM     18  C   UNL A   1      33.823  25.807  23.550  1.00  0.00     0.004 A 
ATOM     19  C   UNL A   1      33.164  23.618  22.806  1.00  0.00     0.029 A 
ATOM     20  C   UNL A   1      34.463  25.225  24.638  1.00  0.00     0.006 A 
ATOM     21  C   UNL A   1      34.520  23.826  24.780  1.00  0.00    -0.027 A 
ATOM     22  C   UNL A   1      35.634  23.315  25.653  1.00  0.00     0.046 C 
ENDBRANCH  12  15
ENDBRANCH  10  11
ENDBRANCH   6   9
ENDBRANCH   4   5
ENDBRANCH   3   4
ENDBRANCH   2   3
ENDBRANCH   1   2
BRANCH   1  23
ATOM     23  C   UNL A   1      32.796  28.351  26.560  1.00  0.00     0.021 C 
BRANCH  23  24
ATOM     24  C   UNL A   1      34.196  28.956  26.648  1.00  0.00     0.116 C 
BRANCH  24  25
ATOM     25  N   UNL A   1      34.209  30.403  26.867  1.00  0.00    -0.352 N 
ATOM     26  C   UNL A   1      34.982  31.254  27.645  1.00  0.00     0.251 C 
ATOM     27  H   UNL A   1      33.517  30.877  26.350  1.00  0.00     0.163 HD
ATOM     28  O   UNL A   1      34.560  32.374  27.883  1.00  0.00    -0.269 OA
BRANCH  26  29
ATOM     29  C   UNL A   1      36.302  30.836  28.177  1.00  0.00     0.039 A 
ATOM     30  C   UNL A   1      37.149  31.699  28.879  1.00  0.00     0.014 A 
ATOM     31  C   UNL A   1      36.757  29.561  27.902  1.00  0.00     0.014 A 
ATOM     32  C   UNL A   1      38.441  31.259  29.191  1.00  0.00     0.010 A 
ATOM     33  C   UNL A   1      37.845  29.023  28.503  1.00  0.00     0.010 A 
ATOM     34  C   UNL A   1      38.781  29.921  28.943  1.00  0.00    -0.014 A 
BRANCH  34  35
ATOM     35  C   UNL A   1      40.112  29.370  29.095  1.00  0.00     0.031 A 
ATOM     36  C   UNL A   1      40.507  29.160  30.492  1.00  0.00     0.074 A 
ATOM     37  C   UNL A   1      40.809  28.795  28.088  1.00  0.00     0.049 A 
ATOM     38  N   UNL A   1      41.347  29.856  31.176  1.00  0.00    -0.248 NA
ATOM     39  C   UNL A   1      39.765  28.153  31.264  1.00  0.00     0.031 C 
ATOM     40  C   UNL A   1      40.390  28.525  26.703  1.00  0.00     0.029 A 
ATOM     41  N   UNL A   1      42.039  28.219  28.143  1.00  0.00    -0.354 N 
ATOM     42  C   UNL A   1      41.418  29.221  32.403  1.00  0.00     0.074 A 
ATOM     43  C   UNL A   1      40.281  28.336  32.479  1.00  0.00     0.031 C 
ATOM     44  C   UNL A   1      41.269  27.677  26.121  1.00  0.00     0.029 A 
ATOM     45  C   UNL A   1      42.386  27.473  27.025  1.00  0.00     0.049 A 
ATOM     46  H   UNL A   1      42.639  28.323  28.917  1.00  0.00     0.167 HD
ATOM     47  C   UNL A   1      42.550  29.262  33.154  1.00  0.00     0.037 A 
ATOM     48  C   UNL A   1      43.503  26.718  26.876  1.00  0.00     0.037 A 
ATOM     49  C   UNL A   1      43.486  30.244  32.667  1.00  0.00     0.049 A 
ATOM     50  C   UNL A   1      44.497  27.214  27.866  1.00  0.00     0.074 A 
ATOM     51  C   UNL A   1      43.422  31.605  32.433  1.00  0.00     0.029 A 
ATOM     52  N   UNL A   1      44.563  29.793  31.942  1.00  0.00    -0.354 N 
ATOM     53  N   UNL A   1      45.041  28.400  27.830  1.00  0.00    -0.248 NA
ATOM     54  C   UNL A   1      44.578  26.538  29.153  1.00  0.00     0.031 C 
ATOM     55  C   UNL A   1      44.157  31.813  31.228  1.00  0.00     0.029 A 
ATOM     56  C   UNL A   1      44.673  30.581  30.821  1.00  0.00     0.049 A 
ATOM     57  H   UNL A   1      45.152  29.040  32.181  1.00  0.00     0.167 HD
ATOM     58  C   UNL A   1      45.149  28.788  29.158  1.00  0.00     0.074 A 
ATOM     59  C   UNL A   1      44.958  27.560  29.924  1.00  0.00     0.031 C 
ATOM     60  C   UNL A   1      45.107  30.106  29.521  1.00  0.00     0.037 A 
BRANCH  47  61
ATOM     61  C   UNL A   1      42.925  28.163  34.099  1.00  0.00     0.058 A 
ATOM     62  C   UNL A   1      43.057  28.435  35.469  1.00  0.00     0.135 A 
ATOM     63  C   UNL A   1      43.366  26.891  33.668  1.00  0.00     0.135 A 
ATOM     64  F   UNL A   1      42.705  29.633  35.963  1.00  0.00    -0.206 F 
ATOM     65  C   UNL A   1      43.608  27.508  36.353  1.00  0.00     0.059 A 
ATOM     66  C   UNL A   1      43.856  25.929  34.538  1.00  0.00     0.059 A 
ATOM     67  F   UNL A   1      43.427  26.567  32.368  1.00  0.00    -0.206 F 
ATOM     68  C   UNL A   1      44.007  26.261  35.875  1.00  0.00     0.060 A 
BRANCH  68  69
ATOM     69  S   UNL A   1      44.794  25.092  36.995  1.00  0.00     0.124 S 
ATOM     70  O   UNL A   1      46.196  25.472  36.864  1.00  0.00    -0.237 OA
ATOM     71  O   UNL A   1      44.158  25.413  38.269  1.00  0.00    -0.237 OA
ATOM     72  O   UNL A   1      44.433  23.795  36.431  1.00  0.00    -0.744 OA
ENDBRANCH  68  69
ENDBRANCH  47  61
BRANCH  48  73
ATOM     73  C   UNL A   1      43.659  25.427  26.156  1.00  0.00     0.058 A 
ATOM     74  C   UNL A   1      44.752  25.194  25.303  1.00  0.00     0.135 A 
ATOM     75  C   UNL A   1      42.892  24.297  26.507  1.00  0.00     0.135 A 
ATOM     76  F   UNL A   1      45.547  26.209  24.933  1.00  0.00    -0.206 F 
ATOM     77  C   UNL A   1      45.098  23.909  24.868  1.00  0.00     0.059 A 
ATOM     78  C   UNL A   1      43.212  23.010  26.078  1.00  0.00     0.059 A 
ATOM     79  F   UNL A   1      41.857  24.400  27.355  1.00  0.00    -0.206 F 
ATOM     80  C   UNL A   1      44.332  22.819  25.279  1.00  0.00     0.060 A 
BRANCH  80  81
ATOM     81  S   UNL A   1      44.878  21.144  24.869  1.00  0.00     0.124 S 
ATOM     82  O   UNL A   1      43.995  20.329  25.695  1.00  0.00    -0.237 OA
ATOM     83  O   UNL A   1      44.639  21.086  23.431  1.00  0.00    -0.237 OA
ATOM     84  O   UNL A   1      46.284  21.139  25.265  1.00  0.00    -0.744 OA
ENDBRANCH  80  81
ENDBRANCH  48  73
BRANCH  60  85
ATOM     85  C   UNL A   1      45.290  31.145  28.438  1.00  0.00     0.058 A 
ATOM     86  C   UNL A   1      44.261  31.617  27.604  1.00  0.00     0.135 A 
ATOM     87  C   UNL A   1      46.534  31.787  28.336  1.00  0.00     0.135 A 
ATOM     88  F   UNL A   1      43.015  31.135  27.704  1.00  0.00    -0.206 F 
ATOM     89  C   UNL A   1      44.471  32.645  26.681  1.00  0.00     0.059 A 
ATOM     90  C   UNL A   1      46.758  32.836  27.446  1.00  0.00     0.059 A 
ATOM     91  F   UNL A   1      47.545  31.426  29.144  1.00  0.00    -0.206 F 
ATOM     92  C   UNL A   1      45.724  33.251  26.610  1.00  0.00     0.060 A 
BRANCH  92  93
ATOM     93  S   UNL A   1      45.970  34.633  25.473  1.00  0.00     0.124 S 
ATOM     94  O   UNL A   1      45.531  35.772  26.275  1.00  0.00    -0.237 OA
ATOM     95  O   UNL A   1      47.402  34.568  25.196  1.00  0.00    -0.237 OA
ATOM     96  O   UNL A   1      45.110  34.300  24.340  1.00  0.00    -0.744 OA
ENDBRANCH  92  93
ENDBRANCH  60  85
ENDBRANCH  34  35
ENDBRANCH  26  29
ENDBRANCH  24  25
ENDBRANCH  23  24
ENDBRANCH   1  23
TORSDOF 18
ENDMDL
MODEL 2
REMARK VINA RESULT:     -12.1      2.928      9.281
REMARK SMILES Cc1ccc(C)c(NC(=O)/C=C/C(=O)NCCCCCCNC(=O)c2ccc(-c3c4nc(c(-c5c(F)cc(S(=O)(=O)[O-])cc5F)c5ccc([nH]5)c(-c5c(F)cc(S(=O)(=O)[O-])cc5F)c5nc(c(-c6c(F)cc(S(=O)(=O)[O-])cc6F)c6ccc3[nH]6)C=C5)C=C4)cc2)c1
REMARK SMILES IDX 19 1 18 2 17 3 16 4 15 5 13 6 14 7 12 9 11 10 9 11 8 12
REMARK SMILES IDX 10 14 7 15 1 16 2 17 3 18 91 19 4 20 5 21 6 22 20 23 21 24
REMARK SMILES IDX 22 25 23 26 24 28 25 29 26 30 90 31 27 32 89 33 28 34 29 35
REMARK SMILES IDX 30 36 83 37 31 38 88 39 82 40 84 41 32 42 87 43 81 44 80 45
REMARK SMILES IDX 33 47 67 48 46 49 66 50 47 51 50 52 65 53 85 54 48 55 49 56
REMARK SMILES IDX 64 58 86 59 51 60 34 61 35 62 44 63 36 64 37 65 43 66 45 67
REMARK SMILES IDX 38 68 39 69 40 70 41 71 42 72 68 73 69 74 78 75 70 76 71 77
REMARK SMILES IDX 77 78 79 79 72 80 73 81 74 82 75 83 76 84 52 85 53 86 62 87
REMARK SMILES IDX 54 88 55 89 61 90 63 91 56 92 57 93 58 94 59 95 60 96
REMARK H PARENT 15 8 8 13 22 27 84 46 50 57
REMARK Flexibility Score: inf
ROOT
ATOM      1  C   UNL A   1      35.558  23.701  24.152  1.00  0.00     0.002 C 
ENDROOT
BRANCH   1   2
ATOM      2  C   UNL A   1      34.848  22.926  23.035  1.00  0.00     0.002 C 
BRANCH   2   3
ATOM      3  C   UNL A   1      33.440  22.388  23.305  1.00  0.00     0.021 C 
BRANCH   3   4
ATOM      4  C   UNL A   1      32.291  23.360  23.057  1.00  0.00     0.116 C 
BRANCH   4   5
ATOM      5  N   UNL A   1      32.454  24.137  21.844  1.00  0.00    -0.353 N 
ATOM      6  C   UNL A   1      32.804  25.444  21.701  1.00  0.00     0.244 C 
ATOM      7  O   UNL A   1      33.297  25.824  20.640  1.00  0.00    -0.270 OA
ATOM      8  H   UNL A   1      32.288  23.650  21.004  1.00  0.00     0.163 HD
BRANCH   6   9
ATOM      9  C   UNL A   1      32.597  26.426  22.786  1.00  0.00     0.077 C 
ATOM     10  C   UNL A   1      33.600  26.797  23.591  1.00  0.00     0.077 C 
BRANCH  10  11
ATOM     11  C   UNL A   1      33.352  27.527  24.836  1.00  0.00     0.248 C 
ATOM     12  N   UNL A   1      32.798  26.894  25.910  1.00  0.00    -0.322 N 
ATOM     13  H   UNL A   1      32.781  27.447  26.725  1.00  0.00     0.170 HD
ATOM     14  O   UNL A   1      33.624  28.726  24.881  1.00  0.00    -0.270 OA
BRANCH  12  15
ATOM     15  C   UNL A   1      32.243  25.606  26.096  1.00  0.00     0.044 A 
ATOM     16  C   UNL A   1      33.770  22.246  27.103  1.00  0.00     0.044 C 
ATOM     17  C   UNL A   1      32.771  23.334  26.853  1.00  0.00    -0.049 A 
ATOM     18  C   UNL A   1      31.412  23.077  27.008  1.00  0.00     0.004 A 
ATOM     19  C   UNL A   1      33.175  24.612  26.446  1.00  0.00     0.029 A 
ATOM     20  C   UNL A   1      30.482  24.012  26.568  1.00  0.00     0.006 A 
ATOM     21  C   UNL A   1      30.897  25.229  25.996  1.00  0.00    -0.027 A 
ATOM     22  C   UNL A   1      29.881  25.900  25.110  1.00  0.00     0.046 C 
ENDBRANCH  12  15
ENDBRANCH  10  11
ENDBRANCH   6   9
ENDBRANCH   4   5
ENDBRANCH   3   4
ENDBRANCH   2   3
ENDBRANCH   1   2
BRANCH   1  23
ATOM     23  C   UNL A   1      37.012  23.388  24.547  1.00  0.00     0.021 C 
BRANCH  23  24
ATOM     24  C   UNL A   1      37.318  22.623  25.834  1.00  0.00     0.116 C 
BRANCH  24  25
ATOM     25  N   UNL A   1      38.689  22.114  25.913  1.00  0.00    -0.352 N 
ATOM     26  C   UNL A   1      39.905  22.673  26.281  1.00  0.00     0.251 C 
ATOM     27  H   UNL A   1      38.764  21.169  25.648  1.00  0.00     0.163 HD
ATOM     28  O   UNL A   1      40.933  22.111  25.939  1.00  0.00    -0.269 OA
BRANCH  26  29
ATOM     29  C   UNL A   1      39.977  23.921  27.079  1.00  0.00     0.039 A 
ATOM     30  C   UNL A   1      38.993  24.913  27.034  1.00  0.00     0.014 A 
ATOM     31  C   UNL A   1      41.104  24.158  27.842  1.00  0.00     0.014 A 
ATOM     32  C   UNL A   1      39.236  26.125  27.692  1.00  0.00     0.010 A 
ATOM     33  C   UNL A   1      41.179  25.161  28.750  1.00  0.00     0.010 A 
ATOM     34  C   UNL A   1      40.371  26.239  28.508  1.00  0.00    -0.014 A 
BRANCH  34  35
ATOM     35  C   UNL A   1      40.810  27.468  29.137  1.00  0.00     0.031 A 
ATOM     36  C   UNL A   1      41.987  28.068  28.498  1.00  0.00     0.074 A 
ATOM     37  C   UNL A   1      40.057  28.183  30.003  1.00  0.00     0.049 A 
ATOM     38  N   UNL A   1      43.192  28.088  28.950  1.00  0.00    -0.248 NA
ATOM     39  C   UNL A   1      41.833  28.569  27.125  1.00  0.00     0.031 C 
ATOM     40  C   UNL A   1      38.666  27.958  30.431  1.00  0.00     0.029 A 
ATOM     41  N   UNL A   1      40.366  29.360  30.609  1.00  0.00    -0.354 N 
ATOM     42  C   UNL A   1      43.908  28.821  28.020  1.00  0.00     0.074 A 
ATOM     43  C   UNL A   1      43.092  28.895  26.833  1.00  0.00     0.031 C 
ATOM     44  C   UNL A   1      38.202  29.060  31.064  1.00  0.00     0.029 A 
ATOM     45  C   UNL A   1      39.299  29.997  31.229  1.00  0.00     0.049 A 
ATOM     46  H   UNL A   1      41.277  29.732  30.608  1.00  0.00     0.167 HD
ATOM     47  C   UNL A   1      44.999  29.545  28.382  1.00  0.00     0.037 A 
ATOM     48  C   UNL A   1      39.321  31.223  31.808  1.00  0.00     0.037 A 
ATOM     49  C   UNL A   1      45.449  29.218  29.711  1.00  0.00     0.049 A 
ATOM     50  C   UNL A   1      40.744  31.537  32.107  1.00  0.00     0.074 A 
ATOM     51  C   UNL A   1      45.842  28.049  30.336  1.00  0.00     0.029 A 
ATOM     52  N   UNL A   1      45.133  30.092  30.725  1.00  0.00    -0.354 N 
ATOM     53  N   UNL A   1      41.474  30.886  32.972  1.00  0.00    -0.248 NA
ATOM     54  C   UNL A   1      41.493  32.317  31.132  1.00  0.00     0.031 C 
ATOM     55  C   UNL A   1      45.296  28.125  31.652  1.00  0.00     0.029 A 
ATOM     56  C   UNL A   1      44.646  29.354  31.778  1.00  0.00     0.049 A 
ATOM     57  H   UNL A   1      45.237  31.071  30.701  1.00  0.00     0.167 HD
ATOM     58  C   UNL A   1      42.740  30.830  32.406  1.00  0.00     0.074 A 
ATOM     59  C   UNL A   1      42.716  31.823  31.337  1.00  0.00     0.031 C 
ATOM     60  C   UNL A   1      43.594  29.796  32.673  1.00  0.00     0.037 A 
BRANCH  47  61
ATOM     61  C   UNL A   1      45.415  30.785  27.653  1.00  0.00     0.058 A 
ATOM     62  C   UNL A   1      46.716  30.888  27.136  1.00  0.00     0.135 A 
ATOM     63  C   UNL A   1      44.638  31.966  27.632  1.00  0.00     0.135 A 
ATOM     64  F   UNL A   1      47.542  29.830  27.155  1.00  0.00    -0.206 F 
ATOM     65  C   UNL A   1      47.217  32.091  26.642  1.00  0.00     0.059 A 
ATOM     66  C   UNL A   1      45.092  33.157  27.086  1.00  0.00     0.059 A 
ATOM     67  F   UNL A   1      43.438  32.033  28.226  1.00  0.00    -0.206 F 
ATOM     68  C   UNL A   1      46.398  33.219  26.627  1.00  0.00     0.060 A 
BRANCH  68  69
ATOM     69  S   UNL A   1      47.067  34.794  26.068  1.00  0.00     0.124 S 
ATOM     70  O   UNL A   1      45.890  35.403  25.459  1.00  0.00    -0.237 OA
ATOM     71  O   UNL A   1      47.525  35.393  27.317  1.00  0.00    -0.237 OA
ATOM     72  O   UNL A   1      48.126  34.398  25.145  1.00  0.00    -0.744 OA
ENDBRANCH  68  69
ENDBRANCH  47  61
BRANCH  48  73
ATOM     73  C   UNL A   1      38.245  32.248  31.844  1.00  0.00     0.058 A 
ATOM     74  C   UNL A   1      37.630  32.703  30.664  1.00  0.00     0.135 A 
ATOM     75  C   UNL A   1      37.604  32.593  33.051  1.00  0.00     0.135 A 
ATOM     76  F   UNL A   1      38.161  32.406  29.468  1.00  0.00    -0.206 F 
ATOM     77  C   UNL A   1      36.424  33.413  30.677  1.00  0.00     0.059 A 
ATOM     78  C   UNL A   1      36.406  33.305  33.090  1.00  0.00     0.059 A 
ATOM     79  F   UNL A   1      38.078  32.166  34.233  1.00  0.00    -0.206 F 
ATOM     80  C   UNL A   1      35.808  33.690  31.897  1.00  0.00     0.060 A 
BRANCH  80  81
ATOM     81  S   UNL A   1      34.163  34.445  31.911  1.00  0.00     0.124 S 
ATOM     82  O   UNL A   1      33.758  34.309  30.516  1.00  0.00    -0.237 OA
ATOM     83  O   UNL A   1      33.448  33.608  32.867  1.00  0.00    -0.237 OA
ATOM     84  O   UNL A   1      34.422  35.813  32.355  1.00  0.00    -0.744 OA
ENDBRANCH  80  81
ENDBRANCH  48  73
BRANCH  60  85
ATOM     85  C   UNL A   1      43.279  28.903  33.852  1.00  0.00     0.058 A 
ATOM     86  C   UNL A   1      42.425  27.787  33.802  1.00  0.00     0.135 A 
ATOM     87  C   UNL A   1      43.982  29.111  35.049  1.00  0.00     0.135 A 
ATOM     88  F   UNL A   1      41.793  27.452  32.670  1.00  0.00    -0.206 F 
ATOM     89  C   UNL A   1      42.244  26.946  34.903  1.00  0.00     0.059 A 
ATOM     90  C   UNL A   1      43.842  28.266  36.149  1.00  0.00     0.059 A 
ATOM     91  F   UNL A   1      44.860  30.124  35.147  1.00  0.00    -0.206 F 
ATOM     92  C   UNL A   1      42.958  27.193  36.073  1.00  0.00     0.060 A 
BRANCH  92  93
ATOM     93  S   UNL A   1      42.783  26.057  37.467  1.00  0.00     0.124 S 
ATOM     94  O   UNL A   1      41.357  26.155  37.766  1.00  0.00    -0.237 OA
ATOM     95  O   UNL A   1      43.224  24.785  36.901  1.00  0.00    -0.237 OA
ATOM     96  O   UNL A   1      43.672  26.619  38.480  1.00  0.00    -0.744 OA
ENDBRANCH  92  93
ENDBRANCH  60  85
ENDBRANCH  34  35
ENDBRANCH  26  29
ENDBRANCH  24  25
ENDBRANCH  23  24
ENDBRANCH   1  23
TORSDOF 18
ENDMDL
MODEL 3
REMARK VINA RESULT:     -12.1      2.851      9.476
REMARK SMILES Cc1ccc(C)c(NC(=O)/C=C/C(=O)NCCCCCCNC(=O)c2ccc(-c3c4nc(c(-c5c(F)cc(S(=O)(=O)[O-])cc5F)c5ccc([nH]5)c(-c5c(F)cc(S(=O)(=O)[O-])cc5F)c5nc(c(-c6c(F)cc(S(=O)(=O)[O-])cc6F)c6ccc3[nH]6)C=C5)C=C4)cc2)c1
REMARK SMILES IDX 19 1 18 2 17 3 16 4 15 5 13 6 14 7 12 9 11 10 9 11 8 12
REMARK SMILES IDX 10 14 7 15 1 16 2 17 3 18 91 19 4 20 5 21 6 22 20 23 21 24
REMARK SMILES IDX 22 25 23 26 24 28 25 29 26 30 90 31 27 32 89 33 28 34 29 35
REMARK SMILES IDX 30 36 83 37 31 38 88 39 82 40 84 41 32 42 87 43 81 44 80 45
REMARK SMILES IDX 33 47 67 48 46 49 66 50 47 51 50 52 65 53 85 54 48 55 49 56
REMARK SMILES IDX 64 58 86 59 51 60 34 61 35 62 44 63 36 64 37 65 43 66 45 67
REMARK SMILES IDX 38 68 39 69 40 70 41 71 42 72 68 73 69 74 78 75 70 76 71 77
REMARK SMILES IDX 77 78 79 79 72 80 73 81 74 82 75 83 76 84 52 85 53 86 62 87
REMARK SMILES IDX 54 88 55 89 61 90 63 91 56 92 57 93 58 94 59 95 60 96
REMARK H PARENT 15 8 8 13 22 27 84 46 50 57
REMARK Flexibility Score: inf
ROOT
ATOM      1  C   UNL A   1      38.067  23.427  26.124  1.00  0.00     0.002 C 
ENDROOT
BRANCH   1   2
ATOM      2  C   UNL A   1      36.587  23.532  25.734  1.00  0.00     0.002 C 
BRANCH   2   3
ATOM      3  C   UNL A   1      35.569  22.696  26.514  1.00  0.00     0.021 C 
BRANCH   3   4
ATOM      4  C   UNL A   1      34.974  21.500  25.776  1.00  0.00     0.116 C 
BRANCH   4   5
ATOM      5  N   UNL A   1      34.593  21.806  24.411  1.00  0.00    -0.353 N 
ATOM      6  C   UNL A   1      33.596  22.614  23.958  1.00  0.00     0.244 C 
ATOM      7  O   UNL A   1      33.671  23.086  22.825  1.00  0.00    -0.270 OA
ATOM      8  H   UNL A   1      35.131  21.368  23.713  1.00  0.00     0.163 HD
BRANCH   6   9
ATOM      9  C   UNL A   1      32.416  22.931  24.789  1.00  0.00     0.077 C 
ATOM     10  C   UNL A   1      32.352  24.059  25.507  1.00  0.00     0.077 C 
BRANCH  10  11
ATOM     11  C   UNL A   1      31.341  24.245  26.551  1.00  0.00     0.248 C 
ATOM     12  N   UNL A   1      30.665  25.426  26.657  1.00  0.00    -0.322 N 
ATOM     13  H   UNL A   1      29.934  25.400  27.316  1.00  0.00     0.170 HD
ATOM     14  O   UNL A   1      31.137  23.327  27.344  1.00  0.00    -0.270 OA
BRANCH  12  15
ATOM     15  C   UNL A   1      30.798  26.679  26.015  1.00  0.00     0.044 A 
ATOM     16  C   UNL A   1      32.417  29.978  27.078  1.00  0.00     0.044 C 
ATOM     17  C   UNL A   1      31.835  28.891  26.228  1.00  0.00    -0.049 A 
ATOM     18  C   UNL A   1      31.652  29.101  24.864  1.00  0.00     0.004 A 
ATOM     19  C   UNL A   1      31.451  27.662  26.780  1.00  0.00     0.029 A 
ATOM     20  C   UNL A   1      30.917  28.184  24.122  1.00  0.00     0.006 A 
ATOM     21  C   UNL A   1      30.381  27.030  24.723  1.00  0.00    -0.027 A 
ATOM     22  C   UNL A   1      29.214  26.413  24.000  1.00  0.00     0.046 C 
ENDBRANCH  12  15
ENDBRANCH  10  11
ENDBRANCH   6   9
ENDBRANCH   4   5
ENDBRANCH   3   4
ENDBRANCH   2   3
ENDBRANCH   1   2
BRANCH   1  23
ATOM     23  C   UNL A   1      38.889  22.163  25.816  1.00  0.00     0.021 C 
BRANCH  23  24
ATOM     24  C   UNL A   1      40.140  21.835  26.631  1.00  0.00     0.116 C 
BRANCH  24  25
ATOM     25  N   UNL A   1      41.393  22.227  25.984  1.00  0.00    -0.352 N 
ATOM     26  C   UNL A   1      42.017  23.443  25.747  1.00  0.00     0.251 C 
ATOM     27  H   UNL A   1      41.905  21.459  25.641  1.00  0.00     0.163 HD
ATOM     28  O   UNL A   1      42.893  23.496  24.899  1.00  0.00    -0.269 OA
BRANCH  26  29
ATOM     29  C   UNL A   1      41.649  24.665  26.503  1.00  0.00     0.039 A 
ATOM     30  C   UNL A   1      40.890  25.703  25.953  1.00  0.00     0.014 A 
ATOM     31  C   UNL A   1      42.144  24.830  27.783  1.00  0.00     0.014 A 
ATOM     32  C   UNL A   1      40.741  26.884  26.689  1.00  0.00     0.010 A 
ATOM     33  C   UNL A   1      41.710  25.804  28.618  1.00  0.00     0.010 A 
ATOM     34  C   UNL A   1      41.209  26.924  28.011  1.00  0.00    -0.014 A 
BRANCH  34  35
ATOM     35  C   UNL A   1      41.238  28.115  28.836  1.00  0.00     0.031 A 
ATOM     36  C   UNL A   1      42.346  29.023  28.519  1.00  0.00     0.074 A 
ATOM     37  C   UNL A   1      40.198  28.534  29.592  1.00  0.00     0.049 A 
ATOM     38  N   UNL A   1      43.413  29.221  29.212  1.00  0.00    -0.248 NA
ATOM     39  C   UNL A   1      42.335  29.673  27.201  1.00  0.00     0.031 C 
ATOM     40  C   UNL A   1      38.839  27.976  29.696  1.00  0.00     0.029 A 
ATOM     41  N   UNL A   1      40.119  29.651  30.363  1.00  0.00    -0.354 N 
ATOM     42  C   UNL A   1      44.102  30.207  28.529  1.00  0.00     0.074 A 
ATOM     43  C   UNL A   1      43.520  30.283  27.211  1.00  0.00     0.031 C 
ATOM     44  C   UNL A   1      38.032  28.861  30.325  1.00  0.00     0.029 A 
ATOM     45  C   UNL A   1      38.841  29.966  30.807  1.00  0.00     0.049 A 
ATOM     46  H   UNL A   1      40.907  30.195  30.589  1.00  0.00     0.167 HD
ATOM     47  C   UNL A   1      44.917  31.078  29.180  1.00  0.00     0.037 A 
ATOM     48  C   UNL A   1      38.481  31.077  31.496  1.00  0.00     0.037 A 
ATOM     49  C   UNL A   1      45.179  30.663  30.535  1.00  0.00     0.049 A 
ATOM     50  C   UNL A   1      39.717  31.625  32.115  1.00  0.00     0.074 A 
ATOM     51  C   UNL A   1      45.705  29.520  31.109  1.00  0.00     0.029 A 
ATOM     52  N   UNL A   1      44.496  31.303  31.542  1.00  0.00    -0.354 N 
ATOM     53  N   UNL A   1      40.405  31.018  33.044  1.00  0.00    -0.248 NA
ATOM     54  C   UNL A   1      40.436  32.670  31.400  1.00  0.00     0.031 C 
ATOM     55  C   UNL A   1      44.926  29.297  32.283  1.00  0.00     0.029 A 
ATOM     56  C   UNL A   1      44.004  30.341  32.392  1.00  0.00     0.049 A 
ATOM     57  H   UNL A   1      44.379  32.276  31.638  1.00  0.00     0.167 HD
ATOM     58  C   UNL A   1      41.732  31.299  32.752  1.00  0.00     0.074 A 
ATOM     59  C   UNL A   1      41.681  32.408  31.805  1.00  0.00     0.031 C 
ATOM     60  C   UNL A   1      42.734  30.430  33.087  1.00  0.00     0.037 A 
BRANCH  47  61
ATOM     61  C   UNL A   1      45.169  32.466  28.680  1.00  0.00     0.058 A 
ATOM     62  C   UNL A   1      46.484  32.898  28.451  1.00  0.00     0.135 A 
ATOM     63  C   UNL A   1      44.165  33.460  28.621  1.00  0.00     0.135 A 
ATOM     64  F   UNL A   1      47.508  32.034  28.531  1.00  0.00    -0.206 F 
ATOM     65  C   UNL A   1      46.785  34.235  28.195  1.00  0.00     0.059 A 
ATOM     66  C   UNL A   1      44.432  34.782  28.303  1.00  0.00     0.059 A 
ATOM     67  F   UNL A   1      42.894  33.202  28.963  1.00  0.00    -0.206 F 
ATOM     68  C   UNL A   1      45.751  35.168  28.127  1.00  0.00     0.060 A 
BRANCH  68  69
ATOM     69  S   UNL A   1      46.140  36.907  27.878  1.00  0.00     0.124 S 
ATOM     70  O   UNL A   1      45.476  37.169  26.607  1.00  0.00    -0.237 OA
ATOM     71  O   UNL A   1      45.539  37.527  29.055  1.00  0.00    -0.237 OA
ATOM     72  O   UNL A   1      47.599  36.922  27.847  1.00  0.00    -0.744 OA
ENDBRANCH  68  69
ENDBRANCH  47  61
BRANCH  48  73
ATOM     73  C   UNL A   1      37.213  31.848  31.408  1.00  0.00     0.058 A 
ATOM     74  C   UNL A   1      36.347  31.957  32.510  1.00  0.00     0.135 A 
ATOM     75  C   UNL A   1      36.965  32.727  30.334  1.00  0.00     0.135 A 
ATOM     76  F   UNL A   1      36.521  31.173  33.586  1.00  0.00    -0.206 F 
ATOM     77  C   UNL A   1      35.328  32.915  32.567  1.00  0.00     0.059 A 
ATOM     78  C   UNL A   1      35.951  33.683  30.364  1.00  0.00     0.059 A 
ATOM     79  F   UNL A   1      37.762  32.742  29.254  1.00  0.00    -0.206 F 
ATOM     80  C   UNL A   1      35.152  33.789  31.496  1.00  0.00     0.060 A 
BRANCH  80  81
ATOM     81  S   UNL A   1      33.959  35.142  31.639  1.00  0.00     0.124 S 
ATOM     82  O   UNL A   1      33.687  35.453  30.240  1.00  0.00    -0.237 OA
ATOM     83  O   UNL A   1      32.868  34.514  32.376  1.00  0.00    -0.237 OA
ATOM     84  O   UNL A   1      34.695  36.167  32.374  1.00  0.00    -0.744 OA
ENDBRANCH  80  81
ENDBRANCH  48  73
BRANCH  60  85
ATOM     85  C   UNL A   1      42.419  29.335  34.081  1.00  0.00     0.058 A 
ATOM     86  C   UNL A   1      41.900  28.073  33.739  1.00  0.00     0.135 A 
ATOM     87  C   UNL A   1      42.788  29.527  35.421  1.00  0.00     0.135 A 
ATOM     88  F   UNL A   1      41.617  27.765  32.467  1.00  0.00    -0.206 F 
ATOM     89  C   UNL A   1      41.715  27.068  34.692  1.00  0.00     0.059 A 
ATOM     90  C   UNL A   1      42.643  28.528  36.383  1.00  0.00     0.059 A 
ATOM     91  F   UNL A   1      43.346  30.688  35.806  1.00  0.00    -0.206 F 
ATOM     92  C   UNL A   1      42.091  27.304  36.013  1.00  0.00     0.060 A 
BRANCH  92  93
ATOM     93  S   UNL A   1      41.924  25.975  37.226  1.00  0.00     0.124 S 
ATOM     94  O   UNL A   1      42.897  26.364  38.242  1.00  0.00    -0.237 OA
ATOM     95  O   UNL A   1      40.522  26.076  37.620  1.00  0.00    -0.237 OA
ATOM     96  O   UNL A   1      42.263  24.775  36.466  1.00  0.00    -0.744 OA
ENDBRANCH  92  93
ENDBRANCH  60  85
ENDBRANCH  34  35
ENDBRANCH  26  29
ENDBRANCH  24  25
ENDBRANCH  23  24
ENDBRANCH   1  23
TORSDOF 18
ENDMDL
