MODEL 1
REMARK VINA RESULT:     -11.5      0.000      0.000
REMARK SMILES COc1ccc(-n2ccnc2C[N@@H+]2CCn3nc(C(=O)NCCCCCCNC(=O)c4ccc(-c5c6nc(c(-c7c(F)cc(S(=O)(=O)[O-])cc7F)c7ccc([nH]7)c(-c7c(F)cc(S(=O)(=O)[O-])cc7F)c7nc(c(-c8c(F)cc(S(=O)(=O)[O-])cc8F)c8ccc5[nH]8)C=C7)C=C6)cc4)cc3C2)cc1
REMARK SMILES IDX 24 1 23 2 22 3 21 4 19 5 20 6 18 8 13 9 14 10 99 11 15 13
REMARK SMILES IDX 98 14 16 15 97 16 17 17 12 18 11 19 7 20 8 21 9 22 10 23
REMARK SMILES IDX 6 24 3 25 4 26 101 27 5 28 100 29 2 30 1 31 25 32 26 33
REMARK SMILES IDX 27 34 28 35 29 36 30 38 31 39 32 40 96 41 33 42 95 43 34 44
REMARK SMILES IDX 35 45 36 46 89 47 37 48 94 49 88 50 90 51 38 52 93 53 87 54
REMARK SMILES IDX 86 55 39 57 73 58 52 59 72 60 53 61 56 62 71 63 91 64 54 65
REMARK SMILES IDX 55 66 70 68 92 69 57 70 40 71 41 72 50 73 42 74 43 75 49 76
REMARK SMILES IDX 51 77 44 78 45 79 46 80 47 81 48 82 74 83 75 84 84 85 76 86
REMARK SMILES IDX 77 87 83 88 85 89 78 90 79 91 80 92 81 93 82 94 58 95 59 96
REMARK SMILES IDX 68 97 60 98 61 99 67 100 69 101 62 102 63 103 64 104 65 105
REMARK SMILES IDX 66 106
REMARK H PARENT 21 7 13 12 28 37 90 56 56 67
REMARK Flexibility Score: inf
ROOT
ATOM      1  C   UNL A   1      36.492  31.069  29.630  1.00  0.00     0.002 C 
ENDROOT
BRANCH   1   2
ATOM      2  C   UNL A   1      36.062  29.698  29.106  1.00  0.00     0.021 C 
BRANCH   2   3
ATOM      3  C   UNL A   1      35.510  29.667  27.687  1.00  0.00     0.116 C 
BRANCH   3   4
ATOM      4  N   UNL A   1      34.056  29.551  27.602  1.00  0.00    -0.351 N 
ATOM      5  C   UNL A   1      33.233  30.140  26.460  1.00  0.00     0.271 C 
ATOM      6  O   UNL A   1      33.167  31.308  27.023  1.00  0.00    -0.267 OA
ATOM      7  H   UNL A   1      33.583  29.069  28.317  1.00  0.00     0.163 HD
BRANCH   5   8
ATOM      8  C   UNL A   1      32.389  29.335  24.732  1.00  0.00     0.150 A 
ATOM      9  N   UNL A   1      31.852  25.434  23.841  1.00  0.00    -0.322 N 
ATOM     10  C   UNL A   1      33.127  25.697  23.113  1.00  0.00     0.286 C 
ATOM     11  C   UNL A   1      30.745  26.287  23.360  1.00  0.00     0.319 C 
ATOM     12  H   UNL A   1      31.675  24.461  23.593  1.00  0.00     0.348 HD
ATOM     13  C   UNL A   1      33.195  27.001  22.283  1.00  0.00     0.206 C 
ATOM     14  C   UNL A   1      31.200  27.691  23.477  1.00  0.00     0.094 A 
ATOM     15  N   UNL A   1      32.400  28.011  22.954  1.00  0.00    -0.257 N 
ATOM     16  C   UNL A   1      30.926  28.706  24.355  1.00  0.00     0.065 A 
ATOM     17  N   UNL A   1      32.944  29.130  23.429  1.00  0.00    -0.167 NA
BRANCH   9  18
ATOM     18  C   UNL A   1      31.896  25.409  25.334  1.00  0.00     0.339 C 
BRANCH  18  19
ATOM     19  C   UNL A   1      30.954  24.531  26.109  1.00  0.00     0.168 A 
ATOM     20  N   UNL A   1      31.155  23.196  26.430  1.00  0.00    -0.299 N 
ATOM     21  C   UNL A   1      29.981  22.733  26.967  1.00  0.00     0.113 A 
ATOM     22  C   UNL A   1      29.152  23.823  27.055  1.00  0.00     0.132 A 
ATOM     23  N   UNL A   1      29.764  24.929  26.533  1.00  0.00    -0.236 NA
BRANCH  20  24
ATOM     24  C   UNL A   1      32.250  22.364  26.143  1.00  0.00     0.047 A 
ATOM     25  C   UNL A   1      35.069  20.322  25.045  1.00  0.00     0.119 A 
ATOM     26  C   UNL A   1      35.321  21.575  26.345  1.00  0.00     0.048 A 
ATOM     27  C   UNL A   1      33.429  20.080  24.298  1.00  0.00     0.048 A 
ATOM     28  C   UNL A   1      33.884  22.607  26.908  1.00  0.00     0.030 A 
ATOM     29  C   UNL A   1      32.003  21.113  24.851  1.00  0.00     0.030 A 
BRANCH  25  30
ATOM     30  O   UNL A   1      36.168  19.576  24.720  1.00  0.00    -0.497 OA
ATOM     31  C   UNL A   1      35.941  18.180  24.853  1.00  0.00     0.278 C 
ENDBRANCH  25  30
ENDBRANCH  20  24
ENDBRANCH  18  19
ENDBRANCH   9  18
ENDBRANCH   5   8
ENDBRANCH   3   4
ENDBRANCH   2   3
ENDBRANCH   1   2
BRANCH   1  32
ATOM     32  C   UNL A   1      36.422  32.257  28.656  1.00  0.00     0.002 C 
BRANCH  32  33
ATOM     33  C   UNL A   1      35.529  33.451  29.025  1.00  0.00     0.021 C 
BRANCH  33  34
ATOM     34  C   UNL A   1      34.877  33.367  30.391  1.00  0.00     0.116 C 
BRANCH  34  35
ATOM     35  N   UNL A   1      35.170  34.521  31.240  1.00  0.00    -0.352 N 
ATOM     36  C   UNL A   1      36.084  34.591  32.277  1.00  0.00     0.251 C 
ATOM     37  H   UNL A   1      34.660  35.342  31.052  1.00  0.00     0.163 HD
ATOM     38  O   UNL A   1      35.976  35.435  33.158  1.00  0.00    -0.269 OA
BRANCH  36  39
ATOM     39  C   UNL A   1      37.203  33.633  32.280  1.00  0.00     0.039 A 
ATOM     40  C   UNL A   1      37.115  32.367  32.866  1.00  0.00     0.014 A 
ATOM     41  C   UNL A   1      38.359  34.031  31.620  1.00  0.00     0.014 A 
ATOM     42  C   UNL A   1      38.191  31.493  32.722  1.00  0.00     0.010 A 
ATOM     43  C   UNL A   1      39.294  33.099  31.277  1.00  0.00     0.010 A 
ATOM     44  C   UNL A   1      39.276  31.869  31.914  1.00  0.00    -0.014 A 
BRANCH  44  45
ATOM     45  C   UNL A   1      40.381  30.967  31.617  1.00  0.00     0.031 A 
ATOM     46  C   UNL A   1      41.190  30.617  32.813  1.00  0.00     0.074 A 
ATOM     47  C   UNL A   1      40.479  30.326  30.428  1.00  0.00     0.049 A 
ATOM     48  N   UNL A   1      42.379  31.021  33.108  1.00  0.00    -0.248 NA
ATOM     49  C   UNL A   1      40.520  29.905  33.917  1.00  0.00     0.031 C 
ATOM     50  C   UNL A   1      39.545  30.370  29.289  1.00  0.00     0.029 A 
ATOM     51  N   UNL A   1      41.390  29.407  30.011  1.00  0.00    -0.354 N 
ATOM     52  C   UNL A   1      42.711  30.366  34.291  1.00  0.00     0.074 A 
ATOM     53  C   UNL A   1      41.466  29.927  34.858  1.00  0.00     0.031 C 
ATOM     54  C   UNL A   1      39.804  29.353  28.438  1.00  0.00     0.029 A 
ATOM     55  C   UNL A   1      41.029  28.706  28.860  1.00  0.00     0.049 A 
ATOM     56  H   UNL A   1      42.240  29.250  30.484  1.00  0.00     0.167 HD
ATOM     57  C   UNL A   1      43.991  29.954  34.517  1.00  0.00     0.037 A 
ATOM     58  C   UNL A   1      41.698  27.668  28.294  1.00  0.00     0.037 A 
ATOM     59  C   UNL A   1      44.896  30.614  33.601  1.00  0.00     0.049 A 
ATOM     60  C   UNL A   1      43.091  27.753  28.798  1.00  0.00     0.074 A 
ATOM     61  C   UNL A   1      45.267  31.916  33.341  1.00  0.00     0.029 A 
ATOM     62  N   UNL A   1      45.266  29.882  32.498  1.00  0.00    -0.354 N 
ATOM     63  N   UNL A   1      43.894  28.752  28.539  1.00  0.00    -0.248 NA
ATOM     64  C   UNL A   1      43.438  26.962  29.964  1.00  0.00     0.031 C 
ATOM     65  C   UNL A   1      45.465  31.977  31.928  1.00  0.00     0.029 A 
ATOM     66  C   UNL A   1      45.281  30.697  31.400  1.00  0.00     0.049 A 
ATOM     67  H   UNL A   1      45.486  28.922  32.499  1.00  0.00     0.167 HD
ATOM     68  C   UNL A   1      44.578  28.975  29.726  1.00  0.00     0.074 A 
ATOM     69  C   UNL A   1      44.336  27.775  30.527  1.00  0.00     0.031 C 
ATOM     70  C   UNL A   1      45.022  30.227  30.051  1.00  0.00     0.037 A 
BRANCH  57  71
ATOM     71  C   UNL A   1      44.368  28.642  35.189  1.00  0.00     0.058 A 
ATOM     72  C   UNL A   1      45.354  28.665  36.202  1.00  0.00     0.135 A 
ATOM     73  C   UNL A   1      44.055  27.356  34.690  1.00  0.00     0.135 A 
ATOM     74  F   UNL A   1      45.723  29.824  36.771  1.00  0.00    -0.206 F 
ATOM     75  C   UNL A   1      46.051  27.522  36.600  1.00  0.00     0.059 A 
ATOM     76  C   UNL A   1      44.705  26.199  35.108  1.00  0.00     0.059 A 
ATOM     77  F   UNL A   1      43.170  27.150  33.713  1.00  0.00    -0.206 F 
ATOM     78  C   UNL A   1      45.733  26.297  36.027  1.00  0.00     0.060 A 
BRANCH  78  79
ATOM     79  S   UNL A   1      46.702  24.841  36.451  1.00  0.00     0.124 S 
ATOM     80  O   UNL A   1      47.214  24.444  35.144  1.00  0.00    -0.237 OA
ATOM     81  O   UNL A   1      47.680  25.393  37.384  1.00  0.00    -0.237 OA
ATOM     82  O   UNL A   1      45.716  23.943  37.045  1.00  0.00    -0.744 OA
ENDBRANCH  78  79
ENDBRANCH  57  71
BRANCH  58  83
ATOM     83  C   UNL A   1      41.132  26.422  27.699  1.00  0.00     0.058 A 
ATOM     84  C   UNL A   1      41.753  25.781  26.610  1.00  0.00     0.135 A 
ATOM     85  C   UNL A   1      40.149  25.673  28.375  1.00  0.00     0.135 A 
ATOM     86  F   UNL A   1      42.716  26.412  25.919  1.00  0.00    -0.206 F 
ATOM     87  C   UNL A   1      41.456  24.461  26.246  1.00  0.00     0.059 A 
ATOM     88  C   UNL A   1      39.831  24.358  28.027  1.00  0.00     0.059 A 
ATOM     89  F   UNL A   1      39.528  26.167  29.457  1.00  0.00    -0.206 F 
ATOM     90  C   UNL A   1      40.506  23.748  26.977  1.00  0.00     0.060 A 
BRANCH  90  91
ATOM     91  S   UNL A   1      40.234  21.992  26.622  1.00  0.00     0.124 S 
ATOM     92  O   UNL A   1      41.246  21.729  25.605  1.00  0.00    -0.237 OA
ATOM     93  O   UNL A   1      40.462  21.373  27.923  1.00  0.00    -0.237 OA
ATOM     94  O   UNL A   1      38.852  21.952  26.149  1.00  0.00    -0.744 OA
ENDBRANCH  90  91
ENDBRANCH  58  83
BRANCH  70  95
ATOM     95  C   UNL A   1      45.089  31.263  28.954  1.00  0.00     0.058 A 
ATOM     96  C   UNL A   1      46.088  31.337  27.967  1.00  0.00     0.135 A 
ATOM     97  C   UNL A   1      43.994  32.128  28.814  1.00  0.00     0.135 A 
ATOM     98  F   UNL A   1      47.129  30.493  27.974  1.00  0.00    -0.206 F 
ATOM     99  C   UNL A   1      46.012  32.244  26.905  1.00  0.00     0.059 A 
ATOM    100  C   UNL A   1      43.881  33.019  27.750  1.00  0.00     0.059 A 
ATOM    101  F   UNL A   1      42.979  32.070  29.692  1.00  0.00    -0.206 F 
ATOM    102  C   UNL A   1      44.899  33.079  26.802  1.00  0.00     0.060 A 
BRANCH 102 103
ATOM    103  S   UNL A   1      44.752  34.192  25.387  1.00  0.00     0.124 S 
ATOM    104  O   UNL A   1      44.531  33.263  24.285  1.00  0.00    -0.237 OA
ATOM    105  O   UNL A   1      43.611  35.025  25.754  1.00  0.00    -0.237 OA
ATOM    106  O   UNL A   1      46.037  34.889  25.365  1.00  0.00    -0.744 OA
ENDBRANCH 102 103
ENDBRANCH  70  95
ENDBRANCH  44  45
ENDBRANCH  36  39
ENDBRANCH  34  35
ENDBRANCH  33  34
ENDBRANCH  32  33
ENDBRANCH   1  32
TORSDOF 20
ENDMDL
MODEL 2
REMARK VINA RESULT:     -11.2      3.460      9.442
REMARK SMILES COc1ccc(-n2ccnc2C[N@@H+]2CCn3nc(C(=O)NCCCCCCNC(=O)c4ccc(-c5c6nc(c(-c7c(F)cc(S(=O)(=O)[O-])cc7F)c7ccc([nH]7)c(-c7c(F)cc(S(=O)(=O)[O-])cc7F)c7nc(c(-c8c(F)cc(S(=O)(=O)[O-])cc8F)c8ccc5[nH]8)C=C7)C=C6)cc4)cc3C2)cc1
REMARK SMILES IDX 24 1 23 2 22 3 21 4 19 5 20 6 18 8 13 9 14 10 99 11 15 13
REMARK SMILES IDX 98 14 16 15 97 16 17 17 12 18 11 19 7 20 8 21 9 22 10 23
REMARK SMILES IDX 6 24 3 25 4 26 101 27 5 28 100 29 2 30 1 31 25 32 26 33
REMARK SMILES IDX 27 34 28 35 29 36 30 38 31 39 32 40 96 41 33 42 95 43 34 44
REMARK SMILES IDX 35 45 36 46 89 47 37 48 94 49 88 50 90 51 38 52 93 53 87 54
REMARK SMILES IDX 86 55 39 57 73 58 52 59 72 60 53 61 56 62 71 63 91 64 54 65
REMARK SMILES IDX 55 66 70 68 92 69 57 70 40 71 41 72 50 73 42 74 43 75 49 76
REMARK SMILES IDX 51 77 44 78 45 79 46 80 47 81 48 82 74 83 75 84 84 85 76 86
REMARK SMILES IDX 77 87 83 88 85 89 78 90 79 91 80 92 81 93 82 94 58 95 59 96
REMARK SMILES IDX 68 97 60 98 61 99 67 100 69 101 62 102 63 103 64 104 65 105
REMARK SMILES IDX 66 106
REMARK H PARENT 21 7 13 12 28 37 90 56 56 67
REMARK Flexibility Score: inf
ROOT
ATOM      1  C   UNL A   1      42.400  20.662  26.104  1.00  0.00     0.002 C 
ENDROOT
BRANCH   1   2
ATOM      2  C   UNL A   1      41.014  20.485  26.727  1.00  0.00     0.021 C 
BRANCH   2   3
ATOM      3  C   UNL A   1      39.831  20.860  25.845  1.00  0.00     0.116 C 
BRANCH   3   4
ATOM      4  N   UNL A   1      38.817  21.681  26.501  1.00  0.00    -0.351 N 
ATOM      5  C   UNL A   1      37.548  22.163  25.805  1.00  0.00     0.271 C 
ATOM      6  O   UNL A   1      38.143  23.199  25.296  1.00  0.00    -0.267 OA
ATOM      7  H   UNL A   1      38.959  21.937  27.441  1.00  0.00     0.163 HD
BRANCH   5   8
ATOM      8  C   UNL A   1      35.570  21.506  25.805  1.00  0.00     0.150 A 
ATOM      9  N   UNL A   1      32.334  23.435  24.353  1.00  0.00    -0.322 N 
ATOM     10  C   UNL A   1      32.229  23.796  25.795  1.00  0.00     0.286 C 
ATOM     11  C   UNL A   1      32.275  21.975  24.133  1.00  0.00     0.319 C 
ATOM     12  H   UNL A   1      31.499  23.878  23.972  1.00  0.00     0.348 HD
ATOM     13  C   UNL A   1      32.444  22.650  26.814  1.00  0.00     0.206 C 
ATOM     14  C   UNL A   1      33.343  21.370  24.960  1.00  0.00     0.094 A 
ATOM     15  N   UNL A   1      33.410  21.722  26.259  1.00  0.00    -0.257 N 
ATOM     16  C   UNL A   1      34.578  20.849  24.681  1.00  0.00     0.065 A 
ATOM     17  N   UNL A   1      34.586  21.502  26.844  1.00  0.00    -0.167 NA
BRANCH   9  18
ATOM     18  C   UNL A   1      33.442  24.048  23.561  1.00  0.00     0.339 C 
BRANCH  18  19
ATOM     19  C   UNL A   1      33.212  24.497  22.146  1.00  0.00     0.168 A 
ATOM     20  N   UNL A   1      32.781  25.754  21.745  1.00  0.00    -0.299 N 
ATOM     21  C   UNL A   1      32.519  25.676  20.400  1.00  0.00     0.113 A 
ATOM     22  C   UNL A   1      32.902  24.416  20.014  1.00  0.00     0.132 A 
ATOM     23  N   UNL A   1      33.337  23.699  21.096  1.00  0.00    -0.236 NA
BRANCH  20  24
ATOM     24  C   UNL A   1      32.485  26.885  22.521  1.00  0.00     0.047 A 
ATOM     25  C   UNL A   1      31.527  29.598  24.769  1.00  0.00     0.119 A 
ATOM     26  C   UNL A   1      33.294  29.250  24.483  1.00  0.00     0.048 A 
ATOM     27  C   UNL A   1      30.244  28.610  23.941  1.00  0.00     0.048 A 
ATOM     28  C   UNL A   1      33.779  27.875  23.333  1.00  0.00     0.030 A 
ATOM     29  C   UNL A   1      30.727  27.237  22.806  1.00  0.00     0.030 A 
BRANCH  25  30
ATOM     30  O   UNL A   1      31.256  30.654  25.594  1.00  0.00    -0.497 OA
ATOM     31  C   UNL A   1      31.855  30.517  26.875  1.00  0.00     0.278 C 
ENDBRANCH  25  30
ENDBRANCH  20  24
ENDBRANCH  18  19
ENDBRANCH   9  18
ENDBRANCH   5   8
ENDBRANCH   3   4
ENDBRANCH   2   3
ENDBRANCH   1   2
BRANCH   1  32
ATOM     32  C   UNL A   1      42.861  22.095  25.790  1.00  0.00     0.002 C 
BRANCH  32  33
ATOM     33  C   UNL A   1      42.226  23.254  26.573  1.00  0.00     0.021 C 
BRANCH  33  34
ATOM     34  C   UNL A   1      42.502  24.635  26.012  1.00  0.00     0.116 C 
BRANCH  34  35
ATOM     35  N   UNL A   1      43.880  24.803  25.552  1.00  0.00    -0.352 N 
ATOM     36  C   UNL A   1      44.569  25.990  25.374  1.00  0.00     0.251 C 
ATOM     37  H   UNL A   1      44.375  23.977  25.345  1.00  0.00     0.163 HD
ATOM     38  O   UNL A   1      45.539  26.053  24.629  1.00  0.00    -0.269 OA
BRANCH  36  39
ATOM     39  C   UNL A   1      44.112  27.174  26.124  1.00  0.00     0.039 A 
ATOM     40  C   UNL A   1      43.124  28.038  25.645  1.00  0.00     0.014 A 
ATOM     41  C   UNL A   1      44.684  27.372  27.374  1.00  0.00     0.014 A 
ATOM     42  C   UNL A   1      42.685  29.068  26.475  1.00  0.00     0.010 A 
ATOM     43  C   UNL A   1      44.087  28.216  28.262  1.00  0.00     0.010 A 
ATOM     44  C   UNL A   1      43.170  29.142  27.791  1.00  0.00    -0.014 A 
BRANCH  44  45
ATOM     45  C   UNL A   1      42.672  30.113  28.756  1.00  0.00     0.031 A 
ATOM     46  C   UNL A   1      43.605  31.247  28.981  1.00  0.00     0.074 A 
ATOM     47  C   UNL A   1      41.387  30.098  29.186  1.00  0.00     0.049 A 
ATOM     48  N   UNL A   1      44.334  31.475  30.021  1.00  0.00    -0.248 NA
ATOM     49  C   UNL A   1      43.928  32.115  27.833  1.00  0.00     0.031 C 
ATOM     50  C   UNL A   1      40.299  29.195  28.773  1.00  0.00     0.029 A 
ATOM     51  N   UNL A   1      40.742  30.959  30.017  1.00  0.00    -0.354 N 
ATOM     52  C   UNL A   1      44.977  32.684  29.764  1.00  0.00     0.074 A 
ATOM     53  C   UNL A   1      44.900  32.875  28.343  1.00  0.00     0.031 C 
ATOM     54  C   UNL A   1      39.106  29.701  29.158  1.00  0.00     0.029 A 
ATOM     55  C   UNL A   1      39.350  30.851  30.004  1.00  0.00     0.049 A 
ATOM     56  H   UNL A   1      41.219  31.607  30.585  1.00  0.00     0.167 HD
ATOM     57  C   UNL A   1      45.211  33.569  30.775  1.00  0.00     0.037 A 
ATOM     58  C   UNL A   1      38.464  31.652  30.650  1.00  0.00     0.037 A 
ATOM     59  C   UNL A   1      45.059  32.916  32.057  1.00  0.00     0.049 A 
ATOM     60  C   UNL A   1      39.225  32.308  31.743  1.00  0.00     0.074 A 
ATOM     61  C   UNL A   1      45.672  31.869  32.713  1.00  0.00     0.029 A 
ATOM     62  N   UNL A   1      43.853  33.110  32.686  1.00  0.00    -0.354 N 
ATOM     63  N   UNL A   1      39.763  31.658  32.741  1.00  0.00    -0.248 NA
ATOM     64  C   UNL A   1      39.781  33.624  31.484  1.00  0.00     0.031 C 
ATOM     65  C   UNL A   1      44.629  31.216  33.437  1.00  0.00     0.029 A 
ATOM     66  C   UNL A   1      43.445  31.933  33.253  1.00  0.00     0.049 A 
ATOM     67  H   UNL A   1      43.361  33.961  32.723  1.00  0.00     0.167 HD
ATOM     68  C   UNL A   1      40.986  32.281  32.953  1.00  0.00     0.074 A 
ATOM     69  C   UNL A   1      40.889  33.547  32.227  1.00  0.00     0.031 C 
ATOM     70  C   UNL A   1      42.051  31.580  33.446  1.00  0.00     0.037 A 
BRANCH  57  71
ATOM     71  C   UNL A   1      45.088  35.080  30.642  1.00  0.00     0.058 A 
ATOM     72  C   UNL A   1      46.088  35.890  31.225  1.00  0.00     0.135 A 
ATOM     73  C   UNL A   1      43.912  35.767  30.260  1.00  0.00     0.135 A 
ATOM     74  F   UNL A   1      47.260  35.358  31.611  1.00  0.00    -0.206 F 
ATOM     75  C   UNL A   1      45.890  37.242  31.511  1.00  0.00     0.059 A 
ATOM     76  C   UNL A   1      43.714  37.124  30.493  1.00  0.00     0.059 A 
ATOM     77  F   UNL A   1      42.854  35.156  29.721  1.00  0.00    -0.206 F 
ATOM     78  C   UNL A   1      44.687  37.843  31.161  1.00  0.00     0.060 A 
BRANCH  78  79
ATOM     79  S   UNL A   1      44.381  39.554  31.627  1.00  0.00     0.124 S 
ATOM     80  O   UNL A   1      43.867  39.397  32.983  1.00  0.00    -0.237 OA
ATOM     81  O   UNL A   1      45.713  40.140  31.509  1.00  0.00    -0.237 OA
ATOM     82  O   UNL A   1      43.414  40.006  30.631  1.00  0.00    -0.744 OA
ENDBRANCH  78  79
ENDBRANCH  57  71
BRANCH  58  83
ATOM     83  C   UNL A   1      37.161  32.177  30.149  1.00  0.00     0.058 A 
ATOM     84  C   UNL A   1      35.969  32.000  30.877  1.00  0.00     0.135 A 
ATOM     85  C   UNL A   1      37.109  33.120  29.103  1.00  0.00     0.135 A 
ATOM     86  F   UNL A   1      35.931  31.137  31.904  1.00  0.00    -0.206 F 
ATOM     87  C   UNL A   1      34.813  32.750  30.620  1.00  0.00     0.059 A 
ATOM     88  C   UNL A   1      35.967  33.874  28.824  1.00  0.00     0.059 A 
ATOM     89  F   UNL A   1      38.200  33.404  28.376  1.00  0.00    -0.206 F 
ATOM     90  C   UNL A   1      34.828  33.702  29.602  1.00  0.00     0.060 A 
BRANCH  90  91
ATOM     91  S   UNL A   1      33.398  34.790  29.370  1.00  0.00     0.124 S 
ATOM     92  O   UNL A   1      32.923  34.961  30.738  1.00  0.00    -0.237 OA
ATOM     93  O   UNL A   1      33.998  35.966  28.751  1.00  0.00    -0.237 OA
ATOM     94  O   UNL A   1      32.519  34.011  28.499  1.00  0.00    -0.744 OA
ENDBRANCH  90  91
ENDBRANCH  58  83
BRANCH  70  95
ATOM     95  C   UNL A   1      41.780  30.244  34.097  1.00  0.00     0.058 A 
ATOM     96  C   UNL A   1      41.785  29.003  33.435  1.00  0.00     0.135 A 
ATOM     97  C   UNL A   1      41.663  30.216  35.494  1.00  0.00     0.135 A 
ATOM     98  F   UNL A   1      41.976  28.928  32.110  1.00  0.00    -0.206 F 
ATOM     99  C   UNL A   1      41.656  27.795  34.128  1.00  0.00     0.059 A 
ATOM    100  C   UNL A   1      41.563  29.026  36.209  1.00  0.00     0.059 A 
ATOM    101  F   UNL A   1      41.706  31.364  36.192  1.00  0.00    -0.206 F 
ATOM    102  C   UNL A   1      41.551  27.817  35.519  1.00  0.00     0.060 A 
BRANCH 102 103
ATOM    103  S   UNL A   1      41.470  26.258  36.428  1.00  0.00     0.124 S 
ATOM    104  O   UNL A   1      42.853  25.797  36.373  1.00  0.00    -0.237 OA
ATOM    105  O   UNL A   1      40.993  26.680  37.741  1.00  0.00    -0.237 OA
ATOM    106  O   UNL A   1      40.518  25.461  35.657  1.00  0.00    -0.744 OA
ENDBRANCH 102 103
ENDBRANCH  70  95
ENDBRANCH  44  45
ENDBRANCH  36  39
ENDBRANCH  34  35
ENDBRANCH  33  34
ENDBRANCH  32  33
ENDBRANCH   1  32
TORSDOF 20
ENDMDL
MODEL 3
REMARK VINA RESULT:     -10.8      3.841      7.857
REMARK SMILES COc1ccc(-n2ccnc2C[N@@H+]2CCn3nc(C(=O)NCCCCCCNC(=O)c4ccc(-c5c6nc(c(-c7c(F)cc(S(=O)(=O)[O-])cc7F)c7ccc([nH]7)c(-c7c(F)cc(S(=O)(=O)[O-])cc7F)c7nc(c(-c8c(F)cc(S(=O)(=O)[O-])cc8F)c8ccc5[nH]8)C=C7)C=C6)cc4)cc3C2)cc1
REMARK SMILES IDX 24 1 23 2 22 3 21 4 19 5 20 6 18 8 13 9 14 10 99 11 15 13
REMARK SMILES IDX 98 14 16 15 97 16 17 17 12 18 11 19 7 20 8 21 9 22 10 23
REMARK SMILES IDX 6 24 3 25 4 26 101 27 5 28 100 29 2 30 1 31 25 32 26 33
REMARK SMILES IDX 27 34 28 35 29 36 30 38 31 39 32 40 96 41 33 42 95 43 34 44
REMARK SMILES IDX 35 45 36 46 89 47 37 48 94 49 88 50 90 51 38 52 93 53 87 54
REMARK SMILES IDX 86 55 39 57 73 58 52 59 72 60 53 61 56 62 71 63 91 64 54 65
REMARK SMILES IDX 55 66 70 68 92 69 57 70 40 71 41 72 50 73 42 74 43 75 49 76
REMARK SMILES IDX 51 77 44 78 45 79 46 80 47 81 48 82 74 83 75 84 84 85 76 86
REMARK SMILES IDX 77 87 83 88 85 89 78 90 79 91 80 92 81 93 82 94 58 95 59 96
REMARK SMILES IDX 68 97 60 98 61 99 67 100 69 101 62 102 63 103 64 104 65 105
REMARK SMILES IDX 66 106
REMARK H PARENT 21 7 13 12 28 37 90 56 56 67
REMARK Flexibility Score: inf
ROOT
ATOM      1  C   UNL A   1      43.132  34.352  29.834  1.00  0.00     0.002 C 
ENDROOT
BRANCH   1   2
ATOM      2  C   UNL A   1      42.840  34.221  31.330  1.00  0.00     0.021 C 
BRANCH   2   3
ATOM      3  C   UNL A   1      41.494  34.760  31.798  1.00  0.00     0.116 C 
BRANCH   3   4
ATOM      4  N   UNL A   1      40.377  33.832  31.637  1.00  0.00    -0.351 N 
ATOM      5  C   UNL A   1      39.573  33.275  32.808  1.00  0.00     0.271 C 
ATOM      6  O   UNL A   1      40.420  32.314  33.017  1.00  0.00    -0.267 OA
ATOM      7  H   UNL A   1      40.131  33.551  30.726  1.00  0.00     0.163 HD
BRANCH   5   8
ATOM      8  C   UNL A   1      37.731  33.767  33.649  1.00  0.00     0.150 A 
ATOM      9  N   UNL A   1      34.078  33.383  31.972  1.00  0.00    -0.322 N 
ATOM     10  C   UNL A   1      34.347  34.822  31.688  1.00  0.00     0.286 C 
ATOM     11  C   UNL A   1      34.075  33.088  33.420  1.00  0.00     0.319 C 
ATOM     12  H   UNL A   1      33.137  33.275  31.593  1.00  0.00     0.348 HD
ATOM     13  C   UNL A   1      34.925  35.662  32.853  1.00  0.00     0.206 C 
ATOM     14  C   UNL A   1      35.375  33.550  33.958  1.00  0.00     0.094 A 
ATOM     15  N   UNL A   1      35.771  34.803  33.659  1.00  0.00    -0.257 N 
ATOM     16  C   UNL A   1      36.522  32.911  34.345  1.00  0.00     0.065 A 
ATOM     17  N   UNL A   1      37.076  35.031  33.793  1.00  0.00    -0.167 NA
BRANCH   9  18
ATOM     18  C   UNL A   1      34.872  32.365  31.222  1.00  0.00     0.339 C 
BRANCH  18  19
ATOM     19  C   UNL A   1      35.821  32.787  30.136  1.00  0.00     0.168 A 
ATOM     20  N   UNL A   1      35.840  32.309  28.833  1.00  0.00    -0.299 N 
ATOM     21  C   UNL A   1      36.972  32.809  28.241  1.00  0.00     0.113 A 
ATOM     22  C   UNL A   1      37.537  33.654  29.162  1.00  0.00     0.132 A 
ATOM     23  N   UNL A   1      36.815  33.642  30.324  1.00  0.00    -0.236 NA
BRANCH  20  24
ATOM     24  C   UNL A   1      35.002  31.367  28.216  1.00  0.00     0.047 A 
ATOM     25  C   UNL A   1      32.816  29.147  26.314  1.00  0.00     0.119 A 
ATOM     26  C   UNL A   1      34.439  28.540  26.878  1.00  0.00     0.048 A 
ATOM     27  C   UNL A   1      32.278  30.842  26.695  1.00  0.00     0.048 A 
ATOM     28  C   UNL A   1      35.547  29.668  27.853  1.00  0.00     0.030 A 
ATOM     29  C   UNL A   1      33.383  31.966  27.655  1.00  0.00     0.030 A 
BRANCH  25  30
ATOM     30  O   UNL A   1      32.044  28.240  25.642  1.00  0.00    -0.497 OA
ATOM     31  C   UNL A   1      31.280  27.418  26.512  1.00  0.00     0.278 C 
ENDBRANCH  25  30
ENDBRANCH  20  24
ENDBRANCH  18  19
ENDBRANCH   9  18
ENDBRANCH   5   8
ENDBRANCH   3   4
ENDBRANCH   2   3
ENDBRANCH   1   2
BRANCH   1  32
ATOM     32  C   UNL A   1      44.135  35.434  29.397  1.00  0.00     0.002 C 
BRANCH  32  33
ATOM     33  C   UNL A   1      43.993  36.034  27.990  1.00  0.00     0.021 C 
BRANCH  33  34
ATOM     34  C   UNL A   1      42.994  35.333  27.091  1.00  0.00     0.116 C 
BRANCH  34  35
ATOM     35  N   UNL A   1      43.419  35.277  25.693  1.00  0.00    -0.352 N 
ATOM     36  C   UNL A   1      44.393  34.463  25.142  1.00  0.00     0.251 C 
ATOM     37  H   UNL A   1      42.959  35.888  25.073  1.00  0.00     0.163 HD
ATOM     38  O   UNL A   1      44.943  34.760  24.089  1.00  0.00    -0.269 OA
BRANCH  36  39
ATOM     39  C   UNL A   1      44.736  33.217  25.850  1.00  0.00     0.039 A 
ATOM     40  C   UNL A   1      45.862  33.097  26.669  1.00  0.00     0.014 A 
ATOM     41  C   UNL A   1      43.847  32.159  25.705  1.00  0.00     0.014 A 
ATOM     42  C   UNL A   1      46.042  31.912  27.381  1.00  0.00     0.010 A 
ATOM     43  C   UNL A   1      43.895  31.114  26.579  1.00  0.00     0.010 A 
ATOM     44  C   UNL A   1      45.042  30.927  27.334  1.00  0.00    -0.014 A 
BRANCH  44  45
ATOM     45  C   UNL A   1      45.098  29.715  28.141  1.00  0.00     0.031 A 
ATOM     46  C   UNL A   1      44.775  29.949  29.572  1.00  0.00     0.074 A 
ATOM     47  C   UNL A   1      45.178  28.485  27.579  1.00  0.00     0.049 A 
ATOM     48  N   UNL A   1      45.586  29.945  30.576  1.00  0.00    -0.248 NA
ATOM     49  C   UNL A   1      43.432  30.460  29.904  1.00  0.00     0.031 C 
ATOM     50  C   UNL A   1      45.185  28.137  26.148  1.00  0.00     0.029 A 
ATOM     51  N   UNL A   1      45.167  27.261  28.169  1.00  0.00    -0.354 N 
ATOM     52  C   UNL A   1      44.788  30.156  31.698  1.00  0.00     0.074 A 
ATOM     53  C   UNL A   1      43.562  30.719  31.207  1.00  0.00     0.031 C 
ATOM     54  C   UNL A   1      44.934  26.818  25.991  1.00  0.00     0.029 A 
ATOM     55  C   UNL A   1      44.941  26.194  27.298  1.00  0.00     0.049 A 
ATOM     56  H   UNL A   1      45.310  27.136  29.136  1.00  0.00     0.167 HD
ATOM     57  C   UNL A   1      45.079  29.537  32.878  1.00  0.00     0.037 A 
ATOM     58  C   UNL A   1      44.775  24.888  27.633  1.00  0.00     0.037 A 
ATOM     59  C   UNL A   1      46.431  29.022  32.852  1.00  0.00     0.049 A 
ATOM     60  C   UNL A   1      45.375  24.731  28.982  1.00  0.00     0.074 A 
ATOM     61  C   UNL A   1      47.694  29.562  32.722  1.00  0.00     0.029 A 
ATOM     62  N   UNL A   1      46.554  27.684  32.566  1.00  0.00    -0.354 N 
ATOM     63  N   UNL A   1      46.645  24.905  29.233  1.00  0.00    -0.248 NA
ATOM     64  C   UNL A   1      44.493  24.837  30.130  1.00  0.00     0.031 C 
ATOM     65  C   UNL A   1      48.435  28.607  31.962  1.00  0.00     0.029 A 
ATOM     66  C   UNL A   1      47.619  27.498  31.727  1.00  0.00     0.049 A 
ATOM     67  H   UNL A   1      45.969  26.971  32.910  1.00  0.00     0.167 HD
ATOM     68  C   UNL A   1      46.680  25.557  30.458  1.00  0.00     0.074 A 
ATOM     69  C   UNL A   1      45.335  25.386  31.008  1.00  0.00     0.031 C 
ATOM     70  C   UNL A   1      47.700  26.415  30.764  1.00  0.00     0.037 A 
BRANCH  57  71
ATOM     71  C   UNL A   1      44.038  28.969  33.833  1.00  0.00     0.058 A 
ATOM     72  C   UNL A   1      44.190  29.214  35.216  1.00  0.00     0.135 A 
ATOM     73  C   UNL A   1      43.103  27.959  33.505  1.00  0.00     0.135 A 
ATOM     74  F   UNL A   1      45.034  30.163  35.654  1.00  0.00    -0.206 F 
ATOM     75  C   UNL A   1      43.556  28.443  36.191  1.00  0.00     0.059 A 
ATOM     76  C   UNL A   1      42.425  27.212  34.461  1.00  0.00     0.059 A 
ATOM     77  F   UNL A   1      42.855  27.577  32.250  1.00  0.00    -0.206 F 
ATOM     78  C   UNL A   1      42.692  27.427  35.800  1.00  0.00     0.060 A 
BRANCH  78  79
ATOM     79  S   UNL A   1      41.958  26.357  37.048  1.00  0.00     0.124 S 
ATOM     80  O   UNL A   1      41.890  25.087  36.334  1.00  0.00    -0.237 OA
ATOM     81  O   UNL A   1      42.940  26.436  38.125  1.00  0.00    -0.237 OA
ATOM     82  O   UNL A   1      40.676  26.996  37.327  1.00  0.00    -0.744 OA
ENDBRANCH  78  79
ENDBRANCH  57  71
BRANCH  58  83
ATOM     83  C   UNL A   1      43.808  23.906  27.063  1.00  0.00     0.058 A 
ATOM     84  C   UNL A   1      44.242  22.698  26.485  1.00  0.00     0.135 A 
ATOM     85  C   UNL A   1      42.430  23.993  27.346  1.00  0.00     0.135 A 
ATOM     86  F   UNL A   1      45.541  22.520  26.200  1.00  0.00    -0.206 F 
ATOM     87  C   UNL A   1      43.375  21.623  26.250  1.00  0.00     0.059 A 
ATOM     88  C   UNL A   1      41.545  22.936  27.115  1.00  0.00     0.059 A 
ATOM     89  F   UNL A   1      41.915  25.079  27.942  1.00  0.00    -0.206 F 
ATOM     90  C   UNL A   1      42.028  21.744  26.590  1.00  0.00     0.060 A 
BRANCH  90  91
ATOM     91  S   UNL A   1      40.934  20.308  26.446  1.00  0.00     0.124 S 
ATOM     92  O   UNL A   1      39.704  20.913  25.947  1.00  0.00    -0.237 OA
ATOM     93  O   UNL A   1      41.655  19.460  25.504  1.00  0.00    -0.237 OA
ATOM     94  O   UNL A   1      40.865  19.797  27.814  1.00  0.00    -0.744 OA
ENDBRANCH  90  91
ENDBRANCH  58  83
BRANCH  70  95
ATOM     95  C   UNL A   1      48.954  26.355  29.924  1.00  0.00     0.058 A 
ATOM     96  C   UNL A   1      49.993  25.420  30.083  1.00  0.00     0.135 A 
ATOM     97  C   UNL A   1      49.024  27.196  28.805  1.00  0.00     0.135 A 
ATOM     98  F   UNL A   1      49.967  24.521  31.077  1.00  0.00    -0.206 F 
ATOM     99  C   UNL A   1      51.062  25.343  29.184  1.00  0.00     0.059 A 
ATOM    100  C   UNL A   1      50.061  27.119  27.880  1.00  0.00     0.059 A 
ATOM    101  F   UNL A   1      48.035  28.075  28.565  1.00  0.00    -0.206 F 
ATOM    102  C   UNL A   1      51.084  26.195  28.080  1.00  0.00     0.060 A 
BRANCH 102 103
ATOM    103  S   UNL A   1      52.415  26.044  26.868  1.00  0.00     0.124 S 
ATOM    104  O   UNL A   1      53.606  26.197  27.698  1.00  0.00    -0.237 OA
ATOM    105  O   UNL A   1      52.193  24.711  26.316  1.00  0.00    -0.237 OA
ATOM    106  O   UNL A   1      52.159  27.143  25.939  1.00  0.00    -0.744 OA
ENDBRANCH 102 103
ENDBRANCH  70  95
ENDBRANCH  44  45
ENDBRANCH  36  39
ENDBRANCH  34  35
ENDBRANCH  33  34
ENDBRANCH  32  33
ENDBRANCH   1  32
TORSDOF 20
ENDMDL
