MODEL 1
REMARK VINA RESULT:     -12.3      0.000      0.000
REMARK SMILES C[C@@H]1[C@H](C(=O)NCCCCCCNC(=O)c2ccc(-c3c4nc(c(-c5c(F)cc(S(=O)(=O)[O-])cc5F)c5ccc([nH]5)c(-c5c(F)cc(S(=O)(=O)[O-])cc5F)c5nc(c(-c6c(F)cc(S(=O)(=O)[O-])cc6F)c6ccc3[nH]6)C=C5)C=C4)cc2)CC[N@@H+]1Cc1cnn(-c2ccccc2)c1
REMARK SMILES IDX 9 1 8 2 7 3 6 4 4 5 5 6 3 8 1 9 2 10 84 11 82 12 83 13 85 15
REMARK SMILES IDX 86 16 87 17 96 18 88 19 89 20 90 21 91 22 95 23 92 24 94 25
REMARK SMILES IDX 93 26 10 27 11 28 12 29 13 30 14 31 15 33 16 34 17 35 81 36
REMARK SMILES IDX 18 37 80 38 19 39 20 40 21 41 74 42 22 43 79 44 73 45 75 46
REMARK SMILES IDX 23 47 78 48 72 49 71 50 24 52 58 53 37 54 57 55 38 56 41 57
REMARK SMILES IDX 56 58 76 59 39 60 40 61 55 63 77 64 42 65 25 66 26 67 35 68
REMARK SMILES IDX 27 69 28 70 34 71 36 72 29 73 30 74 31 75 32 76 33 77 59 78
REMARK SMILES IDX 60 79 69 80 61 81 62 82 68 83 70 84 63 85 64 86 65 87 66 88
REMARK SMILES IDX 67 89 43 90 44 91 53 92 45 93 46 94 52 95 54 96 47 97 48 98
REMARK SMILES IDX 49 99 50 100 51 101
REMARK H PARENT 6 7 84 14 13 32 75 51 41 62
REMARK Flexibility Score: inf
ROOT
ATOM      1  C   UNL A   1      37.115  22.918  25.223  1.00  0.00     0.002 C 
ENDROOT
BRANCH   1   2
ATOM      2  C   UNL A   1      36.222  21.728  25.599  1.00  0.00     0.021 C 
BRANCH   2   3
ATOM      3  C   UNL A   1      34.747  22.043  25.884  1.00  0.00     0.116 C 
BRANCH   3   4
ATOM      4  N   UNL A   1      33.863  21.028  25.339  1.00  0.00    -0.356 N 
ATOM      5  C   UNL A   1      32.944  21.040  24.344  1.00  0.00     0.229 C 
ATOM      6  O   UNL A   1      32.312  19.987  24.179  1.00  0.00    -0.275 OA
ATOM      7  H   UNL A   1      33.949  20.153  25.784  1.00  0.00     0.163 HD
BRANCH   5   8
ATOM      8  C   UNL A   1      32.641  22.224  23.435  1.00  0.00     0.142 C 
ATOM      9  C   UNL A   1      31.000  23.192  25.228  1.00  0.00     0.076 C 
ATOM     10  C   UNL A   1      31.523  23.218  23.801  1.00  0.00     0.193 C 
ATOM     11  N   UNL A   1      31.959  24.505  23.230  1.00  0.00    -0.328 N 
ATOM     12  C   UNL A   1      33.812  23.072  22.965  1.00  0.00     0.081 C 
ATOM     13  C   UNL A   1      33.116  24.286  22.372  1.00  0.00     0.263 C 
ATOM     14  H   UNL A   1      31.152  24.797  22.678  1.00  0.00     0.348 HD
BRANCH  11  15
ATOM     15  C   UNL A   1      31.901  25.750  23.979  1.00  0.00     0.302 C 
BRANCH  15  16
ATOM     16  C   UNL A   1      30.726  26.606  23.659  1.00  0.00     0.045 A 
ATOM     17  C   UNL A   1      29.358  26.313  23.826  1.00  0.00     0.145 A 
ATOM     18  C   UNL A   1      30.717  27.920  23.228  1.00  0.00     0.124 A 
ATOM     19  N   UNL A   1      28.561  27.312  23.461  1.00  0.00    -0.176 NA
ATOM     20  N   UNL A   1      29.403  28.318  23.124  1.00  0.00    -0.240 N 
BRANCH  20  21
ATOM     21  C   UNL A   1      28.898  29.585  22.745  1.00  0.00     0.065 A 
ATOM     22  C   UNL A   1      28.026  30.253  23.619  1.00  0.00     0.028 A 
ATOM     23  C   UNL A   1      29.280  30.188  21.539  1.00  0.00     0.028 A 
ATOM     24  C   UNL A   1      27.583  31.534  23.319  1.00  0.00     0.002 A 
ATOM     25  C   UNL A   1      28.826  31.469  21.241  1.00  0.00     0.002 A 
ATOM     26  C   UNL A   1      28.002  32.142  22.143  1.00  0.00     0.000 A 
ENDBRANCH  20  21
ENDBRANCH  15  16
ENDBRANCH  11  15
ENDBRANCH   5   8
ENDBRANCH   3   4
ENDBRANCH   2   3
ENDBRANCH   1   2
BRANCH   1  27
ATOM     27  C   UNL A   1      38.160  23.340  26.261  1.00  0.00     0.002 C 
BRANCH  27  28
ATOM     28  C   UNL A   1      39.422  22.470  26.363  1.00  0.00     0.021 C 
BRANCH  28  29
ATOM     29  C   UNL A   1      40.694  23.153  26.880  1.00  0.00     0.116 C 
BRANCH  29  30
ATOM     30  N   UNL A   1      41.347  23.987  25.885  1.00  0.00    -0.352 N 
ATOM     31  C   UNL A   1      41.686  25.322  25.951  1.00  0.00     0.251 C 
ATOM     32  H   UNL A   1      41.579  23.533  25.043  1.00  0.00     0.163 HD
ATOM     33  O   UNL A   1      42.148  25.882  24.966  1.00  0.00    -0.269 OA
BRANCH  31  34
ATOM     34  C   UNL A   1      41.481  26.097  27.201  1.00  0.00     0.039 A 
ATOM     35  C   UNL A   1      42.423  27.060  27.567  1.00  0.00     0.014 A 
ATOM     36  C   UNL A   1      40.405  25.838  28.049  1.00  0.00     0.014 A 
ATOM     37  C   UNL A   1      42.247  27.814  28.740  1.00  0.00     0.010 A 
ATOM     38  C   UNL A   1      40.218  26.620  29.202  1.00  0.00     0.010 A 
ATOM     39  C   UNL A   1      41.114  27.646  29.558  1.00  0.00    -0.014 A 
BRANCH  39  40
ATOM     40  C   UNL A   1      40.858  28.564  30.729  1.00  0.00     0.031 A 
ATOM     41  C   UNL A   1      41.684  28.493  32.000  1.00  0.00     0.074 A 
ATOM     42  C   UNL A   1      39.837  29.456  30.702  1.00  0.00     0.049 A 
ATOM     43  N   UNL A   1      41.588  29.218  33.091  1.00  0.00    -0.248 NA
ATOM     44  C   UNL A   1      42.717  27.452  32.074  1.00  0.00     0.031 C 
ATOM     45  C   UNL A   1      38.859  29.601  29.620  1.00  0.00     0.029 A 
ATOM     46  N   UNL A   1      39.452  30.417  31.613  1.00  0.00    -0.354 N 
ATOM     47  C   UNL A   1      42.524  28.703  33.983  1.00  0.00     0.074 A 
ATOM     48  C   UNL A   1      43.125  27.559  33.330  1.00  0.00     0.031 C 
ATOM     49  C   UNL A   1      38.035  30.625  29.899  1.00  0.00     0.029 A 
ATOM     50  C   UNL A   1      38.395  31.198  31.194  1.00  0.00     0.049 A 
ATOM     51  H   UNL A   1      39.893  30.537  32.485  1.00  0.00     0.167 HD
ATOM     52  C   UNL A   1      42.893  29.152  35.209  1.00  0.00     0.037 A 
ATOM     53  C   UNL A   1      37.787  32.261  31.764  1.00  0.00     0.037 A 
ATOM     54  C   UNL A   1      42.369  30.328  35.855  1.00  0.00     0.049 A 
ATOM     55  C   UNL A   1      38.257  32.788  33.096  1.00  0.00     0.074 A 
ATOM     56  C   UNL A   1      42.774  30.905  37.049  1.00  0.00     0.029 A 
ATOM     57  N   UNL A   1      41.338  31.113  35.368  1.00  0.00    -0.354 N 
ATOM     58  N   UNL A   1      39.222  32.347  33.863  1.00  0.00    -0.248 NA
ATOM     59  C   UNL A   1      37.557  33.967  33.633  1.00  0.00     0.031 C 
ATOM     60  C   UNL A   1      41.970  32.021  37.297  1.00  0.00     0.029 A 
ATOM     61  C   UNL A   1      41.089  32.161  36.240  1.00  0.00     0.049 A 
ATOM     62  H   UNL A   1      40.855  30.951  34.526  1.00  0.00     0.167 HD
ATOM     63  C   UNL A   1      39.263  33.211  34.957  1.00  0.00     0.074 A 
ATOM     64  C   UNL A   1      38.236  34.207  34.746  1.00  0.00     0.031 C 
ATOM     65  C   UNL A   1      40.083  33.173  36.035  1.00  0.00     0.037 A 
BRANCH  52  66
ATOM     66  C   UNL A   1      43.969  28.383  35.931  1.00  0.00     0.058 A 
ATOM     67  C   UNL A   1      43.651  27.342  36.817  1.00  0.00     0.135 A 
ATOM     68  C   UNL A   1      45.328  28.665  35.711  1.00  0.00     0.135 A 
ATOM     69  F   UNL A   1      42.368  27.035  37.067  1.00  0.00    -0.206 F 
ATOM     70  C   UNL A   1      44.637  26.640  37.499  1.00  0.00     0.059 A 
ATOM     71  C   UNL A   1      46.333  27.953  36.359  1.00  0.00     0.059 A 
ATOM     72  F   UNL A   1      45.688  29.639  34.862  1.00  0.00    -0.206 F 
ATOM     73  C   UNL A   1      45.977  26.958  37.269  1.00  0.00     0.060 A 
BRANCH  73  74
ATOM     74  S   UNL A   1      47.244  26.052  38.178  1.00  0.00     0.124 S 
ATOM     75  O   UNL A   1      48.232  25.810  37.132  1.00  0.00    -0.237 OA
ATOM     76  O   UNL A   1      47.636  27.008  39.209  1.00  0.00    -0.237 OA
ATOM     77  O   UNL A   1      46.536  24.870  38.660  1.00  0.00    -0.744 OA
ENDBRANCH  73  74
ENDBRANCH  52  66
BRANCH  53  78
ATOM     78  C   UNL A   1      36.679  32.958  31.054  1.00  0.00     0.058 A 
ATOM     79  C   UNL A   1      36.949  33.844  29.998  1.00  0.00     0.135 A 
ATOM     80  C   UNL A   1      35.340  32.784  31.432  1.00  0.00     0.135 A 
ATOM     81  F   UNL A   1      38.216  34.055  29.609  1.00  0.00    -0.206 F 
ATOM     82  C   UNL A   1      35.936  34.552  29.361  1.00  0.00     0.059 A 
ATOM     83  C   UNL A   1      34.306  33.464  30.794  1.00  0.00     0.059 A 
ATOM     84  F   UNL A   1      35.028  31.939  32.427  1.00  0.00    -0.206 F 
ATOM     85  C   UNL A   1      34.617  34.357  29.769  1.00  0.00     0.060 A 
BRANCH  85  86
ATOM     86  S   UNL A   1      33.304  35.258  28.915  1.00  0.00     0.124 S 
ATOM     87  O   UNL A   1      32.493  35.724  30.033  1.00  0.00    -0.237 OA
ATOM     88  O   UNL A   1      34.053  36.285  28.197  1.00  0.00    -0.237 OA
ATOM     89  O   UNL A   1      32.691  34.236  28.071  1.00  0.00    -0.744 OA
ENDBRANCH  85  86
ENDBRANCH  53  78
BRANCH  65  90
ATOM     90  C   UNL A   1      39.945  34.260  37.068  1.00  0.00     0.058 A 
ATOM     91  C   UNL A   1      40.540  35.520  36.900  1.00  0.00     0.135 A 
ATOM     92  C   UNL A   1      39.157  34.057  38.213  1.00  0.00     0.135 A 
ATOM     93  F   UNL A   1      41.307  35.767  35.828  1.00  0.00    -0.206 F 
ATOM     94  C   UNL A   1      40.374  36.535  37.840  1.00  0.00     0.059 A 
ATOM     95  C   UNL A   1      38.958  35.066  39.154  1.00  0.00     0.059 A 
ATOM     96  F   UNL A   1      38.556  32.875  38.420  1.00  0.00    -0.206 F 
ATOM     97  C   UNL A   1      39.578  36.299  38.963  1.00  0.00     0.060 A 
BRANCH  97  98
ATOM     98  S   UNL A   1      39.335  37.637  40.152  1.00  0.00     0.124 S 
ATOM     99  O   UNL A   1      40.672  38.212  40.228  1.00  0.00    -0.237 OA
ATOM    100  O   UNL A   1      38.326  38.462  39.495  1.00  0.00    -0.237 OA
ATOM    101  O   UNL A   1      38.879  36.944  41.354  1.00  0.00    -0.744 OA
ENDBRANCH  97  98
ENDBRANCH  65  90
ENDBRANCH  39  40
ENDBRANCH  31  34
ENDBRANCH  29  30
ENDBRANCH  28  29
ENDBRANCH  27  28
ENDBRANCH   1  27
TORSDOF 19
ENDMDL
MODEL 2
REMARK VINA RESULT:     -12.3      1.016      2.148
REMARK SMILES C[C@@H]1[C@H](C(=O)NCCCCCCNC(=O)c2ccc(-c3c4nc(c(-c5c(F)cc(S(=O)(=O)[O-])cc5F)c5ccc([nH]5)c(-c5c(F)cc(S(=O)(=O)[O-])cc5F)c5nc(c(-c6c(F)cc(S(=O)(=O)[O-])cc6F)c6ccc3[nH]6)C=C5)C=C4)cc2)CC[N@@H+]1Cc1cnn(-c2ccccc2)c1
REMARK SMILES IDX 9 1 8 2 7 3 6 4 4 5 5 6 3 8 1 9 2 10 84 11 82 12 83 13 85 15
REMARK SMILES IDX 86 16 87 17 96 18 88 19 89 20 90 21 91 22 95 23 92 24 94 25
REMARK SMILES IDX 93 26 10 27 11 28 12 29 13 30 14 31 15 33 16 34 17 35 81 36
REMARK SMILES IDX 18 37 80 38 19 39 20 40 21 41 74 42 22 43 79 44 73 45 75 46
REMARK SMILES IDX 23 47 78 48 72 49 71 50 24 52 58 53 37 54 57 55 38 56 41 57
REMARK SMILES IDX 56 58 76 59 39 60 40 61 55 63 77 64 42 65 25 66 26 67 35 68
REMARK SMILES IDX 27 69 28 70 34 71 36 72 29 73 30 74 31 75 32 76 33 77 59 78
REMARK SMILES IDX 60 79 69 80 61 81 62 82 68 83 70 84 63 85 64 86 65 87 66 88
REMARK SMILES IDX 67 89 43 90 44 91 53 92 45 93 46 94 52 95 54 96 47 97 48 98
REMARK SMILES IDX 49 99 50 100 51 101
REMARK H PARENT 6 7 84 14 13 32 75 51 41 62
REMARK Flexibility Score: inf
ROOT
ATOM      1  C   UNL A   1      39.698  22.635  26.849  1.00  0.00     0.002 C 
ENDROOT
BRANCH   1   2
ATOM      2  C   UNL A   1      38.859  21.652  26.021  1.00  0.00     0.021 C 
BRANCH   2   3
ATOM      3  C   UNL A   1      37.676  22.249  25.246  1.00  0.00     0.116 C 
BRANCH   3   4
ATOM      4  N   UNL A   1      36.467  22.285  26.050  1.00  0.00    -0.356 N 
ATOM      5  C   UNL A   1      35.380  23.093  26.048  1.00  0.00     0.229 C 
ATOM      6  O   UNL A   1      34.540  22.870  26.932  1.00  0.00    -0.275 OA
ATOM      7  H   UNL A   1      36.432  21.580  26.736  1.00  0.00     0.163 HD
BRANCH   5   8
ATOM      8  C   UNL A   1      35.121  24.223  25.061  1.00  0.00     0.142 C 
ATOM      9  C   UNL A   1      34.168  22.508  23.331  1.00  0.00     0.076 C 
ATOM     10  C   UNL A   1      34.677  23.911  23.620  1.00  0.00     0.193 C 
ATOM     11  N   UNL A   1      33.849  25.061  23.220  1.00  0.00    -0.328 N 
ATOM     12  C   UNL A   1      34.245  25.377  25.523  1.00  0.00     0.081 C 
ATOM     13  C   UNL A   1      33.965  26.113  24.223  1.00  0.00     0.263 C 
ATOM     14  H   UNL A   1      34.271  25.356  22.339  1.00  0.00     0.348 HD
BRANCH  11  15
ATOM     15  C   UNL A   1      32.565  24.904  22.556  1.00  0.00     0.302 C 
BRANCH  15  16
ATOM     16  C   UNL A   1      31.486  25.783  23.087  1.00  0.00     0.045 A 
ATOM     17  C   UNL A   1      30.759  25.649  24.286  1.00  0.00     0.145 A 
ATOM     18  C   UNL A   1      31.034  26.985  22.575  1.00  0.00     0.124 A 
ATOM     19  N   UNL A   1      29.876  26.625  24.474  1.00  0.00    -0.176 NA
ATOM     20  N   UNL A   1      30.071  27.470  23.434  1.00  0.00    -0.240 N 
BRANCH  20  21
ATOM     21  C   UNL A   1      29.342  28.680  23.339  1.00  0.00     0.065 A 
ATOM     22  C   UNL A   1      29.922  29.857  23.840  1.00  0.00     0.028 A 
ATOM     23  C   UNL A   1      28.081  28.723  22.730  1.00  0.00     0.028 A 
ATOM     24  C   UNL A   1      29.273  31.074  23.684  1.00  0.00     0.002 A 
ATOM     25  C   UNL A   1      27.434  29.946  22.584  1.00  0.00     0.002 A 
ATOM     26  C   UNL A   1      28.044  31.115  23.039  1.00  0.00     0.000 A 
ENDBRANCH  20  21
ENDBRANCH  15  16
ENDBRANCH  11  15
ENDBRANCH   5   8
ENDBRANCH   3   4
ENDBRANCH   2   3
ENDBRANCH   1   2
BRANCH   1  27
ATOM     27  C   UNL A   1      40.802  22.025  27.719  1.00  0.00     0.002 C 
BRANCH  27  28
ATOM     28  C   UNL A   1      42.216  21.994  27.120  1.00  0.00     0.021 C 
BRANCH  28  29
ATOM     29  C   UNL A   1      43.012  23.304  27.156  1.00  0.00     0.116 C 
BRANCH  29  30
ATOM     30  N   UNL A   1      42.767  24.159  26.006  1.00  0.00    -0.352 N 
ATOM     31  C   UNL A   1      42.272  25.446  25.965  1.00  0.00     0.251 C 
ATOM     32  H   UNL A   1      42.986  23.762  25.133  1.00  0.00     0.163 HD
ATOM     33  O   UNL A   1      42.042  25.975  24.885  1.00  0.00    -0.269 OA
BRANCH  31  34
ATOM     34  C   UNL A   1      41.996  26.194  27.217  1.00  0.00     0.039 A 
ATOM     35  C   UNL A   1      42.893  27.181  27.631  1.00  0.00     0.014 A 
ATOM     36  C   UNL A   1      40.899  25.890  28.019  1.00  0.00     0.014 A 
ATOM     37  C   UNL A   1      42.650  27.911  28.807  1.00  0.00     0.010 A 
ATOM     38  C   UNL A   1      40.644  26.648  29.176  1.00  0.00     0.010 A 
ATOM     39  C   UNL A   1      41.494  27.696  29.579  1.00  0.00    -0.014 A 
BRANCH  39  40
ATOM     40  C   UNL A   1      41.166  28.588  30.753  1.00  0.00     0.031 A 
ATOM     41  C   UNL A   1      41.946  28.524  32.053  1.00  0.00     0.074 A 
ATOM     42  C   UNL A   1      40.118  29.446  30.700  1.00  0.00     0.049 A 
ATOM     43  N   UNL A   1      41.787  29.228  33.150  1.00  0.00    -0.248 NA
ATOM     44  C   UNL A   1      43.009  27.514  32.151  1.00  0.00     0.031 C 
ATOM     45  C   UNL A   1      39.176  29.578  29.585  1.00  0.00     0.029 A 
ATOM     46  N   UNL A   1      39.670  30.382  31.610  1.00  0.00    -0.354 N 
ATOM     47  C   UNL A   1      42.705  28.730  34.068  1.00  0.00     0.074 A 
ATOM     48  C   UNL A   1      43.367  27.615  33.422  1.00  0.00     0.031 C 
ATOM     49  C   UNL A   1      38.310  30.570  29.848  1.00  0.00     0.029 A 
ATOM     50  C   UNL A   1      38.604  31.135  31.163  1.00  0.00     0.049 A 
ATOM     51  H   UNL A   1      40.074  30.502  32.499  1.00  0.00     0.167 HD
ATOM     52  C   UNL A   1      43.016  29.172  35.313  1.00  0.00     0.037 A 
ATOM     53  C   UNL A   1      37.942  32.169  31.724  1.00  0.00     0.037 A 
ATOM     54  C   UNL A   1      42.431  30.321  35.955  1.00  0.00     0.049 A 
ATOM     55  C   UNL A   1      38.345  32.691  33.080  1.00  0.00     0.074 A 
ATOM     56  C   UNL A   1      42.773  30.892  37.172  1.00  0.00     0.029 A 
ATOM     57  N   UNL A   1      41.394  31.080  35.441  1.00  0.00    -0.354 N 
ATOM     58  N   UNL A   1      39.295  32.269  33.877  1.00  0.00    -0.248 NA
ATOM     59  C   UNL A   1      37.588  33.839  33.607  1.00  0.00     0.031 C 
ATOM     60  C   UNL A   1      41.925  31.979  37.405  1.00  0.00     0.029 A 
ATOM     61  C   UNL A   1      41.078  32.107  36.318  1.00  0.00     0.049 A 
ATOM     62  H   UNL A   1      40.947  30.915  34.580  1.00  0.00     0.167 HD
ATOM     63  C   UNL A   1      39.268  33.117  34.983  1.00  0.00     0.074 A 
ATOM     64  C   UNL A   1      38.218  34.083  34.748  1.00  0.00     0.031 C 
ATOM     65  C   UNL A   1      40.049  33.089  36.090  1.00  0.00     0.037 A 
BRANCH  52  66
ATOM     66  C   UNL A   1      44.088  28.426  36.063  1.00  0.00     0.058 A 
ATOM     67  C   UNL A   1      45.438  28.803  35.972  1.00  0.00     0.135 A 
ATOM     68  C   UNL A   1      43.763  27.350  36.906  1.00  0.00     0.135 A 
ATOM     69  F   UNL A   1      45.803  29.822  35.177  1.00  0.00    -0.206 F 
ATOM     70  C   UNL A   1      46.434  28.110  36.649  1.00  0.00     0.059 A 
ATOM     71  C   UNL A   1      44.742  26.662  37.618  1.00  0.00     0.059 A 
ATOM     72  F   UNL A   1      42.488  26.959  37.042  1.00  0.00    -0.206 F 
ATOM     73  C   UNL A   1      46.077  27.035  37.464  1.00  0.00     0.060 A 
BRANCH  73  74
ATOM     74  S   UNL A   1      47.384  26.132  38.318  1.00  0.00     0.124 S 
ATOM     75  O   UNL A   1      47.702  25.094  37.343  1.00  0.00    -0.237 OA
ATOM     76  O   UNL A   1      48.405  27.158  38.506  1.00  0.00    -0.237 OA
ATOM     77  O   UNL A   1      46.734  25.668  39.540  1.00  0.00    -0.744 OA
ENDBRANCH  73  74
ENDBRANCH  52  66
BRANCH  53  78
ATOM     78  C   UNL A   1      36.838  32.842  30.983  1.00  0.00     0.058 A 
ATOM     79  C   UNL A   1      35.497  32.596  31.319  1.00  0.00     0.135 A 
ATOM     80  C   UNL A   1      37.094  33.709  29.912  1.00  0.00     0.135 A 
ATOM     81  F   UNL A   1      35.201  31.763  32.329  1.00  0.00    -0.206 F 
ATOM     82  C   UNL A   1      34.449  33.164  30.603  1.00  0.00     0.059 A 
ATOM     83  C   UNL A   1      36.063  34.308  29.194  1.00  0.00     0.059 A 
ATOM     84  F   UNL A   1      38.359  33.985  29.559  1.00  0.00    -0.206 F 
ATOM     85  C   UNL A   1      34.743  34.018  29.540  1.00  0.00     0.060 A 
BRANCH  85  86
ATOM     86  S   UNL A   1      33.374  34.776  28.634  1.00  0.00     0.124 S 
ATOM     87  O   UNL A   1      32.981  33.694  27.738  1.00  0.00    -0.237 OA
ATOM     88  O   UNL A   1      32.435  35.091  29.705  1.00  0.00    -0.237 OA
ATOM     89  O   UNL A   1      33.996  35.932  27.996  1.00  0.00    -0.744 OA
ENDBRANCH  85  86
ENDBRANCH  53  78
BRANCH  65  90
ATOM     90  C   UNL A   1      39.838  34.155  37.132  1.00  0.00     0.058 A 
ATOM     91  C   UNL A   1      39.041  33.934  38.266  1.00  0.00     0.135 A 
ATOM     92  C   UNL A   1      40.491  35.394  37.025  1.00  0.00     0.135 A 
ATOM     93  F   UNL A   1      38.389  32.770  38.417  1.00  0.00    -0.206 F 
ATOM     94  C   UNL A   1      38.883  34.909  39.247  1.00  0.00     0.059 A 
ATOM     95  C   UNL A   1      40.366  36.376  38.006  1.00  0.00     0.059 A 
ATOM     96  F   UNL A   1      41.273  35.657  35.966  1.00  0.00    -0.206 F 
ATOM     97  C   UNL A   1      39.553  36.127  39.110  1.00  0.00     0.060 A 
BRANCH  97  98
ATOM     98  S   UNL A   1      39.376  37.368  40.411  1.00  0.00     0.124 S 
ATOM     99  O   UNL A   1      38.405  38.281  39.820  1.00  0.00    -0.237 OA
ATOM    100  O   UNL A   1      38.895  36.575  41.538  1.00  0.00    -0.237 OA
ATOM    101  O   UNL A   1      40.728  37.899  40.561  1.00  0.00    -0.744 OA
ENDBRANCH  97  98
ENDBRANCH  65  90
ENDBRANCH  39  40
ENDBRANCH  31  34
ENDBRANCH  29  30
ENDBRANCH  28  29
ENDBRANCH  27  28
ENDBRANCH   1  27
TORSDOF 19
ENDMDL
MODEL 3
REMARK VINA RESULT:     -12.2      1.539      2.407
REMARK SMILES C[C@@H]1[C@H](C(=O)NCCCCCCNC(=O)c2ccc(-c3c4nc(c(-c5c(F)cc(S(=O)(=O)[O-])cc5F)c5ccc([nH]5)c(-c5c(F)cc(S(=O)(=O)[O-])cc5F)c5nc(c(-c6c(F)cc(S(=O)(=O)[O-])cc6F)c6ccc3[nH]6)C=C5)C=C4)cc2)CC[N@@H+]1Cc1cnn(-c2ccccc2)c1
REMARK SMILES IDX 9 1 8 2 7 3 6 4 4 5 5 6 3 8 1 9 2 10 84 11 82 12 83 13 85 15
REMARK SMILES IDX 86 16 87 17 96 18 88 19 89 20 90 21 91 22 95 23 92 24 94 25
REMARK SMILES IDX 93 26 10 27 11 28 12 29 13 30 14 31 15 33 16 34 17 35 81 36
REMARK SMILES IDX 18 37 80 38 19 39 20 40 21 41 74 42 22 43 79 44 73 45 75 46
REMARK SMILES IDX 23 47 78 48 72 49 71 50 24 52 58 53 37 54 57 55 38 56 41 57
REMARK SMILES IDX 56 58 76 59 39 60 40 61 55 63 77 64 42 65 25 66 26 67 35 68
REMARK SMILES IDX 27 69 28 70 34 71 36 72 29 73 30 74 31 75 32 76 33 77 59 78
REMARK SMILES IDX 60 79 69 80 61 81 62 82 68 83 70 84 63 85 64 86 65 87 66 88
REMARK SMILES IDX 67 89 43 90 44 91 53 92 45 93 46 94 52 95 54 96 47 97 48 98
REMARK SMILES IDX 49 99 50 100 51 101
REMARK H PARENT 6 7 84 14 13 32 75 51 41 62
REMARK Flexibility Score: inf
ROOT
ATOM      1  C   UNL A   1      40.030  22.250  27.152  1.00  0.00     0.002 C 
ENDROOT
BRANCH   1   2
ATOM      2  C   UNL A   1      39.692  21.126  26.164  1.00  0.00     0.021 C 
BRANCH   2   3
ATOM      3  C   UNL A   1      38.370  21.265  25.396  1.00  0.00     0.116 C 
BRANCH   3   4
ATOM      4  N   UNL A   1      37.800  22.593  25.541  1.00  0.00    -0.356 N 
ATOM      5  C   UNL A   1      36.571  23.103  25.288  1.00  0.00     0.229 C 
ATOM      6  O   UNL A   1      36.443  24.321  25.476  1.00  0.00    -0.275 OA
ATOM      7  H   UNL A   1      38.436  23.257  25.893  1.00  0.00     0.163 HD
BRANCH   5   8
ATOM      8  C   UNL A   1      35.366  22.307  24.805  1.00  0.00     0.142 C 
ATOM      9  C   UNL A   1      34.356  22.353  27.218  1.00  0.00     0.076 C 
ATOM     10  C   UNL A   1      34.333  21.770  25.814  1.00  0.00     0.193 C 
ATOM     11  N   UNL A   1      33.058  21.749  25.077  1.00  0.00    -0.328 N 
ATOM     12  C   UNL A   1      34.558  22.879  23.650  1.00  0.00     0.081 C 
ATOM     13  C   UNL A   1      33.311  22.009  23.665  1.00  0.00     0.263 C 
ATOM     14  H   UNL A   1      32.729  20.793  25.213  1.00  0.00     0.348 HD
BRANCH  11  15
ATOM     15  C   UNL A   1      31.821  22.260  25.644  1.00  0.00     0.302 C 
BRANCH  15  16
ATOM     16  C   UNL A   1      31.513  23.670  25.279  1.00  0.00     0.045 A 
ATOM     17  C   UNL A   1      30.670  24.145  24.254  1.00  0.00     0.145 A 
ATOM     18  C   UNL A   1      31.899  24.826  25.931  1.00  0.00     0.124 A 
ATOM     19  N   UNL A   1      30.596  25.471  24.211  1.00  0.00    -0.176 NA
ATOM     20  N   UNL A   1      31.327  25.891  25.270  1.00  0.00    -0.240 N 
BRANCH  20  21
ATOM     21  C   UNL A   1      31.417  27.268  25.585  1.00  0.00     0.065 A 
ATOM     22  C   UNL A   1      31.857  27.640  26.866  1.00  0.00     0.028 A 
ATOM     23  C   UNL A   1      31.111  28.252  24.636  1.00  0.00     0.028 A 
ATOM     24  C   UNL A   1      32.041  28.980  27.178  1.00  0.00     0.002 A 
ATOM     25  C   UNL A   1      31.292  29.594  24.959  1.00  0.00     0.002 A 
ATOM     26  C   UNL A   1      31.778  29.947  26.218  1.00  0.00     0.000 A 
ENDBRANCH  20  21
ENDBRANCH  15  16
ENDBRANCH  11  15
ENDBRANCH   5   8
ENDBRANCH   3   4
ENDBRANCH   2   3
ENDBRANCH   1   2
BRANCH   1  27
ATOM     27  C   UNL A   1      41.352  22.114  27.914  1.00  0.00     0.002 C 
BRANCH  27  28
ATOM     28  C   UNL A   1      42.633  22.044  27.069  1.00  0.00     0.021 C 
BRANCH  28  29
ATOM     29  C   UNL A   1      43.464  23.329  26.963  1.00  0.00     0.116 C 
BRANCH  29  30
ATOM     30  N   UNL A   1      43.110  24.152  25.819  1.00  0.00    -0.352 N 
ATOM     31  C   UNL A   1      42.502  25.390  25.788  1.00  0.00     0.251 C 
ATOM     32  H   UNL A   1      43.336  23.770  24.940  1.00  0.00     0.163 HD
ATOM     33  O   UNL A   1      42.194  25.890  24.714  1.00  0.00    -0.269 OA
BRANCH  31  34
ATOM     34  C   UNL A   1      42.200  26.119  27.045  1.00  0.00     0.039 A 
ATOM     35  C   UNL A   1      43.064  27.131  27.470  1.00  0.00     0.014 A 
ATOM     36  C   UNL A   1      41.111  25.773  27.843  1.00  0.00     0.014 A 
ATOM     37  C   UNL A   1      42.795  27.843  28.651  1.00  0.00     0.010 A 
ATOM     38  C   UNL A   1      40.830  26.513  29.005  1.00  0.00     0.010 A 
ATOM     39  C   UNL A   1      41.644  27.585  29.419  1.00  0.00    -0.014 A 
BRANCH  39  40
ATOM     40  C   UNL A   1      41.285  28.456  30.598  1.00  0.00     0.031 A 
ATOM     41  C   UNL A   1      42.054  28.396  31.904  1.00  0.00     0.074 A 
ATOM     42  C   UNL A   1      40.218  29.291  30.545  1.00  0.00     0.049 A 
ATOM     43  N   UNL A   1      41.869  29.085  33.007  1.00  0.00    -0.248 NA
ATOM     44  C   UNL A   1      43.140  27.410  32.002  1.00  0.00     0.031 C 
ATOM     45  C   UNL A   1      39.284  29.413  29.423  1.00  0.00     0.029 A 
ATOM     46  N   UNL A   1      39.740  30.206  31.460  1.00  0.00    -0.354 N 
ATOM     47  C   UNL A   1      42.791  28.598  33.929  1.00  0.00     0.074 A 
ATOM     48  C   UNL A   1      43.483  27.505  33.278  1.00  0.00     0.031 C 
ATOM     49  C   UNL A   1      38.393  30.382  29.688  1.00  0.00     0.029 A 
ATOM     50  C   UNL A   1      38.662  30.939  31.011  1.00  0.00     0.049 A 
ATOM     51  H   UNL A   1      40.134  30.326  32.354  1.00  0.00     0.167 HD
ATOM     52  C   UNL A   1      43.079  29.033  35.181  1.00  0.00     0.037 A 
ATOM     53  C   UNL A   1      37.971  31.953  31.577  1.00  0.00     0.037 A 
ATOM     54  C   UNL A   1      42.462  30.161  35.830  1.00  0.00     0.049 A 
ATOM     55  C   UNL A   1      38.350  32.468  32.942  1.00  0.00     0.074 A 
ATOM     56  C   UNL A   1      42.780  30.727  37.056  1.00  0.00     0.029 A 
ATOM     57  N   UNL A   1      41.413  30.903  35.315  1.00  0.00    -0.354 N 
ATOM     58  N   UNL A   1      39.302  32.060  33.743  1.00  0.00    -0.248 NA
ATOM     59  C   UNL A   1      37.562  33.593  33.474  1.00  0.00     0.031 C 
ATOM     60  C   UNL A   1      41.905  31.791  37.293  1.00  0.00     0.029 A 
ATOM     61  C   UNL A   1      41.066  31.912  36.200  1.00  0.00     0.049 A 
ATOM     62  H   UNL A   1      40.978  30.737  34.448  1.00  0.00     0.167 HD
ATOM     63  C   UNL A   1      39.246  32.895  34.858  1.00  0.00     0.074 A 
ATOM     64  C   UNL A   1      38.176  33.839  34.624  1.00  0.00     0.031 C 
ATOM     65  C   UNL A   1      40.016  32.873  35.972  1.00  0.00     0.037 A 
BRANCH  52  66
ATOM     66  C   UNL A   1      44.162  28.304  35.934  1.00  0.00     0.058 A 
ATOM     67  C   UNL A   1      43.859  27.243  36.802  1.00  0.00     0.135 A 
ATOM     68  C   UNL A   1      45.513  28.645  35.763  1.00  0.00     0.135 A 
ATOM     69  F   UNL A   1      42.582  26.879  37.005  1.00  0.00    -0.206 F 
ATOM     70  C   UNL A   1      44.850  26.577  37.511  1.00  0.00     0.059 A 
ATOM     71  C   UNL A   1      46.526  27.971  36.440  1.00  0.00     0.059 A 
ATOM     72  F   UNL A   1      45.861  29.641  34.934  1.00  0.00    -0.206 F 
ATOM     73  C   UNL A   1      46.182  26.954  37.329  1.00  0.00     0.060 A 
BRANCH  73  74
ATOM     74  S   UNL A   1      47.456  26.095  38.275  1.00  0.00     0.124 S 
ATOM     75  O   UNL A   1      48.649  26.845  37.899  1.00  0.00    -0.237 OA
ATOM     76  O   UNL A   1      47.002  26.275  39.651  1.00  0.00    -0.237 OA
ATOM     77  O   UNL A   1      47.388  24.727  37.771  1.00  0.00    -0.744 OA
ENDBRANCH  73  74
ENDBRANCH  52  66
BRANCH  53  78
ATOM     78  C   UNL A   1      36.859  32.607  30.833  1.00  0.00     0.058 A 
ATOM     79  C   UNL A   1      37.128  33.540  29.818  1.00  0.00     0.135 A 
ATOM     80  C   UNL A   1      35.516  32.346  31.140  1.00  0.00     0.135 A 
ATOM     81  F   UNL A   1      38.398  33.834  29.498  1.00  0.00    -0.206 F 
ATOM     82  C   UNL A   1      36.107  34.209  29.152  1.00  0.00     0.059 A 
ATOM     83  C   UNL A   1      34.476  32.986  30.471  1.00  0.00     0.059 A 
ATOM     84  F   UNL A   1      35.206  31.455  32.094  1.00  0.00    -0.206 F 
ATOM     85  C   UNL A   1      34.783  33.926  29.488  1.00  0.00     0.060 A 
BRANCH  85  86
ATOM     86  S   UNL A   1      33.462  34.778  28.595  1.00  0.00     0.124 S 
ATOM     87  O   UNL A   1      34.188  35.886  27.986  1.00  0.00    -0.237 OA
ATOM     88  O   UNL A   1      32.992  33.742  27.681  1.00  0.00    -0.237 OA
ATOM     89  O   UNL A   1      32.525  35.142  29.654  1.00  0.00    -0.744 OA
ENDBRANCH  85  86
ENDBRANCH  53  78
BRANCH  65  90
ATOM     90  C   UNL A   1      39.772  33.922  37.023  1.00  0.00     0.058 A 
ATOM     91  C   UNL A   1      39.022  33.652  38.179  1.00  0.00     0.135 A 
ATOM     92  C   UNL A   1      40.345  35.199  36.902  1.00  0.00     0.135 A 
ATOM     93  F   UNL A   1      38.447  32.450  38.345  1.00  0.00    -0.206 F 
ATOM     94  C   UNL A   1      38.834  34.614  39.168  1.00  0.00     0.059 A 
ATOM     95  C   UNL A   1      40.189  36.170  37.890  1.00  0.00     0.059 A 
ATOM     96  F   UNL A   1      41.079  35.511  35.822  1.00  0.00    -0.206 F 
ATOM     97  C   UNL A   1      39.425  35.871  39.016  1.00  0.00     0.060 A 
BRANCH  97  98
ATOM     98  S   UNL A   1      39.211  37.096  40.326  1.00  0.00     0.124 S 
ATOM     99  O   UNL A   1      40.577  37.253  40.810  1.00  0.00    -0.237 OA
ATOM    100  O   UNL A   1      38.660  38.237  39.602  1.00  0.00    -0.237 OA
ATOM    101  O   UNL A   1      38.287  36.446  41.251  1.00  0.00    -0.744 OA
ENDBRANCH  97  98
ENDBRANCH  65  90
ENDBRANCH  39  40
ENDBRANCH  31  34
ENDBRANCH  29  30
ENDBRANCH  28  29
ENDBRANCH  27  28
ENDBRANCH   1  27
TORSDOF 19
ENDMDL
