MODEL 1
REMARK VINA RESULT:      -9.9      0.000      0.000
REMARK SMILES CCCCCC(=O)N1CSC[C@H]1C(=O)NCCCCCCNC(=O)c1ccc(-c2c3nc(c(-c4c(F)cc(S(=O)(=O)[O-])cc4F)c4ccc([nH]4)c(-c4c(F)cc(S(=O)(=O)[O-])cc4F)c4nc(c(-c5c(F)cc(S(=O)(=O)[O-])cc5F)c5ccc2[nH]5)C=C4)C=C3)cc1
REMARK SMILES IDX 17 1 16 2 15 3 13 4 14 5 12 7 8 8 9 9 10 10 11 11 6 12 7 13
REMARK SMILES IDX 5 14 4 15 3 16 2 17 1 18 18 19 19 20 20 21 21 22 22 23 23 24
REMARK SMILES IDX 24 26 25 27 26 28 90 29 27 30 89 31 28 32 29 33 30 34 83 35
REMARK SMILES IDX 31 36 88 37 82 38 84 39 32 40 87 41 81 42 80 43 33 45 67 46
REMARK SMILES IDX 46 47 66 48 47 49 50 50 65 51 85 52 48 53 49 54 64 56 86 57
REMARK SMILES IDX 51 58 34 59 35 60 44 61 36 62 37 63 43 64 45 65 38 66 39 67
REMARK SMILES IDX 40 68 41 69 42 70 68 71 69 72 78 73 70 74 71 75 77 76 79 77
REMARK SMILES IDX 72 78 73 79 74 80 75 81 76 82 52 83 53 84 62 85 54 86 55 87
REMARK SMILES IDX 61 88 63 89 56 90 57 91 58 92 59 93 60 94
REMARK H PARENT 15 6 22 25 84 44 50 55
REMARK Flexibility Score: inf
ROOT
ATOM      1  C   UNL A   1      36.762  23.676  26.067  1.00  0.00     0.021 C 
ENDROOT
BRANCH   1   2
ATOM      2  C   UNL A   1      36.066  22.325  25.986  1.00  0.00     0.116 C 
BRANCH   2   3
ATOM      3  N   UNL A   1      35.104  22.156  27.050  1.00  0.00    -0.354 N 
ATOM      4  C   UNL A   1      33.812  22.576  27.133  1.00  0.00     0.243 C 
ATOM      5  O   UNL A   1      33.136  22.127  28.067  1.00  0.00    -0.273 OA
ATOM      6  H   UNL A   1      35.433  21.662  27.835  1.00  0.00     0.163 HD
BRANCH   4   7
ATOM      7  C   UNL A   1      33.131  23.361  25.995  1.00  0.00     0.185 C 
ATOM      8  N   UNL A   1      32.205  22.655  25.098  1.00  0.00    -0.321 N 
ATOM      9  C   UNL A   1      30.879  23.202  25.019  1.00  0.00     0.190 C 
ATOM     10  S   UNL A   1      30.787  24.719  25.962  1.00  0.00    -0.138 SA
ATOM     11  C   UNL A   1      32.468  24.599  26.605  1.00  0.00     0.106 C 
BRANCH   8  12
ATOM     12  C   UNL A   1      32.727  21.704  24.240  1.00  0.00     0.223 C 
ATOM     13  O   UNL A   1      33.065  22.012  23.093  1.00  0.00    -0.275 OA
BRANCH  12  14
ATOM     14  C   UNL A   1      32.705  20.228  24.641  1.00  0.00     0.100 C 
BRANCH  14  15
ATOM     15  C   UNL A   1      34.012  19.437  24.699  1.00  0.00     0.010 C 
BRANCH  15  16
ATOM     16  C   UNL A   1      34.001  17.981  24.215  1.00  0.00     0.000 C 
BRANCH  16  17
ATOM     17  C   UNL A   1      32.810  17.111  24.641  1.00  0.00    -0.003 C 
ATOM     18  C   UNL A   1      33.188  15.813  25.324  1.00  0.00     0.004 C 
ENDBRANCH  16  17
ENDBRANCH  15  16
ENDBRANCH  14  15
ENDBRANCH  12  14
ENDBRANCH   8  12
ENDBRANCH   4   7
ENDBRANCH   2   3
ENDBRANCH   1   2
BRANCH   1  19
ATOM     19  C   UNL A   1      38.287  23.560  26.170  1.00  0.00     0.002 C 
BRANCH  19  20
ATOM     20  C   UNL A   1      38.836  22.140  25.976  1.00  0.00     0.002 C 
BRANCH  20  21
ATOM     21  C   UNL A   1      40.148  21.852  26.712  1.00  0.00     0.021 C 
BRANCH  21  22
ATOM     22  C   UNL A   1      40.831  23.095  27.274  1.00  0.00     0.116 C 
BRANCH  22  23
ATOM     23  N   UNL A   1      41.442  23.889  26.219  1.00  0.00    -0.352 N 
ATOM     24  C   UNL A   1      41.628  25.247  26.151  1.00  0.00     0.251 C 
ATOM     25  H   UNL A   1      41.768  23.379  25.442  1.00  0.00     0.163 HD
ATOM     26  O   UNL A   1      41.922  25.774  25.084  1.00  0.00    -0.269 OA
BRANCH  24  27
ATOM     27  C   UNL A   1      41.468  26.066  27.370  1.00  0.00     0.039 A 
ATOM     28  C   UNL A   1      42.493  26.936  27.745  1.00  0.00     0.014 A 
ATOM     29  C   UNL A   1      40.311  25.960  28.149  1.00  0.00     0.014 A 
ATOM     30  C   UNL A   1      42.336  27.738  28.877  1.00  0.00     0.010 A 
ATOM     31  C   UNL A   1      40.125  26.812  29.230  1.00  0.00     0.010 A 
ATOM     32  C   UNL A   1      41.140  27.703  29.612  1.00  0.00    -0.014 A 
BRANCH  32  33
ATOM     33  C   UNL A   1      40.932  28.582  30.789  1.00  0.00     0.031 A 
ATOM     34  C   UNL A   1      39.871  29.647  30.756  1.00  0.00     0.074 A 
ATOM     35  C   UNL A   1      41.742  28.462  31.860  1.00  0.00     0.049 A 
ATOM     36  N   UNL A   1      39.587  30.560  31.650  1.00  0.00    -0.248 NA
ATOM     37  C   UNL A   1      39.036  29.716  29.545  1.00  0.00     0.031 C 
ATOM     38  C   UNL A   1      42.837  27.497  31.988  1.00  0.00     0.029 A 
ATOM     39  N   UNL A   1      41.779  29.163  33.039  1.00  0.00    -0.354 N 
ATOM     40  C   UNL A   1      38.554  31.315  31.106  1.00  0.00     0.074 A 
ATOM     41  C   UNL A   1      38.300  30.792  29.783  1.00  0.00     0.031 C 
ATOM     42  C   UNL A   1      43.423  27.653  33.187  1.00  0.00     0.029 A 
ATOM     43  C   UNL A   1      42.775  28.753  33.893  1.00  0.00     0.049 A 
ATOM     44  H   UNL A   1      41.152  29.891  33.252  1.00  0.00     0.167 HD
ATOM     45  C   UNL A   1      37.867  32.336  31.670  1.00  0.00     0.037 A 
ATOM     46  C   UNL A   1      43.132  29.218  35.107  1.00  0.00     0.037 A 
ATOM     47  C   UNL A   1      38.113  32.835  32.998  1.00  0.00     0.049 A 
ATOM     48  C   UNL A   1      42.356  30.357  35.711  1.00  0.00     0.074 A 
ATOM     49  C   UNL A   1      37.435  33.827  33.684  1.00  0.00     0.029 A 
ATOM     50  N   UNL A   1      39.116  32.379  33.842  1.00  0.00    -0.354 N 
ATOM     51  N   UNL A   1      41.341  31.020  35.208  1.00  0.00    -0.248 NA
ATOM     52  C   UNL A   1      42.766  30.808  37.046  1.00  0.00     0.031 C 
ATOM     53  C   UNL A   1      38.060  34.006  34.923  1.00  0.00     0.029 A 
ATOM     54  C   UNL A   1      39.090  33.086  35.033  1.00  0.00     0.049 A 
ATOM     55  H   UNL A   1      39.753  31.660  33.627  1.00  0.00     0.167 HD
ATOM     56  C   UNL A   1      40.973  31.945  36.179  1.00  0.00     0.074 A 
ATOM     57  C   UNL A   1      41.867  31.748  37.301  1.00  0.00     0.031 C 
ATOM     58  C   UNL A   1      39.984  32.872  36.145  1.00  0.00     0.037 A 
BRANCH  45  59
ATOM     59  C   UNL A   1      36.780  32.983  30.853  1.00  0.00     0.058 A 
ATOM     60  C   UNL A   1      35.426  32.659  31.038  1.00  0.00     0.135 A 
ATOM     61  C   UNL A   1      37.092  33.963  29.898  1.00  0.00     0.135 A 
ATOM     62  F   UNL A   1      35.070  31.718  31.927  1.00  0.00    -0.206 F 
ATOM     63  C   UNL A   1      34.423  33.261  30.285  1.00  0.00     0.059 A 
ATOM     64  C   UNL A   1      36.102  34.603  29.154  1.00  0.00     0.059 A 
ATOM     65  F   UNL A   1      38.369  34.312  29.679  1.00  0.00    -0.206 F 
ATOM     66  C   UNL A   1      34.773  34.232  29.345  1.00  0.00     0.060 A 
BRANCH  66  67
ATOM     67  S   UNL A   1      33.458  35.008  28.380  1.00  0.00     0.124 S 
ATOM     68  O   UNL A   1      32.874  35.917  29.362  1.00  0.00    -0.237 OA
ATOM     69  O   UNL A   1      34.200  35.641  27.294  1.00  0.00    -0.237 OA
ATOM     70  O   UNL A   1      32.615  33.883  27.987  1.00  0.00    -0.744 OA
ENDBRANCH  66  67
ENDBRANCH  45  59
BRANCH  46  71
ATOM     71  C   UNL A   1      44.267  28.592  35.838  1.00  0.00     0.058 A 
ATOM     72  C   UNL A   1      45.579  29.057  35.667  1.00  0.00     0.135 A 
ATOM     73  C   UNL A   1      44.063  27.530  36.733  1.00  0.00     0.135 A 
ATOM     74  F   UNL A   1      45.828  30.067  34.819  1.00  0.00    -0.206 F 
ATOM     75  C   UNL A   1      46.651  28.481  36.341  1.00  0.00     0.059 A 
ATOM     76  C   UNL A   1      45.114  26.955  37.438  1.00  0.00     0.059 A 
ATOM     77  F   UNL A   1      42.823  27.060  36.947  1.00  0.00    -0.206 F 
ATOM     78  C   UNL A   1      46.408  27.431  37.228  1.00  0.00     0.060 A 
BRANCH  78  79
ATOM     79  S   UNL A   1      47.800  26.720  38.131  1.00  0.00     0.124 S 
ATOM     80  O   UNL A   1      47.342  25.352  38.347  1.00  0.00    -0.237 OA
ATOM     81  O   UNL A   1      48.896  26.885  37.182  1.00  0.00    -0.237 OA
ATOM     82  O   UNL A   1      47.884  27.554  39.327  1.00  0.00    -0.744 OA
ENDBRANCH  78  79
ENDBRANCH  46  71
BRANCH  58  83
ATOM     83  C   UNL A   1      39.786  33.720  37.371  1.00  0.00     0.058 A 
ATOM     84  C   UNL A   1      40.445  34.948  37.536  1.00  0.00     0.135 A 
ATOM     85  C   UNL A   1      38.878  33.323  38.368  1.00  0.00     0.135 A 
ATOM     86  F   UNL A   1      41.328  35.370  36.617  1.00  0.00    -0.206 F 
ATOM     87  C   UNL A   1      40.230  35.742  38.658  1.00  0.00     0.059 A 
ATOM     88  C   UNL A   1      38.625  34.116  39.482  1.00  0.00     0.059 A 
ATOM     89  F   UNL A   1      38.213  32.163  38.254  1.00  0.00    -0.206 F 
ATOM     90  C   UNL A   1      39.315  35.320  39.624  1.00  0.00     0.060 A 
BRANCH  90  91
ATOM     91  S   UNL A   1      39.017  36.378  41.055  1.00  0.00     0.124 S 
ATOM     92  O   UNL A   1      38.660  37.641  40.417  1.00  0.00    -0.237 OA
ATOM     93  O   UNL A   1      37.930  35.683  41.737  1.00  0.00    -0.237 OA
ATOM     94  O   UNL A   1      40.298  36.368  41.758  1.00  0.00    -0.744 OA
ENDBRANCH  90  91
ENDBRANCH  58  83
ENDBRANCH  32  33
ENDBRANCH  24  27
ENDBRANCH  22  23
ENDBRANCH  21  22
ENDBRANCH  20  21
ENDBRANCH  19  20
ENDBRANCH   1  19
TORSDOF 21
ENDMDL
MODEL 2
REMARK VINA RESULT:      -9.8      6.092      8.644
REMARK SMILES CCCCCC(=O)N1CSC[C@H]1C(=O)NCCCCCCNC(=O)c1ccc(-c2c3nc(c(-c4c(F)cc(S(=O)(=O)[O-])cc4F)c4ccc([nH]4)c(-c4c(F)cc(S(=O)(=O)[O-])cc4F)c4nc(c(-c5c(F)cc(S(=O)(=O)[O-])cc5F)c5ccc2[nH]5)C=C4)C=C3)cc1
REMARK SMILES IDX 17 1 16 2 15 3 13 4 14 5 12 7 8 8 9 9 10 10 11 11 6 12 7 13
REMARK SMILES IDX 5 14 4 15 3 16 2 17 1 18 18 19 19 20 20 21 21 22 22 23 23 24
REMARK SMILES IDX 24 26 25 27 26 28 90 29 27 30 89 31 28 32 29 33 30 34 83 35
REMARK SMILES IDX 31 36 88 37 82 38 84 39 32 40 87 41 81 42 80 43 33 45 67 46
REMARK SMILES IDX 46 47 66 48 47 49 50 50 65 51 85 52 48 53 49 54 64 56 86 57
REMARK SMILES IDX 51 58 34 59 35 60 44 61 36 62 37 63 43 64 45 65 38 66 39 67
REMARK SMILES IDX 40 68 41 69 42 70 68 71 69 72 78 73 70 74 71 75 77 76 79 77
REMARK SMILES IDX 72 78 73 79 74 80 75 81 76 82 52 83 53 84 62 85 54 86 55 87
REMARK SMILES IDX 61 88 63 89 56 90 57 91 58 92 59 93 60 94
REMARK H PARENT 15 6 22 25 84 44 50 55
REMARK Flexibility Score: inf
ROOT
ATOM      1  C   UNL A   1      37.550  23.893  26.244  1.00  0.00     0.021 C 
ENDROOT
BRANCH   1   2
ATOM      2  C   UNL A   1      36.151  23.673  25.684  1.00  0.00     0.116 C 
BRANCH   2   3
ATOM      3  N   UNL A   1      35.227  23.245  26.709  1.00  0.00    -0.354 N 
ATOM      4  C   UNL A   1      33.875  23.379  26.774  1.00  0.00     0.243 C 
ATOM      5  O   UNL A   1      33.292  22.746  27.663  1.00  0.00    -0.273 OA
ATOM      6  H   UNL A   1      35.640  22.787  27.477  1.00  0.00     0.163 HD
BRANCH   4   7
ATOM      7  C   UNL A   1      33.064  24.067  25.659  1.00  0.00     0.185 C 
ATOM      8  N   UNL A   1      32.252  23.240  24.755  1.00  0.00    -0.321 N 
ATOM      9  C   UNL A   1      30.854  23.570  24.700  1.00  0.00     0.190 C 
ATOM     10  S   UNL A   1      30.534  25.035  25.674  1.00  0.00    -0.138 SA
ATOM     11  C   UNL A   1      32.219  25.172  26.300  1.00  0.00     0.106 C 
BRANCH   8  12
ATOM     12  C   UNL A   1      32.908  22.400  23.874  1.00  0.00     0.223 C 
ATOM     13  O   UNL A   1      33.465  22.855  22.870  1.00  0.00    -0.275 OA
BRANCH  12  14
ATOM     14  C   UNL A   1      32.781  20.884  24.033  1.00  0.00     0.100 C 
BRANCH  14  15
ATOM     15  C   UNL A   1      33.862  20.106  24.784  1.00  0.00     0.010 C 
BRANCH  15  16
ATOM     16  C   UNL A   1      34.077  18.630  24.422  1.00  0.00     0.000 C 
BRANCH  16  17
ATOM     17  C   UNL A   1      32.844  17.833  23.971  1.00  0.00    -0.003 C 
ATOM     18  C   UNL A   1      32.633  17.793  22.471  1.00  0.00     0.004 C 
ENDBRANCH  16  17
ENDBRANCH  15  16
ENDBRANCH  14  15
ENDBRANCH  12  14
ENDBRANCH   8  12
ENDBRANCH   4   7
ENDBRANCH   2   3
ENDBRANCH   1   2
BRANCH   1  19
ATOM     19  C   UNL A   1      38.514  22.748  25.916  1.00  0.00     0.002 C 
BRANCH  19  20
ATOM     20  C   UNL A   1      37.914  21.632  25.051  1.00  0.00     0.002 C 
BRANCH  20  21
ATOM     21  C   UNL A   1      38.565  20.258  25.232  1.00  0.00     0.021 C 
BRANCH  21  22
ATOM     22  C   UNL A   1      39.504  20.168  26.431  1.00  0.00     0.116 C 
BRANCH  22  23
ATOM     23  N   UNL A   1      40.633  19.293  26.158  1.00  0.00    -0.352 N 
ATOM     24  C   UNL A   1      41.948  19.616  25.933  1.00  0.00     0.251 C 
ATOM     25  H   UNL A   1      40.425  18.331  26.131  1.00  0.00     0.163 HD
ATOM     26  O   UNL A   1      42.714  18.782  25.465  1.00  0.00    -0.269 OA
BRANCH  24  27
ATOM     27  C   UNL A   1      42.429  20.976  26.254  1.00  0.00     0.039 A 
ATOM     28  C   UNL A   1      42.690  21.308  27.585  1.00  0.00     0.014 A 
ATOM     29  C   UNL A   1      42.606  21.923  25.241  1.00  0.00     0.014 A 
ATOM     30  C   UNL A   1      43.176  22.580  27.894  1.00  0.00     0.010 A 
ATOM     31  C   UNL A   1      43.161  23.161  25.542  1.00  0.00     0.010 A 
ATOM     32  C   UNL A   1      43.443  23.506  26.873  1.00  0.00    -0.014 A 
BRANCH  32  33
ATOM     33  C   UNL A   1      44.006  24.845  27.174  1.00  0.00     0.031 A 
ATOM     34  C   UNL A   1      43.107  25.948  27.663  1.00  0.00     0.074 A 
ATOM     35  C   UNL A   1      45.312  25.085  26.943  1.00  0.00     0.049 A 
ATOM     36  N   UNL A   1      43.394  27.201  27.907  1.00  0.00    -0.248 NA
ATOM     37  C   UNL A   1      41.691  25.604  27.880  1.00  0.00     0.031 C 
ATOM     38  C   UNL A   1      46.272  24.107  26.425  1.00  0.00     0.029 A 
ATOM     39  N   UNL A   1      46.056  26.226  27.104  1.00  0.00    -0.354 N 
ATOM     40  C   UNL A   1      42.197  27.796  28.292  1.00  0.00     0.074 A 
ATOM     41  C   UNL A   1      41.171  26.782  28.193  1.00  0.00     0.031 C 
ATOM     42  C   UNL A   1      47.481  24.685  26.331  1.00  0.00     0.029 A 
ATOM     43  C   UNL A   1      47.374  26.081  26.742  1.00  0.00     0.049 A 
ATOM     44  H   UNL A   1      45.681  27.070  27.446  1.00  0.00     0.167 HD
ATOM     45  C   UNL A   1      41.980  29.065  28.710  1.00  0.00     0.037 A 
ATOM     46  C   UNL A   1      48.382  26.976  26.732  1.00  0.00     0.037 A 
ATOM     47  C   UNL A   1      43.014  30.061  28.826  1.00  0.00     0.049 A 
ATOM     48  C   UNL A   1      48.115  28.382  27.197  1.00  0.00     0.074 A 
ATOM     49  C   UNL A   1      42.909  31.359  29.293  1.00  0.00     0.029 A 
ATOM     50  N   UNL A   1      44.341  29.870  28.470  1.00  0.00    -0.354 N 
ATOM     51  N   UNL A   1      46.990  28.911  27.616  1.00  0.00    -0.248 NA
ATOM     52  C   UNL A   1      49.253  29.311  27.194  1.00  0.00     0.031 C 
ATOM     53  C   UNL A   1      44.163  31.969  29.174  1.00  0.00     0.029 A 
ATOM     54  C   UNL A   1      45.061  31.034  28.686  1.00  0.00     0.049 A 
ATOM     55  H   UNL A   1      44.717  29.031  28.116  1.00  0.00     0.167 HD
ATOM     56  C   UNL A   1      47.292  30.226  27.956  1.00  0.00     0.074 A 
ATOM     57  C   UNL A   1      48.707  30.407  27.703  1.00  0.00     0.031 C 
ATOM     58  C   UNL A   1      46.473  31.194  28.436  1.00  0.00     0.037 A 
BRANCH  45  59
ATOM     59  C   UNL A   1      40.571  29.449  29.076  1.00  0.00     0.058 A 
ATOM     60  C   UNL A   1      40.190  29.673  30.409  1.00  0.00     0.135 A 
ATOM     61  C   UNL A   1      39.599  29.632  28.079  1.00  0.00     0.135 A 
ATOM     62  F   UNL A   1      41.074  29.498  31.404  1.00  0.00    -0.206 F 
ATOM     63  C   UNL A   1      38.888  30.033  30.744  1.00  0.00     0.059 A 
ATOM     64  C   UNL A   1      38.298  30.023  28.388  1.00  0.00     0.059 A 
ATOM     65  F   UNL A   1      39.908  29.432  26.789  1.00  0.00    -0.206 F 
ATOM     66  C   UNL A   1      37.950  30.205  29.725  1.00  0.00     0.060 A 
BRANCH  66  67
ATOM     67  S   UNL A   1      36.267  30.677  30.177  1.00  0.00     0.124 S 
ATOM     68  O   UNL A   1      35.584  30.590  28.889  1.00  0.00    -0.237 OA
ATOM     69  O   UNL A   1      35.907  29.655  31.154  1.00  0.00    -0.237 OA
ATOM     70  O   UNL A   1      36.424  32.026  30.713  1.00  0.00    -0.744 OA
ENDBRANCH  66  67
ENDBRANCH  45  59
BRANCH  46  71
ATOM     71  C   UNL A   1      49.740  26.562  26.285  1.00  0.00     0.058 A 
ATOM     72  C   UNL A   1      50.603  25.868  27.145  1.00  0.00     0.135 A 
ATOM     73  C   UNL A   1      50.195  26.836  24.986  1.00  0.00     0.135 A 
ATOM     74  F   UNL A   1      50.216  25.586  28.399  1.00  0.00    -0.206 F 
ATOM     75  C   UNL A   1      51.876  25.477  26.742  1.00  0.00     0.059 A 
ATOM     76  C   UNL A   1      51.452  26.432  24.550  1.00  0.00     0.059 A 
ATOM     77  F   UNL A   1      49.401  27.481  24.116  1.00  0.00    -0.206 F 
ATOM     78  C   UNL A   1      52.291  25.762  25.441  1.00  0.00     0.060 A 
BRANCH  78  79
ATOM     79  S   UNL A   1      53.927  25.210  24.913  1.00  0.00     0.124 S 
ATOM     80  O   UNL A   1      54.042  25.841  23.604  1.00  0.00    -0.237 OA
ATOM     81  O   UNL A   1      54.785  25.753  25.962  1.00  0.00    -0.237 OA
ATOM     82  O   UNL A   1      53.804  23.755  24.905  1.00  0.00    -0.744 OA
ENDBRANCH  78  79
ENDBRANCH  46  71
BRANCH  58  83
ATOM     83  C   UNL A   1      47.090  32.527  28.758  1.00  0.00     0.058 A 
ATOM     84  C   UNL A   1      47.626  32.808  30.024  1.00  0.00     0.135 A 
ATOM     85  C   UNL A   1      47.197  33.517  27.766  1.00  0.00     0.135 A 
ATOM     86  F   UNL A   1      47.544  31.900  31.009  1.00  0.00    -0.206 F 
ATOM     87  C   UNL A   1      48.227  34.031  30.303  1.00  0.00     0.059 A 
ATOM     88  C   UNL A   1      47.820  34.735  28.015  1.00  0.00     0.059 A 
ATOM     89  F   UNL A   1      46.710  33.296  26.535  1.00  0.00    -0.206 F 
ATOM     90  C   UNL A   1      48.323  34.988  29.291  1.00  0.00     0.060 A 
BRANCH  90  91
ATOM     91  S   UNL A   1      49.138  36.556  29.657  1.00  0.00     0.124 S 
ATOM     92  O   UNL A   1      49.690  36.912  28.354  1.00  0.00    -0.237 OA
ATOM     93  O   UNL A   1      48.030  37.383  30.124  1.00  0.00    -0.237 OA
ATOM     94  O   UNL A   1      50.119  36.199  30.678  1.00  0.00    -0.744 OA
ENDBRANCH  90  91
ENDBRANCH  58  83
ENDBRANCH  32  33
ENDBRANCH  24  27
ENDBRANCH  22  23
ENDBRANCH  21  22
ENDBRANCH  20  21
ENDBRANCH  19  20
ENDBRANCH   1  19
TORSDOF 21
ENDMDL
MODEL 3
REMARK VINA RESULT:      -9.7      6.662     11.936
REMARK SMILES CCCCCC(=O)N1CSC[C@H]1C(=O)NCCCCCCNC(=O)c1ccc(-c2c3nc(c(-c4c(F)cc(S(=O)(=O)[O-])cc4F)c4ccc([nH]4)c(-c4c(F)cc(S(=O)(=O)[O-])cc4F)c4nc(c(-c5c(F)cc(S(=O)(=O)[O-])cc5F)c5ccc2[nH]5)C=C4)C=C3)cc1
REMARK SMILES IDX 17 1 16 2 15 3 13 4 14 5 12 7 8 8 9 9 10 10 11 11 6 12 7 13
REMARK SMILES IDX 5 14 4 15 3 16 2 17 1 18 18 19 19 20 20 21 21 22 22 23 23 24
REMARK SMILES IDX 24 26 25 27 26 28 90 29 27 30 89 31 28 32 29 33 30 34 83 35
REMARK SMILES IDX 31 36 88 37 82 38 84 39 32 40 87 41 81 42 80 43 33 45 67 46
REMARK SMILES IDX 46 47 66 48 47 49 50 50 65 51 85 52 48 53 49 54 64 56 86 57
REMARK SMILES IDX 51 58 34 59 35 60 44 61 36 62 37 63 43 64 45 65 38 66 39 67
REMARK SMILES IDX 40 68 41 69 42 70 68 71 69 72 78 73 70 74 71 75 77 76 79 77
REMARK SMILES IDX 72 78 73 79 74 80 75 81 76 82 52 83 53 84 62 85 54 86 55 87
REMARK SMILES IDX 61 88 63 89 56 90 57 91 58 92 59 93 60 94
REMARK H PARENT 15 6 22 25 84 44 50 55
REMARK Flexibility Score: inf
ROOT
ATOM      1  C   UNL A   1      31.844  28.866  26.520  1.00  0.00     0.021 C 
ENDROOT
BRANCH   1   2
ATOM      2  C   UNL A   1      32.795  27.841  27.121  1.00  0.00     0.116 C 
BRANCH   2   3
ATOM      3  N   UNL A   1      33.634  27.235  26.113  1.00  0.00    -0.354 N 
ATOM      4  C   UNL A   1      33.350  26.248  25.220  1.00  0.00     0.243 C 
ATOM      5  O   UNL A   1      34.179  26.048  24.325  1.00  0.00    -0.273 OA
ATOM      6  H   UNL A   1      34.551  27.591  26.065  1.00  0.00     0.163 HD
BRANCH   4   7
ATOM      7  C   UNL A   1      31.963  25.579  25.153  1.00  0.00     0.185 C 
ATOM      8  N   UNL A   1      31.359  25.324  23.837  1.00  0.00    -0.321 N 
ATOM      9  C   UNL A   1      31.007  23.957  23.570  1.00  0.00     0.190 C 
ATOM     10  S   UNL A   1      31.288  22.958  25.027  1.00  0.00    -0.138 SA
ATOM     11  C   UNL A   1      32.015  24.298  25.990  1.00  0.00     0.106 C 
BRANCH   8  12
ATOM     12  C   UNL A   1      30.962  26.412  23.081  1.00  0.00     0.223 C 
ATOM     13  O   UNL A   1      31.712  26.886  22.222  1.00  0.00    -0.275 OA
BRANCH  12  14
ATOM     14  C   UNL A   1      29.674  27.155  23.439  1.00  0.00     0.100 C 
BRANCH  14  15
ATOM     15  C   UNL A   1      29.475  28.597  22.973  1.00  0.00     0.010 C 
BRANCH  15  16
ATOM     16  C   UNL A   1      28.052  29.172  22.980  1.00  0.00     0.000 C 
BRANCH  16  17
ATOM     17  C   UNL A   1      27.766  30.346  22.032  1.00  0.00    -0.003 C 
ATOM     18  C   UNL A   1      28.841  31.413  22.007  1.00  0.00     0.004 C 
ENDBRANCH  16  17
ENDBRANCH  15  16
ENDBRANCH  14  15
ENDBRANCH  12  14
ENDBRANCH   8  12
ENDBRANCH   4   7
ENDBRANCH   2   3
ENDBRANCH   1   2
BRANCH   1  19
ATOM     19  C   UNL A   1      32.215  30.310  26.875  1.00  0.00     0.002 C 
BRANCH  19  20
ATOM     20  C   UNL A   1      33.717  30.616  26.826  1.00  0.00     0.002 C 
BRANCH  20  21
ATOM     21  C   UNL A   1      34.255  31.393  28.031  1.00  0.00     0.021 C 
BRANCH  21  22
ATOM     22  C   UNL A   1      35.511  30.788  28.650  1.00  0.00     0.116 C 
BRANCH  22  23
ATOM     23  N   UNL A   1      35.479  30.867  30.103  1.00  0.00    -0.352 N 
ATOM     24  C   UNL A   1      36.427  30.478  31.015  1.00  0.00     0.251 C 
ATOM     25  H   UNL A   1      34.659  31.256  30.486  1.00  0.00     0.163 HD
ATOM     26  O   UNL A   1      36.133  30.377  32.201  1.00  0.00    -0.269 OA
BRANCH  24  27
ATOM     27  C   UNL A   1      37.799  30.178  30.557  1.00  0.00     0.039 A 
ATOM     28  C   UNL A   1      38.748  29.746  31.485  1.00  0.00     0.014 A 
ATOM     29  C   UNL A   1      38.149  30.340  29.213  1.00  0.00     0.014 A 
ATOM     30  C   UNL A   1      40.038  29.429  31.056  1.00  0.00     0.010 A 
ATOM     31  C   UNL A   1      39.409  29.952  28.775  1.00  0.00     0.010 A 
ATOM     32  C   UNL A   1      40.370  29.502  29.693  1.00  0.00    -0.014 A 
BRANCH  32  33
ATOM     33  C   UNL A   1      41.720  29.123  29.207  1.00  0.00     0.031 A 
ATOM     34  C   UNL A   1      42.811  30.156  29.132  1.00  0.00     0.074 A 
ATOM     35  C   UNL A   1      41.942  27.866  28.773  1.00  0.00     0.049 A 
ATOM     36  N   UNL A   1      44.028  30.040  28.666  1.00  0.00    -0.248 NA
ATOM     37  C   UNL A   1      42.482  31.507  29.618  1.00  0.00     0.031 C 
ATOM     38  C   UNL A   1      40.948  26.790  28.754  1.00  0.00     0.029 A 
ATOM     39  N   UNL A   1      43.070  27.283  28.255  1.00  0.00    -0.354 N 
ATOM     40  C   UNL A   1      44.603  31.299  28.791  1.00  0.00     0.074 A 
ATOM     41  C   UNL A   1      43.585  32.178  29.321  1.00  0.00     0.031 C 
ATOM     42  C   UNL A   1      41.517  25.674  28.270  1.00  0.00     0.029 A 
ATOM     43  C   UNL A   1      42.900  25.965  27.906  1.00  0.00     0.049 A 
ATOM     44  H   UNL A   1      43.922  27.765  28.142  1.00  0.00     0.167 HD
ATOM     45  C   UNL A   1      45.871  31.681  28.509  1.00  0.00     0.037 A 
ATOM     46  C   UNL A   1      43.759  25.089  27.347  1.00  0.00     0.037 A 
ATOM     47  C   UNL A   1      46.885  30.792  28.002  1.00  0.00     0.049 A 
ATOM     48  C   UNL A   1      45.162  25.539  27.039  1.00  0.00     0.074 A 
ATOM     49  C   UNL A   1      48.215  31.066  27.738  1.00  0.00     0.029 A 
ATOM     50  N   UNL A   1      46.680  29.458  27.682  1.00  0.00    -0.354 N 
ATOM     51  N   UNL A   1      45.707  26.718  27.220  1.00  0.00    -0.248 NA
ATOM     52  C   UNL A   1      46.067  24.540  26.457  1.00  0.00     0.031 C 
ATOM     53  C   UNL A   1      48.802  29.910  27.211  1.00  0.00     0.029 A 
ATOM     54  C   UNL A   1      47.853  28.901  27.201  1.00  0.00     0.049 A 
ATOM     55  H   UNL A   1      45.826  28.977  27.782  1.00  0.00     0.167 HD
ATOM     56  C   UNL A   1      47.029  26.594  26.803  1.00  0.00     0.074 A 
ATOM     57  C   UNL A   1      47.201  25.222  26.371  1.00  0.00     0.031 C 
ATOM     58  C   UNL A   1      48.010  27.530  26.782  1.00  0.00     0.037 A 
BRANCH  45  59
ATOM     59  C   UNL A   1      46.236  33.122  28.745  1.00  0.00     0.058 A 
ATOM     60  C   UNL A   1      46.874  33.539  29.924  1.00  0.00     0.135 A 
ATOM     61  C   UNL A   1      45.978  34.094  27.765  1.00  0.00     0.135 A 
ATOM     62  F   UNL A   1      47.133  32.656  30.902  1.00  0.00    -0.206 F 
ATOM     63  C   UNL A   1      47.215  34.871  30.138  1.00  0.00     0.059 A 
ATOM     64  C   UNL A   1      46.338  35.428  27.943  1.00  0.00     0.059 A 
ATOM     65  F   UNL A   1      45.370  33.753  26.618  1.00  0.00    -0.206 F 
ATOM     66  C   UNL A   1      46.942  35.808  29.140  1.00  0.00     0.060 A 
BRANCH  66  67
ATOM     67  S   UNL A   1      47.395  37.531  29.431  1.00  0.00     0.124 S 
ATOM     68  O   UNL A   1      48.811  37.407  29.767  1.00  0.00    -0.237 OA
ATOM     69  O   UNL A   1      47.103  38.153  28.143  1.00  0.00    -0.237 OA
ATOM     70  O   UNL A   1      46.523  37.932  30.530  1.00  0.00    -0.744 OA
ENDBRANCH  66  67
ENDBRANCH  45  59
BRANCH  46  71
ATOM     71  C   UNL A   1      43.321  23.696  27.062  1.00  0.00     0.058 A 
ATOM     72  C   UNL A   1      43.214  22.749  28.090  1.00  0.00     0.135 A 
ATOM     73  C   UNL A   1      42.985  23.289  25.761  1.00  0.00     0.135 A 
ATOM     74  F   UNL A   1      43.529  23.087  29.350  1.00  0.00    -0.206 F 
ATOM     75  C   UNL A   1      42.809  21.442  27.839  1.00  0.00     0.059 A 
ATOM     76  C   UNL A   1      42.551  21.996  25.489  1.00  0.00     0.059 A 
ATOM     77  F   UNL A   1      43.051  24.163  24.744  1.00  0.00    -0.206 F 
ATOM     78  C   UNL A   1      42.476  21.075  26.534  1.00  0.00     0.060 A 
BRANCH  78  79
ATOM     79  S   UNL A   1      41.908  19.390  26.225  1.00  0.00     0.124 S 
ATOM     80  O   UNL A   1      42.613  19.063  24.991  1.00  0.00    -0.237 OA
ATOM     81  O   UNL A   1      42.360  18.691  27.424  1.00  0.00    -0.237 OA
ATOM     82  O   UNL A   1      40.460  19.540  26.104  1.00  0.00    -0.744 OA
ENDBRANCH  78  79
ENDBRANCH  46  71
BRANCH  58  83
ATOM     83  C   UNL A   1      49.371  27.096  26.313  1.00  0.00     0.058 A 
ATOM     84  C   UNL A   1      50.347  26.627  27.206  1.00  0.00     0.135 A 
ATOM     85  C   UNL A   1      49.681  27.094  24.942  1.00  0.00     0.135 A 
ATOM     86  F   UNL A   1      50.105  26.614  28.526  1.00  0.00    -0.206 F 
ATOM     87  C   UNL A   1      51.592  26.195  26.759  1.00  0.00     0.059 A 
ATOM     88  C   UNL A   1      50.908  26.638  24.472  1.00  0.00     0.059 A 
ATOM     89  F   UNL A   1      48.780  27.522  24.044  1.00  0.00    -0.206 F 
ATOM     90  C   UNL A   1      51.862  26.201  25.389  1.00  0.00     0.060 A 
BRANCH  90  91
ATOM     91  S   UNL A   1      53.467  25.601  24.822  1.00  0.00     0.124 S 
ATOM     92  O   UNL A   1      53.374  24.177  25.126  1.00  0.00    -0.237 OA
ATOM     93  O   UNL A   1      53.447  25.950  23.405  1.00  0.00    -0.237 OA
ATOM     94  O   UNL A   1      54.418  26.357  25.633  1.00  0.00    -0.744 OA
ENDBRANCH  90  91
ENDBRANCH  58  83
ENDBRANCH  32  33
ENDBRANCH  24  27
ENDBRANCH  22  23
ENDBRANCH  21  22
ENDBRANCH  20  21
ENDBRANCH  19  20
ENDBRANCH   1  19
TORSDOF 21
ENDMDL
