MODEL 1
REMARK VINA RESULT:     -11.3      0.000      0.000
REMARK SMILES C#Cc1cc(Cl)c2c(c1)C=C(C(=O)NCCCCCCNC(=O)c1ccc(-c3c4nc(c(-c5c(F)cc(S(=O)(=O)[O-])cc5F)c5ccc([nH]5)c(-c5c(F)cc(S(=O)(=O)[O-])cc5F)c5nc(c(-c6c(F)cc(S(=O)(=O)[O-])cc6F)c6ccc3[nH]6)C=C5)C=C4)cc1)[C@@H](C(F)(F)F)O2
REMARK SMILES IDX 18 1 17 2 16 3 15 4 14 5 12 6 13 7 11 9 3 10 4 11 9 12 5 13
REMARK SMILES IDX 8 14 6 15 7 16 10 17 95 18 90 19 2 20 1 21 91 22 92 23 93 24
REMARK SMILES IDX 94 25 19 26 20 27 21 28 22 29 23 31 24 32 25 33 89 34 26 35
REMARK SMILES IDX 88 36 27 37 28 38 29 39 82 40 30 41 87 42 81 43 83 44 31 45
REMARK SMILES IDX 86 46 80 47 79 48 32 50 66 51 45 52 65 53 46 54 49 55 64 56
REMARK SMILES IDX 84 57 47 58 48 59 63 61 85 62 50 63 33 64 34 65 43 66 35 67
REMARK SMILES IDX 36 68 42 69 44 70 37 71 38 72 39 73 40 74 41 75 67 76 68 77
REMARK SMILES IDX 77 78 69 79 70 80 76 81 78 82 71 83 72 84 73 85 74 86 75 87
REMARK SMILES IDX 51 88 52 89 61 90 53 91 54 92 60 93 62 94 55 95 56 96 57 97
REMARK SMILES IDX 58 98 59 99
REMARK H PARENT 14 8 21 30 83 49 49 60
REMARK Flexibility Score: inf
ROOT
ATOM      1  C   UNL A   1      33.575  29.025  24.587  1.00  0.00     0.002 C 
ENDROOT
BRANCH   1   2
ATOM      2  C   UNL A   1      32.931  28.873  23.203  1.00  0.00     0.002 C 
BRANCH   2   3
ATOM      3  C   UNL A   1      31.401  28.904  23.209  1.00  0.00     0.021 C 
BRANCH   3   4
ATOM      4  C   UNL A   1      30.783  27.596  22.735  1.00  0.00     0.116 C 
BRANCH   4   5
ATOM      5  N   UNL A   1      31.649  26.902  21.797  1.00  0.00    -0.352 N 
ATOM      6  C   UNL A   1      32.539  25.883  21.841  1.00  0.00     0.251 C 
ATOM      7  O   UNL A   1      33.058  25.579  20.761  1.00  0.00    -0.270 OA
ATOM      8  H   UNL A   1      31.565  27.271  20.888  1.00  0.00     0.163 HD
BRANCH   6   9
ATOM      9  C   UNL A   1      32.917  25.136  23.078  1.00  0.00     0.067 C 
ATOM     10  C   UNL A   1      36.407  23.213  25.825  1.00  0.00     0.027 A 
ATOM     11  C   UNL A   1      35.476  22.919  26.821  1.00  0.00     0.041 A 
ATOM     12  C   UNL A   1      36.006  23.859  24.650  1.00  0.00     0.029 A 
ATOM     13  C   UNL A   1      34.143  23.269  26.641  1.00  0.00     0.084 A 
ATOM     14  C   UNL A   1      34.665  24.211  24.467  1.00  0.00     0.020 A 
ATOM     15  Cl  UNL A   1      33.016  22.903  27.898  1.00  0.00    -0.080 Cl
ATOM     16  C   UNL A   1      33.735  23.906  25.464  1.00  0.00     0.146 A 
ATOM     17  C   UNL A   1      34.233  24.936  23.276  1.00  0.00     0.025 C 
ATOM     18  O   UNL A   1      32.422  24.254  25.364  1.00  0.00    -0.474 OA
ATOM     19  C   UNL A   1      31.915  24.591  24.053  1.00  0.00     0.314 C 
BRANCH  10  20
ATOM     20  C   UNL A   1      37.778  22.862  26.027  1.00  0.00    -0.070 C 
ATOM     21  C   UNL A   1      38.930  22.552  26.163  1.00  0.00     0.010 C 
ENDBRANCH  10  20
BRANCH  19  22
ATOM     22  C   UNL A   1      31.135  23.389  23.486  1.00  0.00     0.429 C 
ATOM     23  F   UNL A   1      29.991  23.801  22.889  1.00  0.00    -0.167 F 
ATOM     24  F   UNL A   1      31.832  22.707  22.548  1.00  0.00    -0.167 F 
ATOM     25  F   UNL A   1      30.802  22.499  24.448  1.00  0.00    -0.167 F 
ENDBRANCH  19  22
ENDBRANCH   6   9
ENDBRANCH   4   5
ENDBRANCH   3   4
ENDBRANCH   2   3
ENDBRANCH   1   2
BRANCH   1  26
ATOM     26  C   UNL A   1      33.432  27.803  25.500  1.00  0.00     0.021 C 
BRANCH  26  27
ATOM     27  C   UNL A   1      33.733  28.094  26.964  1.00  0.00     0.116 C 
BRANCH  27  28
ATOM     28  N   UNL A   1      33.568  29.506  27.270  1.00  0.00    -0.352 N 
ATOM     29  C   UNL A   1      34.423  30.351  27.927  1.00  0.00     0.251 C 
ATOM     30  H   UNL A   1      32.725  29.911  26.961  1.00  0.00     0.163 HD
ATOM     31  O   UNL A   1      34.028  31.442  28.328  1.00  0.00    -0.269 OA
BRANCH  29  32
ATOM     32  C   UNL A   1      35.817  29.926  28.156  1.00  0.00     0.039 A 
ATOM     33  C   UNL A   1      36.740  30.039  27.117  1.00  0.00     0.014 A 
ATOM     34  C   UNL A   1      36.206  29.427  29.403  1.00  0.00     0.014 A 
ATOM     35  C   UNL A   1      38.072  29.692  27.345  1.00  0.00     0.010 A 
ATOM     36  C   UNL A   1      37.547  29.166  29.654  1.00  0.00     0.010 A 
ATOM     37  C   UNL A   1      38.490  29.281  28.622  1.00  0.00    -0.014 A 
BRANCH  37  38
ATOM     38  C   UNL A   1      39.909  28.939  28.886  1.00  0.00     0.031 A 
ATOM     39  C   UNL A   1      40.820  29.963  29.506  1.00  0.00     0.074 A 
ATOM     40  C   UNL A   1      40.377  27.723  28.546  1.00  0.00     0.049 A 
ATOM     41  N   UNL A   1      42.092  29.865  29.795  1.00  0.00    -0.248 NA
ATOM     42  C   UNL A   1      40.232  31.274  29.829  1.00  0.00     0.031 C 
ATOM     43  C   UNL A   1      39.590  26.662  27.912  1.00  0.00     0.029 A 
ATOM     44  N   UNL A   1      41.624  27.169  28.688  1.00  0.00    -0.354 N 
ATOM     45  C   UNL A   1      42.451  31.093  30.335  1.00  0.00     0.074 A 
ATOM     46  C   UNL A   1      41.286  31.945  30.268  1.00  0.00     0.031 C 
ATOM     47  C   UNL A   1      40.361  25.575  27.758  1.00  0.00     0.029 A 
ATOM     48  C   UNL A   1      41.708  25.873  28.237  1.00  0.00     0.049 A 
ATOM     49  H   UNL A   1      42.387  27.655  29.077  1.00  0.00     0.167 HD
ATOM     50  C   UNL A   1      43.637  31.464  30.872  1.00  0.00     0.037 A 
ATOM     51  C   UNL A   1      42.753  25.023  28.210  1.00  0.00     0.037 A 
ATOM     52  C   UNL A   1      44.788  30.604  30.944  1.00  0.00     0.049 A 
ATOM     53  C   UNL A   1      44.077  25.480  28.762  1.00  0.00     0.074 A 
ATOM     54  C   UNL A   1      46.028  30.874  31.493  1.00  0.00     0.029 A 
ATOM     55  N   UNL A   1      44.842  29.307  30.451  1.00  0.00    -0.354 N 
ATOM     56  N   UNL A   1      44.387  26.628  29.317  1.00  0.00    -0.248 NA
ATOM     57  C   UNL A   1      45.194  24.529  28.687  1.00  0.00     0.031 C 
ATOM     58  C   UNL A   1      46.851  29.767  31.277  1.00  0.00     0.029 A 
ATOM     59  C   UNL A   1      46.105  28.779  30.656  1.00  0.00     0.049 A 
ATOM     60  H   UNL A   1      44.094  28.835  30.019  1.00  0.00     0.167 HD
ATOM     61  C   UNL A   1      45.726  26.527  29.680  1.00  0.00     0.074 A 
ATOM     62  C   UNL A   1      46.161  25.199  29.298  1.00  0.00     0.031 C 
ATOM     63  C   UNL A   1      46.522  27.452  30.273  1.00  0.00     0.037 A 
BRANCH  50  64
ATOM     64  C   UNL A   1      43.750  32.855  31.435  1.00  0.00     0.058 A 
ATOM     65  C   UNL A   1      44.112  33.947  30.629  1.00  0.00     0.135 A 
ATOM     66  C   UNL A   1      43.434  33.112  32.779  1.00  0.00     0.135 A 
ATOM     67  F   UNL A   1      44.444  33.758  29.341  1.00  0.00    -0.206 F 
ATOM     68  C   UNL A   1      44.174  35.240  31.139  1.00  0.00     0.059 A 
ATOM     69  C   UNL A   1      43.457  34.401  33.302  1.00  0.00     0.059 A 
ATOM     70  F   UNL A   1      43.087  32.106  33.596  1.00  0.00    -0.206 F 
ATOM     71  C   UNL A   1      43.837  35.457  32.476  1.00  0.00     0.060 A 
BRANCH  71  72
ATOM     72  S   UNL A   1      43.900  37.146  33.109  1.00  0.00     0.124 S 
ATOM     73  O   UNL A   1      45.161  37.136  33.844  1.00  0.00    -0.237 OA
ATOM     74  O   UNL A   1      43.888  37.936  31.883  1.00  0.00    -0.237 OA
ATOM     75  O   UNL A   1      42.698  37.248  33.931  1.00  0.00    -0.744 OA
ENDBRANCH  71  72
ENDBRANCH  50  64
BRANCH  51  76
ATOM     76  C   UNL A   1      42.579  23.648  27.666  1.00  0.00     0.058 A 
ATOM     77  C   UNL A   1      42.618  23.410  26.284  1.00  0.00     0.135 A 
ATOM     78  C   UNL A   1      42.392  22.544  28.512  1.00  0.00     0.135 A 
ATOM     79  F   UNL A   1      42.786  24.432  25.432  1.00  0.00    -0.206 F 
ATOM     80  C   UNL A   1      42.467  22.131  25.759  1.00  0.00     0.059 A 
ATOM     81  C   UNL A   1      42.271  21.251  28.013  1.00  0.00     0.059 A 
ATOM     82  F   UNL A   1      42.361  22.714  29.843  1.00  0.00    -0.206 F 
ATOM     83  C   UNL A   1      42.301  21.055  26.634  1.00  0.00     0.060 A 
BRANCH  83  84
ATOM     84  S   UNL A   1      42.159  19.394  25.940  1.00  0.00     0.124 S 
ATOM     85  O   UNL A   1      40.723  19.296  25.701  1.00  0.00    -0.237 OA
ATOM     86  O   UNL A   1      43.000  19.490  24.751  1.00  0.00    -0.237 OA
ATOM     87  O   UNL A   1      42.681  18.539  27.002  1.00  0.00    -0.744 OA
ENDBRANCH  83  84
ENDBRANCH  51  76
BRANCH  63  88
ATOM     88  C   UNL A   1      47.947  27.064  30.569  1.00  0.00     0.058 A 
ATOM     89  C   UNL A   1      48.982  27.315  29.655  1.00  0.00     0.135 A 
ATOM     90  C   UNL A   1      48.291  26.512  31.814  1.00  0.00     0.135 A 
ATOM     91  F   UNL A   1      48.710  27.836  28.449  1.00  0.00    -0.206 F 
ATOM     92  C   UNL A   1      50.307  27.017  29.959  1.00  0.00     0.059 A 
ATOM     93  C   UNL A   1      49.613  26.240  32.153  1.00  0.00     0.059 A 
ATOM     94  F   UNL A   1      47.342  26.263  32.731  1.00  0.00    -0.206 F 
ATOM     95  C   UNL A   1      50.613  26.488  31.215  1.00  0.00     0.060 A 
BRANCH  95  96
ATOM     96  S   UNL A   1      52.343  26.151  31.606  1.00  0.00     0.124 S 
ATOM     97  O   UNL A   1      52.550  26.994  32.779  1.00  0.00    -0.237 OA
ATOM     98  O   UNL A   1      52.327  24.713  31.855  1.00  0.00    -0.237 OA
ATOM     99  O   UNL A   1      53.053  26.567  30.402  1.00  0.00    -0.744 OA
ENDBRANCH  95  96
ENDBRANCH  63  88
ENDBRANCH  37  38
ENDBRANCH  29  32
ENDBRANCH  27  28
ENDBRANCH  26  27
ENDBRANCH   1  26
TORSDOF 18
ENDMDL
MODEL 2
REMARK VINA RESULT:     -10.9      1.712      2.191
REMARK SMILES C#Cc1cc(Cl)c2c(c1)C=C(C(=O)NCCCCCCNC(=O)c1ccc(-c3c4nc(c(-c5c(F)cc(S(=O)(=O)[O-])cc5F)c5ccc([nH]5)c(-c5c(F)cc(S(=O)(=O)[O-])cc5F)c5nc(c(-c6c(F)cc(S(=O)(=O)[O-])cc6F)c6ccc3[nH]6)C=C5)C=C4)cc1)[C@@H](C(F)(F)F)O2
REMARK SMILES IDX 18 1 17 2 16 3 15 4 14 5 12 6 13 7 11 9 3 10 4 11 9 12 5 13
REMARK SMILES IDX 8 14 6 15 7 16 10 17 95 18 90 19 2 20 1 21 91 22 92 23 93 24
REMARK SMILES IDX 94 25 19 26 20 27 21 28 22 29 23 31 24 32 25 33 89 34 26 35
REMARK SMILES IDX 88 36 27 37 28 38 29 39 82 40 30 41 87 42 81 43 83 44 31 45
REMARK SMILES IDX 86 46 80 47 79 48 32 50 66 51 45 52 65 53 46 54 49 55 64 56
REMARK SMILES IDX 84 57 47 58 48 59 63 61 85 62 50 63 33 64 34 65 43 66 35 67
REMARK SMILES IDX 36 68 42 69 44 70 37 71 38 72 39 73 40 74 41 75 67 76 68 77
REMARK SMILES IDX 77 78 69 79 70 80 76 81 78 82 71 83 72 84 73 85 74 86 75 87
REMARK SMILES IDX 51 88 52 89 61 90 53 91 54 92 60 93 62 94 55 95 56 96 57 97
REMARK SMILES IDX 58 98 59 99
REMARK H PARENT 14 8 21 30 83 49 49 60
REMARK Flexibility Score: inf
ROOT
ATOM      1  C   UNL A   1      31.692  28.601  25.659  1.00  0.00     0.002 C 
ENDROOT
BRANCH   1   2
ATOM      2  C   UNL A   1      31.031  27.669  24.634  1.00  0.00     0.002 C 
BRANCH   2   3
ATOM      3  C   UNL A   1      30.415  26.403  25.233  1.00  0.00     0.021 C 
BRANCH   3   4
ATOM      4  C   UNL A   1      30.160  25.321  24.193  1.00  0.00     0.116 C 
BRANCH   4   5
ATOM      5  N   UNL A   1      30.953  25.533  22.994  1.00  0.00    -0.352 N 
ATOM      6  C   UNL A   1      32.093  25.034  22.461  1.00  0.00     0.251 C 
ATOM      7  O   UNL A   1      32.414  25.493  21.360  1.00  0.00    -0.270 OA
ATOM      8  H   UNL A   1      30.555  26.223  22.415  1.00  0.00     0.163 HD
BRANCH   6   9
ATOM      9  C   UNL A   1      32.954  23.999  23.110  1.00  0.00     0.067 C 
ATOM     10  C   UNL A   1      33.425  19.465  24.736  1.00  0.00     0.027 A 
ATOM     11  C   UNL A   1      34.779  19.685  24.988  1.00  0.00     0.041 A 
ATOM     12  C   UNL A   1      32.634  20.480  24.186  1.00  0.00     0.029 A 
ATOM     13  C   UNL A   1      35.343  20.920  24.689  1.00  0.00     0.084 A 
ATOM     14  C   UNL A   1      33.200  21.723  23.885  1.00  0.00     0.020 A 
ATOM     15  Cl  UNL A   1      37.026  21.157  24.999  1.00  0.00    -0.080 Cl
ATOM     16  C   UNL A   1      34.554  21.940  24.147  1.00  0.00     0.146 A 
ATOM     17  C   UNL A   1      32.408  22.777  23.258  1.00  0.00     0.025 C 
ATOM     18  O   UNL A   1      35.173  23.116  23.844  1.00  0.00    -0.474 OA
ATOM     19  C   UNL A   1      34.340  24.274  23.614  1.00  0.00     0.314 C 
BRANCH  10  20
ATOM     20  C   UNL A   1      32.859  18.187  25.034  1.00  0.00    -0.070 C 
ATOM     21  C   UNL A   1      32.415  17.097  25.271  1.00  0.00     0.010 C 
ENDBRANCH  10  20
BRANCH  19  22
ATOM     22  C   UNL A   1      34.343  25.160  24.874  1.00  0.00     0.429 C 
ATOM     23  F   UNL A   1      35.468  24.953  25.601  1.00  0.00    -0.167 F 
ATOM     24  F   UNL A   1      34.312  26.482  24.586  1.00  0.00    -0.167 F 
ATOM     25  F   UNL A   1      33.283  24.911  25.675  1.00  0.00    -0.167 F 
ENDBRANCH  19  22
ENDBRANCH   6   9
ENDBRANCH   4   5
ENDBRANCH   3   4
ENDBRANCH   2   3
ENDBRANCH   1   2
BRANCH   1  26
ATOM     26  C   UNL A   1      32.379  27.886  26.827  1.00  0.00     0.021 C 
BRANCH  26  27
ATOM     27  C   UNL A   1      33.724  28.491  27.209  1.00  0.00     0.116 C 
BRANCH  27  28
ATOM     28  N   UNL A   1      33.591  29.893  27.572  1.00  0.00    -0.352 N 
ATOM     29  C   UNL A   1      34.472  30.695  28.249  1.00  0.00     0.251 C 
ATOM     30  H   UNL A   1      32.752  30.325  27.293  1.00  0.00     0.163 HD
ATOM     31  O   UNL A   1      34.104  31.776  28.698  1.00  0.00    -0.269 OA
BRANCH  29  32
ATOM     32  C   UNL A   1      35.860  30.234  28.440  1.00  0.00     0.039 A 
ATOM     33  C   UNL A   1      36.755  30.317  27.374  1.00  0.00     0.014 A 
ATOM     34  C   UNL A   1      36.272  29.733  29.679  1.00  0.00     0.014 A 
ATOM     35  C   UNL A   1      38.084  29.937  27.566  1.00  0.00     0.010 A 
ATOM     36  C   UNL A   1      37.613  29.438  29.892  1.00  0.00     0.010 A 
ATOM     37  C   UNL A   1      38.528  29.522  28.833  1.00  0.00    -0.014 A 
BRANCH  37  38
ATOM     38  C   UNL A   1      39.944  29.145  29.057  1.00  0.00     0.031 A 
ATOM     39  C   UNL A   1      40.898  30.145  29.652  1.00  0.00     0.074 A 
ATOM     40  C   UNL A   1      40.372  27.917  28.705  1.00  0.00     0.049 A 
ATOM     41  N   UNL A   1      42.174  30.015  29.905  1.00  0.00    -0.248 NA
ATOM     42  C   UNL A   1      40.352  31.470  29.990  1.00  0.00     0.031 C 
ATOM     43  C   UNL A   1      39.541  26.876  28.094  1.00  0.00     0.029 A 
ATOM     44  N   UNL A   1      41.608  27.332  28.812  1.00  0.00    -0.354 N 
ATOM     45  C   UNL A   1      42.579  31.233  30.434  1.00  0.00     0.074 A 
ATOM     46  C   UNL A   1      41.435  32.115  30.400  1.00  0.00     0.031 C 
ATOM     47  C   UNL A   1      40.281  25.770  27.919  1.00  0.00     0.029 A 
ATOM     48  C   UNL A   1      41.647  26.034  28.360  1.00  0.00     0.049 A 
ATOM     49  H   UNL A   1      42.393  27.798  29.180  1.00  0.00     0.167 HD
ATOM     50  C   UNL A   1      43.789  31.574  30.938  1.00  0.00     0.037 A 
ATOM     51  C   UNL A   1      42.670  25.158  28.305  1.00  0.00     0.037 A 
ATOM     52  C   UNL A   1      44.919  30.685  30.979  1.00  0.00     0.049 A 
ATOM     53  C   UNL A   1      44.019  25.581  28.820  1.00  0.00     0.074 A 
ATOM     54  C   UNL A   1      46.180  30.924  31.493  1.00  0.00     0.029 A 
ATOM     55  N   UNL A   1      44.927  29.387  30.485  1.00  0.00    -0.354 N 
ATOM     56  N   UNL A   1      44.373  26.721  29.366  1.00  0.00    -0.248 NA
ATOM     57  C   UNL A   1      45.109  24.602  28.715  1.00  0.00     0.031 C 
ATOM     58  C   UNL A   1      46.969  29.796  31.255  1.00  0.00     0.029 A 
ATOM     59  C   UNL A   1      46.182  28.827  30.655  1.00  0.00     0.049 A 
ATOM     60  H   UNL A   1      44.156  28.935  30.074  1.00  0.00     0.167 HD
ATOM     61  C   UNL A   1      45.718  26.586  29.691  1.00  0.00     0.074 A 
ATOM     62  C   UNL A   1      46.109  25.248  29.298  1.00  0.00     0.031 C 
ATOM     63  C   UNL A   1      46.554  27.490  30.261  1.00  0.00     0.037 A 
BRANCH  50  64
ATOM     64  C   UNL A   1      43.952  32.962  31.497  1.00  0.00     0.058 A 
ATOM     65  C   UNL A   1      44.200  34.065  30.664  1.00  0.00     0.135 A 
ATOM     66  C   UNL A   1      43.800  33.203  32.872  1.00  0.00     0.135 A 
ATOM     67  F   UNL A   1      44.375  33.892  29.343  1.00  0.00    -0.206 F 
ATOM     68  C   UNL A   1      44.307  35.354  31.176  1.00  0.00     0.059 A 
ATOM     69  C   UNL A   1      43.870  34.488  33.401  1.00  0.00     0.059 A 
ATOM     70  F   UNL A   1      43.567  32.185  33.715  1.00  0.00    -0.206 F 
ATOM     71  C   UNL A   1      44.133  35.556  32.546  1.00  0.00     0.060 A 
BRANCH  71  72
ATOM     72  S   UNL A   1      44.252  37.240  33.184  1.00  0.00     0.124 S 
ATOM     73  O   UNL A   1      44.438  38.006  31.954  1.00  0.00    -0.237 OA
ATOM     74  O   UNL A   1      42.963  37.410  33.846  1.00  0.00    -0.237 OA
ATOM     75  O   UNL A   1      45.410  37.189  34.070  1.00  0.00    -0.744 OA
ENDBRANCH  71  72
ENDBRANCH  50  64
BRANCH  51  76
ATOM     76  C   UNL A   1      42.446  23.788  27.766  1.00  0.00     0.058 A 
ATOM     77  C   UNL A   1      42.340  23.565  26.385  1.00  0.00     0.135 A 
ATOM     78  C   UNL A   1      42.355  22.673  28.615  1.00  0.00     0.135 A 
ATOM     79  F   UNL A   1      42.412  24.598  25.532  1.00  0.00    -0.206 F 
ATOM     80  C   UNL A   1      42.141  22.290  25.865  1.00  0.00     0.059 A 
ATOM     81  C   UNL A   1      42.187  21.385  28.117  1.00  0.00     0.059 A 
ATOM     82  F   UNL A   1      42.462  22.829  29.944  1.00  0.00    -0.206 F 
ATOM     83  C   UNL A   1      42.074  21.204  26.740  1.00  0.00     0.060 A 
BRANCH  83  84
ATOM     84  S   UNL A   1      41.867  19.550  26.046  1.00  0.00     0.124 S 
ATOM     85  O   UNL A   1      42.806  19.579  24.929  1.00  0.00    -0.237 OA
ATOM     86  O   UNL A   1      42.243  18.701  27.173  1.00  0.00    -0.237 OA
ATOM     87  O   UNL A   1      40.455  19.510  25.682  1.00  0.00    -0.744 OA
ENDBRANCH  83  84
ENDBRANCH  51  76
BRANCH  63  88
ATOM     88  C   UNL A   1      47.977  27.066  30.518  1.00  0.00     0.058 A 
ATOM     89  C   UNL A   1      49.010  27.382  29.622  1.00  0.00     0.135 A 
ATOM     90  C   UNL A   1      48.321  26.413  31.713  1.00  0.00     0.135 A 
ATOM     91  F   UNL A   1      48.737  28.001  28.464  1.00  0.00    -0.206 F 
ATOM     92  C   UNL A   1      50.333  27.048  29.895  1.00  0.00     0.059 A 
ATOM     93  C   UNL A   1      49.641  26.102  32.022  1.00  0.00     0.059 A 
ATOM     94  F   UNL A   1      47.373  26.099  32.611  1.00  0.00    -0.206 F 
ATOM     95  C   UNL A   1      50.640  26.416  31.102  1.00  0.00     0.060 A 
BRANCH  95  96
ATOM     96  S   UNL A   1      52.367  26.032  31.456  1.00  0.00     0.124 S 
ATOM     97  O   UNL A   1      52.955  26.060  30.121  1.00  0.00    -0.237 OA
ATOM     98  O   UNL A   1      52.751  27.127  32.341  1.00  0.00    -0.237 OA
ATOM     99  O   UNL A   1      52.303  24.716  32.085  1.00  0.00    -0.744 OA
ENDBRANCH  95  96
ENDBRANCH  63  88
ENDBRANCH  37  38
ENDBRANCH  29  32
ENDBRANCH  27  28
ENDBRANCH  26  27
ENDBRANCH   1  26
TORSDOF 18
ENDMDL
MODEL 3
REMARK VINA RESULT:     -10.9      2.923      9.140
REMARK SMILES C#Cc1cc(Cl)c2c(c1)C=C(C(=O)NCCCCCCNC(=O)c1ccc(-c3c4nc(c(-c5c(F)cc(S(=O)(=O)[O-])cc5F)c5ccc([nH]5)c(-c5c(F)cc(S(=O)(=O)[O-])cc5F)c5nc(c(-c6c(F)cc(S(=O)(=O)[O-])cc6F)c6ccc3[nH]6)C=C5)C=C4)cc1)[C@@H](C(F)(F)F)O2
REMARK SMILES IDX 18 1 17 2 16 3 15 4 14 5 12 6 13 7 11 9 3 10 4 11 9 12 5 13
REMARK SMILES IDX 8 14 6 15 7 16 10 17 95 18 90 19 2 20 1 21 91 22 92 23 93 24
REMARK SMILES IDX 94 25 19 26 20 27 21 28 22 29 23 31 24 32 25 33 89 34 26 35
REMARK SMILES IDX 88 36 27 37 28 38 29 39 82 40 30 41 87 42 81 43 83 44 31 45
REMARK SMILES IDX 86 46 80 47 79 48 32 50 66 51 45 52 65 53 46 54 49 55 64 56
REMARK SMILES IDX 84 57 47 58 48 59 63 61 85 62 50 63 33 64 34 65 43 66 35 67
REMARK SMILES IDX 36 68 42 69 44 70 37 71 38 72 39 73 40 74 41 75 67 76 68 77
REMARK SMILES IDX 77 78 69 79 70 80 76 81 78 82 71 83 72 84 73 85 74 86 75 87
REMARK SMILES IDX 51 88 52 89 61 90 53 91 54 92 60 93 62 94 55 95 56 96 57 97
REMARK SMILES IDX 58 98 59 99
REMARK H PARENT 14 8 21 30 83 49 49 60
REMARK Flexibility Score: inf
ROOT
ATOM      1  C   UNL A   1      35.190  22.786  26.759  1.00  0.00     0.002 C 
ENDROOT
BRANCH   1   2
ATOM      2  C   UNL A   1      33.979  21.844  26.795  1.00  0.00     0.002 C 
BRANCH   2   3
ATOM      3  C   UNL A   1      33.703  21.115  25.479  1.00  0.00     0.021 C 
BRANCH   3   4
ATOM      4  C   UNL A   1      32.277  21.310  24.983  1.00  0.00     0.116 C 
BRANCH   4   5
ATOM      5  N   UNL A   1      31.451  21.981  25.974  1.00  0.00    -0.352 N 
ATOM      6  C   UNL A   1      31.163  23.257  26.320  1.00  0.00     0.251 C 
ATOM      7  O   UNL A   1      30.355  23.391  27.245  1.00  0.00    -0.270 OA
ATOM      8  H   UNL A   1      30.976  21.334  26.545  1.00  0.00     0.163 HD
BRANCH   6   9
ATOM      9  C   UNL A   1      31.749  24.469  25.670  1.00  0.00     0.067 C 
ATOM     10  C   UNL A   1      33.671  28.883  26.160  1.00  0.00     0.027 A 
ATOM     11  C   UNL A   1      33.963  28.919  24.796  1.00  0.00     0.041 A 
ATOM     12  C   UNL A   1      33.064  27.755  26.724  1.00  0.00     0.029 A 
ATOM     13  C   UNL A   1      33.646  27.827  23.997  1.00  0.00     0.084 A 
ATOM     14  C   UNL A   1      32.745  26.656  25.920  1.00  0.00     0.020 A 
ATOM     15  Cl  UNL A   1      34.033  27.896  22.314  1.00  0.00    -0.080 Cl
ATOM     16  C   UNL A   1      33.031  26.701  24.554  1.00  0.00     0.146 A 
ATOM     17  C   UNL A   1      32.164  25.447  26.496  1.00  0.00     0.025 C 
ATOM     18  O   UNL A   1      32.778  25.651  23.724  1.00  0.00    -0.474 OA
ATOM     19  C   UNL A   1      31.854  24.639  24.183  1.00  0.00     0.314 C 
BRANCH  10  20
ATOM     20  C   UNL A   1      34.014  30.005  26.976  1.00  0.00    -0.070 C 
ATOM     21  C   UNL A   1      34.337  30.936  27.663  1.00  0.00     0.010 C 
ENDBRANCH  10  20
BRANCH  19  22
ATOM     22  C   UNL A   1      30.483  24.865  23.518  1.00  0.00     0.429 C 
ATOM     23  F   UNL A   1      29.634  25.487  24.371  1.00  0.00    -0.167 F 
ATOM     24  F   UNL A   1      30.557  25.646  22.415  1.00  0.00    -0.167 F 
ATOM     25  F   UNL A   1      29.905  23.704  23.135  1.00  0.00    -0.167 F 
ENDBRANCH  19  22
ENDBRANCH   6   9
ENDBRANCH   4   5
ENDBRANCH   3   4
ENDBRANCH   2   3
ENDBRANCH   1   2
BRANCH   1  26
ATOM     26  C   UNL A   1      35.275  23.673  25.513  1.00  0.00     0.021 C 
BRANCH  26  27
ATOM     27  C   UNL A   1      36.697  24.076  25.144  1.00  0.00     0.116 C 
BRANCH  27  28
ATOM     28  N   UNL A   1      37.641  23.004  25.422  1.00  0.00    -0.352 N 
ATOM     29  C   UNL A   1      38.857  23.068  26.051  1.00  0.00     0.251 C 
ATOM     30  H   UNL A   1      37.368  22.109  25.116  1.00  0.00     0.163 HD
ATOM     31  O   UNL A   1      39.640  22.127  25.977  1.00  0.00    -0.269 OA
BRANCH  29  32
ATOM     32  C   UNL A   1      39.212  24.286  26.803  1.00  0.00     0.039 A 
ATOM     33  C   UNL A   1      38.747  24.436  28.109  1.00  0.00     0.014 A 
ATOM     34  C   UNL A   1      40.013  25.269  26.214  1.00  0.00     0.014 A 
ATOM     35  C   UNL A   1      39.128  25.559  28.845  1.00  0.00     0.010 A 
ATOM     36  C   UNL A   1      40.462  26.341  26.977  1.00  0.00     0.010 A 
ATOM     37  C   UNL A   1      40.010  26.503  28.294  1.00  0.00    -0.014 A 
BRANCH  37  38
ATOM     38  C   UNL A   1      40.447  27.685  29.076  1.00  0.00     0.031 A 
ATOM     39  C   UNL A   1      41.810  27.696  29.714  1.00  0.00     0.074 A 
ATOM     40  C   UNL A   1      39.611  28.730  29.231  1.00  0.00     0.049 A 
ATOM     41  N   UNL A   1      42.365  28.621  30.452  1.00  0.00    -0.248 NA
ATOM     42  C   UNL A   1      42.652  26.505  29.512  1.00  0.00     0.031 C 
ATOM     43  C   UNL A   1      38.256  28.815  28.681  1.00  0.00     0.029 A 
ATOM     44  N   UNL A   1      39.776  29.922  29.890  1.00  0.00    -0.354 N 
ATOM     45  C   UNL A   1      43.618  28.128  30.795  1.00  0.00     0.074 A 
ATOM     46  C   UNL A   1      43.715  26.794  30.248  1.00  0.00     0.031 C 
ATOM     47  C   UNL A   1      37.730  30.011  28.991  1.00  0.00     0.029 A 
ATOM     48  C   UNL A   1      38.689  30.758  29.801  1.00  0.00     0.049 A 
ATOM     49  H   UNL A   1      40.596  30.155  30.381  1.00  0.00     0.167 HD
ATOM     50  C   UNL A   1      44.611  28.747  31.475  1.00  0.00     0.037 A 
ATOM     51  C   UNL A   1      38.486  31.987  30.315  1.00  0.00     0.037 A 
ATOM     52  C   UNL A   1      44.509  30.081  32.005  1.00  0.00     0.049 A 
ATOM     53  C   UNL A   1      39.587  32.631  31.114  1.00  0.00     0.074 A 
ATOM     54  C   UNL A   1      45.467  30.810  32.684  1.00  0.00     0.029 A 
ATOM     55  N   UNL A   1      43.381  30.886  31.918  1.00  0.00    -0.354 N 
ATOM     56  N   UNL A   1      40.786  32.172  31.386  1.00  0.00    -0.248 NA
ATOM     57  C   UNL A   1      39.311  33.960  31.677  1.00  0.00     0.031 C 
ATOM     58  C   UNL A   1      44.901  32.029  33.063  1.00  0.00     0.029 A 
ATOM     59  C   UNL A   1      43.611  32.091  32.560  1.00  0.00     0.049 A 
ATOM     60  H   UNL A   1      42.542  30.636  31.467  1.00  0.00     0.167 HD
ATOM     61  C   UNL A   1      41.415  33.165  32.129  1.00  0.00     0.074 A 
ATOM     62  C   UNL A   1      40.471  34.257  32.247  1.00  0.00     0.031 C 
ATOM     63  C   UNL A   1      42.661  33.171  32.666  1.00  0.00     0.037 A 
BRANCH  50  64
ATOM     64  C   UNL A   1      45.900  27.998  31.675  1.00  0.00     0.058 A 
ATOM     65  C   UNL A   1      46.125  27.215  32.818  1.00  0.00     0.135 A 
ATOM     66  C   UNL A   1      46.898  28.012  30.686  1.00  0.00     0.135 A 
ATOM     67  F   UNL A   1      45.214  27.179  33.805  1.00  0.00    -0.206 F 
ATOM     68  C   UNL A   1      47.298  26.486  32.983  1.00  0.00     0.059 A 
ATOM     69  C   UNL A   1      48.065  27.264  30.815  1.00  0.00     0.059 A 
ATOM     70  F   UNL A   1      46.739  28.747  29.575  1.00  0.00    -0.206 F 
ATOM     71  C   UNL A   1      48.260  26.512  31.971  1.00  0.00     0.060 A 
BRANCH  71  72
ATOM     72  S   UNL A   1      49.763  25.539  32.195  1.00  0.00     0.124 S 
ATOM     73  O   UNL A   1      50.671  26.531  32.765  1.00  0.00    -0.237 OA
ATOM     74  O   UNL A   1      49.319  24.491  33.107  1.00  0.00    -0.237 OA
ATOM     75  O   UNL A   1      50.089  25.098  30.843  1.00  0.00    -0.744 OA
ENDBRANCH  71  72
ENDBRANCH  50  64
BRANCH  51  76
ATOM     76  C   UNL A   1      37.201  32.696  30.063  1.00  0.00     0.058 A 
ATOM     77  C   UNL A   1      36.093  32.497  30.900  1.00  0.00     0.135 A 
ATOM     78  C   UNL A   1      37.059  33.599  28.998  1.00  0.00     0.135 A 
ATOM     79  F   UNL A   1      36.174  31.637  31.928  1.00  0.00    -0.206 F 
ATOM     80  C   UNL A   1      34.888  33.158  30.686  1.00  0.00     0.059 A 
ATOM     81  C   UNL A   1      35.874  34.296  28.782  1.00  0.00     0.059 A 
ATOM     82  F   UNL A   1      38.092  33.837  28.175  1.00  0.00    -0.206 F 
ATOM     83  C   UNL A   1      34.791  34.063  29.628  1.00  0.00     0.060 A 
BRANCH  83  84
ATOM     84  S   UNL A   1      33.237  34.953  29.393  1.00  0.00     0.124 S 
ATOM     85  O   UNL A   1      32.548  34.096  28.434  1.00  0.00    -0.237 OA
ATOM     86  O   UNL A   1      32.690  34.966  30.747  1.00  0.00    -0.237 OA
ATOM     87  O   UNL A   1      33.665  36.251  28.884  1.00  0.00    -0.744 OA
ENDBRANCH  83  84
ENDBRANCH  51  76
BRANCH  63  88
ATOM     88  C   UNL A   1      43.095  34.401  33.419  1.00  0.00     0.058 A 
ATOM     89  C   UNL A   1      43.002  34.477  34.817  1.00  0.00     0.135 A 
ATOM     90  C   UNL A   1      43.689  35.478  32.741  1.00  0.00     0.135 A 
ATOM     91  F   UNL A   1      42.439  33.478  35.514  1.00  0.00    -0.206 F 
ATOM     92  C   UNL A   1      43.466  35.587  35.516  1.00  0.00     0.059 A 
ATOM     93  C   UNL A   1      44.192  36.582  33.423  1.00  0.00     0.059 A 
ATOM     94  F   UNL A   1      43.815  35.452  31.405  1.00  0.00    -0.206 F 
ATOM     95  C   UNL A   1      44.068  36.631  34.810  1.00  0.00     0.060 A 
BRANCH  95  96
ATOM     96  S   UNL A   1      44.704  38.042  35.739  1.00  0.00     0.124 S 
ATOM     97  O   UNL A   1      46.051  37.592  36.074  1.00  0.00    -0.237 OA
ATOM     98  O   UNL A   1      44.622  39.119  34.757  1.00  0.00    -0.237 OA
ATOM     99  O   UNL A   1      43.783  38.154  36.865  1.00  0.00    -0.744 OA
ENDBRANCH  95  96
ENDBRANCH  63  88
ENDBRANCH  37  38
ENDBRANCH  29  32
ENDBRANCH  27  28
ENDBRANCH  26  27
ENDBRANCH   1  26
TORSDOF 18
ENDMDL
