MODEL 1
REMARK VINA RESULT:     -10.6      0.000      0.000
REMARK SMILES O=C(C[C@@H]1C(=O)NC(=S)N1c1ccccc1)NCCCCCCNC(=O)c1ccc(-c2c3nc(c(-c4c(F)cc(S(=O)(=O)[O-])cc4F)c4ccc([nH]4)c(-c4c(F)cc(S(=O)(=O)[O-])cc4F)c4nc(c(-c5c(F)cc(S(=O)(=O)[O-])cc5F)c5ccc2[nH]5)C=C4)C=C3)cc1
REMARK SMILES IDX 21 1 20 2 19 3 18 4 17 5 1 6 2 7 3 9 4 10 5 11 10 12 6 13
REMARK SMILES IDX 7 14 8 15 9 17 11 18 12 19 16 20 13 21 15 22 14 23 22 24
REMARK SMILES IDX 23 25 24 26 25 27 26 29 27 30 28 31 92 32 29 33 91 34 30 35
REMARK SMILES IDX 31 36 32 37 85 38 33 39 90 40 84 41 86 42 34 43 89 44 83 45
REMARK SMILES IDX 82 46 35 48 69 49 48 50 68 51 49 52 52 53 67 54 87 55 50 56
REMARK SMILES IDX 51 57 66 59 88 60 53 61 36 62 37 63 46 64 38 65 39 66 45 67
REMARK SMILES IDX 47 68 40 69 41 70 42 71 43 72 44 73 70 74 71 75 80 76 72 77
REMARK SMILES IDX 73 78 79 79 81 80 74 81 75 82 76 83 77 84 78 85 54 86 55 87
REMARK SMILES IDX 64 88 56 89 57 90 63 91 65 92 58 93 59 94 60 95 61 96 62 97
REMARK H PARENT 17 8 7 16 24 28 86 47 52 58
REMARK Flexibility Score: inf
ROOT
ATOM      1  C   UNL A   1      32.459  28.438  24.623  1.00  0.00     0.002 C 
ENDROOT
BRANCH   1   2
ATOM      2  C   UNL A   1      31.248  27.630  25.099  1.00  0.00     0.002 C 
BRANCH   2   3
ATOM      3  C   UNL A   1      31.097  26.237  24.477  1.00  0.00     0.021 C 
BRANCH   3   4
ATOM      4  C   UNL A   1      31.633  26.108  23.052  1.00  0.00     0.116 C 
BRANCH   4   5
ATOM      5  N   UNL A   1      32.300  24.835  22.843  1.00  0.00    -0.356 N 
ATOM      6  O   UNL A   1      34.329  25.538  23.642  1.00  0.00    -0.275 OA
ATOM      7  C   UNL A   1      33.615  24.647  23.185  1.00  0.00     0.222 C 
ATOM      8  H   UNL A   1      31.797  24.089  22.446  1.00  0.00     0.163 HD
BRANCH   7   9
ATOM      9  C   UNL A   1      34.223  23.310  22.825  1.00  0.00     0.135 C 
BRANCH   9  10
ATOM     10  C   UNL A   1      34.009  22.147  23.774  1.00  0.00     0.188 C 
ATOM     11  C   UNL A   1      32.537  21.843  24.056  1.00  0.00     0.249 C 
ATOM     12  N   UNL A   1      34.490  22.362  25.147  1.00  0.00    -0.306 N 
ATOM     13  O   UNL A   1      31.689  21.549  23.229  1.00  0.00    -0.272 OA
ATOM     14  N   UNL A   1      32.321  21.881  25.398  1.00  0.00    -0.301 N 
ATOM     15  C   UNL A   1      33.465  22.158  26.080  1.00  0.00     0.180 C 
ATOM     16  H   UNL A   1      31.447  21.726  25.822  1.00  0.00     0.172 HD
ATOM     17  S   UNL A   1      33.487  22.266  27.737  1.00  0.00    -0.040 S 
BRANCH  12  18
ATOM     18  C   UNL A   1      35.865  22.519  25.439  1.00  0.00     0.044 A 
ATOM     19  C   UNL A   1      36.740  21.431  25.361  1.00  0.00     0.026 A 
ATOM     20  C   UNL A   1      36.367  23.764  25.831  1.00  0.00     0.026 A 
ATOM     21  C   UNL A   1      38.096  21.591  25.654  1.00  0.00     0.002 A 
ATOM     22  C   UNL A   1      37.721  23.923  26.134  1.00  0.00     0.002 A 
ATOM     23  C   UNL A   1      38.587  22.837  26.041  1.00  0.00     0.000 A 
ENDBRANCH  12  18
ENDBRANCH   9  10
ENDBRANCH   7   9
ENDBRANCH   4   5
ENDBRANCH   3   4
ENDBRANCH   2   3
ENDBRANCH   1   2
BRANCH   1  24
ATOM     24  C   UNL A   1      33.749  28.220  25.416  1.00  0.00     0.021 C 
BRANCH  24  25
ATOM     25  C   UNL A   1      33.618  28.376  26.928  1.00  0.00     0.116 C 
BRANCH  25  26
ATOM     26  N   UNL A   1      33.480  29.764  27.337  1.00  0.00    -0.352 N 
ATOM     27  C   UNL A   1      34.367  30.565  28.014  1.00  0.00     0.251 C 
ATOM     28  H   UNL A   1      32.627  30.192  27.093  1.00  0.00     0.163 HD
ATOM     29  O   UNL A   1      34.010  31.671  28.411  1.00  0.00    -0.269 OA
BRANCH  27  30
ATOM     30  C   UNL A   1      35.742  30.087  28.286  1.00  0.00     0.039 A 
ATOM     31  C   UNL A   1      36.683  30.114  27.254  1.00  0.00     0.014 A 
ATOM     32  C   UNL A   1      36.102  29.610  29.550  1.00  0.00     0.014 A 
ATOM     33  C   UNL A   1      38.002  29.725  27.506  1.00  0.00     0.010 A 
ATOM     34  C   UNL A   1      37.431  29.285  29.816  1.00  0.00     0.010 A 
ATOM     35  C   UNL A   1      38.394  29.338  28.798  1.00  0.00    -0.014 A 
BRANCH  35  36
ATOM     36  C   UNL A   1      39.809  28.997  29.105  1.00  0.00     0.031 A 
ATOM     37  C   UNL A   1      40.719  30.022  29.724  1.00  0.00     0.074 A 
ATOM     38  C   UNL A   1      40.290  27.785  28.763  1.00  0.00     0.049 A 
ATOM     39  N   UNL A   1      41.995  29.936  30.000  1.00  0.00    -0.248 NA
ATOM     40  C   UNL A   1      40.121  31.326  30.056  1.00  0.00     0.031 C 
ATOM     41  C   UNL A   1      39.521  26.720  28.116  1.00  0.00     0.029 A 
ATOM     42  N   UNL A   1      41.546  27.248  28.903  1.00  0.00    -0.354 N 
ATOM     43  C   UNL A   1      42.357  31.173  30.520  1.00  0.00     0.074 A 
ATOM     44  C   UNL A   1      41.176  32.008  30.477  1.00  0.00     0.031 C 
ATOM     45  C   UNL A   1      40.315  25.652  27.935  1.00  0.00     0.029 A 
ATOM     46  C   UNL A   1      41.656  25.966  28.416  1.00  0.00     0.049 A 
ATOM     47  H   UNL A   1      42.297  27.734  29.312  1.00  0.00     0.167 HD
ATOM     48  C   UNL A   1      43.557  31.570  31.009  1.00  0.00     0.037 A 
ATOM     49  C   UNL A   1      42.719  25.140  28.359  1.00  0.00     0.037 A 
ATOM     50  C   UNL A   1      44.722  30.726  31.071  1.00  0.00     0.049 A 
ATOM     51  C   UNL A   1      44.042  25.604  28.905  1.00  0.00     0.074 A 
ATOM     52  C   UNL A   1      45.966  31.016  31.603  1.00  0.00     0.029 A 
ATOM     53  N   UNL A   1      44.789  29.429  30.585  1.00  0.00    -0.354 N 
ATOM     54  N   UNL A   1      44.349  26.756  29.451  1.00  0.00    -0.248 NA
ATOM     55  C   UNL A   1      45.161  24.655  28.830  1.00  0.00     0.031 C 
ATOM     56  C   UNL A   1      46.798  29.908  31.401  1.00  0.00     0.029 A 
ATOM     57  C   UNL A   1      46.058  28.911  30.786  1.00  0.00     0.049 A 
ATOM     58  H   UNL A   1      44.043  28.947  30.160  1.00  0.00     0.167 HD
ATOM     59  C   UNL A   1      45.690  26.660  29.811  1.00  0.00     0.074 A 
ATOM     60  C   UNL A   1      46.130  25.334  29.430  1.00  0.00     0.031 C 
ATOM     61  C   UNL A   1      46.481  27.586  30.407  1.00  0.00     0.037 A 
BRANCH  48  62
ATOM     62  C   UNL A   1      43.667  32.982  31.517  1.00  0.00     0.058 A 
ATOM     63  C   UNL A   1      43.496  33.290  32.877  1.00  0.00     0.135 A 
ATOM     64  C   UNL A   1      43.969  34.037  30.640  1.00  0.00     0.135 A 
ATOM     65  F   UNL A   1      43.192  32.324  33.757  1.00  0.00    -0.206 F 
ATOM     66  C   UNL A   1      43.585  34.599  33.343  1.00  0.00     0.059 A 
ATOM     67  C   UNL A   1      44.091  35.349  31.090  1.00  0.00     0.059 A 
ATOM     68  F   UNL A   1      44.145  33.798  29.331  1.00  0.00    -0.206 F 
ATOM     69  C   UNL A   1      43.879  35.621  32.440  1.00  0.00     0.060 A 
BRANCH  69  70
ATOM     70  S   UNL A   1      43.981  37.315  33.058  1.00  0.00     0.124 S 
ATOM     71  O   UNL A   1      43.886  38.081  31.819  1.00  0.00    -0.237 OA
ATOM     72  O   UNL A   1      42.822  37.396  33.942  1.00  0.00    -0.237 OA
ATOM     73  O   UNL A   1      45.278  37.357  33.725  1.00  0.00    -0.744 OA
ENDBRANCH  69  70
ENDBRANCH  48  62
BRANCH  49  74
ATOM     74  C   UNL A   1      42.568  23.776  27.785  1.00  0.00     0.058 A 
ATOM     75  C   UNL A   1      42.447  22.655  28.620  1.00  0.00     0.135 A 
ATOM     76  C   UNL A   1      42.530  23.565  26.397  1.00  0.00     0.135 A 
ATOM     77  F   UNL A   1      42.485  22.805  29.952  1.00  0.00    -0.206 F 
ATOM     78  C   UNL A   1      42.308  21.372  28.101  1.00  0.00     0.059 A 
ATOM     79  C   UNL A   1      42.367  22.294  25.855  1.00  0.00     0.059 A 
ATOM     80  F   UNL A   1      42.626  24.607  25.557  1.00  0.00    -0.206 F 
ATOM     81  C   UNL A   1      42.268  21.202  26.716  1.00  0.00     0.060 A 
BRANCH  81  82
ATOM     82  S   UNL A   1      42.039  19.536  26.055  1.00  0.00     0.124 S 
ATOM     83  O   UNL A   1      42.451  18.712  27.185  1.00  0.00    -0.237 OA
ATOM     84  O   UNL A   1      40.614  19.525  25.740  1.00  0.00    -0.237 OA
ATOM     85  O   UNL A   1      42.928  19.512  24.897  1.00  0.00    -0.744 OA
ENDBRANCH  81  82
ENDBRANCH  49  74
BRANCH  61  86
ATOM     86  C   UNL A   1      47.898  27.188  30.717  1.00  0.00     0.058 A 
ATOM     87  C   UNL A   1      48.238  26.554  31.922  1.00  0.00     0.135 A 
ATOM     88  C   UNL A   1      48.917  27.398  29.774  1.00  0.00     0.135 A 
ATOM     89  F   UNL A   1      47.303  26.337  32.860  1.00  0.00    -0.206 F 
ATOM     90  C   UNL A   1      49.546  26.161  32.192  1.00  0.00     0.059 A 
ATOM     91  C   UNL A   1      50.226  26.990  30.012  1.00  0.00     0.059 A 
ATOM     92  F   UNL A   1      48.642  27.991  28.602  1.00  0.00    -0.206 F 
ATOM     93  C   UNL A   1      50.532  26.382  31.229  1.00  0.00     0.060 A 
BRANCH  93  94
ATOM     94  S   UNL A   1      52.218  25.836  31.574  1.00  0.00     0.124 S 
ATOM     95  O   UNL A   1      52.627  26.779  32.609  1.00  0.00    -0.237 OA
ATOM     96  O   UNL A   1      52.017  24.459  32.016  1.00  0.00    -0.237 OA
ATOM     97  O   UNL A   1      52.893  25.982  30.288  1.00  0.00    -0.744 OA
ENDBRANCH  93  94
ENDBRANCH  61  86
ENDBRANCH  35  36
ENDBRANCH  27  30
ENDBRANCH  25  26
ENDBRANCH  24  25
ENDBRANCH   1  24
TORSDOF 18
ENDMDL
MODEL 2
REMARK VINA RESULT:     -10.5      4.633     10.196
REMARK SMILES O=C(C[C@@H]1C(=O)NC(=S)N1c1ccccc1)NCCCCCCNC(=O)c1ccc(-c2c3nc(c(-c4c(F)cc(S(=O)(=O)[O-])cc4F)c4ccc([nH]4)c(-c4c(F)cc(S(=O)(=O)[O-])cc4F)c4nc(c(-c5c(F)cc(S(=O)(=O)[O-])cc5F)c5ccc2[nH]5)C=C4)C=C3)cc1
REMARK SMILES IDX 21 1 20 2 19 3 18 4 17 5 1 6 2 7 3 9 4 10 5 11 10 12 6 13
REMARK SMILES IDX 7 14 8 15 9 17 11 18 12 19 16 20 13 21 15 22 14 23 22 24
REMARK SMILES IDX 23 25 24 26 25 27 26 29 27 30 28 31 92 32 29 33 91 34 30 35
REMARK SMILES IDX 31 36 32 37 85 38 33 39 90 40 84 41 86 42 34 43 89 44 83 45
REMARK SMILES IDX 82 46 35 48 69 49 48 50 68 51 49 52 52 53 67 54 87 55 50 56
REMARK SMILES IDX 51 57 66 59 88 60 53 61 36 62 37 63 46 64 38 65 39 66 45 67
REMARK SMILES IDX 47 68 40 69 41 70 42 71 43 72 44 73 70 74 71 75 80 76 72 77
REMARK SMILES IDX 73 78 79 79 81 80 74 81 75 82 76 83 77 84 78 85 54 86 55 87
REMARK SMILES IDX 64 88 56 89 57 90 63 91 65 92 58 93 59 94 60 95 61 96 62 97
REMARK H PARENT 17 8 7 16 24 28 86 47 52 58
REMARK Flexibility Score: inf
ROOT
ATOM      1  C   UNL A   1      38.129  21.799  25.575  1.00  0.00     0.002 C 
ENDROOT
BRANCH   1   2
ATOM      2  C   UNL A   1      37.226  21.651  24.346  1.00  0.00     0.002 C 
BRANCH   2   3
ATOM      3  C   UNL A   1      36.648  22.958  23.791  1.00  0.00     0.021 C 
BRANCH   3   4
ATOM      4  C   UNL A   1      35.132  22.960  23.599  1.00  0.00     0.116 C 
BRANCH   4   5
ATOM      5  N   UNL A   1      34.448  23.543  24.740  1.00  0.00    -0.356 N 
ATOM      6  O   UNL A   1      34.079  21.543  25.795  1.00  0.00    -0.275 OA
ATOM      7  C   UNL A   1      33.990  22.770  25.776  1.00  0.00     0.222 C 
ATOM      8  H   UNL A   1      34.310  24.516  24.771  1.00  0.00     0.163 HD
BRANCH   7   9
ATOM      9  C   UNL A   1      33.205  23.482  26.856  1.00  0.00     0.135 C 
BRANCH   9  10
ATOM     10  C   UNL A   1      31.813  23.978  26.520  1.00  0.00     0.188 C 
ATOM     11  C   UNL A   1      31.021  23.030  25.618  1.00  0.00     0.249 C 
ATOM     12  N   UNL A   1      31.762  25.202  25.708  1.00  0.00    -0.306 N 
ATOM     13  O   UNL A   1      30.736  21.870  25.863  1.00  0.00    -0.272 OA
ATOM     14  N   UNL A   1      30.612  23.705  24.511  1.00  0.00    -0.301 N 
ATOM     15  C   UNL A   1      31.009  25.006  24.543  1.00  0.00     0.180 C 
ATOM     16  H   UNL A   1      30.092  23.303  23.779  1.00  0.00     0.172 HD
ATOM     17  S   UNL A   1      30.645  26.059  23.312  1.00  0.00    -0.040 S 
BRANCH  12  18
ATOM     18  C   UNL A   1      32.229  26.443  26.200  1.00  0.00     0.044 A 
ATOM     19  C   UNL A   1      33.546  26.852  25.968  1.00  0.00     0.026 A 
ATOM     20  C   UNL A   1      31.383  27.272  26.945  1.00  0.00     0.026 A 
ATOM     21  C   UNL A   1      34.002  28.078  26.460  1.00  0.00     0.002 A 
ATOM     22  C   UNL A   1      31.842  28.492  27.445  1.00  0.00     0.002 A 
ATOM     23  C   UNL A   1      33.151  28.898  27.199  1.00  0.00     0.000 A 
ENDBRANCH  12  18
ENDBRANCH   9  10
ENDBRANCH   7   9
ENDBRANCH   4   5
ENDBRANCH   3   4
ENDBRANCH   2   3
ENDBRANCH   1   2
BRANCH   1  24
ATOM     24  C   UNL A   1      38.243  23.216  26.141  1.00  0.00     0.021 C 
BRANCH  24  25
ATOM     25  C   UNL A   1      39.511  23.497  26.942  1.00  0.00     0.116 C 
BRANCH  25  26
ATOM     26  N   UNL A   1      40.621  23.917  26.102  1.00  0.00    -0.352 N 
ATOM     27  C   UNL A   1      41.428  25.023  26.213  1.00  0.00     0.251 C 
ATOM     28  H   UNL A   1      40.824  23.322  25.343  1.00  0.00     0.163 HD
ATOM     29  O   UNL A   1      42.217  25.296  25.313  1.00  0.00    -0.269 OA
BRANCH  27  30
ATOM     30  C   UNL A   1      41.328  25.900  27.403  1.00  0.00     0.039 A 
ATOM     31  C   UNL A   1      42.306  26.877  27.606  1.00  0.00     0.014 A 
ATOM     32  C   UNL A   1      40.280  25.757  28.317  1.00  0.00     0.014 A 
ATOM     33  C   UNL A   1      42.197  27.754  28.689  1.00  0.00     0.010 A 
ATOM     34  C   UNL A   1      40.138  26.673  29.358  1.00  0.00     0.010 A 
ATOM     35  C   UNL A   1      41.094  27.680  29.555  1.00  0.00    -0.014 A 
BRANCH  35  36
ATOM     36  C   UNL A   1      40.919  28.654  30.666  1.00  0.00     0.031 A 
ATOM     37  C   UNL A   1      41.781  28.563  31.896  1.00  0.00     0.074 A 
ATOM     38  C   UNL A   1      39.940  29.577  30.594  1.00  0.00     0.049 A 
ATOM     39  N   UNL A   1      41.732  29.273  32.994  1.00  0.00    -0.248 NA
ATOM     40  C   UNL A   1      42.819  27.519  31.903  1.00  0.00     0.031 C 
ATOM     41  C   UNL A   1      39.009  29.739  29.476  1.00  0.00     0.029 A 
ATOM     42  N   UNL A   1      39.557  30.548  31.487  1.00  0.00    -0.354 N 
ATOM     43  C   UNL A   1      42.717  28.754  33.826  1.00  0.00     0.074 A 
ATOM     44  C   UNL A   1      43.315  27.639  33.125  1.00  0.00     0.031 C 
ATOM     45  C   UNL A   1      38.178  30.760  29.739  1.00  0.00     0.029 A 
ATOM     46  C   UNL A   1      38.490  31.302  31.058  1.00  0.00     0.049 A 
ATOM     47  H   UNL A   1      40.003  30.690  32.352  1.00  0.00     0.167 HD
ATOM     48  C   UNL A   1      43.103  29.182  35.053  1.00  0.00     0.037 A 
ATOM     49  C   UNL A   1      37.832  32.311  31.662  1.00  0.00     0.037 A 
ATOM     50  C   UNL A   1      42.519  30.308  35.736  1.00  0.00     0.049 A 
ATOM     51  C   UNL A   1      38.276  32.767  33.025  1.00  0.00     0.074 A 
ATOM     52  C   UNL A   1      42.880  30.857  36.954  1.00  0.00     0.029 A 
ATOM     53  N   UNL A   1      41.453  31.057  35.261  1.00  0.00    -0.354 N 
ATOM     54  N   UNL A   1      39.252  32.305  33.771  1.00  0.00    -0.248 NA
ATOM     55  C   UNL A   1      37.533  33.882  33.628  1.00  0.00     0.031 C 
ATOM     56  C   UNL A   1      42.005  31.912  37.235  1.00  0.00     0.029 A 
ATOM     57  C   UNL A   1      41.129  32.051  36.171  1.00  0.00     0.049 A 
ATOM     58  H   UNL A   1      40.994  30.906  34.404  1.00  0.00     0.167 HD
ATOM     59  C   UNL A   1      39.258  33.092  34.918  1.00  0.00     0.074 A 
ATOM     60  C   UNL A   1      38.196  34.064  34.763  1.00  0.00     0.031 C 
ATOM     61  C   UNL A   1      40.072  33.017  36.000  1.00  0.00     0.037 A 
BRANCH  48  62
ATOM     62  C   UNL A   1      44.212  28.427  35.735  1.00  0.00     0.058 A 
ATOM     63  C   UNL A   1      43.946  27.369  36.619  1.00  0.00     0.135 A 
ATOM     64  C   UNL A   1      45.556  28.749  35.485  1.00  0.00     0.135 A 
ATOM     65  F   UNL A   1      42.680  27.028  36.906  1.00  0.00    -0.206 F 
ATOM     66  C   UNL A   1      44.973  26.681  37.259  1.00  0.00     0.059 A 
ATOM     67  C   UNL A   1      46.599  28.055  36.092  1.00  0.00     0.059 A 
ATOM     68  F   UNL A   1      45.867  29.750  34.646  1.00  0.00    -0.206 F 
ATOM     69  C   UNL A   1      46.296  27.035  36.992  1.00  0.00     0.060 A 
BRANCH  69  70
ATOM     70  S   UNL A   1      47.617  26.140  37.837  1.00  0.00     0.124 S 
ATOM     71  O   UNL A   1      48.406  27.238  38.386  1.00  0.00    -0.237 OA
ATOM     72  O   UNL A   1      46.879  25.342  38.813  1.00  0.00    -0.237 OA
ATOM     73  O   UNL A   1      48.254  25.381  36.766  1.00  0.00    -0.744 OA
ENDBRANCH  69  70
ENDBRANCH  48  62
BRANCH  49  74
ATOM     74  C   UNL A   1      36.699  32.980  30.967  1.00  0.00     0.058 A 
ATOM     75  C   UNL A   1      35.378  32.781  31.395  1.00  0.00     0.135 A 
ATOM     76  C   UNL A   1      36.912  33.834  29.875  1.00  0.00     0.135 A 
ATOM     77  F   UNL A   1      35.123  31.968  32.430  1.00  0.00    -0.206 F 
ATOM     78  C   UNL A   1      34.305  33.396  30.756  1.00  0.00     0.059 A 
ATOM     79  C   UNL A   1      35.858  34.479  29.235  1.00  0.00     0.059 A 
ATOM     80  F   UNL A   1      38.159  34.069  29.437  1.00  0.00    -0.206 F 
ATOM     81  C   UNL A   1      34.556  34.245  29.677  1.00  0.00     0.060 A 
BRANCH  81  82
ATOM     82  S   UNL A   1      33.160  35.074  28.885  1.00  0.00     0.124 S 
ATOM     83  O   UNL A   1      32.305  35.366  30.029  1.00  0.00    -0.237 OA
ATOM     84  O   UNL A   1      33.803  36.223  28.257  1.00  0.00    -0.237 OA
ATOM     85  O   UNL A   1      32.655  34.065  27.958  1.00  0.00    -0.744 OA
ENDBRANCH  81  82
ENDBRANCH  49  74
BRANCH  61  86
ATOM     86  C   UNL A   1      39.873  34.036  37.088  1.00  0.00     0.058 A 
ATOM     87  C   UNL A   1      39.097  33.758  38.225  1.00  0.00     0.135 A 
ATOM     88  C   UNL A   1      40.507  35.286  37.014  1.00  0.00     0.135 A 
ATOM     89  F   UNL A   1      38.463  32.581  38.340  1.00  0.00    -0.206 F 
ATOM     90  C   UNL A   1      38.940  34.695  39.242  1.00  0.00     0.059 A 
ATOM     91  C   UNL A   1      40.385  36.227  38.031  1.00  0.00     0.059 A 
ATOM     92  F   UNL A   1      41.268  35.597  35.953  1.00  0.00    -0.206 F 
ATOM     93  C   UNL A   1      39.590  35.926  39.137  1.00  0.00     0.060 A 
BRANCH  93  94
ATOM     94  S   UNL A   1      39.408  37.119  40.480  1.00  0.00     0.124 S 
ATOM     95  O   UNL A   1      40.800  37.420  40.797  1.00  0.00    -0.237 OA
ATOM     96  O   UNL A   1      38.656  38.196  39.843  1.00  0.00    -0.237 OA
ATOM     97  O   UNL A   1      38.678  36.373  41.501  1.00  0.00    -0.744 OA
ENDBRANCH  93  94
ENDBRANCH  61  86
ENDBRANCH  35  36
ENDBRANCH  27  30
ENDBRANCH  25  26
ENDBRANCH  24  25
ENDBRANCH   1  24
TORSDOF 18
ENDMDL
MODEL 3
REMARK VINA RESULT:     -10.4      3.290      9.166
REMARK SMILES O=C(C[C@@H]1C(=O)NC(=S)N1c1ccccc1)NCCCCCCNC(=O)c1ccc(-c2c3nc(c(-c4c(F)cc(S(=O)(=O)[O-])cc4F)c4ccc([nH]4)c(-c4c(F)cc(S(=O)(=O)[O-])cc4F)c4nc(c(-c5c(F)cc(S(=O)(=O)[O-])cc5F)c5ccc2[nH]5)C=C4)C=C3)cc1
REMARK SMILES IDX 21 1 20 2 19 3 18 4 17 5 1 6 2 7 3 9 4 10 5 11 10 12 6 13
REMARK SMILES IDX 7 14 8 15 9 17 11 18 12 19 16 20 13 21 15 22 14 23 22 24
REMARK SMILES IDX 23 25 24 26 25 27 26 29 27 30 28 31 92 32 29 33 91 34 30 35
REMARK SMILES IDX 31 36 32 37 85 38 33 39 90 40 84 41 86 42 34 43 89 44 83 45
REMARK SMILES IDX 82 46 35 48 69 49 48 50 68 51 49 52 52 53 67 54 87 55 50 56
REMARK SMILES IDX 51 57 66 59 88 60 53 61 36 62 37 63 46 64 38 65 39 66 45 67
REMARK SMILES IDX 47 68 40 69 41 70 42 71 43 72 44 73 70 74 71 75 80 76 72 77
REMARK SMILES IDX 73 78 79 79 81 80 74 81 75 82 76 83 77 84 78 85 54 86 55 87
REMARK SMILES IDX 64 88 56 89 57 90 63 91 65 92 58 93 59 94 60 95 61 96 62 97
REMARK H PARENT 17 8 7 16 24 28 86 47 52 58
REMARK Flexibility Score: inf
ROOT
ATOM      1  C   UNL A   1      36.166  33.224  28.440  1.00  0.00     0.002 C 
ENDROOT
BRANCH   1   2
ATOM      2  C   UNL A   1      34.798  32.677  28.019  1.00  0.00     0.002 C 
BRANCH   2   3
ATOM      3  C   UNL A   1      34.762  31.184  27.672  1.00  0.00     0.021 C 
BRANCH   3   4
ATOM      4  C   UNL A   1      33.389  30.653  27.263  1.00  0.00     0.116 C 
BRANCH   4   5
ATOM      5  N   UNL A   1      33.432  29.991  25.972  1.00  0.00    -0.356 N 
ATOM      6  O   UNL A   1      33.849  27.907  26.828  1.00  0.00    -0.275 OA
ATOM      7  C   UNL A   1      33.641  28.640  25.862  1.00  0.00     0.222 C 
ATOM      8  H   UNL A   1      33.310  30.525  25.154  1.00  0.00     0.163 HD
BRANCH   7   9
ATOM      9  C   UNL A   1      33.766  28.086  24.460  1.00  0.00     0.135 C 
BRANCH   9  10
ATOM     10  C   UNL A   1      32.700  27.126  23.972  1.00  0.00     0.188 C 
ATOM     11  C   UNL A   1      31.273  27.567  24.302  1.00  0.00     0.249 C 
ATOM     12  N   UNL A   1      32.709  25.801  24.610  1.00  0.00    -0.306 N 
ATOM     13  O   UNL A   1      30.741  28.608  23.954  1.00  0.00    -0.272 OA
ATOM     14  N   UNL A   1      30.649  26.579  24.997  1.00  0.00    -0.301 N 
ATOM     15  C   UNL A   1      31.461  25.502  25.173  1.00  0.00     0.180 C 
ATOM     16  H   UNL A   1      29.724  26.636  25.328  1.00  0.00     0.172 HD
ATOM     17  S   UNL A   1      30.951  24.151  25.992  1.00  0.00    -0.040 S 
BRANCH  12  18
ATOM     18  C   UNL A   1      33.785  24.900  24.441  1.00  0.00     0.044 A 
ATOM     19  C   UNL A   1      33.880  24.110  23.291  1.00  0.00     0.026 A 
ATOM     20  C   UNL A   1      34.762  24.770  25.433  1.00  0.00     0.026 A 
ATOM     21  C   UNL A   1      34.943  23.218  23.131  1.00  0.00     0.002 A 
ATOM     22  C   UNL A   1      35.820  23.872  25.278  1.00  0.00     0.002 A 
ATOM     23  C   UNL A   1      35.913  23.098  24.125  1.00  0.00     0.000 A 
ENDBRANCH  12  18
ENDBRANCH   9  10
ENDBRANCH   7   9
ENDBRANCH   4   5
ENDBRANCH   3   4
ENDBRANCH   2   3
ENDBRANCH   1   2
BRANCH   1  24
ATOM     24  C   UNL A   1      36.235  33.806  29.854  1.00  0.00     0.021 C 
BRANCH  24  25
ATOM     25  C   UNL A   1      36.994  32.959  30.870  1.00  0.00     0.116 C 
BRANCH  25  26
ATOM     26  N   UNL A   1      36.344  31.684  31.131  1.00  0.00    -0.352 N 
ATOM     27  C   UNL A   1      36.766  30.413  30.827  1.00  0.00     0.251 C 
ATOM     28  H   UNL A   1      35.476  31.741  31.593  1.00  0.00     0.163 HD
ATOM     29  O   UNL A   1      36.005  29.463  30.986  1.00  0.00    -0.269 OA
BRANCH  27  30
ATOM     30  C   UNL A   1      38.126  30.191  30.283  1.00  0.00     0.039 A 
ATOM     31  C   UNL A   1      39.179  29.962  31.172  1.00  0.00     0.014 A 
ATOM     32  C   UNL A   1      38.364  30.212  28.906  1.00  0.00     0.014 A 
ATOM     33  C   UNL A   1      40.458  29.690  30.679  1.00  0.00     0.010 A 
ATOM     34  C   UNL A   1      39.624  29.876  28.415  1.00  0.00     0.010 A 
ATOM     35  C   UNL A   1      40.684  29.612  29.295  1.00  0.00    -0.014 A 
BRANCH  35  36
ATOM     36  C   UNL A   1      42.019  29.246  28.751  1.00  0.00     0.031 A 
ATOM     37  C   UNL A   1      42.295  27.836  28.303  1.00  0.00     0.074 A 
ATOM     38  C   UNL A   1      43.002  30.168  28.722  1.00  0.00     0.049 A 
ATOM     39  N   UNL A   1      43.411  27.311  27.869  1.00  0.00    -0.248 NA
ATOM     40  C   UNL A   1      41.173  26.886  28.377  1.00  0.00     0.031 C 
ATOM     41  C   UNL A   1      42.874  31.556  29.170  1.00  0.00     0.029 A 
ATOM     42  N   UNL A   1      44.308  30.073  28.308  1.00  0.00    -0.354 N 
ATOM     43  C   UNL A   1      43.133  25.969  27.634  1.00  0.00     0.074 A 
ATOM     44  C   UNL A   1      41.756  25.751  28.020  1.00  0.00     0.031 C 
ATOM     45  C   UNL A   1      44.045  32.187  28.987  1.00  0.00     0.029 A 
ATOM     46  C   UNL A   1      45.017  31.243  28.446  1.00  0.00     0.049 A 
ATOM     47  H   UNL A   1      44.699  29.245  27.948  1.00  0.00     0.167 HD
ATOM     48  C   UNL A   1      43.945  25.011  27.122  1.00  0.00     0.037 A 
ATOM     49  C   UNL A   1      46.307  31.522  28.172  1.00  0.00     0.037 A 
ATOM     50  C   UNL A   1      45.308  25.240  26.717  1.00  0.00     0.049 A 
ATOM     51  C   UNL A   1      47.190  30.442  27.609  1.00  0.00     0.074 A 
ATOM     52  C   UNL A   1      46.192  24.351  26.133  1.00  0.00     0.029 A 
ATOM     53  N   UNL A   1      45.984  26.443  26.855  1.00  0.00    -0.354 N 
ATOM     54  N   UNL A   1      46.892  29.194  27.333  1.00  0.00    -0.248 NA
ATOM     55  C   UNL A   1      48.582  30.808  27.315  1.00  0.00     0.031 C 
ATOM     56  C   UNL A   1      47.417  25.004  25.956  1.00  0.00     0.029 A 
ATOM     57  C   UNL A   1      47.282  26.314  26.386  1.00  0.00     0.049 A 
ATOM     58  H   UNL A   1      45.600  27.267  27.231  1.00  0.00     0.167 HD
ATOM     59  C   UNL A   1      48.051  28.634  26.807  1.00  0.00     0.074 A 
ATOM     60  C   UNL A   1      49.052  29.681  26.794  1.00  0.00     0.031 C 
ATOM     61  C   UNL A   1      48.266  27.368  26.373  1.00  0.00     0.037 A 
BRANCH  48  62
ATOM     62  C   UNL A   1      43.376  23.627  26.971  1.00  0.00     0.058 A 
ATOM     63  C   UNL A   1      43.274  22.749  28.063  1.00  0.00     0.135 A 
ATOM     64  C   UNL A   1      42.904  23.179  25.726  1.00  0.00     0.135 A 
ATOM     65  F   UNL A   1      43.722  23.120  29.272  1.00  0.00    -0.206 F 
ATOM     66  C   UNL A   1      42.760  21.464  27.918  1.00  0.00     0.059 A 
ATOM     67  C   UNL A   1      42.360  21.908  25.565  1.00  0.00     0.059 A 
ATOM     68  F   UNL A   1      42.974  23.977  24.649  1.00  0.00    -0.206 F 
ATOM     69  C   UNL A   1      42.309  21.052  26.664  1.00  0.00     0.060 A 
BRANCH  69  70
ATOM     70  S   UNL A   1      41.653  19.378  26.489  1.00  0.00     0.124 S 
ATOM     71  O   UNL A   1      42.468  18.861  25.394  1.00  0.00    -0.237 OA
ATOM     72  O   UNL A   1      41.919  18.799  27.803  1.00  0.00    -0.237 OA
ATOM     73  O   UNL A   1      40.245  19.595  26.178  1.00  0.00    -0.744 OA
ENDBRANCH  69  70
ENDBRANCH  48  62
BRANCH  49  74
ATOM     74  C   UNL A   1      46.835  32.894  28.403  1.00  0.00     0.058 A 
ATOM     75  C   UNL A   1      47.400  33.247  29.638  1.00  0.00     0.135 A 
ATOM     76  C   UNL A   1      46.796  33.872  27.398  1.00  0.00     0.135 A 
ATOM     77  F   UNL A   1      47.453  32.348  30.632  1.00  0.00    -0.206 F 
ATOM     78  C   UNL A   1      47.896  34.525  29.873  1.00  0.00     0.059 A 
ATOM     79  C   UNL A   1      47.307  35.150  27.601  1.00  0.00     0.059 A 
ATOM     80  F   UNL A   1      46.279  33.579  26.194  1.00  0.00    -0.206 F 
ATOM     81  C   UNL A   1      47.846  35.470  28.847  1.00  0.00     0.060 A 
BRANCH  81  82
ATOM     82  S   UNL A   1      48.537  37.112  29.148  1.00  0.00     0.124 S 
ATOM     83  O   UNL A   1      48.620  37.133  30.603  1.00  0.00    -0.237 OA
ATOM     84  O   UNL A   1      49.808  37.046  28.434  1.00  0.00    -0.237 OA
ATOM     85  O   UNL A   1      47.543  38.005  28.558  1.00  0.00    -0.744 OA
ENDBRANCH  81  82
ENDBRANCH  49  74
BRANCH  61  86
ATOM     86  C   UNL A   1      49.624  27.050  25.810  1.00  0.00     0.058 A 
ATOM     87  C   UNL A   1      49.929  27.260  24.457  1.00  0.00     0.135 A 
ATOM     88  C   UNL A   1      50.647  26.579  26.649  1.00  0.00     0.135 A 
ATOM     89  F   UNL A   1      48.985  27.703  23.611  1.00  0.00    -0.206 F 
ATOM     90  C   UNL A   1      51.196  26.992  23.948  1.00  0.00     0.059 A 
ATOM     91  C   UNL A   1      51.928  26.329  26.168  1.00  0.00     0.059 A 
ATOM     92  F   UNL A   1      50.410  26.371  27.953  1.00  0.00    -0.206 F 
ATOM     93  C   UNL A   1      52.190  26.528  24.813  1.00  0.00     0.060 A 
BRANCH  93  94
ATOM     94  S   UNL A   1      53.840  26.219  24.149  1.00  0.00     0.124 S 
ATOM     95  O   UNL A   1      54.587  27.357  24.674  1.00  0.00    -0.237 OA
ATOM     96  O   UNL A   1      54.173  24.922  24.729  1.00  0.00    -0.237 OA
ATOM     97  O   UNL A   1      53.631  26.217  22.704  1.00  0.00    -0.744 OA
ENDBRANCH  93  94
ENDBRANCH  61  86
ENDBRANCH  35  36
ENDBRANCH  27  30
ENDBRANCH  25  26
ENDBRANCH  24  25
ENDBRANCH   1  24
TORSDOF 18
ENDMDL
