MODEL 1
REMARK VINA RESULT:     -10.5      0.000      0.000
REMARK SMILES CC[C@@H](C)[NH2+][C@H](Cc1c[nH]c2ccccc12)C(=O)NCCCCCCNC(=O)c1ccc(-c2c3nc(c(-c4c(F)cc(S(=O)(=O)[O-])cc4F)c4ccc([nH]4)c(-c4c(F)cc(S(=O)(=O)[O-])cc4F)c4nc(c(-c5c(F)cc(S(=O)(=O)[O-])cc5F)c5ccc2[nH]5)C=C4)C=C3)cc1
REMARK SMILES IDX 22 1 21 2 20 3 19 4 17 5 18 6 6 8 5 9 3 12 4 13 2 14 1 15
REMARK SMILES IDX 7 16 8 17 9 18 16 19 10 20 11 21 15 22 12 24 14 25 13 26
REMARK SMILES IDX 23 27 24 28 25 29 26 30 27 31 28 33 29 34 30 35 94 36 31 37
REMARK SMILES IDX 93 38 32 39 33 40 34 41 87 42 35 43 92 44 86 45 88 46 36 47
REMARK SMILES IDX 91 48 85 49 84 50 37 52 71 53 50 54 70 55 51 56 54 57 69 58
REMARK SMILES IDX 89 59 52 60 53 61 68 63 90 64 55 65 38 66 39 67 48 68 40 69
REMARK SMILES IDX 41 70 47 71 49 72 42 73 43 74 44 75 45 76 46 77 72 78 73 79
REMARK SMILES IDX 82 80 74 81 75 82 81 83 83 84 76 85 77 86 78 87 79 88 80 89
REMARK SMILES IDX 56 90 57 91 66 92 58 93 59 94 65 95 67 96 60 97 61 98 62 99
REMARK SMILES IDX 63 100 64 101
REMARK H PARENT 19 7 5 10 5 11 10 23 26 32 88 51 54 62
REMARK Flexibility Score: inf
ROOT
ATOM      1  C   UNL A   1      33.386  23.966  23.174  1.00  0.00     0.002 C 
ENDROOT
BRANCH   1   2
ATOM      2  C   UNL A   1      33.125  24.714  21.871  1.00  0.00     0.021 C 
BRANCH   2   3
ATOM      3  C   UNL A   1      32.293  25.976  21.981  1.00  0.00     0.116 C 
BRANCH   3   4
ATOM      4  N   UNL A   1      33.041  27.204  22.066  1.00  0.00    -0.351 N 
ATOM      5  C   UNL A   1      32.675  28.446  22.484  1.00  0.00     0.278 C 
ATOM      6  O   UNL A   1      33.600  29.259  22.631  1.00  0.00    -0.268 OA
ATOM      7  H   UNL A   1      33.977  27.132  21.771  1.00  0.00     0.163 HD
BRANCH   5   8
ATOM      8  C   UNL A   1      31.220  28.878  22.764  1.00  0.00     0.277 C 
BRANCH   8   9
ATOM      9  N   UNL A   1      30.863  30.057  21.886  1.00  0.00    -0.334 N 
ATOM     10  H   UNL A   1      31.284  30.889  22.300  1.00  0.00     0.347 HD
ATOM     11  H   UNL A   1      31.215  29.817  20.959  1.00  0.00     0.347 HD
BRANCH   9  12
ATOM     12  C   UNL A   1      29.433  30.331  21.695  1.00  0.00     0.179 C 
ATOM     13  C   UNL A   1      29.002  31.670  22.302  1.00  0.00     0.075 C 
BRANCH  12  14
ATOM     14  C   UNL A   1      28.564  29.178  22.236  1.00  0.00     0.061 C 
ATOM     15  C   UNL A   1      27.358  29.707  23.015  1.00  0.00     0.010 C 
ENDBRANCH  12  14
ENDBRANCH   9  12
ENDBRANCH   8   9
BRANCH   8  16
ATOM     16  C   UNL A   1      30.731  28.982  24.214  1.00  0.00     0.113 C 
BRANCH  16  17
ATOM     17  C   UNL A   1      31.429  29.762  25.309  1.00  0.00    -0.016 A 
ATOM     18  C   UNL A   1      30.945  31.019  25.652  1.00  0.00     0.087 A 
ATOM     19  C   UNL A   1      32.641  29.590  26.083  1.00  0.00     0.003 A 
ATOM     20  N   UNL A   1      31.792  31.609  26.539  1.00  0.00    -0.361 N 
ATOM     21  C   UNL A   1      32.847  30.777  26.803  1.00  0.00     0.046 A 
ATOM     22  C   UNL A   1      33.628  28.592  26.252  1.00  0.00     0.010 A 
ATOM     23  H   UNL A   1      31.665  32.503  26.932  1.00  0.00     0.166 HD
ATOM     24  C   UNL A   1      33.963  31.014  27.622  1.00  0.00     0.026 A 
ATOM     25  C   UNL A   1      34.759  28.814  27.054  1.00  0.00     0.001 A 
ATOM     26  C   UNL A   1      34.926  30.014  27.726  1.00  0.00     0.002 A 
ENDBRANCH  16  17
ENDBRANCH   8  16
ENDBRANCH   5   8
ENDBRANCH   3   4
ENDBRANCH   2   3
ENDBRANCH   1   2
BRANCH   1  27
ATOM     27  C   UNL A   1      34.452  24.556  24.101  1.00  0.00     0.002 C 
BRANCH  27  28
ATOM     28  C   UNL A   1      35.321  23.566  24.880  1.00  0.00     0.021 C 
BRANCH  28  29
ATOM     29  C   UNL A   1      36.652  24.106  25.378  1.00  0.00     0.116 C 
BRANCH  29  30
ATOM     30  N   UNL A   1      37.669  23.075  25.458  1.00  0.00    -0.352 N 
ATOM     31  C   UNL A   1      38.923  23.139  26.005  1.00  0.00     0.251 C 
ATOM     32  H   UNL A   1      37.423  22.208  25.063  1.00  0.00     0.163 HD
ATOM     33  O   UNL A   1      39.719  22.219  25.811  1.00  0.00    -0.269 OA
BRANCH  31  34
ATOM     34  C   UNL A   1      39.327  24.313  26.809  1.00  0.00     0.039 A 
ATOM     35  C   UNL A   1      40.113  25.301  26.212  1.00  0.00     0.014 A 
ATOM     36  C   UNL A   1      38.956  24.432  28.152  1.00  0.00     0.014 A 
ATOM     37  C   UNL A   1      40.499  26.422  26.951  1.00  0.00     0.010 A 
ATOM     38  C   UNL A   1      39.266  25.589  28.860  1.00  0.00     0.010 A 
ATOM     39  C   UNL A   1      40.065  26.584  28.277  1.00  0.00    -0.014 A 
BRANCH  39  40
ATOM     40  C   UNL A   1      40.478  27.761  29.085  1.00  0.00     0.031 A 
ATOM     41  C   UNL A   1      41.823  27.769  29.764  1.00  0.00     0.074 A 
ATOM     42  C   UNL A   1      39.633  28.798  29.244  1.00  0.00     0.049 A 
ATOM     43  N   UNL A   1      42.352  28.680  30.539  1.00  0.00    -0.248 NA
ATOM     44  C   UNL A   1      42.672  26.583  29.569  1.00  0.00     0.031 C 
ATOM     45  C   UNL A   1      38.290  28.892  28.669  1.00  0.00     0.029 A 
ATOM     46  N   UNL A   1      39.778  29.973  29.938  1.00  0.00    -0.354 N 
ATOM     47  C   UNL A   1      43.582  28.168  30.942  1.00  0.00     0.074 A 
ATOM     48  C   UNL A   1      43.692  26.842  30.373  1.00  0.00     0.031 C 
ATOM     49  C   UNL A   1      37.749  30.075  29.004  1.00  0.00     0.029 A 
ATOM     50  C   UNL A   1      38.689  30.807  29.848  1.00  0.00     0.049 A 
ATOM     51  H   UNL A   1      40.588  30.197  30.452  1.00  0.00     0.167 HD
ATOM     52  C   UNL A   1      44.542  28.754  31.696  1.00  0.00     0.037 A 
ATOM     53  C   UNL A   1      38.474  32.024  30.384  1.00  0.00     0.037 A 
ATOM     54  C   UNL A   1      44.435  30.086  32.233  1.00  0.00     0.049 A 
ATOM     55  C   UNL A   1      39.554  32.659  31.218  1.00  0.00     0.074 A 
ATOM     56  C   UNL A   1      45.374  30.800  32.956  1.00  0.00     0.029 A 
ATOM     57  N   UNL A   1      43.319  30.902  32.113  1.00  0.00    -0.354 N 
ATOM     58  N   UNL A   1      40.736  32.188  31.537  1.00  0.00    -0.248 NA
ATOM     59  C   UNL A   1      39.275  33.997  31.757  1.00  0.00     0.031 C 
ATOM     60  C   UNL A   1      44.806  32.026  33.319  1.00  0.00     0.029 A 
ATOM     61  C   UNL A   1      43.537  32.104  32.768  1.00  0.00     0.049 A 
ATOM     62  H   UNL A   1      42.494  30.663  31.632  1.00  0.00     0.167 HD
ATOM     63  C   UNL A   1      41.358  33.188  32.276  1.00  0.00     0.074 A 
ATOM     64  C   UNL A   1      40.421  34.289  32.357  1.00  0.00     0.031 C 
ATOM     65  C   UNL A   1      42.598  33.197  32.830  1.00  0.00     0.037 A 
BRANCH  52  66
ATOM     66  C   UNL A   1      45.781  27.953  31.994  1.00  0.00     0.058 A 
ATOM     67  C   UNL A   1      46.905  27.976  31.150  1.00  0.00     0.135 A 
ATOM     68  C   UNL A   1      45.849  27.150  33.145  1.00  0.00     0.135 A 
ATOM     69  F   UNL A   1      46.894  28.714  30.028  1.00  0.00    -0.206 F 
ATOM     70  C   UNL A   1      48.028  27.197  31.410  1.00  0.00     0.059 A 
ATOM     71  C   UNL A   1      46.976  26.390  33.443  1.00  0.00     0.059 A 
ATOM     72  F   UNL A   1      44.808  27.090  33.990  1.00  0.00    -0.206 F 
ATOM     73  C   UNL A   1      48.051  26.402  32.557  1.00  0.00     0.060 A 
BRANCH  73  74
ATOM     74  S   UNL A   1      49.505  25.378  32.869  1.00  0.00     0.124 S 
ATOM     75  O   UNL A   1      49.863  24.964  31.515  1.00  0.00    -0.237 OA
ATOM     76  O   UNL A   1      50.420  26.320  33.505  1.00  0.00    -0.237 OA
ATOM     77  O   UNL A   1      48.997  24.319  33.734  1.00  0.00    -0.744 OA
ENDBRANCH  73  74
ENDBRANCH  52  66
BRANCH  53  78
ATOM     78  C   UNL A   1      37.201  32.743  30.103  1.00  0.00     0.058 A 
ATOM     79  C   UNL A   1      37.130  33.704  29.084  1.00  0.00     0.135 A 
ATOM     80  C   UNL A   1      36.030  32.470  30.826  1.00  0.00     0.135 A 
ATOM     81  F   UNL A   1      38.225  34.005  28.370  1.00  0.00    -0.206 F 
ATOM     82  C   UNL A   1      35.948  34.377  28.797  1.00  0.00     0.059 A 
ATOM     83  C   UNL A   1      34.827  33.110  30.541  1.00  0.00     0.059 A 
ATOM     84  F   UNL A   1      36.040  31.547  31.801  1.00  0.00    -0.206 F 
ATOM     85  C   UNL A   1      34.799  34.069  29.528  1.00  0.00     0.060 A 
BRANCH  85  86
ATOM     86  S   UNL A   1      33.256  34.907  29.106  1.00  0.00     0.124 S 
ATOM     87  O   UNL A   1      33.744  36.192  28.617  1.00  0.00    -0.237 OA
ATOM     88  O   UNL A   1      32.689  34.014  28.101  1.00  0.00    -0.237 OA
ATOM     89  O   UNL A   1      32.538  34.947  30.376  1.00  0.00    -0.744 OA
ENDBRANCH  85  86
ENDBRANCH  53  78
BRANCH  65  90
ATOM     90  C   UNL A   1      43.039  34.458  33.522  1.00  0.00     0.058 A 
ATOM     91  C   UNL A   1      42.894  34.642  34.906  1.00  0.00     0.135 A 
ATOM     92  C   UNL A   1      43.663  35.482  32.789  1.00  0.00     0.135 A 
ATOM     93  F   UNL A   1      42.301  33.698  35.655  1.00  0.00    -0.206 F 
ATOM     94  C   UNL A   1      43.320  35.808  35.533  1.00  0.00     0.059 A 
ATOM     95  C   UNL A   1      44.127  36.642  33.400  1.00  0.00     0.059 A 
ATOM     96  F   UNL A   1      43.840  35.354  31.464  1.00  0.00    -0.206 F 
ATOM     97  C   UNL A   1      43.937  36.803  34.770  1.00  0.00     0.060 A 
BRANCH  97  98
ATOM     98  S   UNL A   1      44.507  38.301  35.599  1.00  0.00     0.124 S 
ATOM     99  O   UNL A   1      45.956  38.138  35.540  1.00  0.00    -0.237 OA
ATOM    100  O   UNL A   1      43.953  39.356  34.756  1.00  0.00    -0.237 OA
ATOM    101  O   UNL A   1      43.918  38.199  36.932  1.00  0.00    -0.744 OA
ENDBRANCH  97  98
ENDBRANCH  65  90
ENDBRANCH  39  40
ENDBRANCH  31  34
ENDBRANCH  29  30
ENDBRANCH  28  29
ENDBRANCH  27  28
ENDBRANCH   1  27
TORSDOF 21
ENDMDL
MODEL 2
REMARK VINA RESULT:     -10.4      2.881      4.428
REMARK SMILES CC[C@@H](C)[NH2+][C@H](Cc1c[nH]c2ccccc12)C(=O)NCCCCCCNC(=O)c1ccc(-c2c3nc(c(-c4c(F)cc(S(=O)(=O)[O-])cc4F)c4ccc([nH]4)c(-c4c(F)cc(S(=O)(=O)[O-])cc4F)c4nc(c(-c5c(F)cc(S(=O)(=O)[O-])cc5F)c5ccc2[nH]5)C=C4)C=C3)cc1
REMARK SMILES IDX 22 1 21 2 20 3 19 4 17 5 18 6 6 8 5 9 3 12 4 13 2 14 1 15
REMARK SMILES IDX 7 16 8 17 9 18 16 19 10 20 11 21 15 22 12 24 14 25 13 26
REMARK SMILES IDX 23 27 24 28 25 29 26 30 27 31 28 33 29 34 30 35 94 36 31 37
REMARK SMILES IDX 93 38 32 39 33 40 34 41 87 42 35 43 92 44 86 45 88 46 36 47
REMARK SMILES IDX 91 48 85 49 84 50 37 52 71 53 50 54 70 55 51 56 54 57 69 58
REMARK SMILES IDX 89 59 52 60 53 61 68 63 90 64 55 65 38 66 39 67 48 68 40 69
REMARK SMILES IDX 41 70 47 71 49 72 42 73 43 74 44 75 45 76 46 77 72 78 73 79
REMARK SMILES IDX 82 80 74 81 75 82 81 83 83 84 76 85 77 86 78 87 79 88 80 89
REMARK SMILES IDX 56 90 57 91 66 92 58 93 59 94 65 95 67 96 60 97 61 98 62 99
REMARK SMILES IDX 63 100 64 101
REMARK H PARENT 19 7 5 10 5 11 10 23 26 32 88 51 54 62
REMARK Flexibility Score: inf
ROOT
ATOM      1  C   UNL A   1      34.055  24.908  22.831  1.00  0.00     0.002 C 
ENDROOT
BRANCH   1   2
ATOM      2  C   UNL A   1      33.564  26.269  22.349  1.00  0.00     0.021 C 
BRANCH   2   3
ATOM      3  C   UNL A   1      32.074  26.390  22.096  1.00  0.00     0.116 C 
BRANCH   3   4
ATOM      4  N   UNL A   1      31.465  27.608  22.563  1.00  0.00    -0.351 N 
ATOM      5  C   UNL A   1      31.078  27.994  23.809  1.00  0.00     0.278 C 
ATOM      6  O   UNL A   1      30.765  29.188  23.931  1.00  0.00    -0.268 OA
ATOM      7  H   UNL A   1      31.300  28.277  21.859  1.00  0.00     0.163 HD
BRANCH   5   8
ATOM      8  C   UNL A   1      31.005  27.052  25.029  1.00  0.00     0.277 C 
BRANCH   8   9
ATOM      9  N   UNL A   1      32.385  26.881  25.623  1.00  0.00    -0.334 N 
ATOM     10  H   UNL A   1      32.524  25.885  25.799  1.00  0.00     0.347 HD
ATOM     11  H   UNL A   1      33.023  27.286  24.938  1.00  0.00     0.347 HD
BRANCH   9  12
ATOM     12  C   UNL A   1      32.661  27.596  26.876  1.00  0.00     0.179 C 
ATOM     13  C   UNL A   1      31.399  28.202  27.499  1.00  0.00     0.075 C 
BRANCH  12  14
ATOM     14  C   UNL A   1      33.747  28.672  26.680  1.00  0.00     0.061 C 
ATOM     15  C   UNL A   1      33.134  30.068  26.559  1.00  0.00     0.010 C 
ENDBRANCH  12  14
ENDBRANCH   9  12
ENDBRANCH   8   9
BRANCH   8  16
ATOM     16  C   UNL A   1      30.177  25.764  24.937  1.00  0.00     0.113 C 
BRANCH  16  17
ATOM     17  C   UNL A   1      30.683  24.382  25.300  1.00  0.00    -0.016 A 
ATOM     18  C   UNL A   1      30.787  24.037  26.642  1.00  0.00     0.087 A 
ATOM     19  C   UNL A   1      31.248  23.268  24.568  1.00  0.00     0.003 A 
ATOM     20  N   UNL A   1      31.396  22.825  26.757  1.00  0.00    -0.361 N 
ATOM     21  C   UNL A   1      31.712  22.341  25.514  1.00  0.00     0.046 A 
ATOM     22  C   UNL A   1      31.466  22.923  23.215  1.00  0.00     0.010 A 
ATOM     23  H   UNL A   1      31.582  22.364  27.606  1.00  0.00     0.166 HD
ATOM     24  C   UNL A   1      32.385  21.154  25.185  1.00  0.00     0.026 A 
ATOM     25  C   UNL A   1      32.151  21.749  22.863  1.00  0.00     0.001 A 
ATOM     26  C   UNL A   1      32.609  20.878  23.839  1.00  0.00     0.002 A 
ENDBRANCH  16  17
ENDBRANCH   8  16
ENDBRANCH   5   8
ENDBRANCH   3   4
ENDBRANCH   2   3
ENDBRANCH   1   2
BRANCH   1  27
ATOM     27  C   UNL A   1      34.511  24.820  24.289  1.00  0.00     0.002 C 
BRANCH  27  28
ATOM     28  C   UNL A   1      35.448  23.667  24.657  1.00  0.00     0.021 C 
BRANCH  28  29
ATOM     29  C   UNL A   1      36.355  23.910  25.852  1.00  0.00     0.116 C 
BRANCH  29  30
ATOM     30  N   UNL A   1      37.280  22.814  26.072  1.00  0.00    -0.352 N 
ATOM     31  C   UNL A   1      38.601  22.858  26.432  1.00  0.00     0.251 C 
ATOM     32  H   UNL A   1      36.906  21.913  25.944  1.00  0.00     0.163 HD
ATOM     33  O   UNL A   1      39.278  21.830  26.388  1.00  0.00    -0.269 OA
BRANCH  31  34
ATOM     34  C   UNL A   1      39.217  24.134  26.857  1.00  0.00     0.039 A 
ATOM     35  C   UNL A   1      39.152  24.499  28.203  1.00  0.00     0.014 A 
ATOM     36  C   UNL A   1      39.834  24.983  25.931  1.00  0.00     0.014 A 
ATOM     37  C   UNL A   1      39.734  25.696  28.627  1.00  0.00     0.010 A 
ATOM     38  C   UNL A   1      40.489  26.130  26.368  1.00  0.00     0.010 A 
ATOM     39  C   UNL A   1      40.422  26.515  27.716  1.00  0.00    -0.014 A 
BRANCH  39  40
ATOM     40  C   UNL A   1      41.034  27.800  28.144  1.00  0.00     0.031 A 
ATOM     41  C   UNL A   1      42.520  28.002  28.011  1.00  0.00     0.074 A 
ATOM     42  C   UNL A   1      40.265  28.762  28.690  1.00  0.00     0.049 A 
ATOM     43  N   UNL A   1      43.249  29.031  28.360  1.00  0.00    -0.248 NA
ATOM     44  C   UNL A   1      43.294  26.889  27.438  1.00  0.00     0.031 C 
ATOM     45  C   UNL A   1      38.820  28.671  28.908  1.00  0.00     0.029 A 
ATOM     46  N   UNL A   1      40.593  30.008  29.164  1.00  0.00    -0.354 N 
ATOM     47  C   UNL A   1      44.564  28.680  28.070  1.00  0.00     0.074 A 
ATOM     48  C   UNL A   1      44.538  27.322  27.574  1.00  0.00     0.031 C 
ATOM     49  C   UNL A   1      38.381  29.824  29.438  1.00  0.00     0.029 A 
ATOM     50  C   UNL A   1      39.515  30.721  29.634  1.00  0.00     0.049 A 
ATOM     51  H   UNL A   1      41.513  30.357  29.166  1.00  0.00     0.167 HD
ATOM     52  C   UNL A   1      45.688  29.427  28.185  1.00  0.00     0.037 A 
ATOM     53  C   UNL A   1      39.451  31.959  30.162  1.00  0.00     0.037 A 
ATOM     54  C   UNL A   1      45.700  30.789  28.652  1.00  0.00     0.049 A 
ATOM     55  C   UNL A   1      40.711  32.773  30.279  1.00  0.00     0.074 A 
ATOM     56  C   UNL A   1      46.774  31.657  28.747  1.00  0.00     0.029 A 
ATOM     57  N   UNL A   1      44.587  31.479  29.111  1.00  0.00    -0.354 N 
ATOM     58  N   UNL A   1      41.937  32.450  29.942  1.00  0.00    -0.248 NA
ATOM     59  C   UNL A   1      40.578  34.125  30.839  1.00  0.00     0.031 C 
ATOM     60  C   UNL A   1      46.320  32.853  29.314  1.00  0.00     0.029 A 
ATOM     61  C   UNL A   1      44.952  32.755  29.512  1.00  0.00     0.049 A 
ATOM     62  H   UNL A   1      43.673  31.117  29.146  1.00  0.00     0.167 HD
ATOM     63  C   UNL A   1      42.714  33.572  30.208  1.00  0.00     0.074 A 
ATOM     64  C   UNL A   1      41.817  34.582  30.734  1.00  0.00     0.031 C 
ATOM     65  C   UNL A   1      44.046  33.754  30.024  1.00  0.00     0.037 A 
BRANCH  52  66
ATOM     66  C   UNL A   1      46.996  28.781  27.810  1.00  0.00     0.058 A 
ATOM     67  C   UNL A   1      47.465  28.759  26.486  1.00  0.00     0.135 A 
ATOM     68  C   UNL A   1      47.796  28.176  28.793  1.00  0.00     0.135 A 
ATOM     69  F   UNL A   1      46.736  29.309  25.500  1.00  0.00    -0.206 F 
ATOM     70  C   UNL A   1      48.652  28.119  26.143  1.00  0.00     0.059 A 
ATOM     71  C   UNL A   1      49.005  27.561  28.479  1.00  0.00     0.059 A 
ATOM     72  F   UNL A   1      47.402  28.168  30.077  1.00  0.00    -0.206 F 
ATOM     73  C   UNL A   1      49.413  27.518  27.147  1.00  0.00     0.060 A 
BRANCH  73  74
ATOM     74  S   UNL A   1      50.938  26.671  26.684  1.00  0.00     0.124 S 
ATOM     75  O   UNL A   1      51.747  27.781  26.188  1.00  0.00    -0.237 OA
ATOM     76  O   UNL A   1      51.370  26.091  27.951  1.00  0.00    -0.237 OA
ATOM     77  O   UNL A   1      50.503  25.712  25.674  1.00  0.00    -0.744 OA
ENDBRANCH  73  74
ENDBRANCH  52  66
BRANCH  53  78
ATOM     78  C   UNL A   1      38.135  32.522  30.571  1.00  0.00     0.058 A 
ATOM     79  C   UNL A   1      37.689  32.413  31.896  1.00  0.00     0.135 A 
ATOM     80  C   UNL A   1      37.310  33.196  29.657  1.00  0.00     0.135 A 
ATOM     81  F   UNL A   1      38.438  31.771  32.804  1.00  0.00    -0.206 F 
ATOM     82  C   UNL A   1      36.469  32.943  32.301  1.00  0.00     0.059 A 
ATOM     83  C   UNL A   1      36.097  33.759  30.044  1.00  0.00     0.059 A 
ATOM     84  F   UNL A   1      37.697  33.341  28.380  1.00  0.00    -0.206 F 
ATOM     85  C   UNL A   1      35.681  33.620  31.368  1.00  0.00     0.060 A 
BRANCH  85  86
ATOM     86  S   UNL A   1      34.127  34.355  31.921  1.00  0.00     0.124 S 
ATOM     87  O   UNL A   1      34.597  35.553  32.608  1.00  0.00    -0.237 OA
ATOM     88  O   UNL A   1      33.428  34.574  30.659  1.00  0.00    -0.237 OA
ATOM     89  O   UNL A   1      33.552  33.321  32.776  1.00  0.00    -0.744 OA
ENDBRANCH  85  86
ENDBRANCH  53  78
BRANCH  65  90
ATOM     90  C   UNL A   1      44.611  35.113  30.337  1.00  0.00     0.058 A 
ATOM     91  C   UNL A   1      44.650  36.145  29.385  1.00  0.00     0.135 A 
ATOM     92  C   UNL A   1      45.080  35.400  31.630  1.00  0.00     0.135 A 
ATOM     93  F   UNL A   1      44.218  35.925  28.133  1.00  0.00    -0.206 F 
ATOM     94  C   UNL A   1      45.162  37.400  29.695  1.00  0.00     0.059 A 
ATOM     95  C   UNL A   1      45.566  36.658  31.971  1.00  0.00     0.059 A 
ATOM     96  F   UNL A   1      45.055  34.455  32.584  1.00  0.00    -0.206 F 
ATOM     97  C   UNL A   1      45.617  37.648  30.992  1.00  0.00     0.060 A 
BRANCH  97  98
ATOM     98  S   UNL A   1      46.258  39.288  31.387  1.00  0.00     0.124 S 
ATOM     99  O   UNL A   1      45.184  39.834  32.211  1.00  0.00    -0.237 OA
ATOM    100  O   UNL A   1      47.500  38.978  32.089  1.00  0.00    -0.237 OA
ATOM    101  O   UNL A   1      46.425  39.913  30.077  1.00  0.00    -0.744 OA
ENDBRANCH  97  98
ENDBRANCH  65  90
ENDBRANCH  39  40
ENDBRANCH  31  34
ENDBRANCH  29  30
ENDBRANCH  28  29
ENDBRANCH  27  28
ENDBRANCH   1  27
TORSDOF 21
ENDMDL
MODEL 3
REMARK VINA RESULT:     -10.3      1.157      2.181
REMARK SMILES CC[C@@H](C)[NH2+][C@H](Cc1c[nH]c2ccccc12)C(=O)NCCCCCCNC(=O)c1ccc(-c2c3nc(c(-c4c(F)cc(S(=O)(=O)[O-])cc4F)c4ccc([nH]4)c(-c4c(F)cc(S(=O)(=O)[O-])cc4F)c4nc(c(-c5c(F)cc(S(=O)(=O)[O-])cc5F)c5ccc2[nH]5)C=C4)C=C3)cc1
REMARK SMILES IDX 22 1 21 2 20 3 19 4 17 5 18 6 6 8 5 9 3 12 4 13 2 14 1 15
REMARK SMILES IDX 7 16 8 17 9 18 16 19 10 20 11 21 15 22 12 24 14 25 13 26
REMARK SMILES IDX 23 27 24 28 25 29 26 30 27 31 28 33 29 34 30 35 94 36 31 37
REMARK SMILES IDX 93 38 32 39 33 40 34 41 87 42 35 43 92 44 86 45 88 46 36 47
REMARK SMILES IDX 91 48 85 49 84 50 37 52 71 53 50 54 70 55 51 56 54 57 69 58
REMARK SMILES IDX 89 59 52 60 53 61 68 63 90 64 55 65 38 66 39 67 48 68 40 69
REMARK SMILES IDX 41 70 47 71 49 72 42 73 43 74 44 75 45 76 46 77 72 78 73 79
REMARK SMILES IDX 82 80 74 81 75 82 81 83 83 84 76 85 77 86 78 87 79 88 80 89
REMARK SMILES IDX 56 90 57 91 66 92 58 93 59 94 65 95 67 96 60 97 61 98 62 99
REMARK SMILES IDX 63 100 64 101
REMARK H PARENT 19 7 5 10 5 11 10 23 26 32 88 51 54 62
REMARK Flexibility Score: inf
ROOT
ATOM      1  C   UNL A   1      33.574  23.834  23.038  1.00  0.00     0.002 C 
ENDROOT
BRANCH   1   2
ATOM      2  C   UNL A   1      33.435  24.632  21.746  1.00  0.00     0.021 C 
BRANCH   2   3
ATOM      3  C   UNL A   1      32.425  25.762  21.764  1.00  0.00     0.116 C 
BRANCH   3   4
ATOM      4  N   UNL A   1      32.956  27.060  22.090  1.00  0.00    -0.351 N 
ATOM      5  C   UNL A   1      32.365  28.155  22.641  1.00  0.00     0.278 C 
ATOM      6  O   UNL A   1      33.133  29.066  22.987  1.00  0.00    -0.268 OA
ATOM      7  H   UNL A   1      33.910  27.175  21.878  1.00  0.00     0.163 HD
BRANCH   5   8
ATOM      8  C   UNL A   1      30.843  28.316  22.841  1.00  0.00     0.277 C 
BRANCH   8   9
ATOM      9  N   UNL A   1      30.523  29.760  23.159  1.00  0.00    -0.334 N 
ATOM     10  H   UNL A   1      30.812  29.936  24.121  1.00  0.00     0.347 HD
ATOM     11  H   UNL A   1      31.023  30.306  22.457  1.00  0.00     0.347 HD
BRANCH   9  12
ATOM     12  C   UNL A   1      29.118  30.170  23.035  1.00  0.00     0.179 C 
ATOM     13  C   UNL A   1      28.653  30.249  21.577  1.00  0.00     0.075 C 
BRANCH  12  14
ATOM     14  C   UNL A   1      28.854  31.499  23.769  1.00  0.00     0.061 C 
ATOM     15  C   UNL A   1      28.648  32.650  22.781  1.00  0.00     0.010 C 
ENDBRANCH  12  14
ENDBRANCH   9  12
ENDBRANCH   8   9
BRANCH   8  16
ATOM     16  C   UNL A   1      30.081  27.286  23.682  1.00  0.00     0.113 C 
BRANCH  16  17
ATOM     17  C   UNL A   1      30.650  26.556  24.882  1.00  0.00    -0.016 A 
ATOM     18  C   UNL A   1      31.222  27.296  25.910  1.00  0.00     0.087 A 
ATOM     19  C   UNL A   1      30.888  25.169  25.224  1.00  0.00     0.003 A 
ATOM     20  N   UNL A   1      31.803  26.456  26.810  1.00  0.00    -0.361 N 
ATOM     21  C   UNL A   1      31.640  25.156  26.409  1.00  0.00     0.046 A 
ATOM     22  C   UNL A   1      30.598  23.902  24.670  1.00  0.00     0.010 A 
ATOM     23  H   UNL A   1      32.271  26.741  27.627  1.00  0.00     0.166 HD
ATOM     24  C   UNL A   1      32.121  23.987  27.020  1.00  0.00     0.026 A 
ATOM     25  C   UNL A   1      31.082  22.721  25.256  1.00  0.00     0.001 A 
ATOM     26  C   UNL A   1      31.840  22.766  26.415  1.00  0.00     0.002 A 
ENDBRANCH  16  17
ENDBRANCH   8  16
ENDBRANCH   5   8
ENDBRANCH   3   4
ENDBRANCH   2   3
ENDBRANCH   1   2
BRANCH   1  27
ATOM     27  C   UNL A   1      34.425  24.463  24.144  1.00  0.00     0.002 C 
BRANCH  27  28
ATOM     28  C   UNL A   1      35.323  23.522  24.951  1.00  0.00     0.021 C 
BRANCH  28  29
ATOM     29  C   UNL A   1      36.696  24.066  25.309  1.00  0.00     0.116 C 
BRANCH  29  30
ATOM     30  N   UNL A   1      37.685  23.015  25.453  1.00  0.00    -0.352 N 
ATOM     31  C   UNL A   1      38.918  23.064  26.046  1.00  0.00     0.251 C 
ATOM     32  H   UNL A   1      37.434  22.144  25.071  1.00  0.00     0.163 HD
ATOM     33  O   UNL A   1      39.699  22.122  25.906  1.00  0.00    -0.269 OA
BRANCH  31  34
ATOM     34  C   UNL A   1      39.320  24.249  26.836  1.00  0.00     0.039 A 
ATOM     35  C   UNL A   1      40.122  25.220  26.234  1.00  0.00     0.014 A 
ATOM     36  C   UNL A   1      38.930  24.393  28.172  1.00  0.00     0.014 A 
ATOM     37  C   UNL A   1      40.506  26.350  26.960  1.00  0.00     0.010 A 
ATOM     38  C   UNL A   1      39.239  25.560  28.864  1.00  0.00     0.010 A 
ATOM     39  C   UNL A   1      40.054  26.539  28.276  1.00  0.00    -0.014 A 
BRANCH  39  40
ATOM     40  C   UNL A   1      40.464  27.726  29.070  1.00  0.00     0.031 A 
ATOM     41  C   UNL A   1      41.810  27.746  29.746  1.00  0.00     0.074 A 
ATOM     42  C   UNL A   1      39.616  28.762  29.218  1.00  0.00     0.049 A 
ATOM     43  N   UNL A   1      42.338  28.668  30.510  1.00  0.00    -0.248 NA
ATOM     44  C   UNL A   1      42.663  26.561  29.564  1.00  0.00     0.031 C 
ATOM     45  C   UNL A   1      38.271  28.845  28.645  1.00  0.00     0.029 A 
ATOM     46  N   UNL A   1      39.758  29.945  29.900  1.00  0.00    -0.354 N 
ATOM     47  C   UNL A   1      43.569  28.164  30.916  1.00  0.00     0.074 A 
ATOM     48  C   UNL A   1      43.683  26.833  30.363  1.00  0.00     0.031 C 
ATOM     49  C   UNL A   1      37.727  30.029  28.968  1.00  0.00     0.029 A 
ATOM     50  C   UNL A   1      38.666  30.774  29.802  1.00  0.00     0.049 A 
ATOM     51  H   UNL A   1      40.568  30.178  30.409  1.00  0.00     0.167 HD
ATOM     52  C   UNL A   1      44.529  28.763  31.662  1.00  0.00     0.037 A 
ATOM     53  C   UNL A   1      38.448  31.996  30.324  1.00  0.00     0.037 A 
ATOM     54  C   UNL A   1      44.419  30.100  32.185  1.00  0.00     0.049 A 
ATOM     55  C   UNL A   1      39.526  32.645  31.149  1.00  0.00     0.074 A 
ATOM     56  C   UNL A   1      45.357  30.826  32.898  1.00  0.00     0.029 A 
ATOM     57  N   UNL A   1      43.300  30.911  32.057  1.00  0.00    -0.354 N 
ATOM     58  N   UNL A   1      40.711  32.181  31.471  1.00  0.00    -0.248 NA
ATOM     59  C   UNL A   1      39.244  33.988  31.674  1.00  0.00     0.031 C 
ATOM     60  C   UNL A   1      44.784  32.054  33.248  1.00  0.00     0.029 A 
ATOM     61  C   UNL A   1      43.514  32.121  32.698  1.00  0.00     0.049 A 
ATOM     62  H   UNL A   1      42.474  30.664  31.580  1.00  0.00     0.167 HD
ATOM     63  C   UNL A   1      41.331  33.191  32.198  1.00  0.00     0.074 A 
ATOM     64  C   UNL A   1      40.390  34.290  32.268  1.00  0.00     0.031 C 
ATOM     65  C   UNL A   1      42.571  33.211  32.749  1.00  0.00     0.037 A 
BRANCH  52  66
ATOM     66  C   UNL A   1      45.772  27.969  31.967  1.00  0.00     0.058 A 
ATOM     67  C   UNL A   1      46.889  27.976  31.114  1.00  0.00     0.135 A 
ATOM     68  C   UNL A   1      45.849  27.190  33.133  1.00  0.00     0.135 A 
ATOM     69  F   UNL A   1      46.868  28.691  29.978  1.00  0.00    -0.206 F 
ATOM     70  C   UNL A   1      48.015  27.204  31.381  1.00  0.00     0.059 A 
ATOM     71  C   UNL A   1      46.979  26.438  33.439  1.00  0.00     0.059 A 
ATOM     72  F   UNL A   1      44.815  27.146  33.988  1.00  0.00    -0.206 F 
ATOM     73  C   UNL A   1      48.048  26.433  32.544  1.00  0.00     0.060 A 
BRANCH  73  74
ATOM     74  S   UNL A   1      49.506  25.417  32.866  1.00  0.00     0.124 S 
ATOM     75  O   UNL A   1      49.931  25.083  31.509  1.00  0.00    -0.237 OA
ATOM     76  O   UNL A   1      50.374  26.338  33.592  1.00  0.00    -0.237 OA
ATOM     77  O   UNL A   1      48.980  24.305  33.649  1.00  0.00    -0.744 OA
ENDBRANCH  73  74
ENDBRANCH  52  66
BRANCH  53  78
ATOM     78  C   UNL A   1      37.172  32.707  30.038  1.00  0.00     0.058 A 
ATOM     79  C   UNL A   1      36.027  32.466  30.811  1.00  0.00     0.135 A 
ATOM     80  C   UNL A   1      37.076  33.655  29.007  1.00  0.00     0.135 A 
ATOM     81  F   UNL A   1      36.066  31.564  31.803  1.00  0.00    -0.206 F 
ATOM     82  C   UNL A   1      34.829  33.128  30.568  1.00  0.00     0.059 A 
ATOM     83  C   UNL A   1      35.896  34.351  28.760  1.00  0.00     0.059 A 
ATOM     84  F   UNL A   1      38.147  33.934  28.247  1.00  0.00    -0.206 F 
ATOM     85  C   UNL A   1      34.774  34.075  29.542  1.00  0.00     0.060 A 
BRANCH  85  86
ATOM     86  S   UNL A   1      33.230  34.971  29.275  1.00  0.00     0.124 S 
ATOM     87  O   UNL A   1      32.662  34.985  30.619  1.00  0.00    -0.237 OA
ATOM     88  O   UNL A   1      33.706  36.254  28.769  1.00  0.00    -0.237 OA
ATOM     89  O   UNL A   1      32.526  34.143  28.301  1.00  0.00    -0.744 OA
ENDBRANCH  85  86
ENDBRANCH  53  78
BRANCH  65  90
ATOM     90  C   UNL A   1      43.010  34.481  33.427  1.00  0.00     0.058 A 
ATOM     91  C   UNL A   1      42.896  34.668  34.813  1.00  0.00     0.135 A 
ATOM     92  C   UNL A   1      43.598  35.513  32.675  1.00  0.00     0.135 A 
ATOM     93  F   UNL A   1      42.339  33.716  35.580  1.00  0.00    -0.206 F 
ATOM     94  C   UNL A   1      43.320  35.842  35.426  1.00  0.00     0.059 A 
ATOM     95  C   UNL A   1      44.058  36.683  33.271  1.00  0.00     0.059 A 
ATOM     96  F   UNL A   1      43.743  35.383  31.346  1.00  0.00    -0.206 F 
ATOM     97  C   UNL A   1      43.901  36.845  34.645  1.00  0.00     0.060 A 
BRANCH  97  98
ATOM     98  S   UNL A   1      44.467  38.355  35.455  1.00  0.00     0.124 S 
ATOM     99  O   UNL A   1      43.910  38.197  36.795  1.00  0.00    -0.237 OA
ATOM    100  O   UNL A   1      45.918  38.239  35.354  1.00  0.00    -0.237 OA
ATOM    101  O   UNL A   1      43.872  39.418  34.649  1.00  0.00    -0.744 OA
ENDBRANCH  97  98
ENDBRANCH  65  90
ENDBRANCH  39  40
ENDBRANCH  31  34
ENDBRANCH  29  30
ENDBRANCH  28  29
ENDBRANCH  27  28
ENDBRANCH   1  27
TORSDOF 21
ENDMDL
