MODEL 1
REMARK VINA RESULT:     -11.2      0.000      0.000
REMARK SMILES O=C(NCCCCCCNC(=O)[C@H]1C[C@H]2CCCC[C@@H]2[N@@H+]1CC[C@@H]1CCCO1)c1ccc(-c2c3nc(c(-c4c(F)cc(S(=O)(=O)[O-])cc4F)c4ccc([nH]4)c(-c4c(F)cc(S(=O)(=O)[O-])cc4F)c4nc(c(-c5c(F)cc(S(=O)(=O)[O-])cc5F)c5ccc2[nH]5)C=C4)C=C3)cc1
REMARK SMILES IDX 6 1 5 2 4 3 3 4 1 5 2 6 29 8 30 9 94 10 31 11 93 12 32 13
REMARK SMILES IDX 33 14 34 15 87 16 35 17 92 18 86 19 88 20 36 21 91 22 85 23
REMARK SMILES IDX 84 24 37 26 71 27 50 28 70 29 51 30 54 31 69 32 89 33 52 34
REMARK SMILES IDX 53 35 68 37 90 38 55 39 38 40 39 41 48 42 40 43 41 44 47 45
REMARK SMILES IDX 49 46 42 47 43 48 44 49 45 50 46 51 72 52 73 53 82 54 74 55
REMARK SMILES IDX 75 56 81 57 83 58 76 59 77 60 78 61 79 62 80 63 56 64 57 65
REMARK SMILES IDX 66 66 58 67 59 68 65 69 67 70 60 71 61 72 62 73 63 74 64 75
REMARK SMILES IDX 7 76 8 77 9 78 10 79 11 80 12 82 13 83 14 84 21 85 15 86
REMARK SMILES IDX 20 87 16 89 19 90 17 91 18 92 22 93 23 94 24 95 25 96 28 97
REMARK SMILES IDX 26 98 27 99
REMARK H PARENT 3 7 88 25 54 36 10 81 21 88
REMARK Flexibility Score: inf
ROOT
ATOM      1  C   UNL A   1      32.097  27.757  26.231  1.00  0.00     0.002 C 
ENDROOT
BRANCH   1   2
ATOM      2  C   UNL A   1      33.600  27.640  26.485  1.00  0.00     0.021 C 
BRANCH   2   3
ATOM      3  C   UNL A   1      34.395  28.890  26.137  1.00  0.00     0.116 C 
BRANCH   3   4
ATOM      4  N   UNL A   1      33.999  30.029  26.947  1.00  0.00    -0.352 N 
ATOM      5  O   UNL A   1      34.116  31.438  28.704  1.00  0.00    -0.269 OA
ATOM      6  C   UNL A   1      34.672  30.613  27.996  1.00  0.00     0.251 C 
ATOM      7  H   UNL A   1      33.135  30.439  26.715  1.00  0.00     0.163 HD
BRANCH   6   8
ATOM      8  C   UNL A   1      36.074  30.215  28.263  1.00  0.00     0.039 A 
ATOM      9  C   UNL A   1      37.050  30.371  27.275  1.00  0.00     0.014 A 
ATOM     10  C   UNL A   1      36.412  29.687  29.511  1.00  0.00     0.014 A 
ATOM     11  C   UNL A   1      38.333  29.886  27.491  1.00  0.00     0.010 A 
ATOM     12  C   UNL A   1      37.727  29.282  29.758  1.00  0.00     0.010 A 
ATOM     13  C   UNL A   1      38.693  29.362  28.744  1.00  0.00    -0.014 A 
BRANCH  13  14
ATOM     14  C   UNL A   1      40.114  29.005  28.990  1.00  0.00     0.031 A 
ATOM     15  C   UNL A   1      40.660  27.655  28.622  1.00  0.00     0.074 A 
ATOM     16  C   UNL A   1      40.917  29.943  29.531  1.00  0.00     0.049 A 
ATOM     17  N   UNL A   1      41.880  27.202  28.753  1.00  0.00    -0.248 NA
ATOM     18  C   UNL A   1      39.720  26.685  28.039  1.00  0.00     0.031 C 
ATOM     19  C   UNL A   1      40.484  31.283  29.945  1.00  0.00     0.029 A 
ATOM     20  N   UNL A   1      42.259  29.931  29.808  1.00  0.00    -0.354 N 
ATOM     21  C   UNL A   1      41.857  25.893  28.283  1.00  0.00     0.074 A 
ATOM     22  C   UNL A   1      40.493  25.616  27.885  1.00  0.00     0.031 C 
ATOM     23  C   UNL A   1      41.547  31.976  30.377  1.00  0.00     0.029 A 
ATOM     24  C   UNL A   1      42.721  31.114  30.334  1.00  0.00     0.049 A 
ATOM     25  H   UNL A   1      42.836  29.150  29.647  1.00  0.00     0.167 HD
ATOM     26  C   UNL A   1      42.883  25.013  28.188  1.00  0.00     0.037 A 
ATOM     27  C   UNL A   1      43.950  31.464  30.754  1.00  0.00     0.037 A 
ATOM     28  C   UNL A   1      44.239  25.308  28.579  1.00  0.00     0.049 A 
ATOM     29  C   UNL A   1      45.061  30.462  30.652  1.00  0.00     0.074 A 
ATOM     30  C   UNL A   1      45.356  24.494  28.495  1.00  0.00     0.029 A 
ATOM     31  N   UNL A   1      44.665  26.508  29.131  1.00  0.00    -0.354 N 
ATOM     32  N   UNL A   1      45.025  29.239  30.177  1.00  0.00    -0.248 NA
ATOM     33  C   UNL A   1      46.379  30.881  31.145  1.00  0.00     0.031 C 
ATOM     34  C   UNL A   1      46.446  25.185  29.035  1.00  0.00     0.029 A 
ATOM     35  C   UNL A   1      46.021  26.449  29.411  1.00  0.00     0.049 A 
ATOM     36  H   UNL A   1      44.087  27.288  29.299  1.00  0.00     0.167 HD
ATOM     37  C   UNL A   1      46.317  28.746  30.305  1.00  0.00     0.074 A 
ATOM     38  C   UNL A   1      47.115  29.811  30.877  1.00  0.00     0.031 C 
ATOM     39  C   UNL A   1      46.798  27.520  29.985  1.00  0.00     0.037 A 
BRANCH  26  40
ATOM     40  C   UNL A   1      42.587  23.639  27.648  1.00  0.00     0.058 A 
ATOM     41  C   UNL A   1      42.562  23.378  26.270  1.00  0.00     0.135 A 
ATOM     42  C   UNL A   1      42.394  22.556  28.522  1.00  0.00     0.135 A 
ATOM     43  F   UNL A   1      42.727  24.377  25.389  1.00  0.00    -0.206 F 
ATOM     44  C   UNL A   1      42.343  22.095  25.776  1.00  0.00     0.059 A 
ATOM     45  C   UNL A   1      42.195  21.261  28.051  1.00  0.00     0.059 A 
ATOM     46  F   UNL A   1      42.407  22.749  29.851  1.00  0.00    -0.206 F 
ATOM     47  C   UNL A   1      42.163  21.042  26.675  1.00  0.00     0.060 A 
BRANCH  47  48
ATOM     48  S   UNL A   1      41.901  19.380  26.017  1.00  0.00     0.124 S 
ATOM     49  O   UNL A   1      42.282  18.552  27.158  1.00  0.00    -0.237 OA
ATOM     50  O   UNL A   1      40.478  19.393  25.691  1.00  0.00    -0.237 OA
ATOM     51  O   UNL A   1      42.803  19.322  24.871  1.00  0.00    -0.744 OA
ENDBRANCH  47  48
ENDBRANCH  26  40
BRANCH  27  52
ATOM     52  C   UNL A   1      44.180  32.817  31.325  1.00  0.00     0.058 A 
ATOM     53  C   UNL A   1      44.023  33.064  32.696  1.00  0.00     0.135 A 
ATOM     54  C   UNL A   1      44.580  33.887  30.508  1.00  0.00     0.135 A 
ATOM     55  F   UNL A   1      43.641  32.072  33.516  1.00  0.00    -0.206 F 
ATOM     56  C   UNL A   1      44.235  34.327  33.237  1.00  0.00     0.059 A 
ATOM     57  C   UNL A   1      44.826  35.152  31.031  1.00  0.00     0.059 A 
ATOM     58  F   UNL A   1      44.765  33.698  29.193  1.00  0.00    -0.206 F 
ATOM     59  C   UNL A   1      44.636  35.366  32.394  1.00  0.00     0.060 A 
BRANCH  59  60
ATOM     60  S   UNL A   1      44.944  36.995  33.109  1.00  0.00     0.124 S 
ATOM     61  O   UNL A   1      44.051  36.981  34.262  1.00  0.00    -0.237 OA
ATOM     62  O   UNL A   1      46.372  36.938  33.404  1.00  0.00    -0.237 OA
ATOM     63  O   UNL A   1      44.570  37.908  32.031  1.00  0.00    -0.744 OA
ENDBRANCH  59  60
ENDBRANCH  27  52
BRANCH  39  64
ATOM     64  C   UNL A   1      48.261  27.278  30.231  1.00  0.00     0.058 A 
ATOM     65  C   UNL A   1      49.227  27.561  29.253  1.00  0.00     0.135 A 
ATOM     66  C   UNL A   1      48.701  26.776  31.466  1.00  0.00     0.135 A 
ATOM     67  F   UNL A   1      48.855  28.033  28.052  1.00  0.00    -0.206 F 
ATOM     68  C   UNL A   1      50.578  27.324  29.478  1.00  0.00     0.059 A 
ATOM     69  C   UNL A   1      50.051  26.558  31.723  1.00  0.00     0.059 A 
ATOM     70  F   UNL A   1      47.819  26.498  32.438  1.00  0.00    -0.206 F 
ATOM     71  C   UNL A   1      50.980  26.819  30.717  1.00  0.00     0.060 A 
BRANCH  71  72
ATOM     72  S   UNL A   1      52.739  26.530  31.004  1.00  0.00     0.124 S 
ATOM     73  O   UNL A   1      53.121  27.739  31.724  1.00  0.00    -0.237 OA
ATOM     74  O   UNL A   1      52.730  25.299  31.790  1.00  0.00    -0.237 OA
ATOM     75  O   UNL A   1      53.284  26.401  29.657  1.00  0.00    -0.744 OA
ENDBRANCH  71  72
ENDBRANCH  39  64
ENDBRANCH  13  14
ENDBRANCH   6   8
ENDBRANCH   3   4
ENDBRANCH   2   3
ENDBRANCH   1   2
BRANCH   1  76
ATOM     76  C   UNL A   1      31.257  26.581  26.744  1.00  0.00     0.002 C 
BRANCH  76  77
ATOM     77  C   UNL A   1      30.249  26.003  25.739  1.00  0.00     0.021 C 
BRANCH  77  78
ATOM     78  C   UNL A   1      30.005  24.502  25.894  1.00  0.00     0.116 C 
BRANCH  78  79
ATOM     79  N   UNL A   1      30.874  23.938  26.901  1.00  0.00    -0.351 N 
ATOM     80  C   UNL A   1      32.048  23.268  26.823  1.00  0.00     0.278 C 
ATOM     81  H   UNL A   1      30.549  24.064  27.822  1.00  0.00     0.163 HD
ATOM     82  O   UNL A   1      32.460  22.807  27.899  1.00  0.00    -0.268 OA
BRANCH  80  83
ATOM     83  C   UNL A   1      32.936  23.174  25.561  1.00  0.00     0.274 C 
ATOM     84  C   UNL A   1      34.155  24.116  25.761  1.00  0.00     0.085 C 
ATOM     85  N   UNL A   1      33.507  21.829  25.254  1.00  0.00    -0.322 N 
ATOM     86  C   UNL A   1      35.317  23.310  25.222  1.00  0.00     0.054 C 
ATOM     87  C   UNL A   1      34.926  21.892  25.614  1.00  0.00     0.188 C 
ATOM     88  H   UNL A   1      33.072  21.101  25.821  1.00  0.00     0.349 HD
ATOM     89  C   UNL A   1      36.726  23.652  25.663  1.00  0.00     0.010 C 
ATOM     90  C   UNL A   1      35.902  20.808  25.151  1.00  0.00     0.065 C 
ATOM     91  C   UNL A   1      37.690  22.640  25.029  1.00  0.00     0.001 C 
ATOM     92  C   UNL A   1      37.356  21.201  25.437  1.00  0.00     0.006 C 
BRANCH  85  93
ATOM     93  C   UNL A   1      33.138  21.267  23.934  1.00  0.00     0.265 C 
BRANCH  93  94
ATOM     94  C   UNL A   1      32.307  19.971  23.770  1.00  0.00     0.093 C 
BRANCH  94  95
ATOM     95  C   UNL A   1      32.946  18.693  24.296  1.00  0.00     0.123 C 
ATOM     96  C   UNL A   1      33.258  17.679  23.211  1.00  0.00     0.034 C 
ATOM     97  O   UNL A   1      32.106  17.953  25.191  1.00  0.00    -0.378 OA
ATOM     98  C   UNL A   1      33.550  16.447  24.035  1.00  0.00     0.031 C 
ATOM     99  C   UNL A   1      32.719  16.651  25.297  1.00  0.00     0.160 C 
ENDBRANCH  94  95
ENDBRANCH  93  94
ENDBRANCH  85  93
ENDBRANCH  80  83
ENDBRANCH  78  79
ENDBRANCH  77  78
ENDBRANCH  76  77
ENDBRANCH   1  76
TORSDOF 19
ENDMDL
MODEL 2
REMARK VINA RESULT:     -11.1      5.090     10.210
REMARK SMILES O=C(NCCCCCCNC(=O)[C@H]1C[C@H]2CCCC[C@@H]2[N@@H+]1CC[C@@H]1CCCO1)c1ccc(-c2c3nc(c(-c4c(F)cc(S(=O)(=O)[O-])cc4F)c4ccc([nH]4)c(-c4c(F)cc(S(=O)(=O)[O-])cc4F)c4nc(c(-c5c(F)cc(S(=O)(=O)[O-])cc5F)c5ccc2[nH]5)C=C4)C=C3)cc1
REMARK SMILES IDX 6 1 5 2 4 3 3 4 1 5 2 6 29 8 30 9 94 10 31 11 93 12 32 13
REMARK SMILES IDX 33 14 34 15 87 16 35 17 92 18 86 19 88 20 36 21 91 22 85 23
REMARK SMILES IDX 84 24 37 26 71 27 50 28 70 29 51 30 54 31 69 32 89 33 52 34
REMARK SMILES IDX 53 35 68 37 90 38 55 39 38 40 39 41 48 42 40 43 41 44 47 45
REMARK SMILES IDX 49 46 42 47 43 48 44 49 45 50 46 51 72 52 73 53 82 54 74 55
REMARK SMILES IDX 75 56 81 57 83 58 76 59 77 60 78 61 79 62 80 63 56 64 57 65
REMARK SMILES IDX 66 66 58 67 59 68 65 69 67 70 60 71 61 72 62 73 63 74 64 75
REMARK SMILES IDX 7 76 8 77 9 78 10 79 11 80 12 82 13 83 14 84 21 85 15 86
REMARK SMILES IDX 20 87 16 89 19 90 17 91 18 92 22 93 23 94 24 95 25 96 28 97
REMARK SMILES IDX 26 98 27 99
REMARK H PARENT 3 7 88 25 54 36 10 81 21 88
REMARK Flexibility Score: inf
ROOT
ATOM      1  C   UNL A   1      38.255  23.663  26.089  1.00  0.00     0.002 C 
ENDROOT
BRANCH   1   2
ATOM      2  C   UNL A   1      39.264  22.677  26.679  1.00  0.00     0.021 C 
BRANCH   2   3
ATOM      3  C   UNL A   1      40.549  23.318  27.179  1.00  0.00     0.116 C 
BRANCH   3   4
ATOM      4  N   UNL A   1      41.251  24.027  26.123  1.00  0.00    -0.352 N 
ATOM      5  O   UNL A   1      41.979  25.843  25.001  1.00  0.00    -0.269 OA
ATOM      6  C   UNL A   1      41.564  25.365  26.045  1.00  0.00     0.251 C 
ATOM      7  H   UNL A   1      41.542  23.477  25.360  1.00  0.00     0.163 HD
BRANCH   6   8
ATOM      8  C   UNL A   1      41.375  26.219  27.241  1.00  0.00     0.039 A 
ATOM      9  C   UNL A   1      42.299  27.222  27.542  1.00  0.00     0.014 A 
ATOM     10  C   UNL A   1      40.262  26.015  28.061  1.00  0.00     0.014 A 
ATOM     11  C   UNL A   1      42.178  27.937  28.726  1.00  0.00     0.010 A 
ATOM     12  C   UNL A   1      40.095  26.797  29.206  1.00  0.00     0.010 A 
ATOM     13  C   UNL A   1      41.060  27.753  29.557  1.00  0.00    -0.014 A 
BRANCH  13  14
ATOM     14  C   UNL A   1      40.883  28.648  30.729  1.00  0.00     0.031 A 
ATOM     15  C   UNL A   1      41.765  28.543  31.940  1.00  0.00     0.074 A 
ATOM     16  C   UNL A   1      39.918  29.588  30.666  1.00  0.00     0.049 A 
ATOM     17  N   UNL A   1      41.749  29.265  33.030  1.00  0.00    -0.248 NA
ATOM     18  C   UNL A   1      42.793  27.490  31.934  1.00  0.00     0.031 C 
ATOM     19  C   UNL A   1      38.990  29.765  29.543  1.00  0.00     0.029 A 
ATOM     20  N   UNL A   1      39.566  30.579  31.543  1.00  0.00    -0.354 N 
ATOM     21  C   UNL A   1      42.750  28.752  33.847  1.00  0.00     0.074 A 
ATOM     22  C   UNL A   1      43.340  27.638  33.135  1.00  0.00     0.031 C 
ATOM     23  C   UNL A   1      38.210  30.829  29.779  1.00  0.00     0.029 A 
ATOM     24  C   UNL A   1      38.534  31.368  31.093  1.00  0.00     0.049 A 
ATOM     25  H   UNL A   1      40.008  30.713  32.412  1.00  0.00     0.167 HD
ATOM     26  C   UNL A   1      43.141  29.179  35.072  1.00  0.00     0.037 A 
ATOM     27  C   UNL A   1      37.902  32.401  31.679  1.00  0.00     0.037 A 
ATOM     28  C   UNL A   1      42.549  30.298  35.764  1.00  0.00     0.049 A 
ATOM     29  C   UNL A   1      38.346  32.840  33.044  1.00  0.00     0.074 A 
ATOM     30  C   UNL A   1      42.894  30.828  36.997  1.00  0.00     0.029 A 
ATOM     31  N   UNL A   1      41.490  31.058  35.289  1.00  0.00    -0.354 N 
ATOM     32  N   UNL A   1      39.315  32.360  33.786  1.00  0.00    -0.248 NA
ATOM     33  C   UNL A   1      37.612  33.956  33.652  1.00  0.00     0.031 C 
ATOM     34  C   UNL A   1      42.016  31.879  37.284  1.00  0.00     0.029 A 
ATOM     35  C   UNL A   1      41.155  32.037  36.211  1.00  0.00     0.049 A 
ATOM     36  H   UNL A   1      41.042  30.921  34.423  1.00  0.00     0.167 HD
ATOM     37  C   UNL A   1      39.313  33.122  34.948  1.00  0.00     0.074 A 
ATOM     38  C   UNL A   1      38.265  34.110  34.796  1.00  0.00     0.031 C 
ATOM     39  C   UNL A   1      40.103  33.010  36.044  1.00  0.00     0.037 A 
BRANCH  26  40
ATOM     40  C   UNL A   1      44.256  28.436  35.757  1.00  0.00     0.058 A 
ATOM     41  C   UNL A   1      45.602  28.787  35.570  1.00  0.00     0.135 A 
ATOM     42  C   UNL A   1      43.972  27.401  36.665  1.00  0.00     0.135 A 
ATOM     43  F   UNL A   1      45.933  29.758  34.704  1.00  0.00    -0.206 F 
ATOM     44  C   UNL A   1      46.626  28.133  36.248  1.00  0.00     0.059 A 
ATOM     45  C   UNL A   1      44.979  26.748  37.371  1.00  0.00     0.059 A 
ATOM     46  F   UNL A   1      42.702  27.023  36.882  1.00  0.00    -0.206 F 
ATOM     47  C   UNL A   1      46.304  27.116  37.148  1.00  0.00     0.060 A 
BRANCH  47  48
ATOM     48  S   UNL A   1      47.646  26.292  38.035  1.00  0.00     0.124 S 
ATOM     49  O   UNL A   1      48.597  26.043  36.956  1.00  0.00    -0.237 OA
ATOM     50  O   UNL A   1      48.044  27.303  39.009  1.00  0.00    -0.237 OA
ATOM     51  O   UNL A   1      47.006  25.105  38.594  1.00  0.00    -0.744 OA
ENDBRANCH  47  48
ENDBRANCH  26  40
BRANCH  27  52
ATOM     52  C   UNL A   1      36.774  33.072  30.982  1.00  0.00     0.058 A 
ATOM     53  C   UNL A   1      35.443  32.823  31.346  1.00  0.00     0.135 A 
ATOM     54  C   UNL A   1      37.008  33.992  29.947  1.00  0.00     0.135 A 
ATOM     55  F   UNL A   1      35.169  31.950  32.329  1.00  0.00    -0.206 F 
ATOM     56  C   UNL A   1      34.382  33.445  30.696  1.00  0.00     0.059 A 
ATOM     57  C   UNL A   1      35.965  34.649  29.303  1.00  0.00     0.059 A 
ATOM     58  F   UNL A   1      38.265  34.281  29.575  1.00  0.00    -0.206 F 
ATOM     59  C   UNL A   1      34.655  34.356  29.675  1.00  0.00     0.060 A 
BRANCH  59  60
ATOM     60  S   UNL A   1      33.274  35.187  28.860  1.00  0.00     0.124 S 
ATOM     61  O   UNL A   1      33.967  36.204  28.078  1.00  0.00    -0.237 OA
ATOM     62  O   UNL A   1      32.665  34.100  28.100  1.00  0.00    -0.237 OA
ATOM     63  O   UNL A   1      32.477  35.684  29.978  1.00  0.00    -0.744 OA
ENDBRANCH  59  60
ENDBRANCH  27  52
BRANCH  39  64
ATOM     64  C   UNL A   1      39.871  33.997  37.153  1.00  0.00     0.058 A 
ATOM     65  C   UNL A   1      40.499  35.252  37.164  1.00  0.00     0.135 A 
ATOM     66  C   UNL A   1      38.995  33.689  38.206  1.00  0.00     0.135 A 
ATOM     67  F   UNL A   1      41.353  35.588  36.183  1.00  0.00    -0.206 F 
ATOM     68  C   UNL A   1      40.292  36.157  38.198  1.00  0.00     0.059 A 
ATOM     69  C   UNL A   1      38.752  34.591  39.237  1.00  0.00     0.059 A 
ATOM     70  F   UNL A   1      38.363  32.506  38.239  1.00  0.00    -0.206 F 
ATOM     71  C   UNL A   1      39.418  35.816  39.233  1.00  0.00     0.060 A 
BRANCH  71  72
ATOM     72  S   UNL A   1      39.146  37.006  40.563  1.00  0.00     0.124 S 
ATOM     73  O   UNL A   1      38.247  37.960  39.923  1.00  0.00    -0.237 OA
ATOM     74  O   UNL A   1      38.552  36.177  41.608  1.00  0.00    -0.237 OA
ATOM     75  O   UNL A   1      40.487  37.502  40.853  1.00  0.00    -0.744 OA
ENDBRANCH  71  72
ENDBRANCH  39  64
ENDBRANCH  13  14
ENDBRANCH   6   8
ENDBRANCH   3   4
ENDBRANCH   2   3
ENDBRANCH   1   2
BRANCH   1  76
ATOM     76  C   UNL A   1      36.816  23.140  25.991  1.00  0.00     0.002 C 
BRANCH  76  77
ATOM     77  C   UNL A   1      36.013  23.646  24.784  1.00  0.00     0.021 C 
BRANCH  77  78
ATOM     78  C   UNL A   1      34.941  22.673  24.296  1.00  0.00     0.116 C 
BRANCH  78  79
ATOM     79  N   UNL A   1      34.466  23.042  22.982  1.00  0.00    -0.351 N 
ATOM     80  C   UNL A   1      33.660  24.041  22.549  1.00  0.00     0.278 C 
ATOM     81  H   UNL A   1      34.790  22.453  22.263  1.00  0.00     0.163 HD
ATOM     82  O   UNL A   1      33.352  23.982  21.349  1.00  0.00    -0.268 OA
BRANCH  80  83
ATOM     83  C   UNL A   1      33.242  25.272  23.387  1.00  0.00     0.274 C 
ATOM     84  C   UNL A   1      32.792  26.389  22.406  1.00  0.00     0.085 C 
ATOM     85  N   UNL A   1      32.100  25.072  24.328  1.00  0.00    -0.322 N 
ATOM     86  C   UNL A   1      31.564  26.970  23.072  1.00  0.00     0.054 C 
ATOM     87  C   UNL A   1      30.946  25.741  23.723  1.00  0.00     0.188 C 
ATOM     88  H   UNL A   1      31.870  24.083  24.432  1.00  0.00     0.349 HD
ATOM     89  C   UNL A   1      30.558  27.736  22.236  1.00  0.00     0.010 C 
ATOM     90  C   UNL A   1      29.682  26.017  24.540  1.00  0.00     0.065 C 
ATOM     91  C   UNL A   1      29.388  28.144  23.142  1.00  0.00     0.001 C 
ATOM     92  C   UNL A   1      28.709  26.929  23.782  1.00  0.00     0.006 C 
BRANCH  85  93
ATOM     93  C   UNL A   1      32.399  25.332  25.755  1.00  0.00     0.265 C 
BRANCH  93  94
ATOM     94  C   UNL A   1      33.583  26.214  26.223  1.00  0.00     0.093 C 
BRANCH  94  95
ATOM     95  C   UNL A   1      33.291  27.698  26.393  1.00  0.00     0.123 C 
ATOM     96  C   UNL A   1      31.828  28.003  26.658  1.00  0.00     0.034 C 
ATOM     97  O   UNL A   1      33.571  28.480  25.224  1.00  0.00    -0.378 OA
ATOM     98  C   UNL A   1      31.796  29.499  26.450  1.00  0.00     0.031 C 
ATOM     99  C   UNL A   1      32.922  29.748  25.452  1.00  0.00     0.160 C 
ENDBRANCH  94  95
ENDBRANCH  93  94
ENDBRANCH  85  93
ENDBRANCH  80  83
ENDBRANCH  78  79
ENDBRANCH  77  78
ENDBRANCH  76  77
ENDBRANCH   1  76
TORSDOF 19
ENDMDL
MODEL 3
REMARK VINA RESULT:     -11.1      3.219      9.465
REMARK SMILES O=C(NCCCCCCNC(=O)[C@H]1C[C@H]2CCCC[C@@H]2[N@@H+]1CC[C@@H]1CCCO1)c1ccc(-c2c3nc(c(-c4c(F)cc(S(=O)(=O)[O-])cc4F)c4ccc([nH]4)c(-c4c(F)cc(S(=O)(=O)[O-])cc4F)c4nc(c(-c5c(F)cc(S(=O)(=O)[O-])cc5F)c5ccc2[nH]5)C=C4)C=C3)cc1
REMARK SMILES IDX 6 1 5 2 4 3 3 4 1 5 2 6 29 8 30 9 94 10 31 11 93 12 32 13
REMARK SMILES IDX 33 14 34 15 87 16 35 17 92 18 86 19 88 20 36 21 91 22 85 23
REMARK SMILES IDX 84 24 37 26 71 27 50 28 70 29 51 30 54 31 69 32 89 33 52 34
REMARK SMILES IDX 53 35 68 37 90 38 55 39 38 40 39 41 48 42 40 43 41 44 47 45
REMARK SMILES IDX 49 46 42 47 43 48 44 49 45 50 46 51 72 52 73 53 82 54 74 55
REMARK SMILES IDX 75 56 81 57 83 58 76 59 77 60 78 61 79 62 80 63 56 64 57 65
REMARK SMILES IDX 66 66 58 67 59 68 65 69 67 70 60 71 61 72 62 73 63 74 64 75
REMARK SMILES IDX 7 76 8 77 9 78 10 79 11 80 12 82 13 83 14 84 21 85 15 86
REMARK SMILES IDX 20 87 16 89 19 90 17 91 18 92 22 93 23 94 24 95 25 96 28 97
REMARK SMILES IDX 26 98 27 99
REMARK H PARENT 3 7 88 25 54 36 10 81 21 88
REMARK Flexibility Score: inf
ROOT
ATOM      1  C   UNL A   1      35.173  22.315  24.173  1.00  0.00     0.002 C 
ENDROOT
BRANCH   1   2
ATOM      2  C   UNL A   1      35.433  23.793  24.467  1.00  0.00     0.021 C 
BRANCH   2   3
ATOM      3  C   UNL A   1      36.502  24.045  25.519  1.00  0.00     0.116 C 
BRANCH   3   4
ATOM      4  N   UNL A   1      37.513  23.002  25.528  1.00  0.00    -0.352 N 
ATOM      5  O   UNL A   1      39.594  22.160  25.754  1.00  0.00    -0.269 OA
ATOM      6  C   UNL A   1      38.805  23.059  25.999  1.00  0.00     0.251 C 
ATOM      7  H   UNL A   1      37.238  22.137  25.147  1.00  0.00     0.163 HD
BRANCH   6   8
ATOM      8  C   UNL A   1      39.229  24.235  26.795  1.00  0.00     0.039 A 
ATOM      9  C   UNL A   1      38.835  24.361  28.129  1.00  0.00     0.014 A 
ATOM     10  C   UNL A   1      40.029  25.214  26.200  1.00  0.00     0.014 A 
ATOM     11  C   UNL A   1      39.136  25.521  28.830  1.00  0.00     0.010 A 
ATOM     12  C   UNL A   1      40.407  26.340  26.937  1.00  0.00     0.010 A 
ATOM     13  C   UNL A   1      39.949  26.511  28.252  1.00  0.00    -0.014 A 
BRANCH  13  14
ATOM     14  C   UNL A   1      40.384  27.660  29.087  1.00  0.00     0.031 A 
ATOM     15  C   UNL A   1      39.505  28.861  29.291  1.00  0.00     0.074 A 
ATOM     16  C   UNL A   1      41.588  27.584  29.688  1.00  0.00     0.049 A 
ATOM     17  N   UNL A   1      39.734  29.931  30.007  1.00  0.00    -0.248 NA
ATOM     18  C   UNL A   1      38.207  28.870  28.599  1.00  0.00     0.031 C 
ATOM     19  C   UNL A   1      42.531  26.469  29.542  1.00  0.00     0.029 A 
ATOM     20  N   UNL A   1      42.220  28.438  30.553  1.00  0.00    -0.354 N 
ATOM     21  C   UNL A   1      38.621  30.748  29.846  1.00  0.00     0.074 A 
ATOM     22  C   UNL A   1      37.724  30.058  28.942  1.00  0.00     0.031 C 
ATOM     23  C   UNL A   1      43.596  26.687  30.326  1.00  0.00     0.029 A 
ATOM     24  C   UNL A   1      43.444  27.980  30.979  1.00  0.00     0.049 A 
ATOM     25  H   UNL A   1      41.835  29.297  30.841  1.00  0.00     0.167 HD
ATOM     26  C   UNL A   1      38.372  31.955  30.409  1.00  0.00     0.037 A 
ATOM     27  C   UNL A   1      44.357  28.547  31.789  1.00  0.00     0.037 A 
ATOM     28  C   UNL A   1      39.271  32.624  31.316  1.00  0.00     0.049 A 
ATOM     29  C   UNL A   1      44.060  29.893  32.383  1.00  0.00     0.074 A 
ATOM     30  C   UNL A   1      39.098  33.837  31.963  1.00  0.00     0.029 A 
ATOM     31  N   UNL A   1      40.513  32.143  31.705  1.00  0.00    -0.354 N 
ATOM     32  N   UNL A   1      42.987  30.635  32.242  1.00  0.00    -0.248 NA
ATOM     33  C   UNL A   1      45.094  30.480  33.242  1.00  0.00     0.031 C 
ATOM     34  C   UNL A   1      40.251  34.107  32.707  1.00  0.00     0.029 A 
ATOM     35  C   UNL A   1      41.124  33.042  32.565  1.00  0.00     0.049 A 
ATOM     36  H   UNL A   1      40.903  31.287  31.413  1.00  0.00     0.167 HD
ATOM     37  C   UNL A   1      43.214  31.774  33.002  1.00  0.00     0.074 A 
ATOM     38  C   UNL A   1      44.514  31.610  33.622  1.00  0.00     0.031 C 
ATOM     39  C   UNL A   1      42.422  32.862  33.168  1.00  0.00     0.037 A 
BRANCH  26  40
ATOM     40  C   UNL A   1      37.080  32.645  30.059  1.00  0.00     0.058 A 
ATOM     41  C   UNL A   1      35.898  32.406  30.776  1.00  0.00     0.135 A 
ATOM     42  C   UNL A   1      37.041  33.608  29.036  1.00  0.00     0.135 A 
ATOM     43  F   UNL A   1      35.875  31.487  31.754  1.00  0.00    -0.206 F 
ATOM     44  C   UNL A   1      34.720  33.087  30.485  1.00  0.00     0.059 A 
ATOM     45  C   UNL A   1      35.879  34.317  28.742  1.00  0.00     0.059 A 
ATOM     46  F   UNL A   1      38.143  33.876  28.317  1.00  0.00    -0.206 F 
ATOM     47  C   UNL A   1      34.721  34.043  29.466  1.00  0.00     0.060 A 
BRANCH  47  48
ATOM     48  S   UNL A   1      33.187  34.932  29.116  1.00  0.00     0.124 S 
ATOM     49  O   UNL A   1      32.573  34.067  28.113  1.00  0.00    -0.237 OA
ATOM     50  O   UNL A   1      32.533  34.953  30.421  1.00  0.00    -0.237 OA
ATOM     51  O   UNL A   1      33.649  36.228  28.629  1.00  0.00    -0.744 OA
ENDBRANCH  47  48
ENDBRANCH  26  40
BRANCH  27  52
ATOM     52  C   UNL A   1      45.638  27.847  32.066  1.00  0.00     0.058 A 
ATOM     53  C   UNL A   1      45.769  26.977  33.157  1.00  0.00     0.135 A 
ATOM     54  C   UNL A   1      46.753  28.021  31.230  1.00  0.00     0.135 A 
ATOM     55  F   UNL A   1      44.732  26.778  33.986  1.00  0.00    -0.206 F 
ATOM     56  C   UNL A   1      46.966  26.320  33.424  1.00  0.00     0.059 A 
ATOM     57  C   UNL A   1      47.950  27.352  31.458  1.00  0.00     0.059 A 
ATOM     58  F   UNL A   1      46.672  28.826  30.159  1.00  0.00    -0.206 F 
ATOM     59  C   UNL A   1      48.051  26.515  32.567  1.00  0.00     0.060 A 
BRANCH  59  60
ATOM     60  S   UNL A   1      49.590  25.631  32.899  1.00  0.00     0.124 S 
ATOM     61  O   UNL A   1      50.360  26.644  33.611  1.00  0.00    -0.237 OA
ATOM     62  O   UNL A   1      49.129  24.498  33.697  1.00  0.00    -0.237 OA
ATOM     63  O   UNL A   1      50.074  25.291  31.564  1.00  0.00    -0.744 OA
ENDBRANCH  59  60
ENDBRANCH  27  52
BRANCH  39  64
ATOM     64  C   UNL A   1      42.937  33.947  34.072  1.00  0.00     0.058 A 
ATOM     65  C   UNL A   1      42.715  33.917  35.457  1.00  0.00     0.135 A 
ATOM     66  C   UNL A   1      43.678  35.018  33.547  1.00  0.00     0.135 A 
ATOM     67  F   UNL A   1      42.004  32.918  36.006  1.00  0.00    -0.206 F 
ATOM     68  C   UNL A   1      43.181  34.928  36.288  1.00  0.00     0.059 A 
ATOM     69  C   UNL A   1      44.177  36.027  34.364  1.00  0.00     0.059 A 
ATOM     70  F   UNL A   1      43.925  35.089  32.230  1.00  0.00    -0.206 F 
ATOM     71  C   UNL A   1      43.910  35.981  35.732  1.00  0.00     0.060 A 
BRANCH  71  72
ATOM     72  S   UNL A   1      44.524  37.282  36.823  1.00  0.00     0.124 S 
ATOM     73  O   UNL A   1      45.944  36.958  36.895  1.00  0.00    -0.237 OA
ATOM     74  O   UNL A   1      44.185  38.496  36.085  1.00  0.00    -0.237 OA
ATOM     75  O   UNL A   1      43.769  37.074  38.054  1.00  0.00    -0.744 OA
ENDBRANCH  71  72
ENDBRANCH  39  64
ENDBRANCH  13  14
ENDBRANCH   6   8
ENDBRANCH   3   4
ENDBRANCH   2   3
ENDBRANCH   1   2
BRANCH   1  76
ATOM     76  C   UNL A   1      33.718  21.862  24.354  1.00  0.00     0.002 C 
BRANCH  76  77
ATOM     77  C   UNL A   1      32.799  22.104  23.148  1.00  0.00     0.021 C 
BRANCH  77  78
ATOM     78  C   UNL A   1      31.612  23.020  23.443  1.00  0.00     0.116 C 
BRANCH  78  79
ATOM     79  N   UNL A   1      31.373  23.116  24.865  1.00  0.00    -0.351 N 
ATOM     80  C   UNL A   1      31.274  24.173  25.706  1.00  0.00     0.278 C 
ATOM     81  H   UNL A   1      31.261  22.244  25.308  1.00  0.00     0.163 HD
ATOM     82  O   UNL A   1      31.192  23.879  26.908  1.00  0.00    -0.268 OA
BRANCH  80  83
ATOM     83  C   UNL A   1      31.118  25.647  25.266  1.00  0.00     0.274 C 
ATOM     84  C   UNL A   1      30.689  26.476  26.508  1.00  0.00     0.085 C 
ATOM     85  N   UNL A   1      32.346  26.312  24.738  1.00  0.00    -0.322 N 
ATOM     86  C   UNL A   1      31.512  27.740  26.391  1.00  0.00     0.054 C 
ATOM     87  C   UNL A   1      32.810  27.218  25.792  1.00  0.00     0.188 C 
ATOM     88  H   UNL A   1      33.088  25.635  24.557  1.00  0.00     0.349 HD
ATOM     89  C   UNL A   1      31.757  28.584  27.626  1.00  0.00     0.010 C 
ATOM     90  C   UNL A   1      33.857  28.294  25.496  1.00  0.00     0.065 C 
ATOM     91  C   UNL A   1      32.672  29.753  27.238  1.00  0.00     0.001 C 
ATOM     92  C   UNL A   1      34.010  29.267  26.671  1.00  0.00     0.006 C 
BRANCH  85  93
ATOM     93  C   UNL A   1      32.243  26.832  23.354  1.00  0.00     0.265 C 
BRANCH  93  94
ATOM     94  C   UNL A   1      30.894  27.003  22.615  1.00  0.00     0.093 C 
BRANCH  94  95
ATOM     95  C   UNL A   1      30.189  28.339  22.803  1.00  0.00     0.123 C 
ATOM     96  C   UNL A   1      28.712  28.207  23.127  1.00  0.00     0.034 C 
ATOM     97  O   UNL A   1      30.185  29.162  21.629  1.00  0.00    -0.378 OA
ATOM     98  C   UNL A   1      28.239  29.628  22.928  1.00  0.00     0.031 C 
ATOM     99  C   UNL A   1      29.204  30.188  21.888  1.00  0.00     0.160 C 
ENDBRANCH  94  95
ENDBRANCH  93  94
ENDBRANCH  85  93
ENDBRANCH  80  83
ENDBRANCH  78  79
ENDBRANCH  77  78
ENDBRANCH  76  77
ENDBRANCH   1  76
TORSDOF 19
ENDMDL
