MODEL 1
REMARK VINA RESULT:     -13.6      0.000      0.000
REMARK SMILES Cc1cc([N+](=O)[O-])ccc1NC(=O)[C@@H]1[C@@H](C(=O)NCCCCCCNC(=O)c2ccc(-c3c4nc(c(-c5c(F)cc(S(=O)(=O)[O-])cc5F)c5ccc([nH]5)c(-c5c(F)cc(S(=O)(=O)[O-])cc5F)c5nc(c(-c6c(F)cc(S(=O)(=O)[O-])cc6F)c6ccc3[nH]6)C=C5)C=C4)cc2)[C@H]2C=C[C@@H]1C2
REMARK SMILES IDX 21 1 20 2 19 3 18 4 16 5 17 6 15 8 14 9 97 10 94 11 96 12
REMARK SMILES IDX 98 13 95 14 12 15 11 16 13 18 10 19 1 20 2 21 3 22 4 23 9 24
REMARK SMILES IDX 8 25 5 26 6 27 7 28 22 29 23 30 24 31 25 32 26 33 27 35
REMARK SMILES IDX 28 36 29 37 93 38 30 39 92 40 31 41 32 42 33 43 86 44 34 45
REMARK SMILES IDX 91 46 85 47 87 48 35 49 90 50 84 51 83 52 36 54 70 55 49 56
REMARK SMILES IDX 69 57 50 58 53 59 68 60 88 61 51 62 52 63 67 65 89 66 54 67
REMARK SMILES IDX 37 68 38 69 47 70 39 71 40 72 46 73 48 74 41 75 42 76 43 77
REMARK SMILES IDX 44 78 45 79 71 80 72 81 81 82 73 83 74 84 80 85 82 86 75 87
REMARK SMILES IDX 76 88 77 89 78 90 79 91 55 92 56 93 65 94 57 95 58 96 64 97
REMARK SMILES IDX 66 98 59 99 60 100 61 101 62 102 63 103
REMARK H PARENT 18 7 11 17 25 34 87 53 53 64
REMARK Flexibility Score: inf
ROOT
ATOM      1  C   UNL A   1      35.400  23.821  26.114  1.00  0.00     0.002 C 
ENDROOT
BRANCH   1   2
ATOM      2  C   UNL A   1      34.932  24.469  24.804  1.00  0.00     0.021 C 
BRANCH   2   3
ATOM      3  C   UNL A   1      33.634  25.272  24.848  1.00  0.00     0.116 C 
BRANCH   3   4
ATOM      4  N   UNL A   1      33.575  26.231  25.927  1.00  0.00    -0.356 N 
ATOM      5  C   UNL A   1      32.801  27.343  26.059  1.00  0.00     0.224 C 
ATOM      6  O   UNL A   1      32.882  27.964  27.122  1.00  0.00    -0.275 OA
ATOM      7  H   UNL A   1      34.185  26.055  26.679  1.00  0.00     0.163 HD
BRANCH   5   8
ATOM      8  C   UNL A   1      31.945  27.846  24.896  1.00  0.00     0.098 C 
ATOM      9  C   UNL A   1      31.692  26.693  23.840  1.00  0.00     0.099 C 
ATOM     10  C   UNL A   1      32.066  27.377  22.499  1.00  0.00     0.025 C 
ATOM     11  C   UNL A   1      32.573  28.947  24.004  1.00  0.00     0.025 C 
ATOM     12  C   UNL A   1      33.570  27.527  22.490  1.00  0.00    -0.027 C 
ATOM     13  C   UNL A   1      31.687  28.835  22.759  1.00  0.00     0.017 C 
ATOM     14  C   UNL A   1      33.874  28.460  23.403  1.00  0.00    -0.027 C 
BRANCH   9  15
ATOM     15  C   UNL A   1      30.280  26.137  23.815  1.00  0.00     0.228 C 
ATOM     16  N   UNL A   1      30.023  24.794  23.935  1.00  0.00    -0.326 N 
ATOM     17  H   UNL A   1      29.064  24.579  23.881  1.00  0.00     0.169 HD
ATOM     18  O   UNL A   1      29.303  26.870  23.631  1.00  0.00    -0.274 OA
BRANCH  16  19
ATOM     19  C   UNL A   1      30.834  23.652  24.117  1.00  0.00     0.044 A 
ATOM     20  C   UNL A   1      30.418  23.733  26.667  1.00  0.00     0.047 C 
ATOM     21  C   UNL A   1      30.968  23.101  25.413  1.00  0.00    -0.021 A 
ATOM     22  C   UNL A   1      31.673  21.887  25.584  1.00  0.00     0.091 A 
ATOM     23  C   UNL A   1      32.247  21.236  24.489  1.00  0.00     0.269 A 
ATOM     24  C   UNL A   1      31.513  23.028  23.061  1.00  0.00     0.033 A 
ATOM     25  C   UNL A   1      32.194  21.819  23.229  1.00  0.00     0.088 A 
BRANCH  23  26
ATOM     26  N   UNL A   1      32.909  19.940  24.665  1.00  0.00     0.062 N 
ATOM     27  O   UNL A   1      32.197  18.956  24.911  1.00  0.00    -0.258 OA
ATOM     28  O   UNL A   1      34.143  19.901  24.544  1.00  0.00    -0.258 OA
ENDBRANCH  23  26
ENDBRANCH  16  19
ENDBRANCH   9  15
ENDBRANCH   5   8
ENDBRANCH   3   4
ENDBRANCH   2   3
ENDBRANCH   1   2
BRANCH   1  29
ATOM     29  C   UNL A   1      35.788  22.336  26.081  1.00  0.00     0.002 C 
BRANCH  29  30
ATOM     30  C   UNL A   1      37.241  22.005  25.739  1.00  0.00     0.021 C 
BRANCH  30  31
ATOM     31  C   UNL A   1      38.201  23.185  25.802  1.00  0.00     0.116 C 
BRANCH  31  32
ATOM     32  N   UNL A   1      39.542  22.861  26.255  1.00  0.00    -0.352 N 
ATOM     33  C   UNL A   1      40.462  23.730  26.819  1.00  0.00     0.251 C 
ATOM     34  H   UNL A   1      39.828  21.924  26.151  1.00  0.00     0.163 HD
ATOM     35  O   UNL A   1      41.626  23.413  27.009  1.00  0.00    -0.269 OA
BRANCH  33  36
ATOM     36  C   UNL A   1      39.958  25.047  27.272  1.00  0.00     0.039 A 
ATOM     37  C   UNL A   1      40.400  26.184  26.587  1.00  0.00     0.014 A 
ATOM     38  C   UNL A   1      39.275  25.163  28.481  1.00  0.00     0.014 A 
ATOM     39  C   UNL A   1      40.304  27.435  27.200  1.00  0.00     0.010 A 
ATOM     40  C   UNL A   1      39.262  26.389  29.125  1.00  0.00     0.010 A 
ATOM     41  C   UNL A   1      39.810  27.520  28.505  1.00  0.00    -0.014 A 
BRANCH  41  42
ATOM     42  C   UNL A   1      39.922  28.726  29.326  1.00  0.00     0.031 A 
ATOM     43  C   UNL A   1      38.864  29.768  29.297  1.00  0.00     0.074 A 
ATOM     44  C   UNL A   1      40.992  28.926  30.131  1.00  0.00     0.049 A 
ATOM     45  N   UNL A   1      39.093  31.031  29.462  1.00  0.00    -0.248 NA
ATOM     46  C   UNL A   1      37.457  29.466  29.056  1.00  0.00     0.031 C 
ATOM     47  C   UNL A   1      41.116  29.956  31.161  1.00  0.00     0.029 A 
ATOM     48  N   UNL A   1      42.275  28.382  30.045  1.00  0.00    -0.354 N 
ATOM     49  C   UNL A   1      37.878  31.659  29.622  1.00  0.00     0.074 A 
ATOM     50  C   UNL A   1      36.891  30.655  29.292  1.00  0.00     0.031 C 
ATOM     51  C   UNL A   1      42.418  30.191  31.377  1.00  0.00     0.029 A 
ATOM     52  C   UNL A   1      43.168  29.403  30.414  1.00  0.00     0.049 A 
ATOM     53  H   UNL A   1      42.508  27.464  29.777  1.00  0.00     0.167 HD
ATOM     54  C   UNL A   1      37.812  32.913  30.154  1.00  0.00     0.037 A 
ATOM     55  C   UNL A   1      44.208  29.860  29.662  1.00  0.00     0.037 A 
ATOM     56  C   UNL A   1      39.128  33.409  30.537  1.00  0.00     0.049 A 
ATOM     57  C   UNL A   1      44.190  31.355  29.453  1.00  0.00     0.074 A 
ATOM     58  C   UNL A   1      39.793  33.412  31.753  1.00  0.00     0.029 A 
ATOM     59  N   UNL A   1      40.062  33.758  29.573  1.00  0.00    -0.354 N 
ATOM     60  N   UNL A   1      43.139  32.099  29.654  1.00  0.00    -0.248 NA
ATOM     61  C   UNL A   1      45.325  32.126  28.955  1.00  0.00     0.031 C 
ATOM     62  C   UNL A   1      41.138  33.768  31.520  1.00  0.00     0.029 A 
ATOM     63  C   UNL A   1      41.294  33.972  30.160  1.00  0.00     0.049 A 
ATOM     64  H   UNL A   1      39.874  33.840  28.610  1.00  0.00     0.167 HD
ATOM     65  C   UNL A   1      43.414  33.398  29.300  1.00  0.00     0.074 A 
ATOM     66  C   UNL A   1      44.804  33.366  28.891  1.00  0.00     0.031 C 
ATOM     67  C   UNL A   1      42.452  34.368  29.375  1.00  0.00     0.037 A 
BRANCH  54  68
ATOM     68  C   UNL A   1      36.519  33.555  30.614  1.00  0.00     0.058 A 
ATOM     69  C   UNL A   1      35.581  34.059  29.685  1.00  0.00     0.135 A 
ATOM     70  C   UNL A   1      36.166  33.728  31.966  1.00  0.00     0.135 A 
ATOM     71  F   UNL A   1      35.728  33.884  28.365  1.00  0.00    -0.206 F 
ATOM     72  C   UNL A   1      34.453  34.785  30.063  1.00  0.00     0.059 A 
ATOM     73  C   UNL A   1      35.065  34.494  32.370  1.00  0.00     0.059 A 
ATOM     74  F   UNL A   1      36.874  33.142  32.943  1.00  0.00    -0.206 F 
ATOM     75  C   UNL A   1      34.223  35.035  31.407  1.00  0.00     0.060 A 
BRANCH  75  76
ATOM     76  S   UNL A   1      32.836  36.095  31.859  1.00  0.00     0.124 S 
ATOM     77  O   UNL A   1      31.868  35.131  32.377  1.00  0.00    -0.237 OA
ATOM     78  O   UNL A   1      33.440  36.981  32.849  1.00  0.00    -0.237 OA
ATOM     79  O   UNL A   1      32.463  36.723  30.596  1.00  0.00    -0.744 OA
ENDBRANCH  75  76
ENDBRANCH  54  68
BRANCH  55  80
ATOM     80  C   UNL A   1      44.744  28.881  28.685  1.00  0.00     0.058 A 
ATOM     81  C   UNL A   1      44.188  28.862  27.393  1.00  0.00     0.135 A 
ATOM     82  C   UNL A   1      46.014  28.314  28.864  1.00  0.00     0.135 A 
ATOM     83  F   UNL A   1      42.964  29.371  27.180  1.00  0.00    -0.206 F 
ATOM     84  C   UNL A   1      44.930  28.451  26.293  1.00  0.00     0.059 A 
ATOM     85  C   UNL A   1      46.774  27.894  27.774  1.00  0.00     0.059 A 
ATOM     86  F   UNL A   1      46.593  28.323  30.073  1.00  0.00    -0.206 F 
ATOM     87  C   UNL A   1      46.245  28.034  26.489  1.00  0.00     0.060 A 
BRANCH  87  88
ATOM     88  S   UNL A   1      47.305  27.870  25.033  1.00  0.00     0.124 S 
ATOM     89  O   UNL A   1      48.590  28.340  25.539  1.00  0.00    -0.237 OA
ATOM     90  O   UNL A   1      47.212  26.437  24.766  1.00  0.00    -0.237 OA
ATOM     91  O   UNL A   1      46.655  28.734  24.055  1.00  0.00    -0.744 OA
ENDBRANCH  87  88
ENDBRANCH  55  80
BRANCH  67  92
ATOM     92  C   UNL A   1      42.520  35.789  28.846  1.00  0.00     0.058 A 
ATOM     93  C   UNL A   1      41.835  36.253  27.710  1.00  0.00     0.135 A 
ATOM     94  C   UNL A   1      43.209  36.792  29.578  1.00  0.00     0.135 A 
ATOM     95  F   UNL A   1      41.050  35.446  26.987  1.00  0.00    -0.206 F 
ATOM     96  C   UNL A   1      41.884  37.589  27.294  1.00  0.00     0.059 A 
ATOM     97  C   UNL A   1      43.226  38.136  29.212  1.00  0.00     0.059 A 
ATOM     98  F   UNL A   1      43.886  36.505  30.701  1.00  0.00    -0.206 F 
ATOM     99  C   UNL A   1      42.582  38.524  28.051  1.00  0.00     0.060 A 
BRANCH  99 100
ATOM    100  S   UNL A   1      42.589  40.260  27.562  1.00  0.00     0.124 S 
ATOM    101  O   UNL A   1      41.193  40.628  27.773  1.00  0.00    -0.237 OA
ATOM    102  O   UNL A   1      43.544  40.855  28.493  1.00  0.00    -0.237 OA
ATOM    103  O   UNL A   1      43.030  40.211  26.172  1.00  0.00    -0.744 OA
ENDBRANCH  99 100
ENDBRANCH  67  92
ENDBRANCH  41  42
ENDBRANCH  33  36
ENDBRANCH  31  32
ENDBRANCH  30  31
ENDBRANCH  29  30
ENDBRANCH   1  29
TORSDOF 19
ENDMDL
MODEL 2
REMARK VINA RESULT:     -13.5      1.799      3.797
REMARK SMILES Cc1cc([N+](=O)[O-])ccc1NC(=O)[C@@H]1[C@@H](C(=O)NCCCCCCNC(=O)c2ccc(-c3c4nc(c(-c5c(F)cc(S(=O)(=O)[O-])cc5F)c5ccc([nH]5)c(-c5c(F)cc(S(=O)(=O)[O-])cc5F)c5nc(c(-c6c(F)cc(S(=O)(=O)[O-])cc6F)c6ccc3[nH]6)C=C5)C=C4)cc2)[C@H]2C=C[C@@H]1C2
REMARK SMILES IDX 21 1 20 2 19 3 18 4 16 5 17 6 15 8 14 9 97 10 94 11 96 12
REMARK SMILES IDX 98 13 95 14 12 15 11 16 13 18 10 19 1 20 2 21 3 22 4 23 9 24
REMARK SMILES IDX 8 25 5 26 6 27 7 28 22 29 23 30 24 31 25 32 26 33 27 35
REMARK SMILES IDX 28 36 29 37 93 38 30 39 92 40 31 41 32 42 33 43 86 44 34 45
REMARK SMILES IDX 91 46 85 47 87 48 35 49 90 50 84 51 83 52 36 54 70 55 49 56
REMARK SMILES IDX 69 57 50 58 53 59 68 60 88 61 51 62 52 63 67 65 89 66 54 67
REMARK SMILES IDX 37 68 38 69 47 70 39 71 40 72 46 73 48 74 41 75 42 76 43 77
REMARK SMILES IDX 44 78 45 79 71 80 72 81 81 82 73 83 74 84 80 85 82 86 75 87
REMARK SMILES IDX 76 88 77 89 78 90 79 91 55 92 56 93 65 94 57 95 58 96 64 97
REMARK SMILES IDX 66 98 59 99 60 100 61 101 62 102 63 103
REMARK H PARENT 18 7 11 17 25 34 87 53 53 64
REMARK Flexibility Score: inf
ROOT
ATOM      1  C   UNL A   1      35.959  23.262  24.906  1.00  0.00     0.002 C 
ENDROOT
BRANCH   1   2
ATOM      2  C   UNL A   1      35.309  23.551  26.266  1.00  0.00     0.021 C 
BRANCH   2   3
ATOM      3  C   UNL A   1      33.960  22.893  26.546  1.00  0.00     0.116 C 
BRANCH   3   4
ATOM      4  N   UNL A   1      32.911  23.829  26.884  1.00  0.00    -0.356 N 
ATOM      5  C   UNL A   1      32.222  24.686  26.082  1.00  0.00     0.224 C 
ATOM      6  O   UNL A   1      31.310  25.335  26.601  1.00  0.00    -0.275 OA
ATOM      7  H   UNL A   1      32.658  23.851  27.834  1.00  0.00     0.163 HD
BRANCH   5   8
ATOM      8  C   UNL A   1      32.631  24.898  24.624  1.00  0.00     0.098 C 
ATOM      9  C   UNL A   1      32.027  26.247  24.056  1.00  0.00     0.099 C 
ATOM     10  C   UNL A   1      31.381  25.791  22.722  1.00  0.00     0.025 C 
ATOM     11  C   UNL A   1      32.093  23.865  23.600  1.00  0.00     0.025 C 
ATOM     12  C   UNL A   1      30.152  24.990  23.084  1.00  0.00    -0.027 C 
ATOM     13  C   UNL A   1      32.292  24.640  22.294  1.00  0.00     0.017 C 
ATOM     14  C   UNL A   1      30.580  23.839  23.623  1.00  0.00    -0.027 C 
BRANCH   9  15
ATOM     15  C   UNL A   1      33.030  27.366  23.843  1.00  0.00     0.228 C 
ATOM     16  N   UNL A   1      32.638  28.655  23.581  1.00  0.00    -0.326 N 
ATOM     17  H   UNL A   1      33.397  29.268  23.445  1.00  0.00     0.169 HD
ATOM     18  O   UNL A   1      34.246  27.150  23.844  1.00  0.00    -0.274 OA
BRANCH  16  19
ATOM     19  C   UNL A   1      31.385  29.295  23.461  1.00  0.00     0.044 A 
ATOM     20  C   UNL A   1      31.623  30.261  25.847  1.00  0.00     0.047 C 
ATOM     21  C   UNL A   1      30.929  30.121  24.515  1.00  0.00    -0.021 A 
ATOM     22  C   UNL A   1      29.738  30.864  24.351  1.00  0.00     0.091 A 
ATOM     23  C   UNL A   1      29.003  30.781  23.165  1.00  0.00     0.269 A 
ATOM     24  C   UNL A   1      30.567  29.155  22.331  1.00  0.00     0.033 A 
ATOM     25  C   UNL A   1      29.399  29.904  22.163  1.00  0.00     0.088 A 
BRANCH  23  26
ATOM     26  N   UNL A   1      27.811  31.614  22.975  1.00  0.00     0.062 N 
ATOM     27  O   UNL A   1      27.787  32.371  21.994  1.00  0.00    -0.258 OA
ATOM     28  O   UNL A   1      26.892  31.503  23.799  1.00  0.00    -0.258 OA
ENDBRANCH  23  26
ENDBRANCH  16  19
ENDBRANCH   9  15
ENDBRANCH   5   8
ENDBRANCH   3   4
ENDBRANCH   2   3
ENDBRANCH   1   2
BRANCH   1  29
ATOM     29  C   UNL A   1      36.559  21.867  24.680  1.00  0.00     0.002 C 
BRANCH  29  30
ATOM     30  C   UNL A   1      37.884  21.559  25.377  1.00  0.00     0.021 C 
BRANCH  30  31
ATOM     31  C   UNL A   1      38.566  22.758  26.021  1.00  0.00     0.116 C 
BRANCH  31  32
ATOM     32  N   UNL A   1      39.985  22.590  26.282  1.00  0.00    -0.352 N 
ATOM     33  C   UNL A   1      40.889  23.580  26.630  1.00  0.00     0.251 C 
ATOM     34  H   UNL A   1      40.342  21.675  26.204  1.00  0.00     0.163 HD
ATOM     35  O   UNL A   1      42.093  23.381  26.659  1.00  0.00    -0.269 OA
BRANCH  33  36
ATOM     36  C   UNL A   1      40.332  24.884  27.059  1.00  0.00     0.039 A 
ATOM     37  C   UNL A   1      40.746  26.028  26.369  1.00  0.00     0.014 A 
ATOM     38  C   UNL A   1      39.624  24.990  28.255  1.00  0.00     0.014 A 
ATOM     39  C   UNL A   1      40.596  27.281  26.965  1.00  0.00     0.010 A 
ATOM     40  C   UNL A   1      39.556  26.222  28.883  1.00  0.00     0.010 A 
ATOM     41  C   UNL A   1      40.077  27.364  28.260  1.00  0.00    -0.014 A 
BRANCH  41  42
ATOM     42  C   UNL A   1      40.132  28.583  29.068  1.00  0.00     0.031 A 
ATOM     43  C   UNL A   1      39.076  29.619  28.956  1.00  0.00     0.074 A 
ATOM     44  C   UNL A   1      41.148  28.799  29.937  1.00  0.00     0.049 A 
ATOM     45  N   UNL A   1      39.290  30.886  29.116  1.00  0.00    -0.248 NA
ATOM     46  C   UNL A   1      37.688  29.309  28.630  1.00  0.00     0.031 C 
ATOM     47  C   UNL A   1      41.203  29.843  30.958  1.00  0.00     0.029 A 
ATOM     48  N   UNL A   1      42.435  28.258  29.942  1.00  0.00    -0.354 N 
ATOM     49  C   UNL A   1      38.065  31.511  29.189  1.00  0.00     0.074 A 
ATOM     50  C   UNL A   1      37.104  30.499  28.811  1.00  0.00     0.031 C 
ATOM     51  C   UNL A   1      42.487  30.087  31.253  1.00  0.00     0.029 A 
ATOM     52  C   UNL A   1      43.299  29.287  30.352  1.00  0.00     0.049 A 
ATOM     53  H   UNL A   1      42.688  27.338  29.703  1.00  0.00     0.167 HD
ATOM     54  C   UNL A   1      37.961  32.773  29.697  1.00  0.00     0.037 A 
ATOM     55  C   UNL A   1      44.385  29.738  29.661  1.00  0.00     0.037 A 
ATOM     56  C   UNL A   1      39.248  33.280  30.156  1.00  0.00     0.049 A 
ATOM     57  C   UNL A   1      44.375  31.229  29.429  1.00  0.00     0.074 A 
ATOM     58  C   UNL A   1      39.834  33.303  31.412  1.00  0.00     0.029 A 
ATOM     59  N   UNL A   1      40.241  33.618  29.248  1.00  0.00    -0.354 N 
ATOM     60  N   UNL A   1      43.312  31.972  29.552  1.00  0.00    -0.248 NA
ATOM     61  C   UNL A   1      45.538  31.998  28.994  1.00  0.00     0.031 C 
ATOM     62  C   UNL A   1      41.190  33.661  31.260  1.00  0.00     0.029 A 
ATOM     63  C   UNL A   1      41.433  33.846  29.911  1.00  0.00     0.049 A 
ATOM     64  H   UNL A   1      40.116  33.686  28.274  1.00  0.00     0.167 HD
ATOM     65  C   UNL A   1      43.605  33.267  29.197  1.00  0.00     0.074 A 
ATOM     66  C   UNL A   1      45.019  33.234  28.879  1.00  0.00     0.031 C 
ATOM     67  C   UNL A   1      42.638  34.234  29.195  1.00  0.00     0.037 A 
BRANCH  54  68
ATOM     68  C   UNL A   1      36.640  33.416  30.063  1.00  0.00     0.058 A 
ATOM     69  C   UNL A   1      35.763  33.905  29.069  1.00  0.00     0.135 A 
ATOM     70  C   UNL A   1      36.199  33.606  31.387  1.00  0.00     0.135 A 
ATOM     71  F   UNL A   1      35.996  33.714  27.764  1.00  0.00    -0.206 F 
ATOM     72  C   UNL A   1      34.611  34.633  29.363  1.00  0.00     0.059 A 
ATOM     73  C   UNL A   1      35.072  34.373  31.708  1.00  0.00     0.059 A 
ATOM     74  F   UNL A   1      36.843  33.035  32.416  1.00  0.00    -0.206 F 
ATOM     75  C   UNL A   1      34.293  34.899  30.686  1.00  0.00     0.060 A 
BRANCH  75  76
ATOM     76  S   UNL A   1      32.878  35.961  31.033  1.00  0.00     0.124 S 
ATOM     77  O   UNL A   1      32.271  36.106  29.712  1.00  0.00    -0.237 OA
ATOM     78  O   UNL A   1      32.125  35.161  31.993  1.00  0.00    -0.237 OA
ATOM     79  O   UNL A   1      33.487  37.175  31.566  1.00  0.00    -0.744 OA
ENDBRANCH  75  76
ENDBRANCH  54  68
BRANCH  55  80
ATOM     80  C   UNL A   1      44.985  28.746  28.736  1.00  0.00     0.058 A 
ATOM     81  C   UNL A   1      46.038  27.946  29.215  1.00  0.00     0.135 A 
ATOM     82  C   UNL A   1      44.281  28.302  27.608  1.00  0.00     0.135 A 
ATOM     83  F   UNL A   1      46.756  28.345  30.278  1.00  0.00    -0.206 F 
ATOM     84  C   UNL A   1      46.273  26.677  28.702  1.00  0.00     0.059 A 
ATOM     85  C   UNL A   1      44.503  27.033  27.076  1.00  0.00     0.059 A 
ATOM     86  F   UNL A   1      43.259  29.021  27.124  1.00  0.00    -0.206 F 
ATOM     87  C   UNL A   1      45.453  26.206  27.678  1.00  0.00     0.060 A 
BRANCH  87  88
ATOM     88  S   UNL A   1      45.520  24.441  27.287  1.00  0.00     0.124 S 
ATOM     89  O   UNL A   1      46.947  24.161  27.391  1.00  0.00    -0.237 OA
ATOM     90  O   UNL A   1      44.682  23.879  28.345  1.00  0.00    -0.237 OA
ATOM     91  O   UNL A   1      44.957  24.381  25.944  1.00  0.00    -0.744 OA
ENDBRANCH  87  88
ENDBRANCH  55  80
BRANCH  67  92
ATOM     92  C   UNL A   1      42.735  35.648  28.651  1.00  0.00     0.058 A 
ATOM     93  C   UNL A   1      42.366  36.031  27.350  1.00  0.00     0.135 A 
ATOM     94  C   UNL A   1      43.102  36.719  29.507  1.00  0.00     0.135 A 
ATOM     95  F   UNL A   1      41.888  35.145  26.468  1.00  0.00    -0.206 F 
ATOM     96  C   UNL A   1      42.421  37.359  26.912  1.00  0.00     0.059 A 
ATOM     97  C   UNL A   1      43.112  38.054  29.108  1.00  0.00     0.059 A 
ATOM     98  F   UNL A   1      43.453  36.511  30.785  1.00  0.00    -0.206 F 
ATOM     99  C   UNL A   1      42.794  38.365  27.797  1.00  0.00     0.060 A 
BRANCH  99 100
ATOM    100  S   UNL A   1      42.797  40.087  27.262  1.00  0.00     0.124 S 
ATOM    101  O   UNL A   1      43.302  40.761  28.452  1.00  0.00    -0.237 OA
ATOM    102  O   UNL A   1      43.701  40.069  26.116  1.00  0.00    -0.237 OA
ATOM    103  O   UNL A   1      41.396  40.336  26.938  1.00  0.00    -0.744 OA
ENDBRANCH  99 100
ENDBRANCH  67  92
ENDBRANCH  41  42
ENDBRANCH  33  36
ENDBRANCH  31  32
ENDBRANCH  30  31
ENDBRANCH  29  30
ENDBRANCH   1  29
TORSDOF 19
ENDMDL
MODEL 3
REMARK VINA RESULT:     -12.7      1.565      2.224
REMARK SMILES Cc1cc([N+](=O)[O-])ccc1NC(=O)[C@@H]1[C@@H](C(=O)NCCCCCCNC(=O)c2ccc(-c3c4nc(c(-c5c(F)cc(S(=O)(=O)[O-])cc5F)c5ccc([nH]5)c(-c5c(F)cc(S(=O)(=O)[O-])cc5F)c5nc(c(-c6c(F)cc(S(=O)(=O)[O-])cc6F)c6ccc3[nH]6)C=C5)C=C4)cc2)[C@H]2C=C[C@@H]1C2
REMARK SMILES IDX 21 1 20 2 19 3 18 4 16 5 17 6 15 8 14 9 97 10 94 11 96 12
REMARK SMILES IDX 98 13 95 14 12 15 11 16 13 18 10 19 1 20 2 21 3 22 4 23 9 24
REMARK SMILES IDX 8 25 5 26 6 27 7 28 22 29 23 30 24 31 25 32 26 33 27 35
REMARK SMILES IDX 28 36 29 37 93 38 30 39 92 40 31 41 32 42 33 43 86 44 34 45
REMARK SMILES IDX 91 46 85 47 87 48 35 49 90 50 84 51 83 52 36 54 70 55 49 56
REMARK SMILES IDX 69 57 50 58 53 59 68 60 88 61 51 62 52 63 67 65 89 66 54 67
REMARK SMILES IDX 37 68 38 69 47 70 39 71 40 72 46 73 48 74 41 75 42 76 43 77
REMARK SMILES IDX 44 78 45 79 71 80 72 81 81 82 73 83 74 84 80 85 82 86 75 87
REMARK SMILES IDX 76 88 77 89 78 90 79 91 55 92 56 93 65 94 57 95 58 96 64 97
REMARK SMILES IDX 66 98 59 99 60 100 61 101 62 102 63 103
REMARK H PARENT 18 7 11 17 25 34 87 53 53 64
REMARK Flexibility Score: inf
ROOT
ATOM      1  C   UNL A   1      36.282  23.127  24.706  1.00  0.00     0.002 C 
ENDROOT
BRANCH   1   2
ATOM      2  C   UNL A   1      35.734  24.014  25.832  1.00  0.00     0.021 C 
BRANCH   2   3
ATOM      3  C   UNL A   1      34.416  24.739  25.570  1.00  0.00     0.116 C 
BRANCH   3   4
ATOM      4  N   UNL A   1      34.449  25.615  24.421  1.00  0.00    -0.356 N 
ATOM      5  C   UNL A   1      33.713  26.729  24.157  1.00  0.00     0.224 C 
ATOM      6  O   UNL A   1      33.985  27.355  23.130  1.00  0.00    -0.275 OA
ATOM      7  H   UNL A   1      35.101  25.370  23.725  1.00  0.00     0.163 HD
BRANCH   5   8
ATOM      8  C   UNL A   1      32.538  27.123  25.054  1.00  0.00     0.098 C 
ATOM      9  C   UNL A   1      31.702  28.301  24.406  1.00  0.00     0.099 C 
ATOM     10  C   UNL A   1      31.586  29.313  25.575  1.00  0.00     0.025 C 
ATOM     11  C   UNL A   1      32.898  27.725  26.436  1.00  0.00     0.025 C 
ATOM     12  C   UNL A   1      32.955  29.925  25.762  1.00  0.00    -0.027 C 
ATOM     13  C   UNL A   1      31.571  28.398  26.800  1.00  0.00     0.017 C 
ATOM     14  C   UNL A   1      33.745  28.967  26.266  1.00  0.00    -0.027 C 
BRANCH   9  15
ATOM     15  C   UNL A   1      30.341  27.907  23.864  1.00  0.00     0.228 C 
ATOM     16  N   UNL A   1      29.987  26.595  23.665  1.00  0.00    -0.326 N 
ATOM     17  H   UNL A   1      29.082  26.494  23.291  1.00  0.00     0.169 HD
ATOM     18  O   UNL A   1      29.510  28.758  23.529  1.00  0.00    -0.274 OA
BRANCH  16  19
ATOM     19  C   UNL A   1      30.638  25.361  23.877  1.00  0.00     0.044 A 
ATOM     20  C   UNL A   1      29.767  25.293  26.311  1.00  0.00     0.047 C 
ATOM     21  C   UNL A   1      30.477  24.701  25.119  1.00  0.00    -0.021 A 
ATOM     22  C   UNL A   1      31.019  23.408  25.295  1.00  0.00     0.091 A 
ATOM     23  C   UNL A   1      31.722  22.782  24.262  1.00  0.00     0.269 A 
ATOM     24  C   UNL A   1      31.439  24.748  22.904  1.00  0.00     0.033 A 
ATOM     25  C   UNL A   1      31.959  23.462  23.074  1.00  0.00     0.088 A 
BRANCH  23  26
ATOM     26  N   UNL A   1      32.215  21.411  24.428  1.00  0.00     0.062 N 
ATOM     27  O   UNL A   1      33.187  21.061  23.744  1.00  0.00    -0.258 OA
ATOM     28  O   UNL A   1      31.637  20.686  25.252  1.00  0.00    -0.258 OA
ENDBRANCH  23  26
ENDBRANCH  16  19
ENDBRANCH   9  15
ENDBRANCH   5   8
ENDBRANCH   3   4
ENDBRANCH   2   3
ENDBRANCH   1   2
BRANCH   1  29
ATOM     29  C   UNL A   1      36.625  21.669  25.044  1.00  0.00     0.002 C 
BRANCH  29  30
ATOM     30  C   UNL A   1      38.105  21.321  25.198  1.00  0.00     0.021 C 
BRANCH  30  31
ATOM     31  C   UNL A   1      38.870  22.191  26.186  1.00  0.00     0.116 C 
BRANCH  31  32
ATOM     32  N   UNL A   1      40.315  22.155  26.044  1.00  0.00    -0.352 N 
ATOM     33  C   UNL A   1      41.182  23.234  26.089  1.00  0.00     0.251 C 
ATOM     34  H   UNL A   1      40.722  21.269  25.901  1.00  0.00     0.163 HD
ATOM     35  O   UNL A   1      42.360  23.136  25.785  1.00  0.00    -0.269 OA
BRANCH  33  36
ATOM     36  C   UNL A   1      40.643  24.512  26.610  1.00  0.00     0.039 A 
ATOM     37  C   UNL A   1      41.141  25.700  26.064  1.00  0.00     0.014 A 
ATOM     38  C   UNL A   1      39.864  24.530  27.765  1.00  0.00     0.014 A 
ATOM     39  C   UNL A   1      40.996  26.894  26.771  1.00  0.00     0.010 A 
ATOM     40  C   UNL A   1      39.799  25.697  28.508  1.00  0.00     0.010 A 
ATOM     41  C   UNL A   1      40.398  26.872  28.034  1.00  0.00    -0.014 A 
BRANCH  41  42
ATOM     42  C   UNL A   1      40.443  28.003  28.961  1.00  0.00     0.031 A 
ATOM     43  C   UNL A   1      39.406  29.065  28.919  1.00  0.00     0.074 A 
ATOM     44  C   UNL A   1      41.430  28.113  29.881  1.00  0.00     0.049 A 
ATOM     45  N   UNL A   1      39.633  30.305  29.212  1.00  0.00    -0.248 NA
ATOM     46  C   UNL A   1      38.026  28.813  28.517  1.00  0.00     0.031 C 
ATOM     47  C   UNL A   1      41.465  29.050  31.003  1.00  0.00     0.029 A 
ATOM     48  N   UNL A   1      42.709  27.552  29.875  1.00  0.00    -0.354 N 
ATOM     49  C   UNL A   1      38.416  30.942  29.306  1.00  0.00     0.074 A 
ATOM     50  C   UNL A   1      37.454  29.990  28.797  1.00  0.00     0.031 C 
ATOM     51  C   UNL A   1      42.742  29.240  31.363  1.00  0.00     0.029 A 
ATOM     52  C   UNL A   1      43.573  28.519  30.414  1.00  0.00     0.049 A 
ATOM     53  H   UNL A   1      42.956  26.655  29.554  1.00  0.00     0.167 HD
ATOM     54  C   UNL A   1      38.313  32.149  29.934  1.00  0.00     0.037 A 
ATOM     55  C   UNL A   1      44.688  29.016  29.808  1.00  0.00     0.037 A 
ATOM     56  C   UNL A   1      39.590  32.584  30.484  1.00  0.00     0.049 A 
ATOM     57  C   UNL A   1      44.709  30.523  29.727  1.00  0.00     0.074 A 
ATOM     58  C   UNL A   1      40.132  32.471  31.755  1.00  0.00     0.029 A 
ATOM     59  N   UNL A   1      40.619  32.993  29.648  1.00  0.00    -0.354 N 
ATOM     60  N   UNL A   1      43.653  31.270  29.888  1.00  0.00    -0.248 NA
ATOM     61  C   UNL A   1      45.897  31.310  29.409  1.00  0.00     0.031 C 
ATOM     62  C   UNL A   1      41.498  32.818  31.685  1.00  0.00     0.029 A 
ATOM     63  C   UNL A   1      41.790  33.132  30.369  1.00  0.00     0.049 A 
ATOM     64  H   UNL A   1      40.529  33.159  28.682  1.00  0.00     0.167 HD
ATOM     65  C   UNL A   1      43.977  32.587  29.674  1.00  0.00     0.074 A 
ATOM     66  C   UNL A   1      45.401  32.561  29.401  1.00  0.00     0.031 C 
ATOM     67  C   UNL A   1      43.025  33.567  29.736  1.00  0.00     0.037 A 
BRANCH  54  68
ATOM     68  C   UNL A   1      36.989  32.776  30.319  1.00  0.00     0.058 A 
ATOM     69  C   UNL A   1      36.197  33.457  29.366  1.00  0.00     0.135 A 
ATOM     70  C   UNL A   1      36.464  32.763  31.625  1.00  0.00     0.135 A 
ATOM     71  F   UNL A   1      36.513  33.475  28.065  1.00  0.00    -0.206 F 
ATOM     72  C   UNL A   1      35.050  34.173  29.705  1.00  0.00     0.059 A 
ATOM     73  C   UNL A   1      35.341  33.512  31.999  1.00  0.00     0.059 A 
ATOM     74  F   UNL A   1      37.019  32.005  32.583  1.00  0.00    -0.206 F 
ATOM     75  C   UNL A   1      34.650  34.231  31.031  1.00  0.00     0.060 A 
BRANCH  75  76
ATOM     76  S   UNL A   1      33.246  35.277  31.461  1.00  0.00     0.124 S 
ATOM     77  O   UNL A   1      32.657  34.555  32.586  1.00  0.00    -0.237 OA
ATOM     78  O   UNL A   1      33.897  36.541  31.790  1.00  0.00    -0.237 OA
ATOM     79  O   UNL A   1      32.441  35.282  30.244  1.00  0.00    -0.744 OA
ENDBRANCH  75  76
ENDBRANCH  54  68
BRANCH  55  80
ATOM     80  C   UNL A   1      45.306  28.111  28.809  1.00  0.00     0.058 A 
ATOM     81  C   UNL A   1      46.264  27.184  29.258  1.00  0.00     0.135 A 
ATOM     82  C   UNL A   1      44.676  27.864  27.581  1.00  0.00     0.135 A 
ATOM     83  F   UNL A   1      46.910  27.393  30.417  1.00  0.00    -0.206 F 
ATOM     84  C   UNL A   1      46.466  25.978  28.601  1.00  0.00     0.059 A 
ATOM     85  C   UNL A   1      44.867  26.661  26.904  1.00  0.00     0.059 A 
ATOM     86  F   UNL A   1      43.745  28.710  27.119  1.00  0.00    -0.206 F 
ATOM     87  C   UNL A   1      45.711  25.699  27.462  1.00  0.00     0.060 A 
BRANCH  87  88
ATOM     88  S   UNL A   1      45.706  23.999  26.848  1.00  0.00     0.124 S 
ATOM     89  O   UNL A   1      44.891  23.318  27.847  1.00  0.00    -0.237 OA
ATOM     90  O   UNL A   1      45.090  24.168  25.533  1.00  0.00    -0.237 OA
ATOM     91  O   UNL A   1      47.121  23.649  26.837  1.00  0.00    -0.744 OA
ENDBRANCH  87  88
ENDBRANCH  55  80
BRANCH  67  92
ATOM     92  C   UNL A   1      43.162  35.026  29.340  1.00  0.00     0.058 A 
ATOM     93  C   UNL A   1      43.382  36.083  30.240  1.00  0.00     0.135 A 
ATOM     94  C   UNL A   1      43.201  35.393  27.969  1.00  0.00     0.135 A 
ATOM     95  F   UNL A   1      43.486  35.869  31.558  1.00  0.00    -0.206 F 
ATOM     96  C   UNL A   1      43.558  37.406  29.821  1.00  0.00     0.059 A 
ATOM     97  C   UNL A   1      43.429  36.695  27.528  1.00  0.00     0.059 A 
ATOM     98  F   UNL A   1      43.036  34.488  26.992  1.00  0.00    -0.206 F 
ATOM     99  C   UNL A   1      43.581  37.704  28.463  1.00  0.00     0.060 A 
BRANCH  99 100
ATOM    100  S   UNL A   1      43.880  39.395  27.912  1.00  0.00     0.124 S 
ATOM    101  O   UNL A   1      42.573  40.006  28.124  1.00  0.00    -0.237 OA
ATOM    102  O   UNL A   1      44.939  39.846  28.811  1.00  0.00    -0.237 OA
ATOM    103  O   UNL A   1      44.283  39.224  26.520  1.00  0.00    -0.744 OA
ENDBRANCH  99 100
ENDBRANCH  67  92
ENDBRANCH  41  42
ENDBRANCH  33  36
ENDBRANCH  31  32
ENDBRANCH  30  31
ENDBRANCH  29  30
ENDBRANCH   1  29
TORSDOF 19
ENDMDL
