MODEL 1
REMARK VINA RESULT:     -11.9      0.000      0.000
REMARK SMILES O=C(Cc1ccn(-c2ccccc2F)c1)NCCCCCCNC(=O)c1ccc(-c2c3nc(c(-c4c(F)cc(S(=O)(=O)[O-])cc4F)c4ccc([nH]4)c(-c4c(F)cc(S(=O)(=O)[O-])cc4F)c4nc(c(-c5c(F)cc(S(=O)(=O)[O-])cc5F)c5ccc2[nH]5)C=C4)C=C3)cc1
REMARK SMILES IDX 20 1 19 2 18 3 17 4 16 5 1 6 2 7 3 9 4 10 5 11 15 12 6 13
REMARK SMILES IDX 7 14 8 15 9 16 13 17 10 18 12 19 14 20 11 21 21 22 22 23
REMARK SMILES IDX 23 24 24 25 25 27 26 28 27 29 91 30 28 31 90 32 29 33 30 34
REMARK SMILES IDX 31 35 84 36 32 37 89 38 83 39 85 40 33 41 88 42 82 43 81 44
REMARK SMILES IDX 34 46 68 47 47 48 67 49 48 50 51 51 66 52 86 53 49 54 50 55
REMARK SMILES IDX 65 57 87 58 52 59 35 60 36 61 45 62 37 63 38 64 44 65 46 66
REMARK SMILES IDX 39 67 40 68 41 69 42 70 43 71 69 72 70 73 79 74 71 75 72 76
REMARK SMILES IDX 78 77 80 78 73 79 74 80 75 81 76 82 77 83 53 84 54 85 63 86
REMARK SMILES IDX 55 87 56 88 62 89 64 90 57 91 58 92 59 93 60 94 61 95
REMARK H PARENT 16 8 23 26 85 45 51 56
REMARK Flexibility Score: inf
ROOT
ATOM      1  C   UNL A   1      42.221  38.874  28.176  1.00  0.00     0.002 C 
ENDROOT
BRANCH   1   2
ATOM      2  C   UNL A   1      41.624  39.553  26.938  1.00  0.00     0.002 C 
BRANCH   2   3
ATOM      3  C   UNL A   1      42.496  40.646  26.303  1.00  0.00     0.021 C 
BRANCH   3   4
ATOM      4  C   UNL A   1      41.880  41.331  25.084  1.00  0.00     0.116 C 
BRANCH   4   5
ATOM      5  N   UNL A   1      42.905  41.786  24.170  1.00  0.00    -0.356 N 
ATOM      6  O   UNL A   1      41.669  43.413  23.116  1.00  0.00    -0.275 OA
ATOM      7  C   UNL A   1      42.713  42.780  23.236  1.00  0.00     0.224 C 
ATOM      8  H   UNL A   1      43.792  41.360  24.220  1.00  0.00     0.163 HD
BRANCH   7   9
ATOM      9  C   UNL A   1      43.901  42.982  22.312  1.00  0.00     0.137 C 
BRANCH   9  10
ATOM     10  C   UNL A   1      43.504  43.396  20.930  1.00  0.00    -0.021 A 
ATOM     11  C   UNL A   1      42.746  42.650  19.989  1.00  0.00     0.024 A 
ATOM     12  C   UNL A   1      43.776  44.611  20.328  1.00  0.00     0.095 A 
ATOM     13  C   UNL A   1      42.553  43.445  18.883  1.00  0.00     0.091 A 
ATOM     14  N   UNL A   1      43.176  44.660  19.087  1.00  0.00    -0.321 N 
BRANCH  14  15
ATOM     15  C   UNL A   1      43.156  45.764  18.200  1.00  0.00     0.081 A 
ATOM     16  C   UNL A   1      44.365  46.313  17.745  1.00  0.00     0.030 A 
ATOM     17  C   UNL A   1      41.949  46.305  17.755  1.00  0.00     0.147 A 
ATOM     18  C   UNL A   1      44.351  47.379  16.841  1.00  0.00     0.002 A 
ATOM     19  C   UNL A   1      41.937  47.389  16.879  1.00  0.00     0.041 A 
ATOM     20  F   UNL A   1      40.768  45.853  18.201  1.00  0.00    -0.205 F 
ATOM     21  C   UNL A   1      43.140  47.922  16.415  1.00  0.00     0.003 A 
ENDBRANCH  14  15
ENDBRANCH   9  10
ENDBRANCH   7   9
ENDBRANCH   4   5
ENDBRANCH   3   4
ENDBRANCH   2   3
ENDBRANCH   1   2
BRANCH   1  22
ATOM     22  C   UNL A   1      43.352  39.652  28.864  1.00  0.00     0.021 C 
BRANCH  22  23
ATOM     23  C   UNL A   1      43.624  39.216  30.308  1.00  0.00     0.116 C 
BRANCH  23  24
ATOM     24  N   UNL A   1      44.988  38.736  30.452  1.00  0.00    -0.352 N 
ATOM     25  C   UNL A   1      45.466  37.470  30.671  1.00  0.00     0.251 C 
ATOM     26  H   UNL A   1      45.680  39.432  30.380  1.00  0.00     0.163 HD
ATOM     27  O   UNL A   1      46.597  37.349  31.132  1.00  0.00    -0.269 OA
BRANCH  25  28
ATOM     28  C   UNL A   1      44.667  36.257  30.378  1.00  0.00     0.039 A 
ATOM     29  C   UNL A   1      44.491  35.334  31.420  1.00  0.00     0.014 A 
ATOM     30  C   UNL A   1      44.192  35.954  29.097  1.00  0.00     0.014 A 
ATOM     31  C   UNL A   1      43.797  34.147  31.198  1.00  0.00     0.010 A 
ATOM     32  C   UNL A   1      43.489  34.768  28.870  1.00  0.00     0.010 A 
ATOM     33  C   UNL A   1      43.269  33.877  29.928  1.00  0.00    -0.014 A 
BRANCH  33  34
ATOM     34  C   UNL A   1      42.283  32.772  29.803  1.00  0.00     0.031 A 
ATOM     35  C   UNL A   1      42.887  31.582  29.004  1.00  0.00     0.074 A 
ATOM     36  C   UNL A   1      41.035  32.972  30.338  1.00  0.00     0.049 A 
ATOM     37  N   UNL A   1      42.303  30.661  28.302  1.00  0.00    -0.248 NA
ATOM     38  C   UNL A   1      44.371  31.440  28.913  1.00  0.00     0.031 C 
ATOM     39  C   UNL A   1      40.638  34.165  31.124  1.00  0.00     0.029 A 
ATOM     40  N   UNL A   1      39.854  32.249  30.348  1.00  0.00    -0.354 N 
ATOM     41  C   UNL A   1      43.294  29.733  27.887  1.00  0.00     0.074 A 
ATOM     42  C   UNL A   1      44.555  30.330  28.191  1.00  0.00     0.031 C 
ATOM     43  C   UNL A   1      39.324  34.126  31.441  1.00  0.00     0.029 A 
ATOM     44  C   UNL A   1      38.727  32.908  30.930  1.00  0.00     0.049 A 
ATOM     45  H   UNL A   1      39.795  31.338  29.978  1.00  0.00     0.167 HD
ATOM     46  C   UNL A   1      43.001  28.475  27.433  1.00  0.00     0.037 A 
ATOM     47  C   UNL A   1      37.409  32.518  30.963  1.00  0.00     0.037 A 
ATOM     48  C   UNL A   1      41.590  28.302  27.426  1.00  0.00     0.049 A 
ATOM     49  C   UNL A   1      37.414  31.134  30.473  1.00  0.00     0.074 A 
ATOM     50  C   UNL A   1      40.617  28.813  26.610  1.00  0.00     0.029 A 
ATOM     51  N   UNL A   1      41.022  27.821  28.581  1.00  0.00    -0.354 N 
ATOM     52  N   UNL A   1      37.855  30.115  31.148  1.00  0.00    -0.248 NA
ATOM     53  C   UNL A   1      36.968  30.867  29.100  1.00  0.00     0.031 C 
ATOM     54  C   UNL A   1      39.565  29.075  27.504  1.00  0.00     0.029 A 
ATOM     55  C   UNL A   1      39.833  28.481  28.746  1.00  0.00     0.049 A 
ATOM     56  H   UNL A   1      41.398  27.133  29.177  1.00  0.00     0.167 HD
ATOM     57  C   UNL A   1      38.064  29.186  30.161  1.00  0.00     0.074 A 
ATOM     58  C   UNL A   1      37.212  29.561  29.052  1.00  0.00     0.031 C 
ATOM     59  C   UNL A   1      39.275  28.580  30.074  1.00  0.00     0.037 A 
BRANCH  46  60
ATOM     60  C   UNL A   1      43.821  27.238  27.170  1.00  0.00     0.058 A 
ATOM     61  C   UNL A   1      44.135  26.283  28.144  1.00  0.00     0.135 A 
ATOM     62  C   UNL A   1      43.976  26.823  25.819  1.00  0.00     0.135 A 
ATOM     63  F   UNL A   1      44.049  26.578  29.448  1.00  0.00    -0.206 F 
ATOM     64  C   UNL A   1      44.472  24.967  27.804  1.00  0.00     0.059 A 
ATOM     65  C   UNL A   1      44.267  25.510  25.459  1.00  0.00     0.059 A 
ATOM     66  F   UNL A   1      43.771  27.682  24.806  1.00  0.00    -0.206 F 
ATOM     67  C   UNL A   1      44.487  24.579  26.462  1.00  0.00     0.060 A 
BRANCH  67  68
ATOM     68  S   UNL A   1      44.703  22.834  26.039  1.00  0.00     0.124 S 
ATOM     69  O   UNL A   1      46.023  22.558  26.592  1.00  0.00    -0.237 OA
ATOM     70  O   UNL A   1      43.579  22.207  26.726  1.00  0.00    -0.237 OA
ATOM     71  O   UNL A   1      44.622  22.824  24.581  1.00  0.00    -0.744 OA
ENDBRANCH  67  68
ENDBRANCH  46  60
BRANCH  47  72
ATOM     72  C   UNL A   1      36.029  33.102  31.247  1.00  0.00     0.058 A 
ATOM     73  C   UNL A   1      35.413  33.950  30.274  1.00  0.00     0.135 A 
ATOM     74  C   UNL A   1      35.316  33.026  32.450  1.00  0.00     0.135 A 
ATOM     75  F   UNL A   1      35.822  33.986  29.000  1.00  0.00    -0.206 F 
ATOM     76  C   UNL A   1      34.375  34.836  30.551  1.00  0.00     0.059 A 
ATOM     77  C   UNL A   1      34.215  33.864  32.734  1.00  0.00     0.059 A 
ATOM     78  F   UNL A   1      35.659  32.145  33.397  1.00  0.00    -0.206 F 
ATOM     79  C   UNL A   1      33.817  34.830  31.810  1.00  0.00     0.060 A 
BRANCH  79  80
ATOM     80  S   UNL A   1      32.624  36.124  32.209  1.00  0.00     0.124 S 
ATOM     81  O   UNL A   1      32.527  36.829  30.933  1.00  0.00    -0.237 OA
ATOM     82  O   UNL A   1      31.439  35.364  32.597  1.00  0.00    -0.237 OA
ATOM     83  O   UNL A   1      33.272  36.863  33.287  1.00  0.00    -0.744 OA
ENDBRANCH  79  80
ENDBRANCH  47  72
BRANCH  59  84
ATOM     84  C   UNL A   1      40.023  28.452  31.392  1.00  0.00     0.058 A 
ATOM     85  C   UNL A   1      41.234  29.099  31.691  1.00  0.00     0.135 A 
ATOM     86  C   UNL A   1      39.453  27.715  32.445  1.00  0.00     0.135 A 
ATOM     87  F   UNL A   1      41.858  29.833  30.768  1.00  0.00    -0.206 F 
ATOM     88  C   UNL A   1      41.852  29.022  32.944  1.00  0.00     0.059 A 
ATOM     89  C   UNL A   1      40.042  27.627  33.711  1.00  0.00     0.059 A 
ATOM     90  F   UNL A   1      38.300  27.054  32.248  1.00  0.00    -0.206 F 
ATOM     91  C   UNL A   1      41.245  28.285  33.953  1.00  0.00     0.060 A 
BRANCH  91  92
ATOM     92  S   UNL A   1      42.066  28.165  35.561  1.00  0.00     0.124 S 
ATOM     93  O   UNL A   1      41.048  28.691  36.467  1.00  0.00    -0.237 OA
ATOM     94  O   UNL A   1      42.323  26.733  35.676  1.00  0.00    -0.237 OA
ATOM     95  O   UNL A   1      43.251  29.002  35.406  1.00  0.00    -0.744 OA
ENDBRANCH  91  92
ENDBRANCH  59  84
ENDBRANCH  33  34
ENDBRANCH  25  28
ENDBRANCH  23  24
ENDBRANCH  22  23
ENDBRANCH   1  22
TORSDOF 18
ENDMDL
MODEL 2
REMARK VINA RESULT:     -11.8      7.799     10.942
REMARK SMILES O=C(Cc1ccn(-c2ccccc2F)c1)NCCCCCCNC(=O)c1ccc(-c2c3nc(c(-c4c(F)cc(S(=O)(=O)[O-])cc4F)c4ccc([nH]4)c(-c4c(F)cc(S(=O)(=O)[O-])cc4F)c4nc(c(-c5c(F)cc(S(=O)(=O)[O-])cc5F)c5ccc2[nH]5)C=C4)C=C3)cc1
REMARK SMILES IDX 20 1 19 2 18 3 17 4 16 5 1 6 2 7 3 9 4 10 5 11 15 12 6 13
REMARK SMILES IDX 7 14 8 15 9 16 13 17 10 18 12 19 14 20 11 21 21 22 22 23
REMARK SMILES IDX 23 24 24 25 25 27 26 28 27 29 91 30 28 31 90 32 29 33 30 34
REMARK SMILES IDX 31 35 84 36 32 37 89 38 83 39 85 40 33 41 88 42 82 43 81 44
REMARK SMILES IDX 34 46 68 47 47 48 67 49 48 50 51 51 66 52 86 53 49 54 50 55
REMARK SMILES IDX 65 57 87 58 52 59 35 60 36 61 45 62 37 63 38 64 44 65 46 66
REMARK SMILES IDX 39 67 40 68 41 69 42 70 43 71 69 72 70 73 79 74 71 75 72 76
REMARK SMILES IDX 78 77 80 78 73 79 74 80 75 81 76 82 77 83 53 84 54 85 63 86
REMARK SMILES IDX 55 87 56 88 62 89 64 90 57 91 58 92 59 93 60 94 61 95
REMARK H PARENT 16 8 23 26 85 45 51 56
REMARK Flexibility Score: inf
ROOT
ATOM      1  C   UNL A   1      38.591  33.540  29.130  1.00  0.00     0.002 C 
ENDROOT
BRANCH   1   2
ATOM      2  C   UNL A   1      39.396  32.907  30.271  1.00  0.00     0.002 C 
BRANCH   2   3
ATOM      3  C   UNL A   1      40.752  33.567  30.563  1.00  0.00     0.021 C 
BRANCH   3   4
ATOM      4  C   UNL A   1      41.315  33.287  31.957  1.00  0.00     0.116 C 
BRANCH   4   5
ATOM      5  N   UNL A   1      40.512  33.923  32.978  1.00  0.00    -0.356 N 
ATOM      6  O   UNL A   1      39.482  32.028  33.775  1.00  0.00    -0.275 OA
ATOM      7  C   UNL A   1      39.635  33.245  33.797  1.00  0.00     0.224 C 
ATOM      8  H   UNL A   1      40.597  34.898  33.095  1.00  0.00     0.163 HD
BRANCH   7   9
ATOM      9  C   UNL A   1      38.817  34.156  34.694  1.00  0.00     0.137 C 
BRANCH   9  10
ATOM     10  C   UNL A   1      37.369  34.201  34.318  1.00  0.00    -0.021 A 
ATOM     11  C   UNL A   1      36.272  33.656  35.038  1.00  0.00     0.024 A 
ATOM     12  C   UNL A   1      36.829  34.821  33.206  1.00  0.00     0.095 A 
ATOM     13  C   UNL A   1      35.121  33.999  34.366  1.00  0.00     0.091 A 
ATOM     14  N   UNL A   1      35.454  34.726  33.241  1.00  0.00    -0.321 N 
BRANCH  14  15
ATOM     15  C   UNL A   1      34.542  35.304  32.325  1.00  0.00     0.081 A 
ATOM     16  C   UNL A   1      34.189  34.606  31.160  1.00  0.00     0.030 A 
ATOM     17  C   UNL A   1      33.973  36.555  32.571  1.00  0.00     0.147 A 
ATOM     18  C   UNL A   1      33.262  35.155  30.271  1.00  0.00     0.002 A 
ATOM     19  C   UNL A   1      33.074  37.116  31.667  1.00  0.00     0.041 A 
ATOM     20  F   UNL A   1      34.318  37.287  33.640  1.00  0.00    -0.205 F 
ATOM     21  C   UNL A   1      32.710  36.412  30.518  1.00  0.00     0.003 A 
ENDBRANCH  14  15
ENDBRANCH   9  10
ENDBRANCH   7   9
ENDBRANCH   4   5
ENDBRANCH   3   4
ENDBRANCH   2   3
ENDBRANCH   1   2
BRANCH   1  22
ATOM     22  C   UNL A   1      37.107  33.785  29.437  1.00  0.00     0.021 C 
BRANCH  22  23
ATOM     23  C   UNL A   1      36.396  32.590  30.081  1.00  0.00     0.116 C 
BRANCH  23  24
ATOM     24  N   UNL A   1      35.651  31.837  29.085  1.00  0.00    -0.352 N 
ATOM     25  C   UNL A   1      36.033  30.776  28.305  1.00  0.00     0.251 C 
ATOM     26  H   UNL A   1      34.725  32.138  28.948  1.00  0.00     0.163 HD
ATOM     27  O   UNL A   1      35.391  30.546  27.285  1.00  0.00    -0.269 OA
BRANCH  25  28
ATOM     28  C   UNL A   1      37.187  29.912  28.648  1.00  0.00     0.039 A 
ATOM     29  C   UNL A   1      38.325  30.002  27.833  1.00  0.00     0.014 A 
ATOM     30  C   UNL A   1      37.138  28.950  29.664  1.00  0.00     0.014 A 
ATOM     31  C   UNL A   1      39.424  29.180  28.067  1.00  0.00     0.010 A 
ATOM     32  C   UNL A   1      38.241  28.128  29.908  1.00  0.00     0.010 A 
ATOM     33  C   UNL A   1      39.394  28.261  29.124  1.00  0.00    -0.014 A 
BRANCH  33  34
ATOM     34  C   UNL A   1      40.675  27.630  29.538  1.00  0.00     0.031 A 
ATOM     35  C   UNL A   1      40.953  26.350  28.700  1.00  0.00     0.074 A 
ATOM     36  C   UNL A   1      41.361  28.209  30.575  1.00  0.00     0.049 A 
ATOM     37  N   UNL A   1      41.654  25.297  28.985  1.00  0.00    -0.248 NA
ATOM     38  C   UNL A   1      40.288  26.184  27.372  1.00  0.00     0.031 C 
ATOM     39  C   UNL A   1      40.973  29.477  31.237  1.00  0.00     0.029 A 
ATOM     40  N   UNL A   1      42.503  27.882  31.288  1.00  0.00    -0.354 N 
ATOM     41  C   UNL A   1      41.701  24.475  27.828  1.00  0.00     0.074 A 
ATOM     42  C   UNL A   1      40.746  25.015  26.915  1.00  0.00     0.031 C 
ATOM     43  C   UNL A   1      41.784  29.751  32.284  1.00  0.00     0.029 A 
ATOM     44  C   UNL A   1      42.799  28.722  32.406  1.00  0.00     0.049 A 
ATOM     45  H   UNL A   1      43.074  27.119  31.040  1.00  0.00     0.167 HD
ATOM     46  C   UNL A   1      42.618  23.474  27.656  1.00  0.00     0.037 A 
ATOM     47  C   UNL A   1      43.763  28.577  33.375  1.00  0.00     0.037 A 
ATOM     48  C   UNL A   1      43.446  23.399  28.809  1.00  0.00     0.049 A 
ATOM     49  C   UNL A   1      44.615  27.480  32.898  1.00  0.00     0.074 A 
ATOM     50  C   UNL A   1      43.201  22.942  30.075  1.00  0.00     0.029 A 
ATOM     51  N   UNL A   1      44.574  24.186  28.809  1.00  0.00    -0.354 N 
ATOM     52  N   UNL A   1      45.454  27.576  31.911  1.00  0.00    -0.248 NA
ATOM     53  C   UNL A   1      44.471  26.154  33.511  1.00  0.00     0.031 C 
ATOM     54  C   UNL A   1      43.892  23.863  30.880  1.00  0.00     0.029 A 
ATOM     55  C   UNL A   1      44.727  24.661  30.085  1.00  0.00     0.049 A 
ATOM     56  H   UNL A   1      45.159  24.372  28.040  1.00  0.00     0.167 HD
ATOM     57  C   UNL A   1      45.651  26.261  31.575  1.00  0.00     0.074 A 
ATOM     58  C   UNL A   1      45.327  25.479  32.750  1.00  0.00     0.031 C 
ATOM     59  C   UNL A   1      45.477  25.879  30.283  1.00  0.00     0.037 A 
BRANCH  46  60
ATOM     60  C   UNL A   1      43.048  22.637  26.478  1.00  0.00     0.058 A 
ATOM     61  C   UNL A   1      44.139  22.942  25.655  1.00  0.00     0.135 A 
ATOM     62  C   UNL A   1      42.570  21.300  26.406  1.00  0.00     0.135 A 
ATOM     63  F   UNL A   1      44.653  24.180  25.625  1.00  0.00    -0.206 F 
ATOM     64  C   UNL A   1      44.787  21.959  24.897  1.00  0.00     0.059 A 
ATOM     65  C   UNL A   1      43.224  20.299  25.694  1.00  0.00     0.059 A 
ATOM     66  F   UNL A   1      41.482  20.919  27.099  1.00  0.00    -0.206 F 
ATOM     67  C   UNL A   1      44.352  20.633  24.961  1.00  0.00     0.060 A 
BRANCH  67  68
ATOM     68  S   UNL A   1      45.322  19.334  24.161  1.00  0.00     0.124 S 
ATOM     69  O   UNL A   1      44.694  19.265  22.846  1.00  0.00    -0.237 OA
ATOM     70  O   UNL A   1      46.671  19.889  24.194  1.00  0.00    -0.237 OA
ATOM     71  O   UNL A   1      45.109  18.171  25.017  1.00  0.00    -0.744 OA
ENDBRANCH  67  68
ENDBRANCH  46  60
BRANCH  47  72
ATOM     72  C   UNL A   1      44.118  29.123  34.754  1.00  0.00     0.058 A 
ATOM     73  C   UNL A   1      43.209  28.929  35.841  1.00  0.00     0.135 A 
ATOM     74  C   UNL A   1      45.203  29.948  35.078  1.00  0.00     0.135 A 
ATOM     75  F   UNL A   1      42.234  28.012  35.797  1.00  0.00    -0.206 F 
ATOM     76  C   UNL A   1      43.214  29.681  37.012  1.00  0.00     0.059 A 
ATOM     77  C   UNL A   1      45.271  30.672  36.288  1.00  0.00     0.059 A 
ATOM     78  F   UNL A   1      46.233  30.090  34.234  1.00  0.00    -0.206 F 
ATOM     79  C   UNL A   1      44.221  30.601  37.204  1.00  0.00     0.060 A 
BRANCH  79  80
ATOM     80  S   UNL A   1      44.092  31.709  38.623  1.00  0.00     0.124 S 
ATOM     81  O   UNL A   1      42.687  31.547  38.987  1.00  0.00    -0.237 OA
ATOM     82  O   UNL A   1      45.053  31.142  39.566  1.00  0.00    -0.237 OA
ATOM     83  O   UNL A   1      44.453  33.010  38.072  1.00  0.00    -0.744 OA
ENDBRANCH  79  80
ENDBRANCH  47  72
BRANCH  59  84
ATOM     84  C   UNL A   1      45.751  26.963  29.253  1.00  0.00     0.058 A 
ATOM     85  C   UNL A   1      44.771  27.561  28.442  1.00  0.00     0.135 A 
ATOM     86  C   UNL A   1      47.046  27.497  29.133  1.00  0.00     0.135 A 
ATOM     87  F   UNL A   1      43.507  27.140  28.482  1.00  0.00    -0.206 F 
ATOM     88  C   UNL A   1      45.047  28.614  27.562  1.00  0.00     0.059 A 
ATOM     89  C   UNL A   1      47.351  28.555  28.269  1.00  0.00     0.059 A 
ATOM     90  F   UNL A   1      48.050  26.980  29.862  1.00  0.00    -0.206 F 
ATOM     91  C   UNL A   1      46.343  29.109  27.485  1.00  0.00     0.060 A 
BRANCH  91  92
ATOM     92  S   UNL A   1      46.697  30.449  26.322  1.00  0.00     0.124 S 
ATOM     93  O   UNL A   1      46.450  29.811  25.032  1.00  0.00    -0.237 OA
ATOM     94  O   UNL A   1      45.726  31.467  26.712  1.00  0.00    -0.237 OA
ATOM     95  O   UNL A   1      48.092  30.782  26.593  1.00  0.00    -0.744 OA
ENDBRANCH  91  92
ENDBRANCH  59  84
ENDBRANCH  33  34
ENDBRANCH  25  28
ENDBRANCH  23  24
ENDBRANCH  22  23
ENDBRANCH   1  22
TORSDOF 18
ENDMDL
MODEL 3
REMARK VINA RESULT:     -11.7      7.450     14.001
REMARK SMILES O=C(Cc1ccn(-c2ccccc2F)c1)NCCCCCCNC(=O)c1ccc(-c2c3nc(c(-c4c(F)cc(S(=O)(=O)[O-])cc4F)c4ccc([nH]4)c(-c4c(F)cc(S(=O)(=O)[O-])cc4F)c4nc(c(-c5c(F)cc(S(=O)(=O)[O-])cc5F)c5ccc2[nH]5)C=C4)C=C3)cc1
REMARK SMILES IDX 20 1 19 2 18 3 17 4 16 5 1 6 2 7 3 9 4 10 5 11 15 12 6 13
REMARK SMILES IDX 7 14 8 15 9 16 13 17 10 18 12 19 14 20 11 21 21 22 22 23
REMARK SMILES IDX 23 24 24 25 25 27 26 28 27 29 91 30 28 31 90 32 29 33 30 34
REMARK SMILES IDX 31 35 84 36 32 37 89 38 83 39 85 40 33 41 88 42 82 43 81 44
REMARK SMILES IDX 34 46 68 47 47 48 67 49 48 50 51 51 66 52 86 53 49 54 50 55
REMARK SMILES IDX 65 57 87 58 52 59 35 60 36 61 45 62 37 63 38 64 44 65 46 66
REMARK SMILES IDX 39 67 40 68 41 69 42 70 43 71 69 72 70 73 79 74 71 75 72 76
REMARK SMILES IDX 78 77 80 78 73 79 74 80 75 81 76 82 77 83 53 84 54 85 63 86
REMARK SMILES IDX 55 87 56 88 62 89 64 90 57 91 58 92 59 93 60 94 61 95
REMARK H PARENT 16 8 23 26 85 45 51 56
REMARK Flexibility Score: inf
ROOT
ATOM      1  C   UNL A   1      32.003  28.582  26.168  1.00  0.00     0.002 C 
ENDROOT
BRANCH   1   2
ATOM      2  C   UNL A   1      33.117  28.506  25.118  1.00  0.00     0.002 C 
BRANCH   2   3
ATOM      3  C   UNL A   1      32.734  29.005  23.717  1.00  0.00     0.021 C 
BRANCH   3   4
ATOM      4  C   UNL A   1      33.137  28.075  22.572  1.00  0.00     0.116 C 
BRANCH   4   5
ATOM      5  N   UNL A   1      33.089  26.690  22.988  1.00  0.00    -0.356 N 
ATOM      6  O   UNL A   1      33.405  25.744  20.916  1.00  0.00    -0.275 OA
ATOM      7  C   UNL A   1      33.204  25.626  22.121  1.00  0.00     0.224 C 
ATOM      8  H   UNL A   1      32.968  26.497  23.946  1.00  0.00     0.163 HD
BRANCH   7   9
ATOM      9  C   UNL A   1      32.990  24.277  22.784  1.00  0.00     0.137 C 
BRANCH   9  10
ATOM     10  C   UNL A   1      33.897  24.050  23.954  1.00  0.00    -0.021 A 
ATOM     11  C   UNL A   1      33.566  24.139  25.332  1.00  0.00     0.024 A 
ATOM     12  C   UNL A   1      35.226  23.671  23.900  1.00  0.00     0.095 A 
ATOM     13  C   UNL A   1      34.681  23.775  26.053  1.00  0.00     0.091 A 
ATOM     14  N   UNL A   1      35.705  23.476  25.178  1.00  0.00    -0.321 N 
BRANCH  14  15
ATOM     15  C   UNL A   1      36.993  23.007  25.536  1.00  0.00     0.081 A 
ATOM     16  C   UNL A   1      37.882  23.860  26.207  1.00  0.00     0.030 A 
ATOM     17  C   UNL A   1      37.387  21.699  25.246  1.00  0.00     0.147 A 
ATOM     18  C   UNL A   1      39.140  23.392  26.595  1.00  0.00     0.002 A 
ATOM     19  C   UNL A   1      38.654  21.245  25.604  1.00  0.00     0.041 A 
ATOM     20  F   UNL A   1      36.597  20.863  24.558  1.00  0.00    -0.205 F 
ATOM     21  C   UNL A   1      39.531  22.088  26.287  1.00  0.00     0.003 A 
ENDBRANCH  14  15
ENDBRANCH   9  10
ENDBRANCH   7   9
ENDBRANCH   4   5
ENDBRANCH   3   4
ENDBRANCH   2   3
ENDBRANCH   1   2
BRANCH   1  22
ATOM     22  C   UNL A   1      32.189  29.668  27.238  1.00  0.00     0.021 C 
BRANCH  22  23
ATOM     23  C   UNL A   1      33.583  30.304  27.249  1.00  0.00     0.116 C 
BRANCH  23  24
ATOM     24  N   UNL A   1      33.605  31.479  28.104  1.00  0.00    -0.352 N 
ATOM     25  C   UNL A   1      34.456  31.819  29.124  1.00  0.00     0.251 C 
ATOM     26  H   UNL A   1      32.896  32.136  27.921  1.00  0.00     0.163 HD
ATOM     27  O   UNL A   1      34.074  32.649  29.944  1.00  0.00    -0.269 OA
BRANCH  25  28
ATOM     28  C   UNL A   1      35.803  31.220  29.269  1.00  0.00     0.039 A 
ATOM     29  C   UNL A   1      36.616  31.177  28.127  1.00  0.00     0.014 A 
ATOM     30  C   UNL A   1      36.236  30.606  30.451  1.00  0.00     0.014 A 
ATOM     31  C   UNL A   1      37.873  30.579  28.180  1.00  0.00     0.010 A 
ATOM     32  C   UNL A   1      37.498  30.011  30.511  1.00  0.00     0.010 A 
ATOM     33  C   UNL A   1      38.327  30.021  29.382  1.00  0.00    -0.014 A 
BRANCH  33  34
ATOM     34  C   UNL A   1      39.769  29.675  29.491  1.00  0.00     0.031 A 
ATOM     35  C   UNL A   1      40.589  30.892  30.004  1.00  0.00     0.074 A 
ATOM     36  C   UNL A   1      40.151  28.418  29.096  1.00  0.00     0.049 A 
ATOM     37  N   UNL A   1      41.840  31.192  29.835  1.00  0.00    -0.248 NA
ATOM     38  C   UNL A   1      39.894  31.979  30.758  1.00  0.00     0.031 C 
ATOM     39  C   UNL A   1      39.216  27.348  28.674  1.00  0.00     0.029 A 
ATOM     40  N   UNL A   1      41.367  27.768  28.963  1.00  0.00    -0.354 N 
ATOM     41  C   UNL A   1      42.125  32.339  30.621  1.00  0.00     0.074 A 
ATOM     42  C   UNL A   1      40.866  32.843  31.066  1.00  0.00     0.031 C 
ATOM     43  C   UNL A   1      39.885  26.250  28.254  1.00  0.00     0.029 A 
ATOM     44  C   UNL A   1      41.314  26.465  28.379  1.00  0.00     0.049 A 
ATOM     45  H   UNL A   1      42.214  28.178  29.252  1.00  0.00     0.167 HD
ATOM     46  C   UNL A   1      43.396  32.724  30.953  1.00  0.00     0.037 A 
ATOM     47  C   UNL A   1      42.343  25.640  27.992  1.00  0.00     0.037 A 
ATOM     48  C   UNL A   1      44.323  31.821  30.364  1.00  0.00     0.049 A 
ATOM     49  C   UNL A   1      43.556  26.275  28.524  1.00  0.00     0.074 A 
ATOM     50  C   UNL A   1      44.725  31.651  29.067  1.00  0.00     0.029 A 
ATOM     51  N   UNL A   1      44.659  30.713  31.104  1.00  0.00    -0.354 N 
ATOM     52  N   UNL A   1      43.886  26.293  29.780  1.00  0.00    -0.248 NA
ATOM     53  C   UNL A   1      44.430  27.013  27.604  1.00  0.00     0.031 C 
ATOM     54  C   UNL A   1      44.840  30.255  28.956  1.00  0.00     0.029 A 
ATOM     55  C   UNL A   1      44.768  29.666  30.226  1.00  0.00     0.049 A 
ATOM     56  H   UNL A   1      44.796  30.678  32.078  1.00  0.00     0.167 HD
ATOM     57  C   UNL A   1      44.785  27.327  29.824  1.00  0.00     0.074 A 
ATOM     58  C   UNL A   1      45.313  27.476  28.484  1.00  0.00     0.031 C 
ATOM     59  C   UNL A   1      44.599  28.323  30.728  1.00  0.00     0.037 A 
BRANCH  46  60
ATOM     60  C   UNL A   1      43.969  33.711  31.937  1.00  0.00     0.058 A 
ATOM     61  C   UNL A   1      44.381  35.006  31.599  1.00  0.00     0.135 A 
ATOM     62  C   UNL A   1      43.751  33.470  33.321  1.00  0.00     0.135 A 
ATOM     63  F   UNL A   1      44.640  35.335  30.327  1.00  0.00    -0.206 F 
ATOM     64  C   UNL A   1      44.461  36.026  32.556  1.00  0.00     0.059 A 
ATOM     65  C   UNL A   1      43.782  34.477  34.280  1.00  0.00     0.059 A 
ATOM     66  F   UNL A   1      43.424  32.243  33.762  1.00  0.00    -0.206 F 
ATOM     67  C   UNL A   1      44.113  35.763  33.883  1.00  0.00     0.060 A 
BRANCH  67  68
ATOM     68  S   UNL A   1      44.002  37.127  35.065  1.00  0.00     0.124 S 
ATOM     69  O   UNL A   1      44.074  38.287  34.184  1.00  0.00    -0.237 OA
ATOM     70  O   UNL A   1      42.710  36.886  35.697  1.00  0.00    -0.237 OA
ATOM     71  O   UNL A   1      45.163  36.925  35.928  1.00  0.00    -0.744 OA
ENDBRANCH  67  68
ENDBRANCH  46  60
BRANCH  47  72
ATOM     72  C   UNL A   1      42.581  24.396  27.141  1.00  0.00     0.058 A 
ATOM     73  C   UNL A   1      42.856  23.148  27.784  1.00  0.00     0.135 A 
ATOM     74  C   UNL A   1      42.707  24.343  25.747  1.00  0.00     0.135 A 
ATOM     75  F   UNL A   1      42.584  22.940  29.079  1.00  0.00    -0.206 F 
ATOM     76  C   UNL A   1      43.458  22.060  27.159  1.00  0.00     0.059 A 
ATOM     77  C   UNL A   1      43.252  23.225  25.077  1.00  0.00     0.059 A 
ATOM     78  F   UNL A   1      42.318  25.370  24.983  1.00  0.00    -0.206 F 
ATOM     79  C   UNL A   1      43.710  22.129  25.807  1.00  0.00     0.060 A 
BRANCH  79  80
ATOM     80  S   UNL A   1      44.679  20.800  25.061  1.00  0.00     0.124 S 
ATOM     81  O   UNL A   1      44.466  21.053  23.639  1.00  0.00    -0.237 OA
ATOM     82  O   UNL A   1      46.028  21.069  25.551  1.00  0.00    -0.237 OA
ATOM     83  O   UNL A   1      44.055  19.591  25.585  1.00  0.00    -0.744 OA
ENDBRANCH  79  80
ENDBRANCH  47  72
BRANCH  59  84
ATOM     84  C   UNL A   1      43.876  27.905  31.999  1.00  0.00     0.058 A 
ATOM     85  C   UNL A   1      42.564  28.284  32.334  1.00  0.00     0.135 A 
ATOM     86  C   UNL A   1      44.493  27.007  32.886  1.00  0.00     0.135 A 
ATOM     87  F   UNL A   1      41.881  29.125  31.559  1.00  0.00    -0.206 F 
ATOM     88  C   UNL A   1      41.902  27.814  33.475  1.00  0.00     0.059 A 
ATOM     89  C   UNL A   1      43.854  26.512  34.029  1.00  0.00     0.059 A 
ATOM     90  F   UNL A   1      45.752  26.597  32.652  1.00  0.00    -0.206 F 
ATOM     91  C   UNL A   1      42.555  26.922  34.317  1.00  0.00     0.060 A 
BRANCH  91  92
ATOM     92  S   UNL A   1      41.703  26.344  35.804  1.00  0.00     0.124 S 
ATOM     93  O   UNL A   1      40.586  25.587  35.245  1.00  0.00    -0.237 OA
ATOM     94  O   UNL A   1      42.731  25.543  36.463  1.00  0.00    -0.237 OA
ATOM     95  O   UNL A   1      41.335  27.576  36.493  1.00  0.00    -0.744 OA
ENDBRANCH  91  92
ENDBRANCH  59  84
ENDBRANCH  33  34
ENDBRANCH  25  28
ENDBRANCH  23  24
ENDBRANCH  22  23
ENDBRANCH   1  22
TORSDOF 18
ENDMDL
