MODEL 1
REMARK VINA RESULT:     -10.7      0.000      0.000
REMARK SMILES C#CC[N@@H+](CC(=O)NCCCCCCNC(=O)c1ccc(-c2c3nc(c(-c4c(F)cc(S(=O)(=O)[O-])cc4F)c4ccc([nH]4)c(-c4c(F)cc(S(=O)(=O)[O-])cc4F)c4nc(c(-c5c(F)cc(S(=O)(=O)[O-])cc5F)c5ccc2[nH]5)C=C4)C=C3)cc1)Cc1cn(CC)c2ccccc12
REMARK SMILES IDX 11 1 10 2 9 3 8 4 6 5 7 6 5 8 4 9 3 11 2 12 1 13 84 14 85 15
REMARK SMILES IDX 86 16 95 17 87 18 90 19 94 20 91 21 93 22 92 23 88 24 89 25
REMARK SMILES IDX 12 26 13 27 14 28 15 29 16 30 17 32 18 33 19 34 83 35 20 36
REMARK SMILES IDX 82 37 21 38 22 39 23 40 76 41 24 42 81 43 75 44 77 45 25 46
REMARK SMILES IDX 80 47 74 48 73 49 26 51 60 52 39 53 59 54 40 55 43 56 58 57
REMARK SMILES IDX 78 58 41 59 42 60 57 62 79 63 44 64 27 65 28 66 37 67 29 68
REMARK SMILES IDX 30 69 36 70 38 71 31 72 32 73 33 74 34 75 35 76 61 77 62 78
REMARK SMILES IDX 71 79 63 80 64 81 70 82 72 83 65 84 66 85 67 86 68 87 69 88
REMARK SMILES IDX 45 89 46 90 55 91 47 92 48 93 54 94 56 95 49 96 50 97 51 98
REMARK SMILES IDX 52 99 53 100
REMARK H PARENT 8 7 4 10 15 31 77 50 43 61
REMARK Flexibility Score: inf
ROOT
ATOM      1  C   UNL A   1      32.295  29.684  25.647  1.00  0.00     0.002 C 
ENDROOT
BRANCH   1   2
ATOM      2  C   UNL A   1      32.486  28.188  25.857  1.00  0.00     0.021 C 
BRANCH   2   3
ATOM      3  C   UNL A   1      31.177  27.379  25.862  1.00  0.00     0.116 C 
BRANCH   3   4
ATOM      4  N   UNL A   1      31.342  26.159  26.623  1.00  0.00    -0.351 N 
ATOM      5  C   UNL A   1      31.328  24.840  26.288  1.00  0.00     0.275 C 
ATOM      6  O   UNL A   1      31.401  24.071  27.251  1.00  0.00    -0.269 OA
ATOM      7  H   UNL A   1      31.496  26.316  27.583  1.00  0.00     0.163 HD
BRANCH   5   8
ATOM      8  C   UNL A   1      31.321  24.323  24.830  1.00  0.00     0.364 C 
BRANCH   8   9
ATOM      9  N   UNL A   1      32.551  23.603  24.332  1.00  0.00    -0.313 N 
ATOM     10  H   UNL A   1      33.136  23.376  25.135  1.00  0.00     0.349 HD
BRANCH   9  11
ATOM     11  C   UNL A   1      33.142  24.506  23.397  1.00  0.00     0.354 C 
BRANCH  11  12
ATOM     12  C   UNL A   1      32.397  25.666  22.758  1.00  0.00    -0.047 C 
ATOM     13  C   UNL A   1      31.757  26.661  22.210  1.00  0.00     0.010 C 
ENDBRANCH  11  12
ENDBRANCH   9  11
BRANCH   9  14
ATOM     14  C   UNL A   1      32.348  22.271  23.719  1.00  0.00     0.302 C 
BRANCH  14  15
ATOM     15  C   UNL A   1      33.107  21.263  24.506  1.00  0.00     0.032 A 
ATOM     16  C   UNL A   1      34.186  21.535  25.325  1.00  0.00     0.096 A 
ATOM     17  C   UNL A   1      33.080  19.856  24.292  1.00  0.00     0.008 A 
ATOM     18  N   UNL A   1      35.050  20.472  25.151  1.00  0.00    -0.347 N 
ATOM     19  C   UNL A   1      34.357  19.391  24.622  1.00  0.00     0.048 A 
ATOM     20  C   UNL A   1      32.189  19.019  23.590  1.00  0.00     0.011 A 
ATOM     21  C   UNL A   1      34.775  18.105  24.247  1.00  0.00     0.027 A 
ATOM     22  C   UNL A   1      32.601  17.743  23.212  1.00  0.00     0.001 A 
ATOM     23  C   UNL A   1      33.880  17.299  23.532  1.00  0.00     0.002 A 
BRANCH  18  24
ATOM     24  C   UNL A   1      36.483  20.700  25.013  1.00  0.00     0.119 C 
ATOM     25  C   UNL A   1      36.885  21.998  24.358  1.00  0.00     0.027 C 
ENDBRANCH  18  24
ENDBRANCH  14  15
ENDBRANCH   9  14
ENDBRANCH   8   9
ENDBRANCH   5   8
ENDBRANCH   3   4
ENDBRANCH   2   3
ENDBRANCH   1   2
BRANCH   1  26
ATOM     26  C   UNL A   1      31.728  30.401  26.865  1.00  0.00     0.002 C 
BRANCH  26  27
ATOM     27  C   UNL A   1      31.817  31.926  26.772  1.00  0.00     0.021 C 
BRANCH  27  28
ATOM     28  C   UNL A   1      33.118  32.498  27.325  1.00  0.00     0.116 C 
BRANCH  28  29
ATOM     29  N   UNL A   1      32.937  33.878  27.741  1.00  0.00    -0.352 N 
ATOM     30  C   UNL A   1      33.465  34.488  28.848  1.00  0.00     0.251 C 
ATOM     31  H   UNL A   1      32.371  34.437  27.162  1.00  0.00     0.163 HD
ATOM     32  O   UNL A   1      32.992  35.529  29.279  1.00  0.00    -0.269 OA
BRANCH  30  33
ATOM     33  C   UNL A   1      34.620  33.844  29.499  1.00  0.00     0.039 A 
ATOM     34  C   UNL A   1      35.909  34.213  29.124  1.00  0.00     0.014 A 
ATOM     35  C   UNL A   1      34.402  32.906  30.516  1.00  0.00     0.014 A 
ATOM     36  C   UNL A   1      36.995  33.650  29.793  1.00  0.00     0.010 A 
ATOM     37  C   UNL A   1      35.481  32.413  31.234  1.00  0.00     0.010 A 
ATOM     38  C   UNL A   1      36.787  32.760  30.861  1.00  0.00    -0.014 A 
BRANCH  38  39
ATOM     39  C   UNL A   1      37.931  32.146  31.576  1.00  0.00     0.031 A 
ATOM     40  C   UNL A   1      38.345  32.687  32.917  1.00  0.00     0.074 A 
ATOM     41  C   UNL A   1      38.612  31.137  30.999  1.00  0.00     0.049 A 
ATOM     42  N   UNL A   1      39.335  32.316  33.685  1.00  0.00    -0.248 NA
ATOM     43  C   UNL A   1      37.561  33.812  33.452  1.00  0.00     0.031 C 
ATOM     44  C   UNL A   1      38.328  30.568  29.680  1.00  0.00     0.029 A 
ATOM     45  N   UNL A   1      39.687  30.414  31.447  1.00  0.00    -0.354 N 
ATOM     46  C   UNL A   1      39.298  33.165  34.784  1.00  0.00     0.074 A 
ATOM     47  C   UNL A   1      38.230  34.112  34.554  1.00  0.00     0.031 C 
ATOM     48  C   UNL A   1      39.188  29.566  29.438  1.00  0.00     0.029 A 
ATOM     49  C   UNL A   1      40.108  29.447  30.565  1.00  0.00     0.049 A 
ATOM     50  H   UNL A   1      40.118  30.572  32.318  1.00  0.00     0.167 HD
ATOM     51  C   UNL A   1      40.066  33.139  35.898  1.00  0.00     0.037 A 
ATOM     52  C   UNL A   1      41.124  28.568  30.656  1.00  0.00     0.037 A 
ATOM     53  C   UNL A   1      41.110  32.175  36.124  1.00  0.00     0.049 A 
ATOM     54  C   UNL A   1      41.969  28.562  31.902  1.00  0.00     0.074 A 
ATOM     55  C   UNL A   1      41.912  32.021  37.240  1.00  0.00     0.029 A 
ATOM     56  N   UNL A   1      41.499  31.202  35.214  1.00  0.00    -0.354 N 
ATOM     57  N   UNL A   1      41.876  29.327  32.965  1.00  0.00    -0.248 NA
ATOM     58  C   UNL A   1      43.048  27.569  31.967  1.00  0.00     0.031 C 
ATOM     59  C   UNL A   1      42.821  30.991  36.984  1.00  0.00     0.029 A 
ATOM     60  C   UNL A   1      42.547  30.461  35.733  1.00  0.00     0.049 A 
ATOM     61  H   UNL A   1      41.090  31.060  34.330  1.00  0.00     0.167 HD
ATOM     62  C   UNL A   1      42.868  28.889  33.836  1.00  0.00     0.074 A 
ATOM     63  C   UNL A   1      43.538  27.784  33.181  1.00  0.00     0.031 C 
ATOM     64  C   UNL A   1      43.196  29.359  35.065  1.00  0.00     0.037 A 
BRANCH  51  65
ATOM     65  C   UNL A   1      39.803  34.179  36.954  1.00  0.00     0.058 A 
ATOM     66  C   UNL A   1      39.086  33.880  38.123  1.00  0.00     0.135 A 
ATOM     67  C   UNL A   1      40.303  35.483  36.810  1.00  0.00     0.135 A 
ATOM     68  F   UNL A   1      38.568  32.655  38.306  1.00  0.00    -0.206 F 
ATOM     69  C   UNL A   1      38.846  34.844  39.097  1.00  0.00     0.059 A 
ATOM     70  C   UNL A   1      40.104  36.455  37.786  1.00  0.00     0.059 A 
ATOM     71  F   UNL A   1      40.993  35.826  35.711  1.00  0.00    -0.206 F 
ATOM     72  C   UNL A   1      39.361  36.129  38.920  1.00  0.00     0.060 A 
BRANCH  72  73
ATOM     73  S   UNL A   1      39.051  37.364  40.200  1.00  0.00     0.124 S 
ATOM     74  O   UNL A   1      40.405  37.822  40.496  1.00  0.00    -0.237 OA
ATOM     75  O   UNL A   1      38.195  38.322  39.506  1.00  0.00    -0.237 OA
ATOM     76  O   UNL A   1      38.402  36.601  41.260  1.00  0.00    -0.744 OA
ENDBRANCH  72  73
ENDBRANCH  51  65
BRANCH  52  77
ATOM     77  C   UNL A   1      41.382  27.613  29.547  1.00  0.00     0.058 A 
ATOM     78  C   UNL A   1      40.498  26.555  29.281  1.00  0.00     0.135 A 
ATOM     79  C   UNL A   1      42.508  27.744  28.719  1.00  0.00     0.135 A 
ATOM     80  F   UNL A   1      39.408  26.384  30.046  1.00  0.00    -0.206 F 
ATOM     81  C   UNL A   1      40.730  25.652  28.248  1.00  0.00     0.059 A 
ATOM     82  C   UNL A   1      42.747  26.871  27.662  1.00  0.00     0.059 A 
ATOM     83  F   UNL A   1      43.375  28.749  28.917  1.00  0.00    -0.206 F 
ATOM     84  C   UNL A   1      41.856  25.820  27.442  1.00  0.00     0.060 A 
BRANCH  84  85
ATOM     85  S   UNL A   1      42.124  24.670  26.076  1.00  0.00     0.124 S 
ATOM     86  O   UNL A   1      40.919  23.852  26.142  1.00  0.00    -0.237 OA
ATOM     87  O   UNL A   1      42.223  25.571  24.933  1.00  0.00    -0.237 OA
ATOM     88  O   UNL A   1      43.365  23.997  26.443  1.00  0.00    -0.744 OA
ENDBRANCH  84  85
ENDBRANCH  52  77
BRANCH  64  89
ATOM     89  C   UNL A   1      44.305  28.657  35.801  1.00  0.00     0.058 A 
ATOM     90  C   UNL A   1      45.641  29.072  35.694  1.00  0.00     0.135 A 
ATOM     91  C   UNL A   1      44.015  27.591  36.668  1.00  0.00     0.135 A 
ATOM     92  F   UNL A   1      45.972  30.082  34.875  1.00  0.00    -0.206 F 
ATOM     93  C   UNL A   1      46.656  28.437  36.403  1.00  0.00     0.059 A 
ATOM     94  C   UNL A   1      45.009  26.964  37.410  1.00  0.00     0.059 A 
ATOM     95  F   UNL A   1      42.751  27.164  36.817  1.00  0.00    -0.206 F 
ATOM     96  C   UNL A   1      46.329  27.385  37.261  1.00  0.00     0.060 A 
BRANCH  96  97
ATOM     97  S   UNL A   1      47.652  26.594  38.200  1.00  0.00     0.124 S 
ATOM     98  O   UNL A   1      48.310  25.800  37.168  1.00  0.00    -0.237 OA
ATOM     99  O   UNL A   1      48.407  27.739  38.698  1.00  0.00    -0.237 OA
ATOM    100  O   UNL A   1      46.937  25.830  39.219  1.00  0.00    -0.744 OA
ENDBRANCH  96  97
ENDBRANCH  64  89
ENDBRANCH  38  39
ENDBRANCH  30  33
ENDBRANCH  28  29
ENDBRANCH  27  28
ENDBRANCH  26  27
ENDBRANCH   1  26
TORSDOF 22
ENDMDL
MODEL 2
REMARK VINA RESULT:     -10.7      5.977      8.103
REMARK SMILES C#CC[N@@H+](CC(=O)NCCCCCCNC(=O)c1ccc(-c2c3nc(c(-c4c(F)cc(S(=O)(=O)[O-])cc4F)c4ccc([nH]4)c(-c4c(F)cc(S(=O)(=O)[O-])cc4F)c4nc(c(-c5c(F)cc(S(=O)(=O)[O-])cc5F)c5ccc2[nH]5)C=C4)C=C3)cc1)Cc1cn(CC)c2ccccc12
REMARK SMILES IDX 11 1 10 2 9 3 8 4 6 5 7 6 5 8 4 9 3 11 2 12 1 13 84 14 85 15
REMARK SMILES IDX 86 16 95 17 87 18 90 19 94 20 91 21 93 22 92 23 88 24 89 25
REMARK SMILES IDX 12 26 13 27 14 28 15 29 16 30 17 32 18 33 19 34 83 35 20 36
REMARK SMILES IDX 82 37 21 38 22 39 23 40 76 41 24 42 81 43 75 44 77 45 25 46
REMARK SMILES IDX 80 47 74 48 73 49 26 51 60 52 39 53 59 54 40 55 43 56 58 57
REMARK SMILES IDX 78 58 41 59 42 60 57 62 79 63 44 64 27 65 28 66 37 67 29 68
REMARK SMILES IDX 30 69 36 70 38 71 31 72 32 73 33 74 34 75 35 76 61 77 62 78
REMARK SMILES IDX 71 79 63 80 64 81 70 82 72 83 65 84 66 85 67 86 68 87 69 88
REMARK SMILES IDX 45 89 46 90 55 91 47 92 48 93 54 94 56 95 49 96 50 97 51 98
REMARK SMILES IDX 52 99 53 100
REMARK H PARENT 8 7 4 10 15 31 77 50 43 61
REMARK Flexibility Score: inf
ROOT
ATOM      1  C   UNL A   1      34.143  28.270  26.864  1.00  0.00     0.002 C 
ENDROOT
BRANCH   1   2
ATOM      2  C   UNL A   1      33.622  27.290  25.822  1.00  0.00     0.021 C 
BRANCH   2   3
ATOM      3  C   UNL A   1      33.666  27.821  24.378  1.00  0.00     0.116 C 
BRANCH   3   4
ATOM      4  N   UNL A   1      32.608  27.226  23.590  1.00  0.00    -0.351 N 
ATOM      5  C   UNL A   1      32.565  26.180  22.721  1.00  0.00     0.275 C 
ATOM      6  O   UNL A   1      31.479  26.039  22.150  1.00  0.00    -0.269 OA
ATOM      7  H   UNL A   1      31.737  27.672  23.707  1.00  0.00     0.163 HD
BRANCH   5   8
ATOM      8  C   UNL A   1      33.729  25.181  22.518  1.00  0.00     0.364 C 
BRANCH   8   9
ATOM      9  N   UNL A   1      33.684  23.882  23.286  1.00  0.00    -0.313 N 
ATOM     10  H   UNL A   1      33.248  24.060  24.190  1.00  0.00     0.349 HD
BRANCH   9  11
ATOM     11  C   UNL A   1      35.044  23.454  23.351  1.00  0.00     0.354 C 
BRANCH  11  12
ATOM     12  C   UNL A   1      35.902  23.557  24.601  1.00  0.00    -0.047 C 
ATOM     13  C   UNL A   1      36.637  23.645  25.674  1.00  0.00     0.010 C 
ENDBRANCH  11  12
ENDBRANCH   9  11
BRANCH   9  14
ATOM     14  C   UNL A   1      32.822  22.810  22.740  1.00  0.00     0.302 C 
BRANCH  14  15
ATOM     15  C   UNL A   1      32.409  21.916  23.855  1.00  0.00     0.032 A 
ATOM     16  C   UNL A   1      32.392  22.261  25.193  1.00  0.00     0.096 A 
ATOM     17  C   UNL A   1      32.299  20.498  23.781  1.00  0.00     0.008 A 
ATOM     18  N   UNL A   1      32.807  21.129  25.865  1.00  0.00    -0.347 N 
ATOM     19  C   UNL A   1      32.647  20.017  25.048  1.00  0.00     0.048 A 
ATOM     20  C   UNL A   1      32.217  19.607  22.691  1.00  0.00     0.011 A 
ATOM     21  C   UNL A   1      32.937  18.659  25.248  1.00  0.00     0.027 A 
ATOM     22  C   UNL A   1      32.507  18.259  22.885  1.00  0.00     0.001 A 
ATOM     23  C   UNL A   1      32.869  17.797  24.146  1.00  0.00     0.002 A 
BRANCH  18  24
ATOM     24  C   UNL A   1      33.754  21.231  26.968  1.00  0.00     0.119 C 
ATOM     25  C   UNL A   1      33.712  22.515  27.758  1.00  0.00     0.027 C 
ENDBRANCH  18  24
ENDBRANCH  14  15
ENDBRANCH   9  14
ENDBRANCH   8   9
ENDBRANCH   5   8
ENDBRANCH   3   4
ENDBRANCH   2   3
ENDBRANCH   1   2
BRANCH   1  26
ATOM     26  C   UNL A   1      33.701  29.706  26.622  1.00  0.00     0.002 C 
BRANCH  26  27
ATOM     27  C   UNL A   1      34.447  30.727  27.484  1.00  0.00     0.021 C 
BRANCH  27  28
ATOM     28  C   UNL A   1      35.515  30.109  28.379  1.00  0.00     0.116 C 
BRANCH  28  29
ATOM     29  N   UNL A   1      35.479  30.697  29.707  1.00  0.00    -0.352 N 
ATOM     30  C   UNL A   1      36.451  30.638  30.670  1.00  0.00     0.251 C 
ATOM     31  H   UNL A   1      34.662  31.193  29.940  1.00  0.00     0.163 HD
ATOM     32  O   UNL A   1      36.193  30.870  31.841  1.00  0.00    -0.269 OA
BRANCH  30  33
ATOM     33  C   UNL A   1      37.817  30.285  30.242  1.00  0.00     0.039 A 
ATOM     34  C   UNL A   1      38.711  29.764  31.175  1.00  0.00     0.014 A 
ATOM     35  C   UNL A   1      38.178  30.434  28.898  1.00  0.00     0.014 A 
ATOM     36  C   UNL A   1      39.978  29.368  30.748  1.00  0.00     0.010 A 
ATOM     37  C   UNL A   1      39.407  29.961  28.463  1.00  0.00     0.010 A 
ATOM     38  C   UNL A   1      40.327  29.449  29.389  1.00  0.00    -0.014 A 
BRANCH  38  39
ATOM     39  C   UNL A   1      41.673  29.041  28.922  1.00  0.00     0.031 A 
ATOM     40  C   UNL A   1      42.778  30.060  28.861  1.00  0.00     0.074 A 
ATOM     41  C   UNL A   1      41.882  27.773  28.520  1.00  0.00     0.049 A 
ATOM     42  N   UNL A   1      44.010  29.916  28.451  1.00  0.00    -0.248 NA
ATOM     43  C   UNL A   1      42.446  31.429  29.291  1.00  0.00     0.031 C 
ATOM     44  C   UNL A   1      40.869  26.716  28.490  1.00  0.00     0.029 A 
ATOM     45  N   UNL A   1      43.016  27.158  28.055  1.00  0.00    -0.354 N 
ATOM     46  C   UNL A   1      44.595  31.171  28.563  1.00  0.00     0.074 A 
ATOM     47  C   UNL A   1      43.566  32.080  29.018  1.00  0.00     0.031 C 
ATOM     48  C   UNL A   1      41.433  25.577  28.059  1.00  0.00     0.029 A 
ATOM     49  C   UNL A   1      42.836  25.831  27.745  1.00  0.00     0.049 A 
ATOM     50  H   UNL A   1      43.877  27.623  27.953  1.00  0.00     0.167 HD
ATOM     51  C   UNL A   1      45.880  31.528  28.336  1.00  0.00     0.037 A 
ATOM     52  C   UNL A   1      43.705  24.925  27.256  1.00  0.00     0.037 A 
ATOM     53  C   UNL A   1      46.900  30.607  27.908  1.00  0.00     0.049 A 
ATOM     54  C   UNL A   1      45.128  25.347  27.006  1.00  0.00     0.074 A 
ATOM     55  C   UNL A   1      48.245  30.848  27.702  1.00  0.00     0.029 A 
ATOM     56  N   UNL A   1      46.683  29.268  27.616  1.00  0.00    -0.354 N 
ATOM     57  N   UNL A   1      45.683  26.523  27.184  1.00  0.00    -0.248 NA
ATOM     58  C   UNL A   1      46.045  24.319  26.499  1.00  0.00     0.031 C 
ATOM     59  C   UNL A   1      48.832  29.669  27.235  1.00  0.00     0.029 A 
ATOM     60  C   UNL A   1      47.866  28.676  27.207  1.00  0.00     0.049 A 
ATOM     61  H   UNL A   1      45.816  28.806  27.688  1.00  0.00     0.167 HD
ATOM     62  C   UNL A   1      47.021  26.369  26.836  1.00  0.00     0.074 A 
ATOM     63  C   UNL A   1      47.193  24.983  26.451  1.00  0.00     0.031 C 
ATOM     64  C   UNL A   1      48.016  27.290  26.834  1.00  0.00     0.037 A 
BRANCH  51  65
ATOM     65  C   UNL A   1      46.254  32.969  28.551  1.00  0.00     0.058 A 
ATOM     66  C   UNL A   1      46.689  33.444  29.799  1.00  0.00     0.135 A 
ATOM     67  C   UNL A   1      46.209  33.884  27.486  1.00  0.00     0.135 A 
ATOM     68  F   UNL A   1      46.734  32.619  30.858  1.00  0.00    -0.206 F 
ATOM     69  C   UNL A   1      47.035  34.777  29.992  1.00  0.00     0.059 A 
ATOM     70  C   UNL A   1      46.581  35.215  27.647  1.00  0.00     0.059 A 
ATOM     71  F   UNL A   1      45.798  33.487  26.271  1.00  0.00    -0.206 F 
ATOM     72  C   UNL A   1      46.980  35.655  28.909  1.00  0.00     0.060 A 
BRANCH  72  73
ATOM     73  S   UNL A   1      47.444  37.379  29.174  1.00  0.00     0.124 S 
ATOM     74  O   UNL A   1      48.122  37.302  30.465  1.00  0.00    -0.237 OA
ATOM     75  O   UNL A   1      48.301  37.651  28.024  1.00  0.00    -0.237 OA
ATOM     76  O   UNL A   1      46.165  38.080  29.180  1.00  0.00    -0.744 OA
ENDBRANCH  72  73
ENDBRANCH  51  65
BRANCH  52  77
ATOM     77  C   UNL A   1      43.257  23.532  26.995  1.00  0.00     0.058 A 
ATOM     78  C   UNL A   1      42.998  23.088  25.689  1.00  0.00     0.135 A 
ATOM     79  C   UNL A   1      43.093  22.611  28.041  1.00  0.00     0.135 A 
ATOM     80  F   UNL A   1      43.137  23.930  24.654  1.00  0.00    -0.206 F 
ATOM     81  C   UNL A   1      42.575  21.787  25.431  1.00  0.00     0.059 A 
ATOM     82  C   UNL A   1      42.698  21.297  27.806  1.00  0.00     0.059 A 
ATOM     83  F   UNL A   1      43.347  22.978  29.307  1.00  0.00    -0.206 F 
ATOM     84  C   UNL A   1      42.430  20.898  26.497  1.00  0.00     0.060 A 
BRANCH  84  85
ATOM     85  S   UNL A   1      41.923  19.201  26.148  1.00  0.00     0.124 S 
ATOM     86  O   UNL A   1      42.288  18.525  27.386  1.00  0.00    -0.237 OA
ATOM     87  O   UNL A   1      40.493  19.354  25.900  1.00  0.00    -0.237 OA
ATOM     88  O   UNL A   1      42.720  18.848  24.977  1.00  0.00    -0.744 OA
ENDBRANCH  84  85
ENDBRANCH  52  77
BRANCH  64  89
ATOM     89  C   UNL A   1      49.390  26.823  26.439  1.00  0.00     0.058 A 
ATOM     90  C   UNL A   1      50.239  26.171  27.346  1.00  0.00     0.135 A 
ATOM     91  C   UNL A   1      49.839  26.980  25.117  1.00  0.00     0.135 A 
ATOM     92  F   UNL A   1      49.860  26.000  28.623  1.00  0.00    -0.206 F 
ATOM     93  C   UNL A   1      51.495  25.713  26.964  1.00  0.00     0.059 A 
ATOM     94  C   UNL A   1      51.078  26.502  24.705  1.00  0.00     0.059 A 
ATOM     95  F   UNL A   1      49.061  27.586  24.206  1.00  0.00    -0.206 F 
ATOM     96  C   UNL A   1      51.905  25.882  25.639  1.00  0.00     0.060 A 
BRANCH  96  97
ATOM     97  S   UNL A   1      53.524  25.252  25.149  1.00  0.00     0.124 S 
ATOM     98  O   UNL A   1      53.596  25.681  23.757  1.00  0.00    -0.237 OA
ATOM     99  O   UNL A   1      54.419  25.941  26.073  1.00  0.00    -0.237 OA
ATOM    100  O   UNL A   1      53.406  23.811  25.357  1.00  0.00    -0.744 OA
ENDBRANCH  96  97
ENDBRANCH  64  89
ENDBRANCH  38  39
ENDBRANCH  30  33
ENDBRANCH  28  29
ENDBRANCH  27  28
ENDBRANCH  26  27
ENDBRANCH   1  26
TORSDOF 22
ENDMDL
MODEL 3
REMARK VINA RESULT:     -10.6      2.620      9.290
REMARK SMILES C#CC[N@@H+](CC(=O)NCCCCCCNC(=O)c1ccc(-c2c3nc(c(-c4c(F)cc(S(=O)(=O)[O-])cc4F)c4ccc([nH]4)c(-c4c(F)cc(S(=O)(=O)[O-])cc4F)c4nc(c(-c5c(F)cc(S(=O)(=O)[O-])cc5F)c5ccc2[nH]5)C=C4)C=C3)cc1)Cc1cn(CC)c2ccccc12
REMARK SMILES IDX 11 1 10 2 9 3 8 4 6 5 7 6 5 8 4 9 3 11 2 12 1 13 84 14 85 15
REMARK SMILES IDX 86 16 95 17 87 18 90 19 94 20 91 21 93 22 92 23 88 24 89 25
REMARK SMILES IDX 12 26 13 27 14 28 15 29 16 30 17 32 18 33 19 34 83 35 20 36
REMARK SMILES IDX 82 37 21 38 22 39 23 40 76 41 24 42 81 43 75 44 77 45 25 46
REMARK SMILES IDX 80 47 74 48 73 49 26 51 60 52 39 53 59 54 40 55 43 56 58 57
REMARK SMILES IDX 78 58 41 59 42 60 57 62 79 63 44 64 27 65 28 66 37 67 29 68
REMARK SMILES IDX 30 69 36 70 38 71 31 72 32 73 33 74 34 75 35 76 61 77 62 78
REMARK SMILES IDX 71 79 63 80 64 81 70 82 72 83 65 84 66 85 67 86 68 87 69 88
REMARK SMILES IDX 45 89 46 90 55 91 47 92 48 93 54 94 56 95 49 96 50 97 51 98
REMARK SMILES IDX 52 99 53 100
REMARK H PARENT 8 7 4 10 15 31 77 50 43 61
REMARK Flexibility Score: inf
ROOT
ATOM      1  C   UNL A   1      39.724  22.434  26.449  1.00  0.00     0.002 C 
ENDROOT
BRANCH   1   2
ATOM      2  C   UNL A   1      38.913  23.722  26.451  1.00  0.00     0.021 C 
BRANCH   2   3
ATOM      3  C   UNL A   1      37.435  23.539  26.065  1.00  0.00     0.116 C 
BRANCH   3   4
ATOM      4  N   UNL A   1      37.299  23.421  24.629  1.00  0.00    -0.351 N 
ATOM      5  C   UNL A   1      36.229  23.290  23.800  1.00  0.00     0.275 C 
ATOM      6  O   UNL A   1      36.524  23.107  22.614  1.00  0.00    -0.269 OA
ATOM      7  H   UNL A   1      38.161  23.439  24.153  1.00  0.00     0.163 HD
BRANCH   5   8
ATOM      8  C   UNL A   1      34.760  23.449  24.258  1.00  0.00     0.364 C 
BRANCH   8   9
ATOM      9  N   UNL A   1      34.387  24.707  25.005  1.00  0.00    -0.313 N 
ATOM     10  H   UNL A   1      35.217  25.051  25.486  1.00  0.00     0.349 HD
BRANCH   9  11
ATOM     11  C   UNL A   1      33.318  24.312  25.865  1.00  0.00     0.354 C 
BRANCH  11  12
ATOM     12  C   UNL A   1      33.419  23.176  26.869  1.00  0.00    -0.047 C 
ATOM     13  C   UNL A   1      33.506  22.201  27.731  1.00  0.00     0.010 C 
ENDBRANCH  11  12
ENDBRANCH   9  11
BRANCH   9  14
ATOM     14  C   UNL A   1      34.000  25.881  24.192  1.00  0.00     0.302 C 
BRANCH  14  15
ATOM     15  C   UNL A   1      32.946  26.638  24.918  1.00  0.00     0.032 A 
ATOM     16  C   UNL A   1      31.603  26.654  24.591  1.00  0.00     0.096 A 
ATOM     17  C   UNL A   1      33.174  27.713  25.824  1.00  0.00     0.008 A 
ATOM     18  N   UNL A   1      31.188  27.949  24.828  1.00  0.00    -0.347 N 
ATOM     19  C   UNL A   1      32.086  28.579  25.679  1.00  0.00     0.048 A 
ATOM     20  C   UNL A   1      34.325  28.143  26.516  1.00  0.00     0.011 A 
ATOM     21  C   UNL A   1      32.129  29.882  26.195  1.00  0.00     0.027 A 
ATOM     22  C   UNL A   1      34.373  29.437  27.027  1.00  0.00     0.001 A 
ATOM     23  C   UNL A   1      33.291  30.294  26.861  1.00  0.00     0.002 A 
BRANCH  18  24
ATOM     24  C   UNL A   1      30.312  28.627  23.879  1.00  0.00     0.119 C 
ATOM     25  C   UNL A   1      30.274  28.051  22.486  1.00  0.00     0.027 C 
ENDBRANCH  18  24
ENDBRANCH  14  15
ENDBRANCH   9  14
ENDBRANCH   8   9
ENDBRANCH   5   8
ENDBRANCH   3   4
ENDBRANCH   2   3
ENDBRANCH   1   2
BRANCH   1  26
ATOM     26  C   UNL A   1      40.493  22.197  27.741  1.00  0.00     0.002 C 
BRANCH  26  27
ATOM     27  C   UNL A   1      42.005  22.077  27.538  1.00  0.00     0.021 C 
BRANCH  27  28
ATOM     28  C   UNL A   1      42.752  23.396  27.703  1.00  0.00     0.116 C 
BRANCH  28  29
ATOM     29  N   UNL A   1      42.860  24.090  26.431  1.00  0.00    -0.352 N 
ATOM     30  C   UNL A   1      42.373  25.330  26.116  1.00  0.00     0.251 C 
ATOM     31  H   UNL A   1      43.338  23.613  25.715  1.00  0.00     0.163 HD
ATOM     32  O   UNL A   1      42.226  25.673  24.952  1.00  0.00    -0.269 OA
BRANCH  30  33
ATOM     33  C   UNL A   1      42.032  26.235  27.229  1.00  0.00     0.039 A 
ATOM     34  C   UNL A   1      40.968  25.914  28.068  1.00  0.00     0.014 A 
ATOM     35  C   UNL A   1      42.812  27.376  27.452  1.00  0.00     0.014 A 
ATOM     36  C   UNL A   1      40.695  26.738  29.158  1.00  0.00     0.010 A 
ATOM     37  C   UNL A   1      42.590  28.145  28.585  1.00  0.00     0.010 A 
ATOM     38  C   UNL A   1      41.513  27.848  29.432  1.00  0.00    -0.014 A 
BRANCH  38  39
ATOM     39  C   UNL A   1      41.230  28.739  30.582  1.00  0.00     0.031 A 
ATOM     40  C   UNL A   1      42.049  28.612  31.838  1.00  0.00     0.074 A 
ATOM     41  C   UNL A   1      40.218  29.624  30.506  1.00  0.00     0.049 A 
ATOM     42  N   UNL A   1      41.940  29.267  32.963  1.00  0.00    -0.248 NA
ATOM     43  C   UNL A   1      43.113  27.593  31.840  1.00  0.00     0.031 C 
ATOM     44  C   UNL A   1      39.329  29.797  29.355  1.00  0.00     0.029 A 
ATOM     45  N   UNL A   1      39.765  30.544  31.416  1.00  0.00    -0.354 N 
ATOM     46  C   UNL A   1      42.909  28.736  33.805  1.00  0.00     0.074 A 
ATOM     47  C   UNL A   1      43.554  27.661  33.086  1.00  0.00     0.031 C 
ATOM     48  C   UNL A   1      38.456  30.781  29.618  1.00  0.00     0.029 A 
ATOM     49  C   UNL A   1      38.696  31.283  30.967  1.00  0.00     0.049 A 
ATOM     50  H   UNL A   1      40.166  30.662  32.307  1.00  0.00     0.167 HD
ATOM     51  C   UNL A   1      43.250  29.129  35.054  1.00  0.00     0.037 A 
ATOM     52  C   UNL A   1      37.989  32.252  31.580  1.00  0.00     0.037 A 
ATOM     53  C   UNL A   1      42.615  30.219  35.749  1.00  0.00     0.049 A 
ATOM     54  C   UNL A   1      38.383  32.668  32.972  1.00  0.00     0.074 A 
ATOM     55  C   UNL A   1      42.918  30.738  36.994  1.00  0.00     0.029 A 
ATOM     56  N   UNL A   1      41.545  30.953  35.258  1.00  0.00    -0.354 N 
ATOM     57  N   UNL A   1      39.349  32.202  33.729  1.00  0.00    -0.248 NA
ATOM     58  C   UNL A   1      37.600  33.746  33.589  1.00  0.00     0.031 C 
ATOM     59  C   UNL A   1      41.998  31.751  37.278  1.00  0.00     0.029 A 
ATOM     60  C   UNL A   1      41.159  31.905  36.185  1.00  0.00     0.049 A 
ATOM     61  H   UNL A   1      41.122  30.818  34.379  1.00  0.00     0.167 HD
ATOM     62  C   UNL A   1      39.306  32.950  34.902  1.00  0.00     0.074 A 
ATOM     63  C   UNL A   1      38.229  33.906  34.746  1.00  0.00     0.031 C 
ATOM     64  C   UNL A   1      40.086  32.853  36.007  1.00  0.00     0.037 A 
BRANCH  51  65
ATOM     65  C   UNL A   1      44.358  28.382  35.745  1.00  0.00     0.058 A 
ATOM     66  C   UNL A   1      45.671  28.879  35.789  1.00  0.00     0.135 A 
ATOM     67  C   UNL A   1      44.098  27.167  36.400  1.00  0.00     0.135 A 
ATOM     68  F   UNL A   1      45.982  30.026  35.164  1.00  0.00    -0.206 F 
ATOM     69  C   UNL A   1      46.691  28.185  36.430  1.00  0.00     0.059 A 
ATOM     70  C   UNL A   1      45.096  26.471  37.075  1.00  0.00     0.059 A 
ATOM     71  F   UNL A   1      42.862  26.643  36.388  1.00  0.00    -0.206 F 
ATOM     72  C   UNL A   1      46.394  26.982  37.072  1.00  0.00     0.060 A 
BRANCH  72  73
ATOM     73  S   UNL A   1      47.728  26.100  37.909  1.00  0.00     0.124 S 
ATOM     74  O   UNL A   1      47.872  26.884  39.133  1.00  0.00    -0.237 OA
ATOM     75  O   UNL A   1      47.163  24.765  38.074  1.00  0.00    -0.237 OA
ATOM     76  O   UNL A   1      48.841  26.195  36.971  1.00  0.00    -0.744 OA
ENDBRANCH  72  73
ENDBRANCH  51  65
BRANCH  52  77
ATOM     77  C   UNL A   1      36.856  32.904  30.873  1.00  0.00     0.058 A 
ATOM     78  C   UNL A   1      35.526  32.609  31.210  1.00  0.00     0.135 A 
ATOM     79  C   UNL A   1      37.077  33.846  29.857  1.00  0.00     0.135 A 
ATOM     80  F   UNL A   1      35.261  31.712  32.173  1.00  0.00    -0.206 F 
ATOM     81  C   UNL A   1      34.456  33.210  30.553  1.00  0.00     0.059 A 
ATOM     82  C   UNL A   1      36.024  34.482  29.204  1.00  0.00     0.059 A 
ATOM     83  F   UNL A   1      38.330  34.180  29.509  1.00  0.00    -0.206 F 
ATOM     84  C   UNL A   1      34.716  34.147  29.552  1.00  0.00     0.060 A 
BRANCH  84  85
ATOM     85  S   UNL A   1      33.322  34.954  28.738  1.00  0.00     0.124 S 
ATOM     86  O   UNL A   1      33.930  36.196  28.276  1.00  0.00    -0.237 OA
ATOM     87  O   UNL A   1      32.974  33.989  27.700  1.00  0.00    -0.237 OA
ATOM     88  O   UNL A   1      32.341  35.091  29.809  1.00  0.00    -0.744 OA
ENDBRANCH  84  85
ENDBRANCH  52  77
BRANCH  64  89
ATOM     89  C   UNL A   1      39.830  33.830  37.122  1.00  0.00     0.058 A 
ATOM     90  C   UNL A   1      39.006  33.509  38.211  1.00  0.00     0.135 A 
ATOM     91  C   UNL A   1      40.465  35.083  37.125  1.00  0.00     0.135 A 
ATOM     92  F   UNL A   1      38.372  32.327  38.254  1.00  0.00    -0.206 F 
ATOM     93  C   UNL A   1      38.800  34.407  39.253  1.00  0.00     0.059 A 
ATOM     94  C   UNL A   1      40.299  35.982  38.172  1.00  0.00     0.059 A 
ATOM     95  F   UNL A   1      41.274  35.434  36.112  1.00  0.00    -0.206 F 
ATOM     96  C   UNL A   1      39.453  35.641  39.226  1.00  0.00     0.060 A 
BRANCH  96  97
ATOM     97  S   UNL A   1      39.203  36.781  40.602  1.00  0.00     0.124 S 
ATOM     98  O   UNL A   1      38.297  36.018  41.454  1.00  0.00    -0.237 OA
ATOM     99  O   UNL A   1      40.560  36.955  41.113  1.00  0.00    -0.237 OA
ATOM    100  O   UNL A   1      38.623  37.961  39.967  1.00  0.00    -0.744 OA
ENDBRANCH  96  97
ENDBRANCH  64  89
ENDBRANCH  38  39
ENDBRANCH  30  33
ENDBRANCH  28  29
ENDBRANCH  27  28
ENDBRANCH  26  27
ENDBRANCH   1  26
TORSDOF 22
ENDMDL
