MODEL 1
REMARK VINA RESULT:     -12.8      0.000      0.000
REMARK SMILES Cc1cc(S(F)(F)(F)(F)F)cc2c1O[C@H](C(F)(F)F)C(C(=O)NCCCCCCNC(=O)c1ccc(-c3c4nc(c(-c5c(F)cc(S(=O)(=O)[O-])cc5F)c5ccc([nH]5)c(-c5c(F)cc(S(=O)(=O)[O-])cc5F)c5nc(c(-c6c(F)cc(S(=O)(=O)[O-])cc6F)c6ccc3[nH]6)C=C5)C=C4)cc1)=C2
REMARK SMILES IDX 27 1 26 2 25 3 24 4 23 5 21 6 22 7 20 9 1 10 2 11 3 12 13 13
REMARK SMILES IDX 4 14 12 15 14 16 11 17 99 18 15 19 5 20 6 21 7 22 8 23 9 24
REMARK SMILES IDX 10 25 16 26 17 27 18 28 19 29 28 30 29 31 30 32 31 33 32 35
REMARK SMILES IDX 33 36 34 37 98 38 35 39 97 40 36 41 37 42 38 43 91 44 39 45
REMARK SMILES IDX 96 46 90 47 92 48 40 49 95 50 89 51 88 52 41 54 75 55 54 56
REMARK SMILES IDX 74 57 55 58 58 59 73 60 93 61 56 62 57 63 72 65 94 66 59 67
REMARK SMILES IDX 42 68 43 69 52 70 44 71 45 72 51 73 53 74 46 75 47 76 48 77
REMARK SMILES IDX 49 78 50 79 76 80 77 81 86 82 78 83 79 84 85 85 87 86 80 87
REMARK SMILES IDX 81 88 82 89 83 90 84 91 60 92 61 93 70 94 62 95 63 96 69 97
REMARK SMILES IDX 71 98 64 99 65 100 66 101 67 102 68 103
REMARK H PARENT 23 8 30 34 92 53 58 64
REMARK Flexibility Score: inf
ROOT
ATOM      1  C   UNL A   1      32.813  28.809  24.111  1.00  0.00     0.002 C 
ENDROOT
BRANCH   1   2
ATOM      2  C   UNL A   1      32.527  28.150  22.772  1.00  0.00     0.002 C 
BRANCH   2   3
ATOM      3  C   UNL A   1      33.606  27.121  22.473  1.00  0.00     0.021 C 
BRANCH   3   4
ATOM      4  C   UNL A   1      32.978  25.906  21.812  1.00  0.00     0.116 C 
BRANCH   4   5
ATOM      5  N   UNL A   1      31.564  25.810  22.205  1.00  0.00    -0.352 N 
ATOM      6  C   UNL A   1      31.121  24.732  23.101  1.00  0.00     0.251 C 
ATOM      7  O   UNL A   1      29.899  24.650  23.441  1.00  0.00    -0.270 OA
ATOM      8  H   UNL A   1      30.914  26.468  21.867  1.00  0.00     0.163 HD
BRANCH   6   9
ATOM      9  C   UNL A   1      32.125  23.717  23.623  1.00  0.00     0.067 C 
ATOM     10  C   UNL A   1      36.262  21.335  25.662  1.00  0.00     0.048 C 
ATOM     11  C   UNL A   1      34.913  20.954  25.075  1.00  0.00    -0.007 A 
ATOM     12  C   UNL A   1      34.685  19.613  24.859  1.00  0.00     0.031 A 
ATOM     13  C   UNL A   1      33.994  21.889  24.599  1.00  0.00     0.130 A 
ATOM     14  C   UNL A   1      33.557  19.186  24.171  1.00  0.00     0.108 A 
ATOM     15  C   UNL A   1      32.845  21.451  23.904  1.00  0.00     0.019 A 
ATOM     16  O   UNL A   1      34.180  23.332  24.796  1.00  0.00    -0.475 OA
ATOM     17  C   UNL A   1      32.640  20.084  23.701  1.00  0.00     0.036 A 
ATOM     18  C   UNL A   1      31.899  22.454  23.415  1.00  0.00     0.025 C 
ATOM     19  C   UNL A   1      33.250  24.179  24.306  1.00  0.00     0.314 C 
BRANCH  14  20
ATOM     20  S   UNL A   1      33.296  17.417  23.892  1.00  0.00     0.310 S 
ATOM     21  F   UNL A   1      32.450  17.643  22.570  1.00  0.00    -0.094 F 
ATOM     22  F   UNL A   1      31.949  17.564  24.696  1.00  0.00    -0.094 F 
ATOM     23  F   UNL A   1      33.054  15.891  23.713  1.00  0.00    -0.094 F 
ATOM     24  F   UNL A   1      34.575  17.314  22.972  1.00  0.00    -0.094 F 
ATOM     25  F   UNL A   1      33.496  18.983  23.970  1.00  0.00    -0.094 F 
ENDBRANCH  14  20
BRANCH  19  26
ATOM     26  C   UNL A   1      32.643  24.759  25.573  1.00  0.00     0.429 C 
ATOM     27  F   UNL A   1      31.784  23.888  26.093  1.00  0.00    -0.167 F 
ATOM     28  F   UNL A   1      33.609  25.008  26.453  1.00  0.00    -0.167 F 
ATOM     29  F   UNL A   1      32.007  25.890  25.282  1.00  0.00    -0.167 F 
ENDBRANCH  19  26
ENDBRANCH   6   9
ENDBRANCH   4   5
ENDBRANCH   3   4
ENDBRANCH   2   3
ENDBRANCH   1   2
BRANCH   1  30
ATOM     30  C   UNL A   1      34.097  28.239  24.692  1.00  0.00     0.021 C 
BRANCH  30  31
ATOM     31  C   UNL A   1      34.018  28.255  26.210  1.00  0.00     0.116 C 
BRANCH  31  32
ATOM     32  N   UNL A   1      33.446  29.533  26.657  1.00  0.00    -0.352 N 
ATOM     33  C   UNL A   1      34.217  30.411  27.550  1.00  0.00     0.251 C 
ATOM     34  H   UNL A   1      32.548  29.802  26.358  1.00  0.00     0.163 HD
ATOM     35  O   UNL A   1      33.723  31.517  27.936  1.00  0.00    -0.269 OA
BRANCH  33  36
ATOM     36  C   UNL A   1      35.605  29.996  28.011  1.00  0.00     0.039 A 
ATOM     37  C   UNL A   1      35.947  29.802  29.344  1.00  0.00     0.014 A 
ATOM     38  C   UNL A   1      36.562  29.967  27.109  1.00  0.00     0.014 A 
ATOM     39  C   UNL A   1      37.151  29.105  29.592  1.00  0.00     0.010 A 
ATOM     40  C   UNL A   1      37.894  29.756  27.485  1.00  0.00     0.010 A 
ATOM     41  C   UNL A   1      38.193  29.333  28.695  1.00  0.00    -0.014 A 
BRANCH  41  42
ATOM     42  C   UNL A   1      39.638  29.100  29.104  1.00  0.00     0.031 A 
ATOM     43  C   UNL A   1      40.413  30.142  29.617  1.00  0.00     0.074 A 
ATOM     44  C   UNL A   1      40.140  27.853  28.772  1.00  0.00     0.049 A 
ATOM     45  N   UNL A   1      41.715  30.122  29.903  1.00  0.00    -0.248 NA
ATOM     46  C   UNL A   1      39.889  31.478  29.937  1.00  0.00     0.031 C 
ATOM     47  C   UNL A   1      39.364  26.794  28.261  1.00  0.00     0.029 A 
ATOM     48  N   UNL A   1      41.441  27.413  28.868  1.00  0.00    -0.354 N 
ATOM     49  C   UNL A   1      42.096  31.303  30.395  1.00  0.00     0.074 A 
ATOM     50  C   UNL A   1      40.929  32.193  30.418  1.00  0.00     0.031 C 
ATOM     51  C   UNL A   1      40.187  25.735  28.043  1.00  0.00     0.029 A 
ATOM     52  C   UNL A   1      41.491  26.113  28.413  1.00  0.00     0.049 A 
ATOM     53  H   UNL A   1      42.204  27.936  29.204  1.00  0.00     0.167 HD
ATOM     54  C   UNL A   1      43.372  31.670  30.827  1.00  0.00     0.037 A 
ATOM     55  C   UNL A   1      42.601  25.290  28.316  1.00  0.00     0.037 A 
ATOM     56  C   UNL A   1      44.474  30.832  30.771  1.00  0.00     0.049 A 
ATOM     57  C   UNL A   1      43.889  25.678  28.693  1.00  0.00     0.074 A 
ATOM     58  C   UNL A   1      45.765  31.185  31.209  1.00  0.00     0.029 A 
ATOM     59  N   UNL A   1      44.529  29.542  30.293  1.00  0.00    -0.354 N 
ATOM     60  N   UNL A   1      44.262  26.844  29.222  1.00  0.00    -0.248 NA
ATOM     61  C   UNL A   1      45.078  24.826  28.565  1.00  0.00     0.031 C 
ATOM     62  C   UNL A   1      46.589  30.125  30.990  1.00  0.00     0.029 A 
ATOM     63  C   UNL A   1      45.825  29.094  30.410  1.00  0.00     0.049 A 
ATOM     64  H   UNL A   1      43.771  29.028  29.929  1.00  0.00     0.167 HD
ATOM     65  C   UNL A   1      45.574  26.838  29.470  1.00  0.00     0.074 A 
ATOM     66  C   UNL A   1      46.119  25.542  29.045  1.00  0.00     0.031 C 
ATOM     67  C   UNL A   1      46.337  27.859  30.038  1.00  0.00     0.037 A 
BRANCH  54  68
ATOM     68  C   UNL A   1      43.563  33.069  31.391  1.00  0.00     0.058 A 
ATOM     69  C   UNL A   1      43.500  33.347  32.741  1.00  0.00     0.135 A 
ATOM     70  C   UNL A   1      43.913  34.080  30.507  1.00  0.00     0.135 A 
ATOM     71  F   UNL A   1      43.166  32.384  33.596  1.00  0.00    -0.206 F 
ATOM     72  C   UNL A   1      43.768  34.561  33.196  1.00  0.00     0.059 A 
ATOM     73  C   UNL A   1      44.193  35.339  31.019  1.00  0.00     0.059 A 
ATOM     74  F   UNL A   1      43.977  33.848  29.200  1.00  0.00    -0.206 F 
ATOM     75  C   UNL A   1      44.110  35.545  32.382  1.00  0.00     0.060 A 
BRANCH  75  76
ATOM     76  S   UNL A   1      44.474  37.183  33.062  1.00  0.00     0.124 S 
ATOM     77  O   UNL A   1      43.519  37.477  34.223  1.00  0.00    -0.237 OA
ATOM     78  O   UNL A   1      45.918  37.215  33.568  1.00  0.00    -0.237 OA
ATOM     79  O   UNL A   1      44.269  38.365  31.844  1.00  0.00    -0.744 OA
ENDBRANCH  75  76
ENDBRANCH  54  68
BRANCH  55  80
ATOM     80  C   UNL A   1      42.407  23.886  27.768  1.00  0.00     0.058 A 
ATOM     81  C   UNL A   1      42.334  22.770  28.578  1.00  0.00     0.135 A 
ATOM     82  C   UNL A   1      42.401  23.723  26.390  1.00  0.00     0.135 A 
ATOM     83  F   UNL A   1      42.339  22.916  29.900  1.00  0.00    -0.206 F 
ATOM     84  C   UNL A   1      42.258  21.557  28.054  1.00  0.00     0.059 A 
ATOM     85  C   UNL A   1      42.315  22.438  25.875  1.00  0.00     0.059 A 
ATOM     86  F   UNL A   1      42.476  24.776  25.580  1.00  0.00    -0.206 F 
ATOM     87  C   UNL A   1      42.243  21.368  26.745  1.00  0.00     0.060 A 
BRANCH  87  88
ATOM     88  S   UNL A   1      42.131  19.685  26.087  1.00  0.00     0.124 S 
ATOM     89  O   UNL A   1      42.621  18.690  27.141  1.00  0.00    -0.237 OA
ATOM     90  O   UNL A   1      40.675  19.374  25.728  1.00  0.00    -0.237 OA
ATOM     91  O   UNL A   1      43.103  19.556  24.685  1.00  0.00    -0.744 OA
ENDBRANCH  87  88
ENDBRANCH  55  80
BRANCH  67  92
ATOM     92  C   UNL A   1      47.818  27.604  30.261  1.00  0.00     0.058 A 
ATOM     93  C   UNL A   1      48.764  27.761  29.267  1.00  0.00     0.135 A 
ATOM     94  C   UNL A   1      48.198  27.050  31.475  1.00  0.00     0.135 A 
ATOM     95  F   UNL A   1      48.409  28.292  28.100  1.00  0.00    -0.206 F 
ATOM     96  C   UNL A   1      50.019  27.388  29.462  1.00  0.00     0.059 A 
ATOM     97  C   UNL A   1      49.523  26.675  31.646  1.00  0.00     0.059 A 
ATOM     98  F   UNL A   1      47.312  26.880  32.451  1.00  0.00    -0.206 F 
ATOM     99  C   UNL A   1      50.415  26.861  30.608  1.00  0.00     0.060 A 
BRANCH  99 100
ATOM    100  S   UNL A   1      52.147  26.379  30.819  1.00  0.00     0.124 S 
ATOM    101  O   UNL A   1      52.788  26.167  29.446  1.00  0.00    -0.237 OA
ATOM    102  O   UNL A   1      52.897  27.484  31.566  1.00  0.00    -0.237 OA
ATOM    103  O   UNL A   1      52.228  24.926  31.717  1.00  0.00    -0.744 OA
ENDBRANCH  99 100
ENDBRANCH  67  92
ENDBRANCH  41  42
ENDBRANCH  33  36
ENDBRANCH  31  32
ENDBRANCH  30  31
ENDBRANCH   1  30
TORSDOF 18
ENDMDL
MODEL 2
REMARK VINA RESULT:     -12.7      2.605      8.016
REMARK SMILES Cc1cc(S(F)(F)(F)(F)F)cc2c1O[C@H](C(F)(F)F)C(C(=O)NCCCCCCNC(=O)c1ccc(-c3c4nc(c(-c5c(F)cc(S(=O)(=O)[O-])cc5F)c5ccc([nH]5)c(-c5c(F)cc(S(=O)(=O)[O-])cc5F)c5nc(c(-c6c(F)cc(S(=O)(=O)[O-])cc6F)c6ccc3[nH]6)C=C5)C=C4)cc1)=C2
REMARK SMILES IDX 27 1 26 2 25 3 24 4 23 5 21 6 22 7 20 9 1 10 2 11 3 12 13 13
REMARK SMILES IDX 4 14 12 15 14 16 11 17 99 18 15 19 5 20 6 21 7 22 8 23 9 24
REMARK SMILES IDX 10 25 16 26 17 27 18 28 19 29 28 30 29 31 30 32 31 33 32 35
REMARK SMILES IDX 33 36 34 37 98 38 35 39 97 40 36 41 37 42 38 43 91 44 39 45
REMARK SMILES IDX 96 46 90 47 92 48 40 49 95 50 89 51 88 52 41 54 75 55 54 56
REMARK SMILES IDX 74 57 55 58 58 59 73 60 93 61 56 62 57 63 72 65 94 66 59 67
REMARK SMILES IDX 42 68 43 69 52 70 44 71 45 72 51 73 53 74 46 75 47 76 48 77
REMARK SMILES IDX 49 78 50 79 76 80 77 81 86 82 78 83 79 84 85 85 87 86 80 87
REMARK SMILES IDX 81 88 82 89 83 90 84 91 60 92 61 93 70 94 62 95 63 96 69 97
REMARK SMILES IDX 71 98 64 99 65 100 66 101 67 102 68 103
REMARK H PARENT 23 8 30 34 92 53 58 64
REMARK Flexibility Score: inf
ROOT
ATOM      1  C   UNL A   1      33.075  28.982  24.034  1.00  0.00     0.002 C 
ENDROOT
BRANCH   1   2
ATOM      2  C   UNL A   1      32.819  28.264  22.721  1.00  0.00     0.002 C 
BRANCH   2   3
ATOM      3  C   UNL A   1      33.717  27.041  22.628  1.00  0.00     0.021 C 
BRANCH   3   4
ATOM      4  C   UNL A   1      33.037  25.976  21.784  1.00  0.00     0.116 C 
BRANCH   4   5
ATOM      5  N   UNL A   1      31.615  25.897  22.148  1.00  0.00    -0.352 N 
ATOM      6  C   UNL A   1      31.141  24.828  23.039  1.00  0.00     0.251 C 
ATOM      7  O   UNL A   1      29.911  24.760  23.354  1.00  0.00    -0.270 OA
ATOM      8  H   UNL A   1      30.978  26.560  21.793  1.00  0.00     0.163 HD
BRANCH   6   9
ATOM      9  C   UNL A   1      32.123  23.804  23.586  1.00  0.00     0.067 C 
ATOM     10  C   UNL A   1      36.190  21.388  25.723  1.00  0.00     0.048 C 
ATOM     11  C   UNL A   1      34.850  21.020  25.108  1.00  0.00    -0.007 A 
ATOM     12  C   UNL A   1      34.613  19.679  24.893  1.00  0.00     0.031 A 
ATOM     13  C   UNL A   1      33.952  21.962  24.609  1.00  0.00     0.130 A 
ATOM     14  C   UNL A   1      33.496  19.261  24.182  1.00  0.00     0.108 A 
ATOM     15  C   UNL A   1      32.813  21.533  23.891  1.00  0.00     0.019 A 
ATOM     16  O   UNL A   1      34.149  23.404  24.805  1.00  0.00    -0.475 OA
ATOM     17  C   UNL A   1      32.599  20.167  23.689  1.00  0.00     0.036 A 
ATOM     18  C   UNL A   1      31.889  22.543  23.378  1.00  0.00     0.025 C 
ATOM     19  C   UNL A   1      33.237  24.258  24.292  1.00  0.00     0.314 C 
BRANCH  14  20
ATOM     20  S   UNL A   1      33.224  17.494  23.904  1.00  0.00     0.310 S 
ATOM     21  F   UNL A   1      32.203  17.732  22.713  1.00  0.00    -0.094 F 
ATOM     22  F   UNL A   1      31.996  17.605  24.886  1.00  0.00    -0.094 F 
ATOM     23  F   UNL A   1      32.980  15.969  23.727  1.00  0.00    -0.094 F 
ATOM     24  F   UNL A   1      34.367  17.429  22.817  1.00  0.00    -0.094 F 
ATOM     25  F   UNL A   1      33.411  19.061  23.987  1.00  0.00    -0.094 F 
ENDBRANCH  14  20
BRANCH  19  26
ATOM     26  C   UNL A   1      32.610  24.849  25.544  1.00  0.00     0.429 C 
ATOM     27  F   UNL A   1      31.719  23.995  26.040  1.00  0.00    -0.167 F 
ATOM     28  F   UNL A   1      33.557  25.078  26.449  1.00  0.00    -0.167 F 
ATOM     29  F   UNL A   1      32.004  25.993  25.238  1.00  0.00    -0.167 F 
ENDBRANCH  19  26
ENDBRANCH   6   9
ENDBRANCH   4   5
ENDBRANCH   3   4
ENDBRANCH   2   3
ENDBRANCH   1   2
BRANCH   1  30
ATOM     30  C   UNL A   1      34.183  28.269  24.794  1.00  0.00     0.021 C 
BRANCH  30  31
ATOM     31  C   UNL A   1      33.972  28.452  26.288  1.00  0.00     0.116 C 
BRANCH  31  32
ATOM     32  N   UNL A   1      33.523  29.826  26.555  1.00  0.00    -0.352 N 
ATOM     33  C   UNL A   1      34.330  30.711  27.408  1.00  0.00     0.251 C 
ATOM     34  H   UNL A   1      32.682  30.154  26.161  1.00  0.00     0.163 HD
ATOM     35  O   UNL A   1      33.942  31.899  27.638  1.00  0.00    -0.269 OA
BRANCH  33  36
ATOM     36  C   UNL A   1      35.628  30.204  28.015  1.00  0.00     0.039 A 
ATOM     37  C   UNL A   1      35.747  29.779  29.333  1.00  0.00     0.014 A 
ATOM     38  C   UNL A   1      36.722  30.318  27.293  1.00  0.00     0.014 A 
ATOM     39  C   UNL A   1      36.903  29.034  29.655  1.00  0.00     0.010 A 
ATOM     40  C   UNL A   1      37.977  30.027  27.843  1.00  0.00     0.010 A 
ATOM     41  C   UNL A   1      38.076  29.398  28.996  1.00  0.00    -0.014 A 
BRANCH  41  42
ATOM     42  C   UNL A   1      39.437  29.079  29.593  1.00  0.00     0.031 A 
ATOM     43  C   UNL A   1      40.209  28.030  29.091  1.00  0.00     0.074 A 
ATOM     44  C   UNL A   1      39.747  29.788  30.741  1.00  0.00     0.049 A 
ATOM     45  N   UNL A   1      41.356  27.557  29.582  1.00  0.00    -0.248 NA
ATOM     46  C   UNL A   1      39.864  27.253  27.891  1.00  0.00     0.031 C 
ATOM     47  C   UNL A   1      38.977  30.853  31.249  1.00  0.00     0.029 A 
ATOM     48  N   UNL A   1      40.821  29.605  31.583  1.00  0.00    -0.354 N 
ATOM     49  C   UNL A   1      41.808  26.561  28.817  1.00  0.00     0.074 A 
ATOM     50  C   UNL A   1      40.851  26.346  27.724  1.00  0.00     0.031 C 
ATOM     51  C   UNL A   1      39.573  31.299  32.386  1.00  0.00     0.029 A 
ATOM     52  C   UNL A   1      40.724  30.520  32.609  1.00  0.00     0.049 A 
ATOM     53  H   UNL A   1      41.534  28.936  31.472  1.00  0.00     0.167 HD
ATOM     54  C   UNL A   1      42.981  25.824  28.990  1.00  0.00     0.037 A 
ATOM     55  C   UNL A   1      41.580  30.680  33.687  1.00  0.00     0.037 A 
ATOM     56  C   UNL A   1      43.859  26.013  30.044  1.00  0.00     0.049 A 
ATOM     57  C   UNL A   1      42.723  29.903  33.892  1.00  0.00     0.074 A 
ATOM     58  C   UNL A   1      45.050  25.283  30.228  1.00  0.00     0.029 A 
ATOM     59  N   UNL A   1      43.750  26.910  31.083  1.00  0.00    -0.354 N 
ATOM     60  N   UNL A   1      43.195  28.934  33.106  1.00  0.00    -0.248 NA
ATOM     61  C   UNL A   1      43.619  30.041  35.046  1.00  0.00     0.031 C 
ATOM     62  C   UNL A   1      45.646  25.729  31.366  1.00  0.00     0.029 A 
ATOM     63  C   UNL A   1      44.836  26.743  31.913  1.00  0.00     0.049 A 
ATOM     64  H   UNL A   1      43.021  27.560  31.210  1.00  0.00     0.167 HD
ATOM     65  C   UNL A   1      44.321  28.433  33.619  1.00  0.00     0.074 A 
ATOM     66  C   UNL A   1      44.606  29.134  34.879  1.00  0.00     0.031 C 
ATOM     67  C   UNL A   1      45.124  27.424  33.087  1.00  0.00     0.037 A 
BRANCH  54  68
ATOM     68  C   UNL A   1      43.313  24.754  27.963  1.00  0.00     0.058 A 
ATOM     69  C   UNL A   1      44.040  25.014  26.818  1.00  0.00     0.135 A 
ATOM     70  C   UNL A   1      42.949  23.446  28.250  1.00  0.00     0.135 A 
ATOM     71  F   UNL A   1      44.394  26.265  26.535  1.00  0.00    -0.206 F 
ATOM     72  C   UNL A   1      44.389  24.034  26.000  1.00  0.00     0.059 A 
ATOM     73  C   UNL A   1      43.336  22.442  27.373  1.00  0.00     0.059 A 
ATOM     74  F   UNL A   1      42.244  23.161  29.341  1.00  0.00    -0.206 F 
ATOM     75  C   UNL A   1      44.063  22.777  26.247  1.00  0.00     0.060 A 
BRANCH  75  76
ATOM     76  S   UNL A   1      44.574  21.477  25.096  1.00  0.00     0.124 S 
ATOM     77  O   UNL A   1      45.977  20.989  25.468  1.00  0.00    -0.237 OA
ATOM     78  O   UNL A   1      43.589  20.308  25.176  1.00  0.00    -0.237 OA
ATOM     79  O   UNL A   1      44.593  22.099  23.503  1.00  0.00    -0.744 OA
ENDBRANCH  75  76
ENDBRANCH  54  68
BRANCH  55  80
ATOM     80  C   UNL A   1      41.257  31.761  34.705  1.00  0.00     0.058 A 
ATOM     81  C   UNL A   1      40.375  31.566  35.749  1.00  0.00     0.135 A 
ATOM     82  C   UNL A   1      41.805  33.020  34.508  1.00  0.00     0.135 A 
ATOM     83  F   UNL A   1      39.845  30.362  35.945  1.00  0.00    -0.206 F 
ATOM     84  C   UNL A   1      40.052  32.563  36.557  1.00  0.00     0.059 A 
ATOM     85  C   UNL A   1      41.448  34.041  35.377  1.00  0.00     0.059 A 
ATOM     86  F   UNL A   1      42.653  33.245  33.509  1.00  0.00    -0.206 F 
ATOM     87  C   UNL A   1      40.561  33.774  36.401  1.00  0.00     0.060 A 
BRANCH  87  88
ATOM     88  S   UNL A   1      40.086  35.096  37.543  1.00  0.00     0.124 S 
ATOM     89  O   UNL A   1      39.813  36.379  36.754  1.00  0.00    -0.237 OA
ATOM     90  O   UNL A   1      38.822  34.685  38.303  1.00  0.00    -0.237 OA
ATOM     91  O   UNL A   1      41.356  35.371  38.656  1.00  0.00    -0.744 OA
ENDBRANCH  87  88
ENDBRANCH  55  80
BRANCH  67  92
ATOM     92  C   UNL A   1      46.390  27.047  33.838  1.00  0.00     0.058 A 
ATOM     93  C   UNL A   1      46.410  26.107  34.849  1.00  0.00     0.135 A 
ATOM     94  C   UNL A   1      47.532  27.794  33.586  1.00  0.00     0.135 A 
ATOM     95  F   UNL A   1      45.320  25.386  35.097  1.00  0.00    -0.206 F 
ATOM     96  C   UNL A   1      47.500  25.916  35.574  1.00  0.00     0.059 A 
ATOM     97  C   UNL A   1      48.659  27.564  34.362  1.00  0.00     0.059 A 
ATOM     98  F   UNL A   1      47.545  28.712  32.623  1.00  0.00    -0.206 F 
ATOM     99  C   UNL A   1      48.607  26.607  35.357  1.00  0.00     0.060 A 
BRANCH  99 100
ATOM    100  S   UNL A   1      50.070  26.295  36.375  1.00  0.00     0.124 S 
ATOM    101  O   UNL A   1      51.229  25.847  35.480  1.00  0.00    -0.237 OA
ATOM    102  O   UNL A   1      50.462  27.578  37.112  1.00  0.00    -0.237 OA
ATOM    103  O   UNL A   1      49.721  25.067  37.513  1.00  0.00    -0.744 OA
ENDBRANCH  99 100
ENDBRANCH  67  92
ENDBRANCH  41  42
ENDBRANCH  33  36
ENDBRANCH  31  32
ENDBRANCH  30  31
ENDBRANCH   1  30
TORSDOF 18
ENDMDL
MODEL 3
REMARK VINA RESULT:     -12.6      4.795      9.932
REMARK SMILES Cc1cc(S(F)(F)(F)(F)F)cc2c1O[C@H](C(F)(F)F)C(C(=O)NCCCCCCNC(=O)c1ccc(-c3c4nc(c(-c5c(F)cc(S(=O)(=O)[O-])cc5F)c5ccc([nH]5)c(-c5c(F)cc(S(=O)(=O)[O-])cc5F)c5nc(c(-c6c(F)cc(S(=O)(=O)[O-])cc6F)c6ccc3[nH]6)C=C5)C=C4)cc1)=C2
REMARK SMILES IDX 27 1 26 2 25 3 24 4 23 5 21 6 22 7 20 9 1 10 2 11 3 12 13 13
REMARK SMILES IDX 4 14 12 15 14 16 11 17 99 18 15 19 5 20 6 21 7 22 8 23 9 24
REMARK SMILES IDX 10 25 16 26 17 27 18 28 19 29 28 30 29 31 30 32 31 33 32 35
REMARK SMILES IDX 33 36 34 37 98 38 35 39 97 40 36 41 37 42 38 43 91 44 39 45
REMARK SMILES IDX 96 46 90 47 92 48 40 49 95 50 89 51 88 52 41 54 75 55 54 56
REMARK SMILES IDX 74 57 55 58 58 59 73 60 93 61 56 62 57 63 72 65 94 66 59 67
REMARK SMILES IDX 42 68 43 69 52 70 44 71 45 72 51 73 53 74 46 75 47 76 48 77
REMARK SMILES IDX 49 78 50 79 76 80 77 81 86 82 78 83 79 84 85 85 87 86 80 87
REMARK SMILES IDX 81 88 82 89 83 90 84 91 60 92 61 93 70 94 62 95 63 96 69 97
REMARK SMILES IDX 71 98 64 99 65 100 66 101 67 102 68 103
REMARK H PARENT 23 8 30 34 92 53 58 64
REMARK Flexibility Score: inf
ROOT
ATOM      1  C   UNL A   1      40.234  21.851  26.440  1.00  0.00     0.002 C 
ENDROOT
BRANCH   1   2
ATOM      2  C   UNL A   1      38.763  22.182  26.255  1.00  0.00     0.002 C 
BRANCH   2   3
ATOM      3  C   UNL A   1      38.190  21.337  25.130  1.00  0.00     0.021 C 
BRANCH   3   4
ATOM      4  C   UNL A   1      36.738  21.719  24.898  1.00  0.00     0.116 C 
BRANCH   4   5
ATOM      5  N   UNL A   1      35.931  21.304  26.054  1.00  0.00    -0.352 N 
ATOM      6  C   UNL A   1      34.606  21.900  26.279  1.00  0.00     0.251 C 
ATOM      7  O   UNL A   1      33.908  21.541  27.279  1.00  0.00    -0.270 OA
ATOM      8  H   UNL A   1      36.278  20.627  26.679  1.00  0.00     0.163 HD
BRANCH   6   9
ATOM      9  C   UNL A   1      34.070  22.946  25.314  1.00  0.00     0.067 C 
ATOM     10  C   UNL A   1      32.553  25.601  21.120  1.00  0.00     0.048 C 
ATOM     11  C   UNL A   1      32.597  25.795  22.627  1.00  0.00    -0.007 A 
ATOM     12  C   UNL A   1      32.289  27.051  23.101  1.00  0.00     0.031 A 
ATOM     13  C   UNL A   1      33.088  24.832  23.508  1.00  0.00     0.130 A 
ATOM     14  C   UNL A   1      32.469  27.368  24.441  1.00  0.00     0.108 A 
ATOM     15  C   UNL A   1      33.264  25.156  24.872  1.00  0.00     0.019 A 
ATOM     16  O   UNL A   1      33.434  23.476  23.064  1.00  0.00    -0.475 OA
ATOM     17  C   UNL A   1      32.943  26.438  25.324  1.00  0.00     0.036 A 
ATOM     18  C   UNL A   1      33.782  24.127  25.773  1.00  0.00     0.025 C 
ATOM     19  C   UNL A   1      33.906  22.597  23.974  1.00  0.00     0.314 C 
BRANCH  14  20
ATOM     20  S   UNL A   1      32.069  29.033  25.027  1.00  0.00     0.310 S 
ATOM     21  F   UNL A   1      31.527  28.523  26.428  1.00  0.00    -0.094 F 
ATOM     22  F   UNL A   1      30.617  28.803  24.460  1.00  0.00    -0.094 F 
ATOM     23  F   UNL A   1      31.696  30.474  25.477  1.00  0.00    -0.094 F 
ATOM     24  F   UNL A   1      33.482  29.194  25.713  1.00  0.00    -0.094 F 
ATOM     25  F   UNL A   1      32.425  27.533  24.678  1.00  0.00    -0.094 F 
ENDBRANCH  14  20
BRANCH  19  26
ATOM     26  C   UNL A   1      32.786  21.571  24.041  1.00  0.00     0.429 C 
ATOM     27  F   UNL A   1      31.864  21.976  24.909  1.00  0.00    -0.167 F 
ATOM     28  F   UNL A   1      32.235  21.438  22.838  1.00  0.00    -0.167 F 
ATOM     29  F   UNL A   1      33.281  20.401  24.434  1.00  0.00    -0.167 F 
ENDBRANCH  19  26
ENDBRANCH   6   9
ENDBRANCH   4   5
ENDBRANCH   3   4
ENDBRANCH   2   3
ENDBRANCH   1   2
BRANCH   1  30
ATOM     30  C   UNL A   1      40.725  22.438  27.753  1.00  0.00     0.021 C 
BRANCH  30  31
ATOM     31  C   UNL A   1      42.011  23.212  27.515  1.00  0.00     0.116 C 
BRANCH  31  32
ATOM     32  N   UNL A   1      41.951  23.868  26.200  1.00  0.00    -0.352 N 
ATOM     33  C   UNL A   1      41.596  25.291  26.104  1.00  0.00     0.251 C 
ATOM     34  H   UNL A   1      42.149  23.354  25.384  1.00  0.00     0.163 HD
ATOM     35  O   UNL A   1      41.545  25.858  24.968  1.00  0.00    -0.269 OA
BRANCH  33  36
ATOM     36  C   UNL A   1      41.290  26.084  27.364  1.00  0.00     0.039 A 
ATOM     37  C   UNL A   1      40.044  26.100  27.981  1.00  0.00     0.014 A 
ATOM     38  C   UNL A   1      42.214  26.914  27.800  1.00  0.00     0.014 A 
ATOM     39  C   UNL A   1      40.000  26.598  29.302  1.00  0.00     0.010 A 
ATOM     40  C   UNL A   1      41.945  27.796  28.854  1.00  0.00     0.010 A 
ATOM     41  C   UNL A   1      40.867  27.649  29.595  1.00  0.00    -0.014 A 
BRANCH  41  42
ATOM     42  C   UNL A   1      40.575  28.604  30.741  1.00  0.00     0.031 A 
ATOM     43  C   UNL A   1      39.614  29.607  30.609  1.00  0.00     0.074 A 
ATOM     44  C   UNL A   1      41.438  28.496  31.819  1.00  0.00     0.049 A 
ATOM     45  N   UNL A   1      39.334  30.585  31.473  1.00  0.00    -0.248 NA
ATOM     46  C   UNL A   1      38.720  29.744  29.449  1.00  0.00     0.031 C 
ATOM     47  C   UNL A   1      42.405  27.482  31.964  1.00  0.00     0.029 A 
ATOM     48  N   UNL A   1      41.523  29.319  32.920  1.00  0.00    -0.354 N 
ATOM     49  C   UNL A   1      38.337  31.340  31.006  1.00  0.00     0.074 A 
ATOM     50  C   UNL A   1      37.933  30.814  29.695  1.00  0.00     0.031 C 
ATOM     51  C   UNL A   1      43.071  27.698  33.129  1.00  0.00     0.029 A 
ATOM     52  C   UNL A   1      42.531  28.849  33.732  1.00  0.00     0.049 A 
ATOM     53  H   UNL A   1      40.960  30.108  33.095  1.00  0.00     0.167 HD
ATOM     54  C   UNL A   1      37.749  32.444  31.624  1.00  0.00     0.037 A 
ATOM     55  C   UNL A   1      42.971  29.382  34.933  1.00  0.00     0.037 A 
ATOM     56  C   UNL A   1      38.160  32.952  32.846  1.00  0.00     0.049 A 
ATOM     57  C   UNL A   1      42.422  30.523  35.523  1.00  0.00     0.074 A 
ATOM     58  C   UNL A   1      37.573  34.060  33.485  1.00  0.00     0.029 A 
ATOM     59  N   UNL A   1      39.184  32.497  33.646  1.00  0.00    -0.354 N 
ATOM     60  N   UNL A   1      41.399  31.254  35.076  1.00  0.00    -0.248 NA
ATOM     61  C   UNL A   1      42.901  31.115  36.778  1.00  0.00     0.031 C 
ATOM     62  C   UNL A   1      38.239  34.276  34.651  1.00  0.00     0.029 A 
ATOM     63  C   UNL A   1      39.255  33.307  34.757  1.00  0.00     0.049 A 
ATOM     64  H   UNL A   1      39.767  31.725  33.456  1.00  0.00     0.167 HD
ATOM     65  C   UNL A   1      41.146  32.257  35.920  1.00  0.00     0.074 A 
ATOM     66  C   UNL A   1      42.113  32.186  37.024  1.00  0.00     0.031 C 
ATOM     67  C   UNL A   1      40.147  33.225  35.816  1.00  0.00     0.037 A 
BRANCH  54  68
ATOM     68  C   UNL A   1      36.592  33.130  30.916  1.00  0.00     0.058 A 
ATOM     69  C   UNL A   1      35.281  33.011  31.333  1.00  0.00     0.135 A 
ATOM     70  C   UNL A   1      36.892  33.988  29.867  1.00  0.00     0.135 A 
ATOM     71  F   UNL A   1      34.984  32.191  32.338  1.00  0.00    -0.206 F 
ATOM     72  C   UNL A   1      34.317  33.702  30.746  1.00  0.00     0.059 A 
ATOM     73  C   UNL A   1      35.858  34.702  29.278  1.00  0.00     0.059 A 
ATOM     74  F   UNL A   1      38.142  34.123  29.436  1.00  0.00    -0.206 F 
ATOM     75  C   UNL A   1      34.570  34.532  29.749  1.00  0.00     0.060 A 
BRANCH  75  76
ATOM     76  S   UNL A   1      33.212  35.458  28.990  1.00  0.00     0.124 S 
ATOM     77  O   UNL A   1      32.303  36.021  30.086  1.00  0.00    -0.237 OA
ATOM     78  O   UNL A   1      33.783  36.610  28.159  1.00  0.00    -0.237 OA
ATOM     79  O   UNL A   1      32.307  34.418  27.978  1.00  0.00    -0.744 OA
ENDBRANCH  75  76
ENDBRANCH  54  68
BRANCH  55  80
ATOM     80  C   UNL A   1      44.117  28.687  35.649  1.00  0.00     0.058 A 
ATOM     81  C   UNL A   1      43.919  27.748  36.641  1.00  0.00     0.135 A 
ATOM     82  C   UNL A   1      45.410  29.092  35.349  1.00  0.00     0.135 A 
ATOM     83  F   UNL A   1      42.684  27.353  36.936  1.00  0.00    -0.206 F 
ATOM     84  C   UNL A   1      44.945  27.236  37.303  1.00  0.00     0.059 A 
ATOM     85  C   UNL A   1      46.462  28.531  36.059  1.00  0.00     0.059 A 
ATOM     86  F   UNL A   1      45.636  29.999  34.403  1.00  0.00    -0.206 F 
ATOM     87  C   UNL A   1      46.190  27.596  37.038  1.00  0.00     0.060 A 
BRANCH  87  88
ATOM     88  S   UNL A   1      47.553  26.855  37.971  1.00  0.00     0.124 S 
ATOM     89  O   UNL A   1      48.317  25.880  37.073  1.00  0.00    -0.237 OA
ATOM     90  O   UNL A   1      48.500  27.958  38.451  1.00  0.00    -0.237 OA
ATOM     91  O   UNL A   1      46.926  26.014  39.322  1.00  0.00    -0.744 OA
ENDBRANCH  87  88
ENDBRANCH  55  80
BRANCH  67  92
ATOM     92  C   UNL A   1      40.028  34.251  36.931  1.00  0.00     0.058 A 
ATOM     93  C   UNL A   1      39.190  34.085  38.016  1.00  0.00     0.135 A 
ATOM     94  C   UNL A   1      40.683  35.462  36.760  1.00  0.00     0.135 A 
ATOM     95  F   UNL A   1      38.559  32.926  38.188  1.00  0.00    -0.206 F 
ATOM     96  C   UNL A   1      39.008  35.065  38.886  1.00  0.00     0.059 A 
ATOM     97  C   UNL A   1      40.473  36.466  37.695  1.00  0.00     0.059 A 
ATOM     98  F   UNL A   1      41.493  35.657  35.723  1.00  0.00    -0.206 F 
ATOM     99  C   UNL A   1      39.621  36.230  38.756  1.00  0.00     0.060 A 
BRANCH  99 100
ATOM    100  S   UNL A   1      39.339  37.530  39.983  1.00  0.00     0.124 S 
ATOM    101  O   UNL A   1      40.603  38.382  40.123  1.00  0.00    -0.237 OA
ATOM    102  O   UNL A   1      38.176  38.415  39.531  1.00  0.00    -0.237 OA
ATOM    103  O   UNL A   1      38.962  36.818  41.491  1.00  0.00    -0.744 OA
ENDBRANCH  99 100
ENDBRANCH  67  92
ENDBRANCH  41  42
ENDBRANCH  33  36
ENDBRANCH  31  32
ENDBRANCH  30  31
ENDBRANCH   1  30
TORSDOF 18
ENDMDL
