MODEL 1
REMARK VINA RESULT:     -12.3      0.000      0.000
REMARK SMILES Cc1c(C[NH2+]C[C@@H]2CCCO2)c(C(=O)NCCCCCCNC(=O)c2ccc(-c3c4nc(c(-c5c(F)cc(S(=O)(=O)[O-])cc5F)c5ccc([nH]5)c(-c5c(F)cc(S(=O)(=O)[O-])cc5F)c5nc(c(-c6c(F)cc(S(=O)(=O)[O-])cc6F)c6ccc3[nH]6)C=C5)C=C4)cc2)c(C)n1Cc1ccc(F)cc1
REMARK SMILES IDX 18 1 17 2 16 3 15 4 13 5 14 6 12 8 1 9 2 10 3 11 93 12 91 13
REMARK SMILES IDX 92 14 4 15 5 16 6 19 7 20 8 21 11 22 9 23 10 24 94 25 95 26
REMARK SMILES IDX 96 27 101 28 97 29 100 30 98 31 99 32 19 33 20 34 21 35
REMARK SMILES IDX 22 36 23 37 24 39 25 40 26 41 90 42 27 43 89 44 28 45 29 46
REMARK SMILES IDX 30 47 83 48 31 49 88 50 82 51 84 52 32 53 87 54 81 55 80 56
REMARK SMILES IDX 33 58 67 59 46 60 66 61 47 62 50 63 65 64 85 65 48 66 49 67
REMARK SMILES IDX 64 69 86 70 51 71 34 72 35 73 44 74 36 75 37 76 43 77 45 78
REMARK SMILES IDX 38 79 39 80 40 81 41 82 42 83 68 84 69 85 78 86 70 87 71 88
REMARK SMILES IDX 77 89 79 90 72 91 73 92 74 93 75 94 76 95 52 96 53 97 62 98
REMARK SMILES IDX 54 99 55 100 61 101 63 102 56 103 57 104 58 105 59 106
REMARK SMILES IDX 60 107
REMARK H PARENT 15 7 5 17 5 18 22 38 84 57 50 68
REMARK Flexibility Score: inf
ROOT
ATOM      1  C   UNL A   1      36.708  23.777  25.928  1.00  0.00     0.002 C 
ENDROOT
BRANCH   1   2
ATOM      2  C   UNL A   1      36.031  23.059  24.762  1.00  0.00     0.021 C 
BRANCH   2   3
ATOM      3  C   UNL A   1      35.119  23.884  23.869  1.00  0.00     0.116 C 
BRANCH   3   4
ATOM      4  N   UNL A   1      34.374  23.142  22.887  1.00  0.00    -0.352 N 
ATOM      5  C   UNL A   1      33.025  22.851  22.836  1.00  0.00     0.253 C 
ATOM      6  O   UNL A   1      32.685  22.107  21.914  1.00  0.00    -0.269 OA
ATOM      7  H   UNL A   1      34.907  22.789  22.138  1.00  0.00     0.163 HD
BRANCH   5   8
ATOM      8  C   UNL A   1      32.083  23.307  23.885  1.00  0.00     0.069 A 
ATOM      9  C   UNL A   1      30.083  23.023  27.060  1.00  0.00     0.065 C 
ATOM     10  C   UNL A   1      30.871  23.338  25.834  1.00  0.00     0.025 A 
ATOM     11  C   UNL A   1      31.637  22.507  25.017  1.00  0.00     0.040 A 
ATOM     12  N   UNL A   1      30.940  24.609  25.289  1.00  0.00    -0.343 N 
ATOM     13  C   UNL A   1      31.277  24.453  23.953  1.00  0.00     0.028 A 
ATOM     14  C   UNL A   1      30.767  25.378  22.897  1.00  0.00     0.065 C 
BRANCH  11  15
ATOM     15  C   UNL A   1      31.921  21.040  25.236  1.00  0.00     0.300 C 
BRANCH  15  16
ATOM     16  N   UNL A   1      33.273  20.913  25.775  1.00  0.00    -0.340 N 
ATOM     17  H   UNL A   1      33.211  20.486  26.699  1.00  0.00     0.346 HD
ATOM     18  H   UNL A   1      33.670  21.852  25.803  1.00  0.00     0.346 HD
BRANCH  16  19
ATOM     19  C   UNL A   1      34.167  20.098  24.950  1.00  0.00     0.293 C 
BRANCH  19  20
ATOM     20  C   UNL A   1      33.620  18.700  24.602  1.00  0.00     0.173 C 
ATOM     21  C   UNL A   1      34.684  17.686  24.210  1.00  0.00     0.040 C 
ATOM     22  O   UNL A   1      32.723  18.765  23.471  1.00  0.00    -0.372 OA
ATOM     23  C   UNL A   1      33.868  16.684  23.430  1.00  0.00     0.031 C 
ATOM     24  C   UNL A   1      32.886  17.572  22.693  1.00  0.00     0.161 C 
ENDBRANCH  19  20
ENDBRANCH  16  19
ENDBRANCH  15  16
ENDBRANCH  11  15
BRANCH  12  25
ATOM     25  C   UNL A   1      30.465  25.849  25.926  1.00  0.00     0.157 C 
BRANCH  25  26
ATOM     26  C   UNL A   1      31.546  26.864  26.279  1.00  0.00    -0.028 A 
ATOM     27  C   UNL A   1      32.828  26.745  25.706  1.00  0.00     0.008 A 
ATOM     28  C   UNL A   1      31.366  27.847  27.267  1.00  0.00     0.008 A 
ATOM     29  C   UNL A   1      33.880  27.577  26.111  1.00  0.00     0.039 A 
ATOM     30  C   UNL A   1      32.416  28.679  27.672  1.00  0.00     0.039 A 
ATOM     31  C   UNL A   1      33.666  28.535  27.090  1.00  0.00     0.123 A 
ATOM     32  F   UNL A   1      34.675  29.321  27.482  1.00  0.00    -0.207 F 
ENDBRANCH  25  26
ENDBRANCH  12  25
ENDBRANCH   5   8
ENDBRANCH   3   4
ENDBRANCH   2   3
ENDBRANCH   1   2
BRANCH   1  33
ATOM     33  C   UNL A   1      38.213  23.559  26.133  1.00  0.00     0.002 C 
BRANCH  33  34
ATOM     34  C   UNL A   1      38.829  22.189  25.789  1.00  0.00     0.021 C 
BRANCH  34  35
ATOM     35  C   UNL A   1      39.852  21.545  26.746  1.00  0.00     0.116 C 
BRANCH  35  36
ATOM     36  N   UNL A   1      41.086  21.101  26.153  1.00  0.00    -0.352 N 
ATOM     37  C   UNL A   1      42.282  21.805  26.077  1.00  0.00     0.251 C 
ATOM     38  H   UNL A   1      41.083  20.199  25.758  1.00  0.00     0.163 HD
ATOM     39  O   UNL A   1      43.218  21.263  25.494  1.00  0.00    -0.269 OA
BRANCH  37  40
ATOM     40  C   UNL A   1      42.402  23.243  26.549  1.00  0.00     0.039 A 
ATOM     41  C   UNL A   1      42.104  23.505  27.873  1.00  0.00     0.014 A 
ATOM     42  C   UNL A   1      42.602  24.377  25.735  1.00  0.00     0.014 A 
ATOM     43  C   UNL A   1      42.076  24.847  28.367  1.00  0.00     0.010 A 
ATOM     44  C   UNL A   1      42.475  25.760  26.234  1.00  0.00     0.010 A 
ATOM     45  C   UNL A   1      42.193  26.060  27.581  1.00  0.00    -0.014 A 
BRANCH  45  46
ATOM     46  C   UNL A   1      41.516  27.424  28.247  1.00  0.00     0.031 A 
ATOM     47  C   UNL A   1      42.708  28.323  28.292  1.00  0.00     0.074 A 
ATOM     48  C   UNL A   1      40.389  27.981  28.884  1.00  0.00     0.049 A 
ATOM     49  N   UNL A   1      43.772  27.900  28.918  1.00  0.00    -0.248 NA
ATOM     50  C   UNL A   1      42.960  29.404  27.335  1.00  0.00     0.031 C 
ATOM     51  C   UNL A   1      39.162  27.301  29.340  1.00  0.00     0.029 A 
ATOM     52  N   UNL A   1      40.056  29.328  29.310  1.00  0.00    -0.354 N 
ATOM     53  C   UNL A   1      44.758  28.818  28.691  1.00  0.00     0.074 A 
ATOM     54  C   UNL A   1      44.275  29.572  27.536  1.00  0.00     0.031 C 
ATOM     55  C   UNL A   1      38.209  28.179  29.791  1.00  0.00     0.029 A 
ATOM     56  C   UNL A   1      38.683  29.566  29.757  1.00  0.00     0.049 A 
ATOM     57  H   UNL A   1      40.725  30.050  29.298  1.00  0.00     0.167 HD
ATOM     58  C   UNL A   1      45.358  29.287  29.822  1.00  0.00     0.037 A 
ATOM     59  C   UNL A   1      38.015  30.741  30.166  1.00  0.00     0.037 A 
ATOM     60  C   UNL A   1      44.783  30.541  30.230  1.00  0.00     0.049 A 
ATOM     61  C   UNL A   1      39.077  31.558  30.766  1.00  0.00     0.074 A 
ATOM     62  C   UNL A   1      44.412  31.673  29.528  1.00  0.00     0.029 A 
ATOM     63  N   UNL A   1      44.053  30.543  31.400  1.00  0.00    -0.354 N 
ATOM     64  N   UNL A   1      39.570  31.290  31.935  1.00  0.00    -0.248 NA
ATOM     65  C   UNL A   1      39.570  32.773  30.128  1.00  0.00     0.031 C 
ATOM     66  C   UNL A   1      43.125  31.978  30.018  1.00  0.00     0.029 A 
ATOM     67  C   UNL A   1      42.949  31.350  31.244  1.00  0.00     0.049 A 
ATOM     68  H   UNL A   1      44.285  30.045  32.217  1.00  0.00     0.167 HD
ATOM     69  C   UNL A   1      40.751  31.959  31.924  1.00  0.00     0.074 A 
ATOM     70  C   UNL A   1      40.577  33.035  30.962  1.00  0.00     0.031 C 
ATOM     71  C   UNL A   1      41.859  31.224  32.183  1.00  0.00     0.037 A 
BRANCH  58  72
ATOM     72  C   UNL A   1      45.780  28.198  30.779  1.00  0.00     0.058 A 
ATOM     73  C   UNL A   1      44.804  27.560  31.551  1.00  0.00     0.135 A 
ATOM     74  C   UNL A   1      47.128  27.849  31.028  1.00  0.00     0.135 A 
ATOM     75  F   UNL A   1      43.503  27.820  31.340  1.00  0.00    -0.206 F 
ATOM     76  C   UNL A   1      45.146  26.652  32.551  1.00  0.00     0.059 A 
ATOM     77  C   UNL A   1      47.495  26.987  32.056  1.00  0.00     0.059 A 
ATOM     78  F   UNL A   1      48.114  28.342  30.259  1.00  0.00    -0.206 F 
ATOM     79  C   UNL A   1      46.494  26.389  32.812  1.00  0.00     0.060 A 
BRANCH  79  80
ATOM     80  S   UNL A   1      46.903  25.262  34.161  1.00  0.00     0.124 S 
ATOM     81  O   UNL A   1      45.771  24.343  34.158  1.00  0.00    -0.237 OA
ATOM     82  O   UNL A   1      48.166  24.700  33.708  1.00  0.00    -0.237 OA
ATOM     83  O   UNL A   1      46.975  26.139  35.336  1.00  0.00    -0.744 OA
ENDBRANCH  79  80
ENDBRANCH  58  72
BRANCH  59  84
ATOM     84  C   UNL A   1      36.627  31.473  30.464  1.00  0.00     0.058 A 
ATOM     85  C   UNL A   1      36.115  31.608  31.813  1.00  0.00     0.135 A 
ATOM     86  C   UNL A   1      36.021  32.388  29.585  1.00  0.00     0.135 A 
ATOM     87  F   UNL A   1      36.514  30.788  32.795  1.00  0.00    -0.206 F 
ATOM     88  C   UNL A   1      35.238  32.624  32.262  1.00  0.00     0.059 A 
ATOM     89  C   UNL A   1      35.104  33.406  30.013  1.00  0.00     0.059 A 
ATOM     90  F   UNL A   1      36.360  32.386  28.288  1.00  0.00    -0.206 F 
ATOM     91  C   UNL A   1      34.764  33.556  31.359  1.00  0.00     0.060 A 
BRANCH  91  92
ATOM     92  S   UNL A   1      33.852  35.010  31.993  1.00  0.00     0.124 S 
ATOM     93  O   UNL A   1      32.777  34.407  32.773  1.00  0.00    -0.237 OA
ATOM     94  O   UNL A   1      34.875  35.709  32.768  1.00  0.00    -0.237 OA
ATOM     95  O   UNL A   1      33.428  35.699  30.777  1.00  0.00    -0.744 OA
ENDBRANCH  91  92
ENDBRANCH  59  84
BRANCH  71  96
ATOM     96  C   UNL A   1      41.805  30.249  33.347  1.00  0.00     0.058 A 
ATOM     97  C   UNL A   1      42.155  30.497  34.695  1.00  0.00     0.135 A 
ATOM     98  C   UNL A   1      41.424  28.929  33.048  1.00  0.00     0.135 A 
ATOM     99  F   UNL A   1      42.435  31.729  35.144  1.00  0.00    -0.206 F 
ATOM    100  C   UNL A   1      42.210  29.475  35.650  1.00  0.00     0.059 A 
ATOM    101  C   UNL A   1      41.416  27.909  33.996  1.00  0.00     0.059 A 
ATOM    102  F   UNL A   1      41.048  28.610  31.798  1.00  0.00    -0.206 F 
ATOM    103  C   UNL A   1      41.851  28.181  35.288  1.00  0.00     0.060 A 
BRANCH 103 104
ATOM    104  S   UNL A   1      41.960  26.858  36.511  1.00  0.00     0.124 S 
ATOM    105  O   UNL A   1      43.182  27.213  37.228  1.00  0.00    -0.237 OA
ATOM    106  O   UNL A   1      40.722  27.013  37.265  1.00  0.00    -0.237 OA
ATOM    107  O   UNL A   1      42.056  25.651  35.695  1.00  0.00    -0.744 OA
ENDBRANCH 103 104
ENDBRANCH  71  96
ENDBRANCH  45  46
ENDBRANCH  37  40
ENDBRANCH  35  36
ENDBRANCH  34  35
ENDBRANCH  33  34
ENDBRANCH   1  33
TORSDOF 22
ENDMDL
MODEL 2
REMARK VINA RESULT:     -12.0      1.428      2.074
REMARK SMILES Cc1c(C[NH2+]C[C@@H]2CCCO2)c(C(=O)NCCCCCCNC(=O)c2ccc(-c3c4nc(c(-c5c(F)cc(S(=O)(=O)[O-])cc5F)c5ccc([nH]5)c(-c5c(F)cc(S(=O)(=O)[O-])cc5F)c5nc(c(-c6c(F)cc(S(=O)(=O)[O-])cc6F)c6ccc3[nH]6)C=C5)C=C4)cc2)c(C)n1Cc1ccc(F)cc1
REMARK SMILES IDX 18 1 17 2 16 3 15 4 13 5 14 6 12 8 1 9 2 10 3 11 93 12 91 13
REMARK SMILES IDX 92 14 4 15 5 16 6 19 7 20 8 21 11 22 9 23 10 24 94 25 95 26
REMARK SMILES IDX 96 27 101 28 97 29 100 30 98 31 99 32 19 33 20 34 21 35
REMARK SMILES IDX 22 36 23 37 24 39 25 40 26 41 90 42 27 43 89 44 28 45 29 46
REMARK SMILES IDX 30 47 83 48 31 49 88 50 82 51 84 52 32 53 87 54 81 55 80 56
REMARK SMILES IDX 33 58 67 59 46 60 66 61 47 62 50 63 65 64 85 65 48 66 49 67
REMARK SMILES IDX 64 69 86 70 51 71 34 72 35 73 44 74 36 75 37 76 43 77 45 78
REMARK SMILES IDX 38 79 39 80 40 81 41 82 42 83 68 84 69 85 78 86 70 87 71 88
REMARK SMILES IDX 77 89 79 90 72 91 73 92 74 93 75 94 76 95 52 96 53 97 62 98
REMARK SMILES IDX 54 99 55 100 61 101 63 102 56 103 57 104 58 105 59 106
REMARK SMILES IDX 60 107
REMARK H PARENT 15 7 5 17 5 18 22 38 84 57 50 68
REMARK Flexibility Score: inf
ROOT
ATOM      1  C   UNL A   1      36.206  21.998  25.844  1.00  0.00     0.002 C 
ENDROOT
BRANCH   1   2
ATOM      2  C   UNL A   1      35.226  22.182  27.000  1.00  0.00     0.021 C 
BRANCH   2   3
ATOM      3  C   UNL A   1      33.921  21.406  26.940  1.00  0.00     0.116 C 
BRANCH   3   4
ATOM      4  N   UNL A   1      32.743  22.139  27.320  1.00  0.00    -0.352 N 
ATOM      5  C   UNL A   1      32.081  23.153  26.656  1.00  0.00     0.253 C 
ATOM      6  O   UNL A   1      31.146  23.662  27.277  1.00  0.00    -0.269 OA
ATOM      7  H   UNL A   1      32.349  21.878  28.183  1.00  0.00     0.163 HD
BRANCH   5   8
ATOM      8  C   UNL A   1      32.543  23.665  25.344  1.00  0.00     0.069 A 
ATOM      9  C   UNL A   1      32.991  23.618  21.608  1.00  0.00     0.065 C 
ATOM     10  C   UNL A   1      32.827  23.840  23.073  1.00  0.00     0.025 A 
ATOM     11  C   UNL A   1      32.385  22.973  24.072  1.00  0.00     0.040 A 
ATOM     12  N   UNL A   1      33.133  25.041  23.691  1.00  0.00    -0.343 N 
ATOM     13  C   UNL A   1      33.370  24.753  25.027  1.00  0.00     0.028 A 
ATOM     14  C   UNL A   1      34.372  25.511  25.833  1.00  0.00     0.065 C 
BRANCH  11  15
ATOM     15  C   UNL A   1      31.874  21.565  23.882  1.00  0.00     0.300 C 
BRANCH  15  16
ATOM     16  N   UNL A   1      33.022  20.661  23.877  1.00  0.00    -0.340 N 
ATOM     17  H   UNL A   1      33.483  20.724  24.785  1.00  0.00     0.346 HD
ATOM     18  H   UNL A   1      33.626  20.953  23.109  1.00  0.00     0.346 HD
BRANCH  16  19
ATOM     19  C   UNL A   1      32.673  19.259  23.635  1.00  0.00     0.293 C 
BRANCH  19  20
ATOM     20  C   UNL A   1      33.339  18.258  24.596  1.00  0.00     0.173 C 
ATOM     21  C   UNL A   1      34.052  17.103  23.910  1.00  0.00     0.040 C 
ATOM     22  O   UNL A   1      32.356  17.638  25.455  1.00  0.00    -0.372 OA
ATOM     23  C   UNL A   1      34.090  16.076  25.015  1.00  0.00     0.031 C 
ATOM     24  C   UNL A   1      32.749  16.279  25.690  1.00  0.00     0.161 C 
ENDBRANCH  19  20
ENDBRANCH  16  19
ENDBRANCH  15  16
ENDBRANCH  11  15
BRANCH  12  25
ATOM     25  C   UNL A   1      33.433  26.311  23.011  1.00  0.00     0.157 C 
BRANCH  25  26
ATOM     26  C   UNL A   1      32.361  27.389  23.123  1.00  0.00    -0.028 A 
ATOM     27  C   UNL A   1      32.476  28.387  24.111  1.00  0.00     0.008 A 
ATOM     28  C   UNL A   1      31.175  27.356  22.370  1.00  0.00     0.008 A 
ATOM     29  C   UNL A   1      31.444  29.308  24.331  1.00  0.00     0.039 A 
ATOM     30  C   UNL A   1      30.144  28.277  22.588  1.00  0.00     0.039 A 
ATOM     31  C   UNL A   1      30.288  29.246  23.569  1.00  0.00     0.123 A 
ATOM     32  F   UNL A   1      29.300  30.121  23.788  1.00  0.00    -0.207 F 
ENDBRANCH  25  26
ENDBRANCH  12  25
ENDBRANCH   5   8
ENDBRANCH   3   4
ENDBRANCH   2   3
ENDBRANCH   1   2
BRANCH   1  33
ATOM     33  C   UNL A   1      37.185  23.139  25.538  1.00  0.00     0.002 C 
BRANCH  33  34
ATOM     34  C   UNL A   1      38.701  22.861  25.572  1.00  0.00     0.021 C 
BRANCH  34  35
ATOM     35  C   UNL A   1      39.250  21.706  26.432  1.00  0.00     0.116 C 
BRANCH  35  36
ATOM     36  N   UNL A   1      40.498  21.131  26.005  1.00  0.00    -0.352 N 
ATOM     37  C   UNL A   1      41.760  21.706  26.094  1.00  0.00     0.251 C 
ATOM     38  H   UNL A   1      40.453  20.232  25.606  1.00  0.00     0.163 HD
ATOM     39  O   UNL A   1      42.704  21.066  25.636  1.00  0.00    -0.269 OA
BRANCH  37  40
ATOM     40  C   UNL A   1      41.966  23.126  26.591  1.00  0.00     0.039 A 
ATOM     41  C   UNL A   1      41.648  23.392  27.909  1.00  0.00     0.014 A 
ATOM     42  C   UNL A   1      42.268  24.254  25.799  1.00  0.00     0.014 A 
ATOM     43  C   UNL A   1      41.699  24.726  28.421  1.00  0.00     0.010 A 
ATOM     44  C   UNL A   1      42.223  25.636  26.314  1.00  0.00     0.010 A 
ATOM     45  C   UNL A   1      41.924  25.938  27.657  1.00  0.00    -0.014 A 
BRANCH  45  46
ATOM     46  C   UNL A   1      41.324  27.338  28.322  1.00  0.00     0.031 A 
ATOM     47  C   UNL A   1      42.559  28.178  28.342  1.00  0.00     0.074 A 
ATOM     48  C   UNL A   1      40.235  27.954  28.972  1.00  0.00     0.049 A 
ATOM     49  N   UNL A   1      43.610  27.708  28.955  1.00  0.00    -0.248 NA
ATOM     50  C   UNL A   1      42.848  29.239  27.373  1.00  0.00     0.031 C 
ATOM     51  C   UNL A   1      38.983  27.337  29.451  1.00  0.00     0.029 A 
ATOM     52  N   UNL A   1      39.974  29.317  29.392  1.00  0.00    -0.354 N 
ATOM     53  C   UNL A   1      44.636  28.576  28.706  1.00  0.00     0.074 A 
ATOM     54  C   UNL A   1      44.172  29.344  27.553  1.00  0.00     0.031 C 
ATOM     55  C   UNL A   1      38.082  28.263  29.910  1.00  0.00     0.029 A 
ATOM     56  C   UNL A   1      38.621  29.625  29.859  1.00  0.00     0.049 A 
ATOM     57  H   UNL A   1      40.677  30.006  29.365  1.00  0.00     0.167 HD
ATOM     58  C   UNL A   1      45.275  29.023  29.824  1.00  0.00     0.037 A 
ATOM     59  C   UNL A   1      38.017  30.834  30.269  1.00  0.00     0.037 A 
ATOM     60  C   UNL A   1      44.768  30.307  30.231  1.00  0.00     0.049 A 
ATOM     61  C   UNL A   1      39.127  31.602  30.846  1.00  0.00     0.074 A 
ATOM     62  C   UNL A   1      44.442  31.450  29.526  1.00  0.00     0.029 A 
ATOM     63  N   UNL A   1      44.057  30.352  31.412  1.00  0.00    -0.354 N 
ATOM     64  N   UNL A   1      39.625  31.319  32.010  1.00  0.00    -0.248 NA
ATOM     65  C   UNL A   1      39.668  32.788  30.191  1.00  0.00     0.031 C 
ATOM     66  C   UNL A   1      43.178  31.821  30.034  1.00  0.00     0.029 A 
ATOM     67  C   UNL A   1      42.992  31.210  31.267  1.00  0.00     0.049 A 
ATOM     68  H   UNL A   1      44.277  29.849  32.230  1.00  0.00     0.167 HD
ATOM     69  C   UNL A   1      40.836  31.930  31.976  1.00  0.00     0.074 A 
ATOM     70  C   UNL A   1      40.699  33.006  31.008  1.00  0.00     0.031 C 
ATOM     71  C   UNL A   1      41.912  31.144  32.224  1.00  0.00     0.037 A 
BRANCH  58  72
ATOM     72  C   UNL A   1      45.659  27.921  30.783  1.00  0.00     0.058 A 
ATOM     73  C   UNL A   1      44.667  27.343  31.580  1.00  0.00     0.135 A 
ATOM     74  C   UNL A   1      46.992  27.504  31.009  1.00  0.00     0.135 A 
ATOM     75  F   UNL A   1      43.377  27.669  31.393  1.00  0.00    -0.206 F 
ATOM     76  C   UNL A   1      44.981  26.426  32.581  1.00  0.00     0.059 A 
ATOM     77  C   UNL A   1      47.334  26.633  32.037  1.00  0.00     0.059 A 
ATOM     78  F   UNL A   1      47.986  27.937  30.215  1.00  0.00    -0.206 F 
ATOM     79  C   UNL A   1      46.319  26.095  32.818  1.00  0.00     0.060 A 
BRANCH  79  80
ATOM     80  S   UNL A   1      46.695  24.958  34.170  1.00  0.00     0.124 S 
ATOM     81  O   UNL A   1      48.085  24.606  33.908  1.00  0.00    -0.237 OA
ATOM     82  O   UNL A   1      46.471  25.798  35.336  1.00  0.00    -0.237 OA
ATOM     83  O   UNL A   1      45.739  23.861  33.975  1.00  0.00    -0.744 OA
ENDBRANCH  79  80
ENDBRANCH  58  72
BRANCH  59  84
ATOM     84  C   UNL A   1      36.671  31.635  30.582  1.00  0.00     0.058 A 
ATOM     85  C   UNL A   1      36.140  31.728  31.928  1.00  0.00     0.135 A 
ATOM     86  C   UNL A   1      36.142  32.632  29.744  1.00  0.00     0.135 A 
ATOM     87  F   UNL A   1      36.468  30.834  32.870  1.00  0.00    -0.206 F 
ATOM     88  C   UNL A   1      35.319  32.772  32.416  1.00  0.00     0.059 A 
ATOM     89  C   UNL A   1      35.281  33.681  30.211  1.00  0.00     0.059 A 
ATOM     90  F   UNL A   1      36.507  32.678  28.455  1.00  0.00    -0.206 F 
ATOM     91  C   UNL A   1      34.922  33.779  31.558  1.00  0.00     0.060 A 
BRANCH  91  92
ATOM     92  S   UNL A   1      34.089  35.251  32.254  1.00  0.00     0.124 S 
ATOM     93  O   UNL A   1      32.953  34.677  32.967  1.00  0.00    -0.237 OA
ATOM     94  O   UNL A   1      35.130  35.832  33.098  1.00  0.00    -0.237 OA
ATOM     95  O   UNL A   1      33.749  36.039  31.072  1.00  0.00    -0.744 OA
ENDBRANCH  91  92
ENDBRANCH  59  84
BRANCH  71  96
ATOM     96  C   UNL A   1      41.828  30.180  33.395  1.00  0.00     0.058 A 
ATOM     97  C   UNL A   1      42.176  30.432  34.744  1.00  0.00     0.135 A 
ATOM     98  C   UNL A   1      41.418  28.867  33.105  1.00  0.00     0.135 A 
ATOM     99  F   UNL A   1      42.483  31.661  35.183  1.00  0.00    -0.206 F 
ATOM    100  C   UNL A   1      42.202  29.418  35.707  1.00  0.00     0.059 A 
ATOM    101  C   UNL A   1      41.381  27.856  34.062  1.00  0.00     0.059 A 
ATOM    102  F   UNL A   1      41.042  28.546  31.856  1.00  0.00    -0.206 F 
ATOM    103  C   UNL A   1      41.815  28.129  35.354  1.00  0.00     0.060 A 
BRANCH 103 104
ATOM    104  S   UNL A   1      41.887  26.814  36.589  1.00  0.00     0.124 S 
ATOM    105  O   UNL A   1      40.647  27.030  37.329  1.00  0.00    -0.237 OA
ATOM    106  O   UNL A   1      41.929  25.607  35.773  1.00  0.00    -0.237 OA
ATOM    107  O   UNL A   1      43.107  27.116  37.333  1.00  0.00    -0.744 OA
ENDBRANCH 103 104
ENDBRANCH  71  96
ENDBRANCH  45  46
ENDBRANCH  37  40
ENDBRANCH  35  36
ENDBRANCH  34  35
ENDBRANCH  33  34
ENDBRANCH   1  33
TORSDOF 22
ENDMDL
MODEL 3
REMARK VINA RESULT:     -12.0      4.101      9.471
REMARK SMILES Cc1c(C[NH2+]C[C@@H]2CCCO2)c(C(=O)NCCCCCCNC(=O)c2ccc(-c3c4nc(c(-c5c(F)cc(S(=O)(=O)[O-])cc5F)c5ccc([nH]5)c(-c5c(F)cc(S(=O)(=O)[O-])cc5F)c5nc(c(-c6c(F)cc(S(=O)(=O)[O-])cc6F)c6ccc3[nH]6)C=C5)C=C4)cc2)c(C)n1Cc1ccc(F)cc1
REMARK SMILES IDX 18 1 17 2 16 3 15 4 13 5 14 6 12 8 1 9 2 10 3 11 93 12 91 13
REMARK SMILES IDX 92 14 4 15 5 16 6 19 7 20 8 21 11 22 9 23 10 24 94 25 95 26
REMARK SMILES IDX 96 27 101 28 97 29 100 30 98 31 99 32 19 33 20 34 21 35
REMARK SMILES IDX 22 36 23 37 24 39 25 40 26 41 90 42 27 43 89 44 28 45 29 46
REMARK SMILES IDX 30 47 83 48 31 49 88 50 82 51 84 52 32 53 87 54 81 55 80 56
REMARK SMILES IDX 33 58 67 59 46 60 66 61 47 62 50 63 65 64 85 65 48 66 49 67
REMARK SMILES IDX 64 69 86 70 51 71 34 72 35 73 44 74 36 75 37 76 43 77 45 78
REMARK SMILES IDX 38 79 39 80 40 81 41 82 42 83 68 84 69 85 78 86 70 87 71 88
REMARK SMILES IDX 77 89 79 90 72 91 73 92 74 93 75 94 76 95 52 96 53 97 62 98
REMARK SMILES IDX 54 99 55 100 61 101 63 102 56 103 57 104 58 105 59 106
REMARK SMILES IDX 60 107
REMARK H PARENT 15 7 5 17 5 18 22 38 84 57 50 68
REMARK Flexibility Score: inf
ROOT
ATOM      1  C   UNL A   1      31.977  30.076  25.716  1.00  0.00     0.002 C 
ENDROOT
BRANCH   1   2
ATOM      2  C   UNL A   1      32.223  29.464  24.338  1.00  0.00     0.021 C 
BRANCH   2   3
ATOM      3  C   UNL A   1      33.618  28.936  24.049  1.00  0.00     0.116 C 
BRANCH   3   4
ATOM      4  N   UNL A   1      33.728  28.060  22.912  1.00  0.00    -0.352 N 
ATOM      5  C   UNL A   1      33.369  26.733  22.782  1.00  0.00     0.253 C 
ATOM      6  O   UNL A   1      33.674  26.212  21.708  1.00  0.00    -0.269 OA
ATOM      7  H   UNL A   1      34.117  28.469  22.106  1.00  0.00     0.163 HD
BRANCH   5   8
ATOM      8  C   UNL A   1      32.769  25.969  23.902  1.00  0.00     0.069 A 
ATOM      9  C   UNL A   1      29.988  24.328  25.834  1.00  0.00     0.065 C 
ATOM     10  C   UNL A   1      31.213  24.841  25.158  1.00  0.00     0.025 A 
ATOM     11  C   UNL A   1      31.348  25.693  24.061  1.00  0.00     0.040 A 
ATOM     12  N   UNL A   1      32.494  24.523  25.577  1.00  0.00    -0.343 N 
ATOM     13  C   UNL A   1      33.328  25.527  25.110  1.00  0.00     0.028 A 
ATOM     14  C   UNL A   1      34.529  25.976  25.876  1.00  0.00     0.065 C 
BRANCH  11  15
ATOM     15  C   UNL A   1      30.231  26.260  23.218  1.00  0.00     0.300 C 
BRANCH  15  16
ATOM     16  N   UNL A   1      29.818  27.532  23.805  1.00  0.00    -0.340 N 
ATOM     17  H   UNL A   1      30.630  28.148  23.841  1.00  0.00     0.346 HD
ATOM     18  H   UNL A   1      29.442  27.324  24.729  1.00  0.00     0.346 HD
BRANCH  16  19
ATOM     19  C   UNL A   1      28.757  28.214  23.058  1.00  0.00     0.293 C 
BRANCH  19  20
ATOM     20  C   UNL A   1      29.138  29.612  22.536  1.00  0.00     0.173 C 
ATOM     21  C   UNL A   1      28.726  30.759  23.445  1.00  0.00     0.040 C 
ATOM     22  O   UNL A   1      28.494  29.881  21.270  1.00  0.00    -0.372 OA
ATOM     23  C   UNL A   1      28.708  31.916  22.476  1.00  0.00     0.031 C 
ATOM     24  C   UNL A   1      28.161  31.274  21.217  1.00  0.00     0.161 C 
ENDBRANCH  19  20
ENDBRANCH  16  19
ENDBRANCH  15  16
ENDBRANCH  11  15
BRANCH  12  25
ATOM     25  C   UNL A   1      32.848  23.488  26.563  1.00  0.00     0.157 C 
BRANCH  25  26
ATOM     26  C   UNL A   1      33.192  22.120  25.987  1.00  0.00    -0.028 A 
ATOM     27  C   UNL A   1      34.542  21.760  25.803  1.00  0.00     0.008 A 
ATOM     28  C   UNL A   1      32.214  21.239  25.495  1.00  0.00     0.008 A 
ATOM     29  C   UNL A   1      34.890  20.569  25.152  1.00  0.00     0.039 A 
ATOM     30  C   UNL A   1      32.561  20.049  24.845  1.00  0.00     0.039 A 
ATOM     31  C   UNL A   1      33.898  19.725  24.679  1.00  0.00     0.123 A 
ATOM     32  F   UNL A   1      34.234  18.594  24.049  1.00  0.00    -0.207 F 
ENDBRANCH  25  26
ENDBRANCH  12  25
ENDBRANCH   5   8
ENDBRANCH   3   4
ENDBRANCH   2   3
ENDBRANCH   1   2
BRANCH   1  33
ATOM     33  C   UNL A   1      32.460  29.301  26.948  1.00  0.00     0.002 C 
BRANCH  33  34
ATOM     34  C   UNL A   1      33.809  29.677  27.593  1.00  0.00     0.021 C 
BRANCH  34  35
ATOM     35  C   UNL A   1      34.386  31.092  27.393  1.00  0.00     0.116 C 
BRANCH  35  36
ATOM     36  N   UNL A   1      34.070  32.059  28.412  1.00  0.00    -0.352 N 
ATOM     37  C   UNL A   1      34.804  32.340  29.558  1.00  0.00     0.251 C 
ATOM     38  H   UNL A   1      33.243  32.577  28.283  1.00  0.00     0.163 HD
ATOM     39  O   UNL A   1      34.343  33.179  30.329  1.00  0.00    -0.269 OA
BRANCH  37  40
ATOM     40  C   UNL A   1      36.041  31.547  29.938  1.00  0.00     0.039 A 
ATOM     41  C   UNL A   1      37.112  31.582  29.065  1.00  0.00     0.014 A 
ATOM     42  C   UNL A   1      36.150  30.620  30.996  1.00  0.00     0.014 A 
ATOM     43  C   UNL A   1      38.268  30.769  29.289  1.00  0.00     0.010 A 
ATOM     44  C   UNL A   1      37.304  29.717  31.161  1.00  0.00     0.010 A 
ATOM     45  C   UNL A   1      38.421  29.743  30.302  1.00  0.00    -0.014 A 
BRANCH  45  46
ATOM     46  C   UNL A   1      39.534  28.554  29.970  1.00  0.00     0.031 A 
ATOM     47  C   UNL A   1      40.269  28.502  31.269  1.00  0.00     0.074 A 
ATOM     48  C   UNL A   1      40.122  27.745  28.978  1.00  0.00     0.049 A 
ATOM     49  N   UNL A   1      40.793  29.608  31.722  1.00  0.00    -0.248 NA
ATOM     50  C   UNL A   1      40.068  27.468  32.287  1.00  0.00     0.031 C 
ATOM     51  C   UNL A   1      39.910  27.781  27.518  1.00  0.00     0.029 A 
ATOM     52  N   UNL A   1      41.095  26.669  29.025  1.00  0.00    -0.354 N 
ATOM     53  C   UNL A   1      41.269  29.339  32.974  1.00  0.00     0.074 A 
ATOM     54  C   UNL A   1      40.587  28.102  33.348  1.00  0.00     0.031 C 
ATOM     55  C   UNL A   1      40.541  26.750  26.869  1.00  0.00     0.029 A 
ATOM     56  C   UNL A   1      41.314  25.912  27.791  1.00  0.00     0.049 A 
ATOM     57  H   UNL A   1      41.588  26.459  29.850  1.00  0.00     0.167 HD
ATOM     58  C   UNL A   1      42.575  29.680  33.163  1.00  0.00     0.037 A 
ATOM     59  C   UNL A   1      42.118  24.787  27.506  1.00  0.00     0.037 A 
ATOM     60  C   UNL A   1      43.438  28.542  32.983  1.00  0.00     0.049 A 
ATOM     61  C   UNL A   1      43.249  24.920  28.431  1.00  0.00     0.074 A 
ATOM     62  C   UNL A   1      43.349  27.227  33.399  1.00  0.00     0.029 A 
ATOM     63  N   UNL A   1      44.270  28.557  31.884  1.00  0.00    -0.354 N 
ATOM     64  N   UNL A   1      44.192  25.790  28.240  1.00  0.00    -0.248 NA
ATOM     65  C   UNL A   1      43.432  24.019  29.562  1.00  0.00     0.031 C 
ATOM     66  C   UNL A   1      43.655  26.478  32.243  1.00  0.00     0.029 A 
ATOM     67  C   UNL A   1      44.327  27.293  31.342  1.00  0.00     0.049 A 
ATOM     68  H   UNL A   1      44.749  29.347  31.542  1.00  0.00     0.167 HD
ATOM     69  C   UNL A   1      44.762  25.892  29.468  1.00  0.00     0.074 A 
ATOM     70  C   UNL A   1      44.467  24.634  30.135  1.00  0.00     0.031 C 
ATOM     71  C   UNL A   1      44.829  27.137  29.997  1.00  0.00     0.037 A 
BRANCH  58  72
ATOM     72  C   UNL A   1      42.909  31.077  32.696  1.00  0.00     0.058 A 
ATOM     73  C   UNL A   1      43.161  32.067  33.651  1.00  0.00     0.135 A 
ATOM     74  C   UNL A   1      42.875  31.483  31.341  1.00  0.00     0.135 A 
ATOM     75  F   UNL A   1      43.240  31.742  34.952  1.00  0.00    -0.206 F 
ATOM     76  C   UNL A   1      43.332  33.402  33.288  1.00  0.00     0.059 A 
ATOM     77  C   UNL A   1      42.989  32.815  30.961  1.00  0.00     0.059 A 
ATOM     78  F   UNL A   1      42.741  30.574  30.360  1.00  0.00    -0.206 F 
ATOM     79  C   UNL A   1      43.221  33.770  31.944  1.00  0.00     0.060 A 
BRANCH  79  80
ATOM     80  S   UNL A   1      43.377  35.517  31.518  1.00  0.00     0.124 S 
ATOM     81  O   UNL A   1      42.958  36.180  32.746  1.00  0.00    -0.237 OA
ATOM     82  O   UNL A   1      44.793  35.621  31.201  1.00  0.00    -0.237 OA
ATOM     83  O   UNL A   1      42.453  35.682  30.389  1.00  0.00    -0.744 OA
ENDBRANCH  79  80
ENDBRANCH  58  72
BRANCH  59  84
ATOM     84  C   UNL A   1      42.459  23.587  26.508  1.00  0.00     0.058 A 
ATOM     85  C   UNL A   1      43.513  23.699  25.520  1.00  0.00     0.135 A 
ATOM     86  C   UNL A   1      42.116  22.246  26.753  1.00  0.00     0.135 A 
ATOM     87  F   UNL A   1      43.946  24.894  25.095  1.00  0.00    -0.206 F 
ATOM     88  C   UNL A   1      44.242  22.617  24.970  1.00  0.00     0.059 A 
ATOM     89  C   UNL A   1      42.820  21.134  26.181  1.00  0.00     0.059 A 
ATOM     90  F   UNL A   1      41.139  21.959  27.624  1.00  0.00    -0.206 F 
ATOM     91  C   UNL A   1      43.918  21.326  25.338  1.00  0.00     0.060 A 
BRANCH  91  92
ATOM     92  S   UNL A   1      45.027  19.962  24.833  1.00  0.00     0.124 S 
ATOM     93  O   UNL A   1      44.713  19.793  23.418  1.00  0.00    -0.237 OA
ATOM     94  O   UNL A   1      46.350  20.511  25.121  1.00  0.00    -0.237 OA
ATOM     95  O   UNL A   1      44.622  18.858  25.698  1.00  0.00    -0.744 OA
ENDBRANCH  91  92
ENDBRANCH  59  84
BRANCH  71  96
ATOM     96  C   UNL A   1      45.297  28.265  29.092  1.00  0.00     0.058 A 
ATOM     97  C   UNL A   1      46.623  28.718  28.898  1.00  0.00     0.135 A 
ATOM     98  C   UNL A   1      44.299  28.988  28.416  1.00  0.00     0.135 A 
ATOM     99  F   UNL A   1      47.682  28.061  29.395  1.00  0.00    -0.206 F 
ATOM    100  C   UNL A   1      46.916  29.868  28.156  1.00  0.00     0.059 A 
ATOM    101  C   UNL A   1      44.574  30.101  27.626  1.00  0.00     0.059 A 
ATOM    102  F   UNL A   1      43.014  28.609  28.521  1.00  0.00    -0.206 F 
ATOM    103  C   UNL A   1      45.882  30.561  27.534  1.00  0.00     0.060 A 
BRANCH 103 104
ATOM    104  S   UNL A   1      46.257  32.066  26.610  1.00  0.00     0.124 S 
ATOM    105  O   UNL A   1      47.624  31.811  26.164  1.00  0.00    -0.237 OA
ATOM    106  O   UNL A   1      45.243  32.062  25.561  1.00  0.00    -0.237 OA
ATOM    107  O   UNL A   1      46.124  33.119  27.612  1.00  0.00    -0.744 OA
ENDBRANCH 103 104
ENDBRANCH  71  96
ENDBRANCH  45  46
ENDBRANCH  37  40
ENDBRANCH  35  36
ENDBRANCH  34  35
ENDBRANCH  33  34
ENDBRANCH   1  33
TORSDOF 22
ENDMDL
