MODEL 1
REMARK VINA RESULT:     -10.9      0.000      0.000
REMARK SMILES CC(C)CSc1cc2c(cc1Cl)C=C(C(=O)NCCCCCCNC(=O)c1ccc(-c3c4nc(c(-c5c(F)cc(S(=O)(=O)[O-])cc5F)c5ccc([nH]5)c(-c5c(F)cc(S(=O)(=O)[O-])cc5F)c5nc(c(-c6c(F)cc(S(=O)(=O)[O-])cc6F)c6ccc3[nH]6)C=C5)C=C4)cc1)[C@@H](C(F)(F)F)O2
REMARK SMILES IDX 20 1 19 2 18 3 17 4 15 5 16 6 14 8 6 9 7 10 11 11 8 12 10 13
REMARK SMILES IDX 12 14 9 15 98 16 13 17 93 18 5 19 4 20 2 21 1 22 3 23 94 24
REMARK SMILES IDX 95 25 96 26 97 27 21 28 22 29 23 30 24 31 25 32 26 34 27 35
REMARK SMILES IDX 28 36 92 37 29 38 91 39 30 40 31 41 32 42 85 43 33 44 90 45
REMARK SMILES IDX 84 46 86 47 34 48 89 49 83 50 82 51 35 53 69 54 48 55 68 56
REMARK SMILES IDX 49 57 52 58 67 59 87 60 50 61 51 62 66 64 88 65 53 66 36 67
REMARK SMILES IDX 37 68 46 69 38 70 39 71 45 72 47 73 40 74 41 75 42 76 43 77
REMARK SMILES IDX 44 78 70 79 71 80 80 81 72 82 73 83 79 84 81 85 74 86 75 87
REMARK SMILES IDX 76 88 77 89 78 90 54 91 55 92 64 93 56 94 57 95 63 96 65 97
REMARK SMILES IDX 58 98 59 99 60 100 61 101 62 102
REMARK H PARENT 17 7 24 33 86 52 52 63
REMARK Flexibility Score: inf
ROOT
ATOM      1  C   UNL A   1      35.074  31.613  28.685  1.00  0.00     0.002 C 
ENDROOT
BRANCH   1   2
ATOM      2  C   UNL A   1      35.500  30.549  27.668  1.00  0.00     0.021 C 
BRANCH   2   3
ATOM      3  C   UNL A   1      34.445  29.482  27.389  1.00  0.00     0.116 C 
BRANCH   3   4
ATOM      4  N   UNL A   1      33.905  29.596  26.045  1.00  0.00    -0.352 N 
ATOM      5  C   UNL A   1      33.311  28.786  25.139  1.00  0.00     0.251 C 
ATOM      6  O   UNL A   1      32.971  29.343  24.089  1.00  0.00    -0.270 OA
ATOM      7  H   UNL A   1      33.996  30.514  25.700  1.00  0.00     0.163 HD
BRANCH   5   8
ATOM      8  C   UNL A   1      33.054  27.323  25.310  1.00  0.00     0.067 C 
ATOM      9  C   UNL A   1      33.658  22.311  25.597  1.00  0.00     0.030 A 
ATOM     10  C   UNL A   1      32.664  23.207  26.011  1.00  0.00     0.063 A 
ATOM     11  C   UNL A   1      34.765  22.815  24.888  1.00  0.00     0.055 A 
ATOM     12  C   UNL A   1      32.806  24.574  25.783  1.00  0.00     0.129 A 
ATOM     13  C   UNL A   1      34.903  24.192  24.668  1.00  0.00     0.033 A 
ATOM     14  Cl  UNL A   1      36.039  21.796  24.306  1.00  0.00    -0.083 Cl
ATOM     15  C   UNL A   1      33.930  25.077  25.134  1.00  0.00     0.019 A 
ATOM     16  O   UNL A   1      31.826  25.375  26.286  1.00  0.00    -0.475 OA
ATOM     17  C   UNL A   1      34.089  26.520  25.003  1.00  0.00     0.025 C 
ATOM     18  C   UNL A   1      31.746  26.727  25.752  1.00  0.00     0.314 C 
BRANCH   9  19
ATOM     19  S   UNL A   1      33.484  20.578  26.008  1.00  0.00    -0.124 SA
BRANCH  19  20
ATOM     20  C   UNL A   1      33.012  19.858  24.387  1.00  0.00     0.078 C 
BRANCH  20  21
ATOM     21  C   UNL A   1      33.213  18.334  24.282  1.00  0.00    -0.007 C 
ATOM     22  C   UNL A   1      34.685  17.916  24.283  1.00  0.00     0.008 C 
ATOM     23  C   UNL A   1      32.509  17.647  25.459  1.00  0.00     0.008 C 
ENDBRANCH  20  21
ENDBRANCH  19  20
ENDBRANCH   9  19
BRANCH  18  24
ATOM     24  C   UNL A   1      30.677  26.765  24.645  1.00  0.00     0.429 C 
ATOM     25  F   UNL A   1      31.132  26.163  23.521  1.00  0.00    -0.167 F 
ATOM     26  F   UNL A   1      29.544  26.115  25.000  1.00  0.00    -0.167 F 
ATOM     27  F   UNL A   1      30.322  28.029  24.320  1.00  0.00    -0.167 F 
ENDBRANCH  18  24
ENDBRANCH   5   8
ENDBRANCH   3   4
ENDBRANCH   2   3
ENDBRANCH   1   2
BRANCH   1  28
ATOM     28  C   UNL A   1      35.167  33.068  28.206  1.00  0.00     0.002 C 
BRANCH  28  29
ATOM     29  C   UNL A   1      33.869  33.877  28.262  1.00  0.00     0.021 C 
BRANCH  29  30
ATOM     30  C   UNL A   1      34.004  35.287  28.824  1.00  0.00     0.116 C 
BRANCH  30  31
ATOM     31  N   UNL A   1      32.969  35.611  29.793  1.00  0.00    -0.352 N 
ATOM     32  C   UNL A   1      32.926  35.329  31.138  1.00  0.00     0.251 C 
ATOM     33  H   UNL A   1      32.192  36.098  29.437  1.00  0.00     0.163 HD
ATOM     34  O   UNL A   1      31.907  35.563  31.783  1.00  0.00    -0.269 OA
BRANCH  32  35
ATOM     35  C   UNL A   1      34.097  34.709  31.797  1.00  0.00     0.039 A 
ATOM     36  C   UNL A   1      35.176  35.489  32.217  1.00  0.00     0.014 A 
ATOM     37  C   UNL A   1      34.125  33.322  31.971  1.00  0.00     0.014 A 
ATOM     38  C   UNL A   1      36.343  34.872  32.657  1.00  0.00     0.010 A 
ATOM     39  C   UNL A   1      35.272  32.709  32.485  1.00  0.00     0.010 A 
ATOM     40  C   UNL A   1      36.410  33.476  32.784  1.00  0.00    -0.014 A 
BRANCH  40  41
ATOM     41  C   UNL A   1      37.686  32.843  33.209  1.00  0.00     0.031 A 
ATOM     42  C   UNL A   1      38.294  33.165  34.550  1.00  0.00     0.074 A 
ATOM     43  C   UNL A   1      38.263  31.921  32.413  1.00  0.00     0.049 A 
ATOM     44  N   UNL A   1      39.375  32.675  35.103  1.00  0.00    -0.248 NA
ATOM     45  C   UNL A   1      37.604  34.167  35.377  1.00  0.00     0.031 C 
ATOM     46  C   UNL A   1      37.764  31.516  31.096  1.00  0.00     0.029 A 
ATOM     47  N   UNL A   1      39.371  31.134  32.604  1.00  0.00    -0.354 N 
ATOM     48  C   UNL A   1      39.500  33.314  36.331  1.00  0.00     0.074 A 
ATOM     49  C   UNL A   1      38.404  34.253  36.431  1.00  0.00     0.031 C 
ATOM     50  C   UNL A   1      38.526  30.518  30.626  1.00  0.00     0.029 A 
ATOM     51  C   UNL A   1      39.599  30.249  31.577  1.00  0.00     0.049 A 
ATOM     52  H   UNL A   1      39.947  31.198  33.400  1.00  0.00     0.167 HD
ATOM     53  C   UNL A   1      40.433  33.125  37.295  1.00  0.00     0.037 A 
ATOM     54  C   UNL A   1      40.567  29.326  31.416  1.00  0.00     0.037 A 
ATOM     55  C   UNL A   1      41.510  32.173  37.205  1.00  0.00     0.049 A 
ATOM     56  C   UNL A   1      41.615  29.166  32.479  1.00  0.00     0.074 A 
ATOM     57  C   UNL A   1      42.489  31.891  38.141  1.00  0.00     0.029 A 
ATOM     58  N   UNL A   1      41.748  31.346  36.116  1.00  0.00    -0.354 N 
ATOM     59  N   UNL A   1      41.713  29.776  33.635  1.00  0.00    -0.248 NA
ATOM     60  C   UNL A   1      42.694  28.204  32.210  1.00  0.00     0.031 C 
ATOM     61  C   UNL A   1      43.341  30.919  37.604  1.00  0.00     0.029 A 
ATOM     62  C   UNL A   1      42.871  30.570  36.349  1.00  0.00     0.049 A 
ATOM     63  H   UNL A   1      41.199  31.316  35.300  1.00  0.00     0.167 HD
ATOM     64  C   UNL A   1      42.863  29.276  34.232  1.00  0.00     0.074 A 
ATOM     65  C   UNL A   1      43.415  28.294  33.321  1.00  0.00     0.031 C 
ATOM     66  C   UNL A   1      43.415  29.606  35.425  1.00  0.00     0.037 A 
BRANCH  53  67
ATOM     67  C   UNL A   1      40.336  33.967  38.537  1.00  0.00     0.058 A 
ATOM     68  C   UNL A   1      40.955  35.224  38.622  1.00  0.00     0.135 A 
ATOM     69  C   UNL A   1      39.579  33.533  39.637  1.00  0.00     0.135 A 
ATOM     70  F   UNL A   1      41.703  35.679  37.604  1.00  0.00    -0.206 F 
ATOM     71  C   UNL A   1      40.842  36.014  39.762  1.00  0.00     0.059 A 
ATOM     72  C   UNL A   1      39.435  34.316  40.780  1.00  0.00     0.059 A 
ATOM     73  F   UNL A   1      38.967  32.339  39.608  1.00  0.00    -0.206 F 
ATOM     74  C   UNL A   1      40.081  35.550  40.836  1.00  0.00     0.060 A 
BRANCH  74  75
ATOM     75  S   UNL A   1      39.945  36.589  42.307  1.00  0.00     0.124 S 
ATOM     76  O   UNL A   1      39.731  37.905  41.714  1.00  0.00    -0.237 OA
ATOM     77  O   UNL A   1      38.795  36.008  42.993  1.00  0.00    -0.237 OA
ATOM     78  O   UNL A   1      41.229  36.403  42.976  1.00  0.00    -0.744 OA
ENDBRANCH  74  75
ENDBRANCH  53  67
BRANCH  54  79
ATOM     79  C   UNL A   1      40.579  28.482  30.192  1.00  0.00     0.058 A 
ATOM     80  C   UNL A   1      41.471  28.748  29.144  1.00  0.00     0.135 A 
ATOM     81  C   UNL A   1      39.734  27.369  30.069  1.00  0.00     0.135 A 
ATOM     82  F   UNL A   1      42.293  29.806  29.214  1.00  0.00    -0.206 F 
ATOM     83  C   UNL A   1      41.529  27.937  28.016  1.00  0.00     0.059 A 
ATOM     84  C   UNL A   1      39.789  26.530  28.961  1.00  0.00     0.059 A 
ATOM     85  F   UNL A   1      38.872  27.067  31.052  1.00  0.00    -0.206 F 
ATOM     86  C   UNL A   1      40.688  26.824  27.937  1.00  0.00     0.060 A 
BRANCH  86  87
ATOM     87  S   UNL A   1      40.826  25.733  26.505  1.00  0.00     0.124 S 
ATOM     88  O   UNL A   1      39.491  25.151  26.450  1.00  0.00    -0.237 OA
ATOM     89  O   UNL A   1      41.159  26.671  25.437  1.00  0.00    -0.237 OA
ATOM     90  O   UNL A   1      41.901  24.819  26.882  1.00  0.00    -0.744 OA
ENDBRANCH  86  87
ENDBRANCH  54  79
BRANCH  66  91
ATOM     91  C   UNL A   1      44.688  28.912  35.814  1.00  0.00     0.058 A 
ATOM     92  C   UNL A   1      44.666  27.683  36.491  1.00  0.00     0.135 A 
ATOM     93  C   UNL A   1      45.934  29.437  35.443  1.00  0.00     0.135 A 
ATOM     94  F   UNL A   1      43.498  27.144  36.877  1.00  0.00    -0.206 F 
ATOM     95  C   UNL A   1      45.839  26.999  36.792  1.00  0.00     0.059 A 
ATOM     96  C   UNL A   1      47.120  28.761  35.714  1.00  0.00     0.059 A 
ATOM     97  F   UNL A   1      46.007  30.606  34.786  1.00  0.00    -0.206 F 
ATOM     98  C   UNL A   1      47.062  27.544  36.393  1.00  0.00     0.060 A 
BRANCH  98  99
ATOM     99  S   UNL A   1      48.573  26.617  36.740  1.00  0.00     0.124 S 
ATOM    100  O   UNL A   1      48.107  25.240  36.617  1.00  0.00    -0.237 OA
ATOM    101  O   UNL A   1      49.470  27.079  35.685  1.00  0.00    -0.237 OA
ATOM    102  O   UNL A   1      48.930  27.042  38.089  1.00  0.00    -0.744 OA
ENDBRANCH  98  99
ENDBRANCH  66  91
ENDBRANCH  40  41
ENDBRANCH  32  35
ENDBRANCH  30  31
ENDBRANCH  29  30
ENDBRANCH  28  29
ENDBRANCH   1  28
TORSDOF 20
ENDMDL
MODEL 2
REMARK VINA RESULT:     -10.9      3.099      8.986
REMARK SMILES CC(C)CSc1cc2c(cc1Cl)C=C(C(=O)NCCCCCCNC(=O)c1ccc(-c3c4nc(c(-c5c(F)cc(S(=O)(=O)[O-])cc5F)c5ccc([nH]5)c(-c5c(F)cc(S(=O)(=O)[O-])cc5F)c5nc(c(-c6c(F)cc(S(=O)(=O)[O-])cc6F)c6ccc3[nH]6)C=C5)C=C4)cc1)[C@@H](C(F)(F)F)O2
REMARK SMILES IDX 20 1 19 2 18 3 17 4 15 5 16 6 14 8 6 9 7 10 11 11 8 12 10 13
REMARK SMILES IDX 12 14 9 15 98 16 13 17 93 18 5 19 4 20 2 21 1 22 3 23 94 24
REMARK SMILES IDX 95 25 96 26 97 27 21 28 22 29 23 30 24 31 25 32 26 34 27 35
REMARK SMILES IDX 28 36 92 37 29 38 91 39 30 40 31 41 32 42 85 43 33 44 90 45
REMARK SMILES IDX 84 46 86 47 34 48 89 49 83 50 82 51 35 53 69 54 48 55 68 56
REMARK SMILES IDX 49 57 52 58 67 59 87 60 50 61 51 62 66 64 88 65 53 66 36 67
REMARK SMILES IDX 37 68 46 69 38 70 39 71 45 72 47 73 40 74 41 75 42 76 43 77
REMARK SMILES IDX 44 78 70 79 71 80 80 81 72 82 73 83 79 84 81 85 74 86 75 87
REMARK SMILES IDX 76 88 77 89 78 90 54 91 55 92 64 93 56 94 57 95 63 96 65 97
REMARK SMILES IDX 58 98 59 99 60 100 61 101 62 102
REMARK H PARENT 17 7 24 33 86 52 52 63
REMARK Flexibility Score: inf
ROOT
ATOM      1  C   UNL A   1      37.717  23.206  26.064  1.00  0.00     0.002 C 
ENDROOT
BRANCH   1   2
ATOM      2  C   UNL A   1      36.229  23.156  25.703  1.00  0.00     0.021 C 
BRANCH   2   3
ATOM      3  C   UNL A   1      35.921  22.467  24.376  1.00  0.00     0.116 C 
BRANCH   3   4
ATOM      4  N   UNL A   1      34.772  21.584  24.480  1.00  0.00    -0.352 N 
ATOM      5  C   UNL A   1      33.426  21.689  24.395  1.00  0.00     0.251 C 
ATOM      6  O   UNL A   1      32.813  20.623  24.523  1.00  0.00    -0.270 OA
ATOM      7  H   UNL A   1      35.049  20.656  24.662  1.00  0.00     0.163 HD
BRANCH   5   8
ATOM      8  C   UNL A   1      32.660  22.953  24.172  1.00  0.00     0.067 C 
ATOM      9  C   UNL A   1      31.416  27.698  22.946  1.00  0.00     0.030 A 
ATOM     10  C   UNL A   1      30.692  26.525  23.194  1.00  0.00     0.063 A 
ATOM     11  C   UNL A   1      32.816  27.668  23.088  1.00  0.00     0.055 A 
ATOM     12  C   UNL A   1      31.354  25.340  23.508  1.00  0.00     0.129 A 
ATOM     13  C   UNL A   1      33.474  26.470  23.399  1.00  0.00     0.033 A 
ATOM     14  Cl  UNL A   1      33.807  29.065  22.832  1.00  0.00    -0.083 Cl
ATOM     15  C   UNL A   1      32.743  25.298  23.592  1.00  0.00     0.019 A 
ATOM     16  O   UNL A   1      30.573  24.234  23.660  1.00  0.00    -0.475 OA
ATOM     17  C   UNL A   1      33.403  24.020  23.824  1.00  0.00     0.025 C 
ATOM     18  C   UNL A   1      31.173  23.098  24.345  1.00  0.00     0.314 C 
BRANCH   9  19
ATOM     19  S   UNL A   1      30.529  29.168  22.438  1.00  0.00    -0.124 SA
BRANCH  19  20
ATOM     20  C   UNL A   1      28.829  28.795  23.022  1.00  0.00     0.078 C 
BRANCH  20  21
ATOM     21  C   UNL A   1      27.777  29.854  22.642  1.00  0.00    -0.007 C 
ATOM     22  C   UNL A   1      27.740  31.043  23.605  1.00  0.00     0.008 C 
ATOM     23  C   UNL A   1      28.069  30.377  21.230  1.00  0.00     0.008 C 
ENDBRANCH  20  21
ENDBRANCH  19  20
ENDBRANCH   9  19
BRANCH  18  24
ATOM     24  C   UNL A   1      30.752  23.126  25.825  1.00  0.00     0.429 C 
ATOM     25  F   UNL A   1      29.951  22.073  26.114  1.00  0.00    -0.167 F 
ATOM     26  F   UNL A   1      31.811  23.048  26.664  1.00  0.00    -0.167 F 
ATOM     27  F   UNL A   1      30.077  24.255  26.144  1.00  0.00    -0.167 F 
ENDBRANCH  18  24
ENDBRANCH   5   8
ENDBRANCH   3   4
ENDBRANCH   2   3
ENDBRANCH   1   2
BRANCH   1  28
ATOM     28  C   UNL A   1      38.482  21.884  25.915  1.00  0.00     0.002 C 
BRANCH  28  29
ATOM     29  C   UNL A   1      39.936  21.894  26.394  1.00  0.00     0.021 C 
BRANCH  29  30
ATOM     30  C   UNL A   1      40.419  23.214  26.985  1.00  0.00     0.116 C 
BRANCH  30  31
ATOM     31  N   UNL A   1      41.033  24.084  25.996  1.00  0.00    -0.352 N 
ATOM     32  C   UNL A   1      41.366  25.414  26.101  1.00  0.00     0.251 C 
ATOM     33  H   UNL A   1      41.238  23.664  25.130  1.00  0.00     0.163 HD
ATOM     34  O   UNL A   1      41.760  26.030  25.114  1.00  0.00    -0.269 OA
BRANCH  32  35
ATOM     35  C   UNL A   1      41.213  26.109  27.399  1.00  0.00     0.039 A 
ATOM     36  C   UNL A   1      39.970  26.171  28.033  1.00  0.00     0.014 A 
ATOM     37  C   UNL A   1      42.325  26.730  27.974  1.00  0.00     0.014 A 
ATOM     38  C   UNL A   1      39.806  26.986  29.149  1.00  0.00     0.010 A 
ATOM     39  C   UNL A   1      42.173  27.488  29.140  1.00  0.00     0.010 A 
ATOM     40  C   UNL A   1      40.901  27.663  29.708  1.00  0.00    -0.014 A 
BRANCH  40  41
ATOM     41  C   UNL A   1      40.684  28.566  30.870  1.00  0.00     0.031 A 
ATOM     42  C   UNL A   1      41.589  28.501  32.073  1.00  0.00     0.074 A 
ATOM     43  C   UNL A   1      39.711  29.497  30.810  1.00  0.00     0.049 A 
ATOM     44  N   UNL A   1      41.577  29.239  33.153  1.00  0.00    -0.248 NA
ATOM     45  C   UNL A   1      42.642  27.473  32.065  1.00  0.00     0.031 C 
ATOM     46  C   UNL A   1      38.776  29.666  29.694  1.00  0.00     0.029 A 
ATOM     47  N   UNL A   1      39.365  30.495  31.686  1.00  0.00    -0.354 N 
ATOM     48  C   UNL A   1      42.607  28.761  33.956  1.00  0.00     0.074 A 
ATOM     49  C   UNL A   1      43.204  27.646  33.253  1.00  0.00     0.031 C 
ATOM     50  C   UNL A   1      38.006  30.739  29.926  1.00  0.00     0.029 A 
ATOM     51  C   UNL A   1      38.350  31.300  31.228  1.00  0.00     0.049 A 
ATOM     52  H   UNL A   1      39.803  30.621  32.559  1.00  0.00     0.167 HD
ATOM     53  C   UNL A   1      43.027  29.219  35.160  1.00  0.00     0.037 A 
ATOM     54  C   UNL A   1      37.757  32.369  31.795  1.00  0.00     0.037 A 
ATOM     55  C   UNL A   1      42.447  30.344  35.846  1.00  0.00     0.049 A 
ATOM     56  C   UNL A   1      38.212  32.830  33.149  1.00  0.00     0.074 A 
ATOM     57  C   UNL A   1      42.821  30.899  37.057  1.00  0.00     0.029 A 
ATOM     58  N   UNL A   1      41.372  31.088  35.381  1.00  0.00    -0.354 N 
ATOM     59  N   UNL A   1      39.190  32.368  33.888  1.00  0.00    -0.248 NA
ATOM     60  C   UNL A   1      37.473  33.947  33.754  1.00  0.00     0.031 C 
ATOM     61  C   UNL A   1      41.950  31.957  37.342  1.00  0.00     0.029 A 
ATOM     62  C   UNL A   1      41.056  32.083  36.292  1.00  0.00     0.049 A 
ATOM     63  H   UNL A   1      40.904  30.933  34.529  1.00  0.00     0.167 HD
ATOM     64  C   UNL A   1      39.185  33.135  35.047  1.00  0.00     0.074 A 
ATOM     65  C   UNL A   1      38.121  34.107  34.901  1.00  0.00     0.031 C 
ATOM     66  C   UNL A   1      39.985  33.036  36.136  1.00  0.00     0.037 A 
BRANCH  53  67
ATOM     67  C   UNL A   1      44.172  28.502  35.819  1.00  0.00     0.058 A 
ATOM     68  C   UNL A   1      45.504  28.885  35.596  1.00  0.00     0.135 A 
ATOM     69  C   UNL A   1      43.933  27.451  36.720  1.00  0.00     0.135 A 
ATOM     70  F   UNL A   1      45.787  29.873  34.733  1.00  0.00    -0.206 F 
ATOM     71  C   UNL A   1      46.562  28.238  36.228  1.00  0.00     0.059 A 
ATOM     72  C   UNL A   1      44.975  26.803  37.379  1.00  0.00     0.059 A 
ATOM     73  F   UNL A   1      42.679  27.046  36.968  1.00  0.00    -0.206 F 
ATOM     74  C   UNL A   1      46.286  27.197  37.117  1.00  0.00     0.060 A 
BRANCH  74  75
ATOM     75  S   UNL A   1      47.671  26.368  37.927  1.00  0.00     0.124 S 
ATOM     76  O   UNL A   1      47.796  25.157  37.123  1.00  0.00    -0.237 OA
ATOM     77  O   UNL A   1      48.748  27.342  37.776  1.00  0.00    -0.237 OA
ATOM     78  O   UNL A   1      47.198  26.169  39.293  1.00  0.00    -0.744 OA
ENDBRANCH  74  75
ENDBRANCH  53  67
BRANCH  54  79
ATOM     79  C   UNL A   1      36.668  33.074  31.069  1.00  0.00     0.058 A 
ATOM     80  C   UNL A   1      36.960  33.986  30.044  1.00  0.00     0.135 A 
ATOM     81  C   UNL A   1      35.319  32.813  31.352  1.00  0.00     0.135 A 
ATOM     82  F   UNL A   1      38.235  34.272  29.743  1.00  0.00    -0.206 F 
ATOM     83  C   UNL A   1      35.951  34.613  29.323  1.00  0.00     0.059 A 
ATOM     84  C   UNL A   1      34.292  33.411  30.628  1.00  0.00     0.059 A 
ATOM     85  F   UNL A   1      34.991  31.938  32.315  1.00  0.00    -0.206 F 
ATOM     86  C   UNL A   1      34.618  34.314  29.617  1.00  0.00     0.060 A 
BRANCH  86  87
ATOM     87  S   UNL A   1      33.319  35.074  28.621  1.00  0.00     0.124 S 
ATOM     88  O   UNL A   1      32.691  33.905  28.017  1.00  0.00    -0.237 OA
ATOM     89  O   UNL A   1      32.529  35.773  29.630  1.00  0.00    -0.237 OA
ATOM     90  O   UNL A   1      34.059  35.939  27.707  1.00  0.00    -0.744 OA
ENDBRANCH  86  87
ENDBRANCH  54  79
BRANCH  66  91
ATOM     91  C   UNL A   1      39.739  33.994  37.265  1.00  0.00     0.058 A 
ATOM     92  C   UNL A   1      38.975  33.619  38.381  1.00  0.00     0.135 A 
ATOM     93  C   UNL A   1      40.332  35.266  37.270  1.00  0.00     0.135 A 
ATOM     94  F   UNL A   1      38.379  32.417  38.419  1.00  0.00    -0.206 F 
ATOM     95  C   UNL A   1      38.802  34.477  39.462  1.00  0.00     0.059 A 
ATOM     96  C   UNL A   1      40.190  36.132  38.350  1.00  0.00     0.059 A 
ATOM     97  F   UNL A   1      41.079  35.668  36.229  1.00  0.00    -0.206 F 
ATOM     98  C   UNL A   1      39.419  35.729  39.440  1.00  0.00     0.060 A 
BRANCH  98  99
ATOM     99  S   UNL A   1      39.232  36.809  40.876  1.00  0.00     0.124 S 
ATOM    100  O   UNL A   1      40.623  37.115  41.195  1.00  0.00    -0.237 OA
ATOM    101  O   UNL A   1      38.448  37.914  40.335  1.00  0.00    -0.237 OA
ATOM    102  O   UNL A   1      38.535  35.968  41.844  1.00  0.00    -0.744 OA
ENDBRANCH  98  99
ENDBRANCH  66  91
ENDBRANCH  40  41
ENDBRANCH  32  35
ENDBRANCH  30  31
ENDBRANCH  29  30
ENDBRANCH  28  29
ENDBRANCH   1  28
TORSDOF 20
ENDMDL
MODEL 3
REMARK VINA RESULT:     -10.6      3.109      9.417
REMARK SMILES CC(C)CSc1cc2c(cc1Cl)C=C(C(=O)NCCCCCCNC(=O)c1ccc(-c3c4nc(c(-c5c(F)cc(S(=O)(=O)[O-])cc5F)c5ccc([nH]5)c(-c5c(F)cc(S(=O)(=O)[O-])cc5F)c5nc(c(-c6c(F)cc(S(=O)(=O)[O-])cc6F)c6ccc3[nH]6)C=C5)C=C4)cc1)[C@@H](C(F)(F)F)O2
REMARK SMILES IDX 20 1 19 2 18 3 17 4 15 5 16 6 14 8 6 9 7 10 11 11 8 12 10 13
REMARK SMILES IDX 12 14 9 15 98 16 13 17 93 18 5 19 4 20 2 21 1 22 3 23 94 24
REMARK SMILES IDX 95 25 96 26 97 27 21 28 22 29 23 30 24 31 25 32 26 34 27 35
REMARK SMILES IDX 28 36 92 37 29 38 91 39 30 40 31 41 32 42 85 43 33 44 90 45
REMARK SMILES IDX 84 46 86 47 34 48 89 49 83 50 82 51 35 53 69 54 48 55 68 56
REMARK SMILES IDX 49 57 52 58 67 59 87 60 50 61 51 62 66 64 88 65 53 66 36 67
REMARK SMILES IDX 37 68 46 69 38 70 39 71 45 72 47 73 40 74 41 75 42 76 43 77
REMARK SMILES IDX 44 78 70 79 71 80 80 81 72 82 73 83 79 84 81 85 74 86 75 87
REMARK SMILES IDX 76 88 77 89 78 90 54 91 55 92 64 93 56 94 57 95 63 96 65 97
REMARK SMILES IDX 58 98 59 99 60 100 61 101 62 102
REMARK H PARENT 17 7 24 33 86 52 52 63
REMARK Flexibility Score: inf
ROOT
ATOM      1  C   UNL A   1      40.026  22.893  27.479  1.00  0.00     0.002 C 
ENDROOT
BRANCH   1   2
ATOM      2  C   UNL A   1      39.456  21.967  26.399  1.00  0.00     0.021 C 
BRANCH   2   3
ATOM      3  C   UNL A   1      38.234  22.521  25.670  1.00  0.00     0.116 C 
BRANCH   3   4
ATOM      4  N   UNL A   1      37.044  21.734  25.937  1.00  0.00    -0.352 N 
ATOM      5  C   UNL A   1      35.720  21.810  25.671  1.00  0.00     0.251 C 
ATOM      6  O   UNL A   1      35.051  20.855  26.083  1.00  0.00    -0.270 OA
ATOM      7  H   UNL A   1      37.260  20.921  26.451  1.00  0.00     0.163 HD
BRANCH   5   8
ATOM      8  C   UNL A   1      35.036  22.927  24.951  1.00  0.00     0.067 C 
ATOM      9  C   UNL A   1      33.174  27.466  23.727  1.00  0.00     0.030 A 
ATOM     10  C   UNL A   1      33.433  26.287  23.019  1.00  0.00     0.063 A 
ATOM     11  C   UNL A   1      33.410  27.483  25.115  1.00  0.00     0.055 A 
ATOM     12  C   UNL A   1      33.975  25.179  23.666  1.00  0.00     0.129 A 
ATOM     13  C   UNL A   1      33.961  26.366  25.757  1.00  0.00     0.033 A 
ATOM     14  Cl  UNL A   1      33.102  28.879  26.093  1.00  0.00    -0.083 Cl
ATOM     15  C   UNL A   1      34.262  25.216  25.027  1.00  0.00     0.019 A 
ATOM     16  O   UNL A   1      34.261  24.101  22.882  1.00  0.00    -0.475 OA
ATOM     17  C   UNL A   1      34.920  24.073  25.647  1.00  0.00     0.025 C 
ATOM     18  C   UNL A   1      34.463  22.831  23.563  1.00  0.00     0.314 C 
BRANCH   9  19
ATOM     19  S   UNL A   1      32.581  28.899  22.832  1.00  0.00    -0.124 SA
BRANCH  19  20
ATOM     20  C   UNL A   1      30.898  29.104  23.534  1.00  0.00     0.078 C 
BRANCH  20  21
ATOM     21  C   UNL A   1      29.818  28.230  22.869  1.00  0.00    -0.007 C 
ATOM     22  C   UNL A   1      29.642  26.867  23.543  1.00  0.00     0.008 C 
ATOM     23  C   UNL A   1      28.475  28.969  22.902  1.00  0.00     0.008 C 
ENDBRANCH  20  21
ENDBRANCH  19  20
ENDBRANCH   9  19
BRANCH  18  24
ATOM     24  C   UNL A   1      33.150  22.027  23.522  1.00  0.00     0.429 C 
ATOM     25  F   UNL A   1      32.521  22.201  22.336  1.00  0.00    -0.167 F 
ATOM     26  F   UNL A   1      33.356  20.697  23.660  1.00  0.00    -0.167 F 
ATOM     27  F   UNL A   1      32.293  22.398  24.500  1.00  0.00    -0.167 F 
ENDBRANCH  18  24
ENDBRANCH   5   8
ENDBRANCH   3   4
ENDBRANCH   2   3
ENDBRANCH   1   2
BRANCH   1  28
ATOM     28  C   UNL A   1      41.162  22.307  28.328  1.00  0.00     0.002 C 
BRANCH  28  29
ATOM     29  C   UNL A   1      42.535  22.240  27.655  1.00  0.00     0.021 C 
BRANCH  29  30
ATOM     30  C   UNL A   1      43.287  23.563  27.573  1.00  0.00     0.116 C 
BRANCH  30  31
ATOM     31  N   UNL A   1      43.217  24.172  26.255  1.00  0.00    -0.352 N 
ATOM     32  C   UNL A   1      42.751  25.417  25.900  1.00  0.00     0.251 C 
ATOM     33  H   UNL A   1      43.548  23.617  25.513  1.00  0.00     0.163 HD
ATOM     34  O   UNL A   1      42.644  25.718  24.714  1.00  0.00    -0.269 OA
BRANCH  32  35
ATOM     35  C   UNL A   1      42.345  26.376  26.951  1.00  0.00     0.039 A 
ATOM     36  C   UNL A   1      43.026  27.583  27.117  1.00  0.00     0.014 A 
ATOM     37  C   UNL A   1      41.284  26.047  27.800  1.00  0.00     0.014 A 
ATOM     38  C   UNL A   1      42.755  28.380  28.225  1.00  0.00     0.010 A 
ATOM     39  C   UNL A   1      40.963  26.888  28.870  1.00  0.00     0.010 A 
ATOM     40  C   UNL A   1      41.730  28.037  29.121  1.00  0.00    -0.014 A 
BRANCH  40  41
ATOM     41  C   UNL A   1      41.499  28.882  30.323  1.00  0.00     0.031 A 
ATOM     42  C   UNL A   1      40.339  29.843  30.373  1.00  0.00     0.074 A 
ATOM     43  C   UNL A   1      42.295  28.731  31.400  1.00  0.00     0.049 A 
ATOM     44  N   UNL A   1      39.959  30.623  31.353  1.00  0.00    -0.248 NA
ATOM     45  C   UNL A   1      39.499  29.945  29.170  1.00  0.00     0.031 C 
ATOM     46  C   UNL A   1      43.444  27.825  31.475  1.00  0.00     0.029 A 
ATOM     47  N   UNL A   1      42.244  29.306  32.644  1.00  0.00    -0.354 N 
ATOM     48  C   UNL A   1      38.847  31.314  30.884  1.00  0.00     0.074 A 
ATOM     49  C   UNL A   1      38.633  30.887  29.518  1.00  0.00     0.031 C 
ATOM     50  C   UNL A   1      43.950  27.862  32.717  1.00  0.00     0.029 A 
ATOM     51  C   UNL A   1      43.202  28.832  33.508  1.00  0.00     0.049 A 
ATOM     52  H   UNL A   1      41.584  29.993  32.894  1.00  0.00     0.167 HD
ATOM     53  C   UNL A   1      38.067  32.210  31.535  1.00  0.00     0.037 A 
ATOM     54  C   UNL A   1      43.454  29.146  34.794  1.00  0.00     0.037 A 
ATOM     55  C   UNL A   1      38.268  32.615  32.902  1.00  0.00     0.049 A 
ATOM     56  C   UNL A   1      42.601  30.174  35.480  1.00  0.00     0.074 A 
ATOM     57  C   UNL A   1      37.514  33.497  33.657  1.00  0.00     0.029 A 
ATOM     58  N   UNL A   1      39.294  32.165  33.720  1.00  0.00    -0.354 N 
ATOM     59  N   UNL A   1      41.553  30.812  35.020  1.00  0.00    -0.248 NA
ATOM     60  C   UNL A   1      42.976  30.538  36.854  1.00  0.00     0.031 C 
ATOM     61  C   UNL A   1      38.105  33.608  34.921  1.00  0.00     0.029 A 
ATOM     62  C   UNL A   1      39.206  32.767  34.965  1.00  0.00     0.049 A 
ATOM     63  H   UNL A   1      39.982  31.513  33.456  1.00  0.00     0.167 HD
ATOM     64  C   UNL A   1      41.141  31.654  36.046  1.00  0.00     0.074 A 
ATOM     65  C   UNL A   1      42.040  31.428  37.160  1.00  0.00     0.031 C 
ATOM     66  C   UNL A   1      40.116  32.540  36.059  1.00  0.00     0.037 A 
BRANCH  53  67
ATOM     67  C   UNL A   1      36.921  32.819  30.778  1.00  0.00     0.058 A 
ATOM     68  C   UNL A   1      35.619  32.301  30.874  1.00  0.00     0.135 A 
ATOM     69  C   UNL A   1      37.114  33.961  29.983  1.00  0.00     0.135 A 
ATOM     70  F   UNL A   1      35.382  31.202  31.608  1.00  0.00    -0.206 F 
ATOM     71  C   UNL A   1      34.553  32.881  30.193  1.00  0.00     0.059 A 
ATOM     72  C   UNL A   1      36.059  34.570  29.311  1.00  0.00     0.059 A 
ATOM     73  F   UNL A   1      38.338  34.496  29.858  1.00  0.00    -0.206 F 
ATOM     74  C   UNL A   1      34.784  34.016  29.413  1.00  0.00     0.060 A 
BRANCH  74  75
ATOM     75  S   UNL A   1      33.389  34.756  28.537  1.00  0.00     0.124 S 
ATOM     76  O   UNL A   1      34.074  35.603  27.566  1.00  0.00    -0.237 OA
ATOM     77  O   UNL A   1      32.710  33.586  27.989  1.00  0.00    -0.237 OA
ATOM     78  O   UNL A   1      32.664  35.464  29.586  1.00  0.00    -0.744 OA
ENDBRANCH  74  75
ENDBRANCH  53  67
BRANCH  54  79
ATOM     79  C   UNL A   1      44.566  28.468  35.509  1.00  0.00     0.058 A 
ATOM     80  C   UNL A   1      44.350  27.267  36.201  1.00  0.00     0.135 A 
ATOM     81  C   UNL A   1      45.872  28.981  35.476  1.00  0.00     0.135 A 
ATOM     82  F   UNL A   1      43.117  26.743  36.267  1.00  0.00    -0.206 F 
ATOM     83  C   UNL A   1      45.391  26.595  36.832  1.00  0.00     0.059 A 
ATOM     84  C   UNL A   1      46.933  28.314  36.079  1.00  0.00     0.059 A 
ATOM     85  F   UNL A   1      46.129  30.120  34.815  1.00  0.00    -0.206 F 
ATOM     86  C   UNL A   1      46.682  27.124  36.759  1.00  0.00     0.060 A 
BRANCH  86  87
ATOM     87  S   UNL A   1      48.039  26.202  37.513  1.00  0.00     0.124 S 
ATOM     88  O   UNL A   1      47.969  24.936  36.794  1.00  0.00    -0.237 OA
ATOM     89  O   UNL A   1      49.190  27.047  37.208  1.00  0.00    -0.237 OA
ATOM     90  O   UNL A   1      47.667  26.151  38.924  1.00  0.00    -0.744 OA
ENDBRANCH  86  87
ENDBRANCH  54  79
BRANCH  66  91
ATOM     91  C   UNL A   1      39.912  33.343  37.311  1.00  0.00     0.058 A 
ATOM     92  C   UNL A   1      38.964  32.960  38.272  1.00  0.00     0.135 A 
ATOM     93  C   UNL A   1      40.719  34.456  37.589  1.00  0.00     0.135 A 
ATOM     94  F   UNL A   1      38.161  31.908  38.047  1.00  0.00    -0.206 F 
ATOM     95  C   UNL A   1      38.819  33.658  39.466  1.00  0.00     0.059 A 
ATOM     96  C   UNL A   1      40.607  35.157  38.786  1.00  0.00     0.059 A 
ATOM     97  F   UNL A   1      41.647  34.857  36.705  1.00  0.00    -0.206 F 
ATOM     98  C   UNL A   1      39.650  34.753  39.716  1.00  0.00     0.060 A 
BRANCH  98  99
ATOM     99  S   UNL A   1      39.489  35.613  41.296  1.00  0.00     0.124 S 
ATOM    100  O   UNL A   1      38.497  36.633  40.975  1.00  0.00    -0.237 OA
ATOM    101  O   UNL A   1      39.038  34.548  42.187  1.00  0.00    -0.237 OA
ATOM    102  O   UNL A   1      40.838  36.108  41.552  1.00  0.00    -0.744 OA
ENDBRANCH  98  99
ENDBRANCH  66  91
ENDBRANCH  40  41
ENDBRANCH  32  35
ENDBRANCH  30  31
ENDBRANCH  29  30
ENDBRANCH  28  29
ENDBRANCH   1  28
TORSDOF 20
ENDMDL
