MODEL 1
REMARK VINA RESULT:     -10.9      0.000      0.000
REMARK SMILES O=C(CCS(=O)(=O)c1ccc2[nH]c(=O)oc2c1)NCCCCCCNC(=O)c1ccc(-c2c3nc(c(-c4c(F)cc(S(=O)(=O)[O-])cc4F)c4ccc([nH]4)c(-c4c(F)cc(S(=O)(=O)[O-])cc4F)c4nc(c(-c5c(F)cc(S(=O)(=O)[O-])cc5F)c5ccc2[nH]5)C=C4)C=C3)cc1
REMARK SMILES IDX 21 1 20 2 19 3 18 4 1 5 2 6 3 8 4 9 5 10 6 11 7 12 8 13 9 14
REMARK SMILES IDX 17 15 10 16 16 17 11 18 15 19 12 20 13 21 14 23 22 24 23 25
REMARK SMILES IDX 24 26 25 27 26 28 27 30 28 31 29 32 93 33 30 34 92 35 31 36
REMARK SMILES IDX 32 37 33 38 86 39 34 40 91 41 85 42 87 43 35 44 90 45 84 46
REMARK SMILES IDX 83 47 36 49 70 50 49 51 69 52 50 53 53 54 68 55 88 56 51 57
REMARK SMILES IDX 52 58 67 60 89 61 54 62 37 63 38 64 47 65 39 66 40 67 46 68
REMARK SMILES IDX 48 69 41 70 42 71 43 72 44 73 45 74 71 75 72 76 81 77 73 78
REMARK SMILES IDX 74 79 80 80 82 81 75 82 76 83 77 84 78 85 79 86 55 87 56 88
REMARK SMILES IDX 65 89 57 90 58 91 64 92 66 93 59 94 60 95 61 96 62 97 63 98
REMARK H PARENT 18 7 12 22 25 29 87 48 53 59
REMARK Flexibility Score: inf
ROOT
ATOM      1  C   UNL A   1      32.666  28.651  23.427  1.00  0.00     0.002 C 
ENDROOT
BRANCH   1   2
ATOM      2  C   UNL A   1      33.657  27.946  22.488  1.00  0.00     0.021 C 
BRANCH   2   3
ATOM      3  C   UNL A   1      33.177  26.651  21.837  1.00  0.00     0.116 C 
BRANCH   3   4
ATOM      4  N   UNL A   1      32.027  26.062  22.496  1.00  0.00    -0.356 N 
ATOM      5  O   UNL A   1      32.680  23.866  22.265  1.00  0.00    -0.275 OA
ATOM      6  C   UNL A   1      31.888  24.707  22.674  1.00  0.00     0.221 C 
ATOM      7  H   UNL A   1      31.316  26.658  22.828  1.00  0.00     0.163 HD
BRANCH   6   8
ATOM      8  C   UNL A   1      30.706  24.318  23.527  1.00  0.00     0.116 C 
BRANCH   8   9
ATOM      9  C   UNL A   1      30.863  24.788  24.966  1.00  0.00     0.152 C 
BRANCH   9  10
ATOM     10  S   UNL A   1      31.521  23.573  26.081  1.00  0.00     0.179 S 
ATOM     11  O   UNL A   1      31.522  24.174  27.406  1.00  0.00    -0.224 OA
ATOM     12  O   UNL A   1      30.812  22.333  25.837  1.00  0.00    -0.224 OA
BRANCH  10  13
ATOM     13  C   UNL A   1      33.227  23.240  25.684  1.00  0.00     0.071 A 
ATOM     14  C   UNL A   1      34.270  24.126  26.024  1.00  0.00     0.023 A 
ATOM     15  C   UNL A   1      33.505  21.973  25.148  1.00  0.00     0.069 A 
ATOM     16  C   UNL A   1      35.607  23.712  25.946  1.00  0.00     0.031 A 
ATOM     17  C   UNL A   1      34.828  21.598  25.075  1.00  0.00     0.157 A 
ATOM     18  C   UNL A   1      35.837  22.433  25.501  1.00  0.00     0.087 A 
ATOM     19  O   UNL A   1      35.293  20.345  24.718  1.00  0.00    -0.408 OA
ATOM     20  N   UNL A   1      36.981  21.690  25.478  1.00  0.00    -0.287 N 
ATOM     21  C   UNL A   1      36.654  20.426  25.045  1.00  0.00     0.417 A 
ATOM     22  H   UNL A   1      37.881  22.004  25.725  1.00  0.00     0.173 HD
ATOM     23  O   UNL A   1      37.423  19.482  24.991  1.00  0.00    -0.224 OA
ENDBRANCH  10  13
ENDBRANCH   9  10
ENDBRANCH   8   9
ENDBRANCH   6   8
ENDBRANCH   3   4
ENDBRANCH   2   3
ENDBRANCH   1   2
BRANCH   1  24
ATOM     24  C   UNL A   1      33.153  28.976  24.841  1.00  0.00     0.002 C 
BRANCH  24  25
ATOM     25  C   UNL A   1      32.995  27.865  25.877  1.00  0.00     0.021 C 
BRANCH  25  26
ATOM     26  C   UNL A   1      33.380  28.266  27.293  1.00  0.00     0.116 C 
BRANCH  26  27
ATOM     27  N   UNL A   1      33.357  29.713  27.454  1.00  0.00    -0.352 N 
ATOM     28  C   UNL A   1      34.279  30.548  28.045  1.00  0.00     0.251 C 
ATOM     29  H   UNL A   1      32.563  30.162  27.086  1.00  0.00     0.163 HD
ATOM     30  O   UNL A   1      33.936  31.685  28.362  1.00  0.00    -0.269 OA
BRANCH  28  31
ATOM     31  C   UNL A   1      35.673  30.102  28.290  1.00  0.00     0.039 A 
ATOM     32  C   UNL A   1      36.038  29.661  29.566  1.00  0.00     0.014 A 
ATOM     33  C   UNL A   1      36.647  30.185  27.293  1.00  0.00     0.014 A 
ATOM     34  C   UNL A   1      37.361  29.285  29.828  1.00  0.00     0.010 A 
ATOM     35  C   UNL A   1      37.932  29.700  27.520  1.00  0.00     0.010 A 
ATOM     36  C   UNL A   1      38.318  29.283  28.800  1.00  0.00    -0.014 A 
BRANCH  36  37
ATOM     37  C   UNL A   1      39.742  28.926  29.045  1.00  0.00     0.031 A 
ATOM     38  C   UNL A   1      40.685  29.968  29.600  1.00  0.00     0.074 A 
ATOM     39  C   UNL A   1      40.202  27.701  28.722  1.00  0.00     0.049 A 
ATOM     40  N   UNL A   1      41.981  29.908  29.770  1.00  0.00    -0.248 NA
ATOM     41  C   UNL A   1      40.098  31.265  29.980  1.00  0.00     0.031 C 
ATOM     42  C   UNL A   1      39.401  26.621  28.141  1.00  0.00     0.029 A 
ATOM     43  N   UNL A   1      41.460  27.159  28.825  1.00  0.00    -0.354 N 
ATOM     44  C   UNL A   1      42.360  31.155  30.258  1.00  0.00     0.074 A 
ATOM     45  C   UNL A   1      41.171  31.977  30.288  1.00  0.00     0.031 C 
ATOM     46  C   UNL A   1      40.181  25.543  27.956  1.00  0.00     0.029 A 
ATOM     47  C   UNL A   1      41.546  25.867  28.359  1.00  0.00     0.049 A 
ATOM     48  H   UNL A   1      42.229  27.650  29.195  1.00  0.00     0.167 HD
ATOM     49  C   UNL A   1      43.578  31.569  30.677  1.00  0.00     0.037 A 
ATOM     50  C   UNL A   1      42.608  25.044  28.254  1.00  0.00     0.037 A 
ATOM     51  C   UNL A   1      44.750  30.732  30.682  1.00  0.00     0.049 A 
ATOM     52  C   UNL A   1      43.957  25.532  28.719  1.00  0.00     0.074 A 
ATOM     53  C   UNL A   1      46.025  31.040  31.122  1.00  0.00     0.029 A 
ATOM     54  N   UNL A   1      44.784  29.419  30.237  1.00  0.00    -0.354 N 
ATOM     55  N   UNL A   1      44.285  26.702  29.216  1.00  0.00    -0.248 NA
ATOM     56  C   UNL A   1      45.077  24.588  28.619  1.00  0.00     0.031 C 
ATOM     57  C   UNL A   1      46.842  29.928  30.903  1.00  0.00     0.029 A 
ATOM     58  C   UNL A   1      46.063  28.906  30.383  1.00  0.00     0.049 A 
ATOM     59  H   UNL A   1      44.016  28.925  29.872  1.00  0.00     0.167 HD
ATOM     60  C   UNL A   1      45.640  26.618  29.522  1.00  0.00     0.074 A 
ATOM     61  C   UNL A   1      46.065  25.281  29.168  1.00  0.00     0.031 C 
ATOM     62  C   UNL A   1      46.459  27.562  30.048  1.00  0.00     0.037 A 
BRANCH  49  63
ATOM     63  C   UNL A   1      43.709  32.977  31.196  1.00  0.00     0.058 A 
ATOM     64  C   UNL A   1      43.579  33.271  32.563  1.00  0.00     0.135 A 
ATOM     65  C   UNL A   1      44.036  34.034  30.330  1.00  0.00     0.135 A 
ATOM     66  F   UNL A   1      43.248  32.305  33.434  1.00  0.00    -0.206 F 
ATOM     67  C   UNL A   1      43.756  34.561  33.051  1.00  0.00     0.059 A 
ATOM     68  C   UNL A   1      44.248  35.327  30.801  1.00  0.00     0.059 A 
ATOM     69  F   UNL A   1      44.169  33.812  29.013  1.00  0.00    -0.206 F 
ATOM     70  C   UNL A   1      44.100  35.582  32.163  1.00  0.00     0.060 A 
BRANCH  70  71
ATOM     71  S   UNL A   1      44.370  37.239  32.825  1.00  0.00     0.124 S 
ATOM     72  O   UNL A   1      44.545  38.018  31.603  1.00  0.00    -0.237 OA
ATOM     73  O   UNL A   1      43.134  37.485  33.560  1.00  0.00    -0.237 OA
ATOM     74  O   UNL A   1      45.567  37.087  33.647  1.00  0.00    -0.744 OA
ENDBRANCH  70  71
ENDBRANCH  49  63
BRANCH  50  75
ATOM     75  C   UNL A   1      42.450  23.675  27.686  1.00  0.00     0.058 A 
ATOM     76  C   UNL A   1      42.314  22.553  28.517  1.00  0.00     0.135 A 
ATOM     77  C   UNL A   1      42.463  23.458  26.298  1.00  0.00     0.135 A 
ATOM     78  F   UNL A   1      42.300  22.704  29.851  1.00  0.00    -0.206 F 
ATOM     79  C   UNL A   1      42.242  21.263  27.999  1.00  0.00     0.059 A 
ATOM     80  C   UNL A   1      42.356  22.181  25.755  1.00  0.00     0.059 A 
ATOM     81  F   UNL A   1      42.571  24.495  25.454  1.00  0.00    -0.206 F 
ATOM     82  C   UNL A   1      42.268  21.088  26.614  1.00  0.00     0.060 A 
BRANCH  82  83
ATOM     83  S   UNL A   1      42.176  19.411  25.951  1.00  0.00     0.124 S 
ATOM     84  O   UNL A   1      43.020  19.517  24.766  1.00  0.00    -0.237 OA
ATOM     85  O   UNL A   1      42.712  18.615  27.049  1.00  0.00    -0.237 OA
ATOM     86  O   UNL A   1      40.750  19.230  25.693  1.00  0.00    -0.744 OA
ENDBRANCH  82  83
ENDBRANCH  50  75
BRANCH  62  87
ATOM     87  C   UNL A   1      47.882  27.167  30.333  1.00  0.00     0.058 A 
ATOM     88  C   UNL A   1      48.921  27.427  29.426  1.00  0.00     0.135 A 
ATOM     89  C   UNL A   1      48.218  26.570  31.560  1.00  0.00     0.135 A 
ATOM     90  F   UNL A   1      48.656  27.992  28.237  1.00  0.00    -0.206 F 
ATOM     91  C   UNL A   1      50.238  27.082  29.713  1.00  0.00     0.059 A 
ATOM     92  C   UNL A   1      49.531  26.248  31.882  1.00  0.00     0.059 A 
ATOM     93  F   UNL A   1      47.264  26.312  32.470  1.00  0.00    -0.206 F 
ATOM     94  C   UNL A   1      50.534  26.497  30.946  1.00  0.00     0.060 A 
BRANCH  94  95
ATOM     95  S   UNL A   1      52.251  26.087  31.318  1.00  0.00     0.124 S 
ATOM     96  O   UNL A   1      52.854  26.114  29.989  1.00  0.00    -0.237 OA
ATOM     97  O   UNL A   1      52.643  27.171  32.214  1.00  0.00    -0.237 OA
ATOM     98  O   UNL A   1      52.161  24.769  31.938  1.00  0.00    -0.744 OA
ENDBRANCH  94  95
ENDBRANCH  62  87
ENDBRANCH  36  37
ENDBRANCH  28  31
ENDBRANCH  26  27
ENDBRANCH  25  26
ENDBRANCH  24  25
ENDBRANCH   1  24
TORSDOF 19
ENDMDL
MODEL 2
REMARK VINA RESULT:     -10.5      5.523     11.682
REMARK SMILES O=C(CCS(=O)(=O)c1ccc2[nH]c(=O)oc2c1)NCCCCCCNC(=O)c1ccc(-c2c3nc(c(-c4c(F)cc(S(=O)(=O)[O-])cc4F)c4ccc([nH]4)c(-c4c(F)cc(S(=O)(=O)[O-])cc4F)c4nc(c(-c5c(F)cc(S(=O)(=O)[O-])cc5F)c5ccc2[nH]5)C=C4)C=C3)cc1
REMARK SMILES IDX 21 1 20 2 19 3 18 4 1 5 2 6 3 8 4 9 5 10 6 11 7 12 8 13 9 14
REMARK SMILES IDX 17 15 10 16 16 17 11 18 15 19 12 20 13 21 14 23 22 24 23 25
REMARK SMILES IDX 24 26 25 27 26 28 27 30 28 31 29 32 93 33 30 34 92 35 31 36
REMARK SMILES IDX 32 37 33 38 86 39 34 40 91 41 85 42 87 43 35 44 90 45 84 46
REMARK SMILES IDX 83 47 36 49 70 50 49 51 69 52 50 53 53 54 68 55 88 56 51 57
REMARK SMILES IDX 52 58 67 60 89 61 54 62 37 63 38 64 47 65 39 66 40 67 46 68
REMARK SMILES IDX 48 69 41 70 42 71 43 72 44 73 45 74 71 75 72 76 81 77 73 78
REMARK SMILES IDX 74 79 80 80 82 81 75 82 76 83 77 84 78 85 79 86 55 87 56 88
REMARK SMILES IDX 65 89 57 90 58 91 64 92 66 93 59 94 60 95 61 96 62 97 63 98
REMARK H PARENT 18 7 12 22 25 29 87 48 53 59
REMARK Flexibility Score: inf
ROOT
ATOM      1  C   UNL A   1      44.290  23.621  29.643  1.00  0.00     0.002 C 
ENDROOT
BRANCH   1   2
ATOM      2  C   UNL A   1      43.778  25.058  29.832  1.00  0.00     0.021 C 
BRANCH   2   3
ATOM      3  C   UNL A   1      44.593  26.166  29.170  1.00  0.00     0.116 C 
BRANCH   3   4
ATOM      4  N   UNL A   1      44.886  25.915  27.771  1.00  0.00    -0.356 N 
ATOM      5  O   UNL A   1      44.239  27.981  26.987  1.00  0.00    -0.275 OA
ATOM      6  C   UNL A   1      44.702  26.862  26.795  1.00  0.00     0.221 C 
ATOM      7  H   UNL A   1      45.229  25.028  27.512  1.00  0.00     0.163 HD
BRANCH   6   8
ATOM      8  C   UNL A   1      45.223  26.455  25.438  1.00  0.00     0.116 C 
BRANCH   8   9
ATOM      9  C   UNL A   1      44.924  24.995  25.129  1.00  0.00     0.152 C 
BRANCH   9  10
ATOM     10  S   UNL A   1      46.349  23.937  25.070  1.00  0.00     0.179 S 
ATOM     11  O   UNL A   1      47.136  24.354  23.920  1.00  0.00    -0.224 OA
ATOM     12  O   UNL A   1      46.934  23.924  26.396  1.00  0.00    -0.224 OA
BRANCH  10  13
ATOM     13  C   UNL A   1      45.849  22.256  24.747  1.00  0.00     0.071 A 
ATOM     14  C   UNL A   1      46.767  21.249  24.387  1.00  0.00     0.023 A 
ATOM     15  C   UNL A   1      44.507  21.944  25.018  1.00  0.00     0.069 A 
ATOM     16  C   UNL A   1      46.387  19.900  24.410  1.00  0.00     0.031 A 
ATOM     17  C   UNL A   1      44.162  20.610  25.025  1.00  0.00     0.157 A 
ATOM     18  C   UNL A   1      45.089  19.625  24.767  1.00  0.00     0.087 A 
ATOM     19  O   UNL A   1      42.936  20.097  25.410  1.00  0.00    -0.408 OA
ATOM     20  N   UNL A   1      44.474  18.441  25.047  1.00  0.00    -0.287 N 
ATOM     21  C   UNL A   1      43.195  18.720  25.470  1.00  0.00     0.417 A 
ATOM     22  H   UNL A   1      44.874  17.545  24.961  1.00  0.00     0.173 HD
ATOM     23  O   UNL A   1      42.398  17.896  25.885  1.00  0.00    -0.224 OA
ENDBRANCH  10  13
ENDBRANCH   9  10
ENDBRANCH   8   9
ENDBRANCH   6   8
ENDBRANCH   3   4
ENDBRANCH   2   3
ENDBRANCH   1   2
BRANCH   1  24
ATOM     24  C   UNL A   1      43.295  22.589  29.108  1.00  0.00     0.002 C 
BRANCH  24  25
ATOM     25  C   UNL A   1      42.083  23.147  28.365  1.00  0.00     0.021 C 
BRANCH  25  26
ATOM     26  C   UNL A   1      42.390  23.681  26.975  1.00  0.00     0.116 C 
BRANCH  26  27
ATOM     27  N   UNL A   1      41.166  23.925  26.224  1.00  0.00    -0.352 N 
ATOM     28  C   UNL A   1      40.053  24.660  26.569  1.00  0.00     0.251 C 
ATOM     29  H   UNL A   1      41.128  23.502  25.337  1.00  0.00     0.163 HD
ATOM     30  O   UNL A   1      39.009  24.487  25.945  1.00  0.00    -0.269 OA
BRANCH  28  31
ATOM     31  C   UNL A   1      40.103  25.659  27.665  1.00  0.00     0.039 A 
ATOM     32  C   UNL A   1      39.246  25.516  28.762  1.00  0.00     0.014 A 
ATOM     33  C   UNL A   1      40.931  26.781  27.588  1.00  0.00     0.014 A 
ATOM     34  C   UNL A   1      39.243  26.477  29.780  1.00  0.00     0.010 A 
ATOM     35  C   UNL A   1      41.014  27.671  28.655  1.00  0.00     0.010 A 
ATOM     36  C   UNL A   1      40.142  27.556  29.746  1.00  0.00    -0.014 A 
BRANCH  36  37
ATOM     37  C   UNL A   1      40.145  28.618  30.789  1.00  0.00     0.031 A 
ATOM     38  C   UNL A   1      41.068  28.487  31.979  1.00  0.00     0.074 A 
ATOM     39  C   UNL A   1      39.294  29.658  30.703  1.00  0.00     0.049 A 
ATOM     40  N   UNL A   1      41.141  29.226  33.056  1.00  0.00    -0.248 NA
ATOM     41  C   UNL A   1      42.008  27.353  31.975  1.00  0.00     0.031 C 
ATOM     42  C   UNL A   1      38.325  29.875  29.626  1.00  0.00     0.029 A 
ATOM     43  N   UNL A   1      39.094  30.725  31.545  1.00  0.00    -0.354 N 
ATOM     44  C   UNL A   1      42.116  28.638  33.856  1.00  0.00     0.074 A 
ATOM     45  C   UNL A   1      42.557  27.442  33.176  1.00  0.00     0.031 C 
ATOM     46  C   UNL A   1      37.650  31.012  29.861  1.00  0.00     0.029 A 
ATOM     47  C   UNL A   1      38.100  31.580  31.128  1.00  0.00     0.049 A 
ATOM     48  H   UNL A   1      39.613  30.865  32.370  1.00  0.00     0.167 HD
ATOM     49  C   UNL A   1      42.627  29.073  35.032  1.00  0.00     0.037 A 
ATOM     50  C   UNL A   1      37.597  32.687  31.711  1.00  0.00     0.037 A 
ATOM     51  C   UNL A   1      42.212  30.289  35.684  1.00  0.00     0.049 A 
ATOM     52  C   UNL A   1      38.175  33.146  33.025  1.00  0.00     0.074 A 
ATOM     53  C   UNL A   1      42.691  30.841  36.857  1.00  0.00     0.029 A 
ATOM     54  N   UNL A   1      41.229  31.144  35.209  1.00  0.00    -0.354 N 
ATOM     55  N   UNL A   1      39.127  32.598  33.744  1.00  0.00    -0.248 NA
ATOM     56  C   UNL A   1      37.621  34.377  33.603  1.00  0.00     0.031 C 
ATOM     57  C   UNL A   1      41.967  32.009  37.117  1.00  0.00     0.029 A 
ATOM     58  C   UNL A   1      41.080  32.216  36.073  1.00  0.00     0.049 A 
ATOM     59  H   UNL A   1      40.713  31.009  34.381  1.00  0.00     0.167 HD
ATOM     60  C   UNL A   1      39.309  33.438  34.838  1.00  0.00     0.074 A 
ATOM     61  C   UNL A   1      38.381  34.537  34.678  1.00  0.00     0.031 C 
ATOM     62  C   UNL A   1      40.167  33.314  35.881  1.00  0.00     0.037 A 
BRANCH  49  63
ATOM     63  C   UNL A   1      43.712  28.254  35.680  1.00  0.00     0.058 A 
ATOM     64  C   UNL A   1      45.068  28.481  35.401  1.00  0.00     0.135 A 
ATOM     65  C   UNL A   1      43.397  27.280  36.642  1.00  0.00     0.135 A 
ATOM     66  F   UNL A   1      45.428  29.386  34.477  1.00  0.00    -0.206 F 
ATOM     67  C   UNL A   1      46.075  27.764  36.042  1.00  0.00     0.059 A 
ATOM     68  C   UNL A   1      44.388  26.572  37.319  1.00  0.00     0.059 A 
ATOM     69  F   UNL A   1      42.116  27.018  36.946  1.00  0.00    -0.206 F 
ATOM     70  C   UNL A   1      45.724  26.818  37.006  1.00  0.00     0.060 A 
BRANCH  70  71
ATOM     71  S   UNL A   1      47.047  25.933  37.858  1.00  0.00     0.124 S 
ATOM     72  O   UNL A   1      47.923  25.575  36.748  1.00  0.00    -0.237 OA
ATOM     73  O   UNL A   1      47.562  26.948  38.771  1.00  0.00    -0.237 OA
ATOM     74  O   UNL A   1      46.354  24.816  38.494  1.00  0.00    -0.744 OA
ENDBRANCH  70  71
ENDBRANCH  49  63
BRANCH  50  75
ATOM     75  C   UNL A   1      36.486  33.443  31.065  1.00  0.00     0.058 A 
ATOM     76  C   UNL A   1      35.167  33.335  31.529  1.00  0.00     0.135 A 
ATOM     77  C   UNL A   1      36.717  34.264  29.949  1.00  0.00     0.135 A 
ATOM     78  F   UNL A   1      34.889  32.560  32.590  1.00  0.00    -0.206 F 
ATOM     79  C   UNL A   1      34.110  33.976  30.887  1.00  0.00     0.059 A 
ATOM     80  C   UNL A   1      35.684  34.944  29.312  1.00  0.00     0.059 A 
ATOM     81  F   UNL A   1      37.962  34.420  29.473  1.00  0.00    -0.206 F 
ATOM     82  C   UNL A   1      34.380  34.776  29.776  1.00  0.00     0.060 A 
BRANCH  82  83
ATOM     83  S   UNL A   1      33.004  35.603  28.947  1.00  0.00     0.124 S 
ATOM     84  O   UNL A   1      32.241  36.110  30.083  1.00  0.00    -0.237 OA
ATOM     85  O   UNL A   1      33.689  36.605  28.139  1.00  0.00    -0.237 OA
ATOM     86  O   UNL A   1      32.371  34.525  28.194  1.00  0.00    -0.744 OA
ENDBRANCH  82  83
ENDBRANCH  50  75
BRANCH  62  87
ATOM     87  C   UNL A   1      40.188  34.420  36.900  1.00  0.00     0.058 A 
ATOM     88  C   UNL A   1      39.324  34.430  38.005  1.00  0.00     0.135 A 
ATOM     89  C   UNL A   1      41.131  35.458  36.795  1.00  0.00     0.135 A 
ATOM     90  F   UNL A   1      38.403  33.465  38.152  1.00  0.00    -0.206 F 
ATOM     91  C   UNL A   1      39.374  35.445  38.956  1.00  0.00     0.059 A 
ATOM     92  C   UNL A   1      41.220  36.462  37.751  1.00  0.00     0.059 A 
ATOM     93  F   UNL A   1      41.991  35.489  35.764  1.00  0.00    -0.206 F 
ATOM     94  C   UNL A   1      40.328  36.455  38.822  1.00  0.00     0.060 A 
BRANCH  94  95
ATOM     95  S   UNL A   1      40.402  37.745  40.082  1.00  0.00     0.124 S 
ATOM     96  O   UNL A   1      41.624  38.451  39.707  1.00  0.00    -0.237 OA
ATOM     97  O   UNL A   1      39.156  38.471  39.856  1.00  0.00    -0.237 OA
ATOM     98  O   UNL A   1      40.469  36.997  41.333  1.00  0.00    -0.744 OA
ENDBRANCH  94  95
ENDBRANCH  62  87
ENDBRANCH  36  37
ENDBRANCH  28  31
ENDBRANCH  26  27
ENDBRANCH  25  26
ENDBRANCH  24  25
ENDBRANCH   1  24
TORSDOF 19
ENDMDL
MODEL 3
REMARK VINA RESULT:     -10.4      4.605     10.404
REMARK SMILES O=C(CCS(=O)(=O)c1ccc2[nH]c(=O)oc2c1)NCCCCCCNC(=O)c1ccc(-c2c3nc(c(-c4c(F)cc(S(=O)(=O)[O-])cc4F)c4ccc([nH]4)c(-c4c(F)cc(S(=O)(=O)[O-])cc4F)c4nc(c(-c5c(F)cc(S(=O)(=O)[O-])cc5F)c5ccc2[nH]5)C=C4)C=C3)cc1
REMARK SMILES IDX 21 1 20 2 19 3 18 4 1 5 2 6 3 8 4 9 5 10 6 11 7 12 8 13 9 14
REMARK SMILES IDX 17 15 10 16 16 17 11 18 15 19 12 20 13 21 14 23 22 24 23 25
REMARK SMILES IDX 24 26 25 27 26 28 27 30 28 31 29 32 93 33 30 34 92 35 31 36
REMARK SMILES IDX 32 37 33 38 86 39 34 40 91 41 85 42 87 43 35 44 90 45 84 46
REMARK SMILES IDX 83 47 36 49 70 50 49 51 69 52 50 53 53 54 68 55 88 56 51 57
REMARK SMILES IDX 52 58 67 60 89 61 54 62 37 63 38 64 47 65 39 66 40 67 46 68
REMARK SMILES IDX 48 69 41 70 42 71 43 72 44 73 45 74 71 75 72 76 81 77 73 78
REMARK SMILES IDX 74 79 80 80 82 81 75 82 76 83 77 84 78 85 79 86 55 87 56 88
REMARK SMILES IDX 65 89 57 90 58 91 64 92 66 93 59 94 60 95 61 96 62 97 63 98
REMARK H PARENT 18 7 12 22 25 29 87 48 53 59
REMARK Flexibility Score: inf
ROOT
ATOM      1  C   UNL A   1      38.403  22.296  26.090  1.00  0.00     0.002 C 
ENDROOT
BRANCH   1   2
ATOM      2  C   UNL A   1      37.693  21.643  24.894  1.00  0.00     0.021 C 
BRANCH   2   3
ATOM      3  C   UNL A   1      36.540  20.696  25.220  1.00  0.00     0.116 C 
BRANCH   3   4
ATOM      4  N   UNL A   1      35.548  21.272  26.108  1.00  0.00    -0.356 N 
ATOM      5  O   UNL A   1      33.859  21.440  24.552  1.00  0.00    -0.275 OA
ATOM      6  C   UNL A   1      34.274  21.576  25.698  1.00  0.00     0.221 C 
ATOM      7  H   UNL A   1      35.800  21.453  27.043  1.00  0.00     0.163 HD
BRANCH   6   8
ATOM      8  C   UNL A   1      33.356  22.008  26.814  1.00  0.00     0.116 C 
BRANCH   8   9
ATOM      9  C   UNL A   1      31.909  22.110  26.354  1.00  0.00     0.152 C 
BRANCH   9  10
ATOM     10  S   UNL A   1      31.145  23.688  26.637  1.00  0.00     0.179 S 
ATOM     11  O   UNL A   1      29.789  23.423  27.096  1.00  0.00    -0.224 OA
ATOM     12  O   UNL A   1      32.055  24.471  27.448  1.00  0.00    -0.224 OA
BRANCH  10  13
ATOM     13  C   UNL A   1      30.985  24.574  25.099  1.00  0.00     0.071 A 
ATOM     14  C   UNL A   1      30.388  25.849  25.017  1.00  0.00     0.023 A 
ATOM     15  C   UNL A   1      31.623  24.006  23.984  1.00  0.00     0.069 A 
ATOM     16  C   UNL A   1      30.524  26.625  23.859  1.00  0.00     0.031 A 
ATOM     17  C   UNL A   1      31.734  24.790  22.857  1.00  0.00     0.157 A 
ATOM     18  C   UNL A   1      31.233  26.072  22.819  1.00  0.00     0.087 A 
ATOM     19  O   UNL A   1      32.450  24.467  21.718  1.00  0.00    -0.408 OA
ATOM     20  N   UNL A   1      31.681  26.622  21.655  1.00  0.00    -0.287 N 
ATOM     21  C   UNL A   1      32.444  25.676  21.008  1.00  0.00     0.417 A 
ATOM     22  H   UNL A   1      31.492  27.533  21.333  1.00  0.00     0.173 HD
ATOM     23  O   UNL A   1      33.071  25.864  19.980  1.00  0.00    -0.224 OA
ENDBRANCH  10  13
ENDBRANCH   9  10
ENDBRANCH   8   9
ENDBRANCH   6   8
ENDBRANCH   3   4
ENDBRANCH   2   3
ENDBRANCH   1   2
BRANCH   1  24
ATOM     24  C   UNL A   1      39.855  21.887  26.350  1.00  0.00     0.002 C 
BRANCH  24  25
ATOM     25  C   UNL A   1      40.430  22.281  27.708  1.00  0.00     0.021 C 
BRANCH  25  26
ATOM     26  C   UNL A   1      41.816  22.904  27.646  1.00  0.00     0.116 C 
BRANCH  26  27
ATOM     27  N   UNL A   1      41.975  23.718  26.449  1.00  0.00    -0.352 N 
ATOM     28  C   UNL A   1      41.693  25.051  26.248  1.00  0.00     0.251 C 
ATOM     29  H   UNL A   1      42.337  23.245  25.667  1.00  0.00     0.163 HD
ATOM     30  O   UNL A   1      41.597  25.472  25.098  1.00  0.00    -0.269 OA
BRANCH  28  31
ATOM     31  C   UNL A   1      41.522  25.981  27.393  1.00  0.00     0.039 A 
ATOM     32  C   UNL A   1      40.323  25.967  28.114  1.00  0.00     0.014 A 
ATOM     33  C   UNL A   1      42.501  26.923  27.715  1.00  0.00     0.014 A 
ATOM     34  C   UNL A   1      40.125  26.872  29.163  1.00  0.00     0.010 A 
ATOM     35  C   UNL A   1      42.352  27.740  28.832  1.00  0.00     0.010 A 
ATOM     36  C   UNL A   1      41.147  27.756  29.546  1.00  0.00    -0.014 A 
BRANCH  36  37
ATOM     37  C   UNL A   1      40.962  28.758  30.631  1.00  0.00     0.031 A 
ATOM     38  C   UNL A   1      41.820  28.675  31.872  1.00  0.00     0.074 A 
ATOM     39  C   UNL A   1      40.001  29.697  30.534  1.00  0.00     0.049 A 
ATOM     40  N   UNL A   1      41.741  29.363  32.982  1.00  0.00    -0.248 NA
ATOM     41  C   UNL A   1      42.886  27.658  31.882  1.00  0.00     0.031 C 
ATOM     42  C   UNL A   1      39.080  29.855  29.405  1.00  0.00     0.029 A 
ATOM     43  N   UNL A   1      39.626  30.691  31.404  1.00  0.00    -0.354 N 
ATOM     44  C   UNL A   1      42.728  28.852  33.819  1.00  0.00     0.074 A 
ATOM     45  C   UNL A   1      43.347  27.749  33.120  1.00  0.00     0.031 C 
ATOM     46  C   UNL A   1      38.263  30.894  29.644  1.00  0.00     0.029 A 
ATOM     47  C   UNL A   1      38.566  31.446  30.960  1.00  0.00     0.049 A 
ATOM     48  H   UNL A   1      40.075  30.848  32.267  1.00  0.00     0.167 HD
ATOM     49  C   UNL A   1      43.112  29.284  35.043  1.00  0.00     0.037 A 
ATOM     50  C   UNL A   1      37.901  32.458  31.555  1.00  0.00     0.037 A 
ATOM     51  C   UNL A   1      42.518  30.409  35.717  1.00  0.00     0.049 A 
ATOM     52  C   UNL A   1      38.341  32.914  32.922  1.00  0.00     0.074 A 
ATOM     53  C   UNL A   1      42.857  30.954  36.942  1.00  0.00     0.029 A 
ATOM     54  N   UNL A   1      41.472  31.169  35.215  1.00  0.00    -0.354 N 
ATOM     55  N   UNL A   1      39.306  32.443  33.679  1.00  0.00    -0.248 NA
ATOM     56  C   UNL A   1      37.613  34.043  33.515  1.00  0.00     0.031 C 
ATOM     57  C   UNL A   1      41.987  32.017  37.203  1.00  0.00     0.029 A 
ATOM     58  C   UNL A   1      41.146  32.172  36.113  1.00  0.00     0.049 A 
ATOM     59  H   UNL A   1      41.027  31.018  34.351  1.00  0.00     0.167 HD
ATOM     60  C   UNL A   1      39.321  33.244  34.816  1.00  0.00     0.074 A 
ATOM     61  C   UNL A   1      38.282  34.235  34.643  1.00  0.00     0.031 C 
ATOM     62  C   UNL A   1      40.123  33.167  35.908  1.00  0.00     0.037 A 
BRANCH  49  63
ATOM     63  C   UNL A   1      44.244  28.563  35.726  1.00  0.00     0.058 A 
ATOM     64  C   UNL A   1      44.012  27.472  36.578  1.00  0.00     0.135 A 
ATOM     65  C   UNL A   1      45.579  28.921  35.473  1.00  0.00     0.135 A 
ATOM     66  F   UNL A   1      42.757  27.097  36.872  1.00  0.00    -0.206 F 
ATOM     67  C   UNL A   1      45.059  26.768  37.165  1.00  0.00     0.059 A 
ATOM     68  C   UNL A   1      46.644  28.212  36.024  1.00  0.00     0.059 A 
ATOM     69  F   UNL A   1      45.861  29.958  34.670  1.00  0.00    -0.206 F 
ATOM     70  C   UNL A   1      46.373  27.141  36.874  1.00  0.00     0.060 A 
BRANCH  70  71
ATOM     71  S   UNL A   1      47.717  26.186  37.609  1.00  0.00     0.124 S 
ATOM     72  O   UNL A   1      48.485  27.229  38.281  1.00  0.00    -0.237 OA
ATOM     73  O   UNL A   1      47.000  25.264  38.484  1.00  0.00    -0.237 OA
ATOM     74  O   UNL A   1      48.369  25.572  36.456  1.00  0.00    -0.744 OA
ENDBRANCH  70  71
ENDBRANCH  49  63
BRANCH  50  75
ATOM     75  C   UNL A   1      36.751  33.112  30.870  1.00  0.00     0.058 A 
ATOM     76  C   UNL A   1      36.951  34.074  29.869  1.00  0.00     0.135 A 
ATOM     77  C   UNL A   1      35.425  32.810  31.224  1.00  0.00     0.135 A 
ATOM     78  F   UNL A   1      38.198  34.403  29.494  1.00  0.00    -0.206 F 
ATOM     79  C   UNL A   1      35.886  34.746  29.275  1.00  0.00     0.059 A 
ATOM     80  C   UNL A   1      34.343  33.442  30.621  1.00  0.00     0.059 A 
ATOM     81  F   UNL A   1      35.173  31.884  32.162  1.00  0.00    -0.206 F 
ATOM     82  C   UNL A   1      34.584  34.424  29.663  1.00  0.00     0.060 A 
BRANCH  82  83
ATOM     83  S   UNL A   1      33.207  35.302  28.890  1.00  0.00     0.124 S 
ATOM     84  O   UNL A   1      32.454  35.750  30.056  1.00  0.00    -0.237 OA
ATOM     85  O   UNL A   1      33.893  36.345  28.133  1.00  0.00    -0.237 OA
ATOM     86  O   UNL A   1      32.564  34.271  28.081  1.00  0.00    -0.744 OA
ENDBRANCH  82  83
ENDBRANCH  50  75
BRANCH  62  87
ATOM     87  C   UNL A   1      39.953  34.216  36.972  1.00  0.00     0.058 A 
ATOM     88  C   UNL A   1      39.122  34.018  38.085  1.00  0.00     0.135 A 
ATOM     89  C   UNL A   1      40.681  35.416  36.902  1.00  0.00     0.135 A 
ATOM     90  F   UNL A   1      38.402  32.891  38.199  1.00  0.00    -0.206 F 
ATOM     91  C   UNL A   1      38.995  34.986  39.077  1.00  0.00     0.059 A 
ATOM     92  C   UNL A   1      40.595  36.382  37.898  1.00  0.00     0.059 A 
ATOM     93  F   UNL A   1      41.502  35.650  35.865  1.00  0.00    -0.206 F 
ATOM     94  C   UNL A   1      39.739  36.163  38.976  1.00  0.00     0.060 A 
BRANCH  94  95
ATOM     95  S   UNL A   1      39.590  37.394  40.288  1.00  0.00     0.124 S 
ATOM     96  O   UNL A   1      40.619  38.355  39.907  1.00  0.00    -0.237 OA
ATOM     97  O   UNL A   1      38.211  37.846  40.134  1.00  0.00    -0.237 OA
ATOM     98  O   UNL A   1      39.863  36.632  41.502  1.00  0.00    -0.744 OA
ENDBRANCH  94  95
ENDBRANCH  62  87
ENDBRANCH  36  37
ENDBRANCH  28  31
ENDBRANCH  26  27
ENDBRANCH  25  26
ENDBRANCH  24  25
ENDBRANCH   1  24
TORSDOF 19
ENDMDL
