MODEL 1
REMARK VINA RESULT:     -11.7      0.000      0.000
REMARK SMILES C[C@@H](C(=O)NCCCCCCNC(=O)c1ccc(-c2c3nc(c(-c4c(F)cc(S(=O)(=O)[O-])cc4F)c4ccc([nH]4)c(-c4c(F)cc(S(=O)(=O)[O-])cc4F)c4nc(c(-c5c(F)cc(S(=O)(=O)[O-])cc5F)c5ccc2[nH]5)C=C4)C=C3)cc1)c1ccc(-c2ccccc2)c(F)c1
REMARK SMILES IDX 9 1 8 2 7 3 6 4 5 5 3 6 4 7 2 9 1 10 81 11 82 12 93 13 83 14
REMARK SMILES IDX 91 15 84 16 92 17 85 18 86 19 90 20 87 21 89 22 88 23 10 24
REMARK SMILES IDX 11 25 12 26 13 27 14 29 15 30 16 31 80 32 17 33 79 34 18 35
REMARK SMILES IDX 19 36 20 37 73 38 21 39 78 40 72 41 74 42 22 43 77 44 71 45
REMARK SMILES IDX 70 46 23 48 57 49 36 50 56 51 37 52 40 53 55 54 75 55 38 56
REMARK SMILES IDX 39 57 54 59 76 60 41 61 24 62 25 63 34 64 26 65 27 66 33 67
REMARK SMILES IDX 35 68 28 69 29 70 30 71 31 72 32 73 58 74 59 75 68 76 60 77
REMARK SMILES IDX 61 78 67 79 69 80 62 81 63 82 64 83 65 84 66 85 42 86 43 87
REMARK SMILES IDX 52 88 44 89 45 90 51 91 53 92 46 93 47 94 48 95 49 96 50 97
REMARK H PARENT 5 8 12 28 74 47 40 58
REMARK Flexibility Score: inf
ROOT
ATOM      1  C   UNL A   1      33.202  28.231  26.877  1.00  0.00     0.002 C 
ENDROOT
BRANCH   1   2
ATOM      2  C   UNL A   1      31.750  28.262  26.388  1.00  0.00     0.002 C 
BRANCH   2   3
ATOM      3  C   UNL A   1      31.534  28.959  25.037  1.00  0.00     0.021 C 
BRANCH   3   4
ATOM      4  C   UNL A   1      30.500  28.273  24.139  1.00  0.00     0.116 C 
BRANCH   4   5
ATOM      5  N   UNL A   1      30.383  26.874  24.497  1.00  0.00    -0.356 N 
ATOM      6  C   UNL A   1      31.022  25.780  23.990  1.00  0.00     0.227 C 
ATOM      7  O   UNL A   1      30.548  24.680  24.280  1.00  0.00    -0.274 OA
ATOM      8  H   UNL A   1      29.742  26.683  25.220  1.00  0.00     0.163 HD
BRANCH   6   9
ATOM      9  C   UNL A   1      32.303  25.950  23.148  1.00  0.00     0.105 C 
ATOM     10  C   UNL A   1      32.044  25.576  21.683  1.00  0.00     0.023 C 
BRANCH   9  11
ATOM     11  C   UNL A   1      33.486  25.189  23.765  1.00  0.00    -0.033 A 
ATOM     12  C   UNL A   1      33.862  25.332  25.109  1.00  0.00     0.005 A 
ATOM     13  C   UNL A   1      34.253  24.326  22.963  1.00  0.00     0.044 A 
ATOM     14  C   UNL A   1      34.973  24.659  25.623  1.00  0.00     0.012 A 
ATOM     15  C   UNL A   1      35.374  23.673  23.480  1.00  0.00     0.131 A 
ATOM     16  C   UNL A   1      35.759  23.826  24.816  1.00  0.00     0.017 A 
ATOM     17  F   UNL A   1      36.088  22.888  22.656  1.00  0.00    -0.206 F 
BRANCH  16  18
ATOM     18  C   UNL A   1      36.951  23.179  25.382  1.00  0.00    -0.015 A 
ATOM     19  C   UNL A   1      37.923  23.935  26.058  1.00  0.00     0.009 A 
ATOM     20  C   UNL A   1      37.184  21.807  25.203  1.00  0.00     0.009 A 
ATOM     21  C   UNL A   1      39.099  23.342  26.525  1.00  0.00     0.001 A 
ATOM     22  C   UNL A   1      38.362  21.213  25.665  1.00  0.00     0.001 A 
ATOM     23  C   UNL A   1      39.320  21.983  26.322  1.00  0.00     0.000 A 
ENDBRANCH  16  18
ENDBRANCH   9  11
ENDBRANCH   6   9
ENDBRANCH   4   5
ENDBRANCH   3   4
ENDBRANCH   2   3
ENDBRANCH   1   2
BRANCH   1  24
ATOM     24  C   UNL A   1      33.836  29.606  27.093  1.00  0.00     0.021 C 
BRANCH  24  25
ATOM     25  C   UNL A   1      35.188  29.573  27.799  1.00  0.00     0.116 C 
BRANCH  25  26
ATOM     26  N   UNL A   1      35.203  30.413  28.986  1.00  0.00    -0.352 N 
ATOM     27  C   UNL A   1      36.216  30.585  29.899  1.00  0.00     0.251 C 
ATOM     28  H   UNL A   1      34.380  30.927  29.158  1.00  0.00     0.163 HD
ATOM     29  O   UNL A   1      36.012  31.178  30.953  1.00  0.00    -0.269 OA
BRANCH  27  30
ATOM     30  C   UNL A   1      37.551  30.027  29.602  1.00  0.00     0.039 A 
ATOM     31  C   UNL A   1      38.016  30.027  28.284  1.00  0.00     0.014 A 
ATOM     32  C   UNL A   1      38.351  29.533  30.636  1.00  0.00     0.014 A 
ATOM     33  C   UNL A   1      39.314  29.590  28.010  1.00  0.00     0.010 A 
ATOM     34  C   UNL A   1      39.664  29.159  30.371  1.00  0.00     0.010 A 
ATOM     35  C   UNL A   1      40.157  29.182  29.056  1.00  0.00    -0.014 A 
BRANCH  35  36
ATOM     36  C   UNL A   1      41.561  28.765  28.816  1.00  0.00     0.031 A 
ATOM     37  C   UNL A   1      42.652  29.798  28.815  1.00  0.00     0.074 A 
ATOM     38  C   UNL A   1      41.836  27.489  28.483  1.00  0.00     0.049 A 
ATOM     39  N   UNL A   1      43.905  29.679  28.464  1.00  0.00    -0.248 NA
ATOM     40  C   UNL A   1      42.268  31.158  29.229  1.00  0.00     0.031 C 
ATOM     41  C   UNL A   1      40.854  26.406  28.404  1.00  0.00     0.029 A 
ATOM     42  N   UNL A   1      43.018  26.895  28.115  1.00  0.00    -0.354 N 
ATOM     43  C   UNL A   1      44.451  30.951  28.580  1.00  0.00     0.074 A 
ATOM     44  C   UNL A   1      43.383  31.833  28.996  1.00  0.00     0.031 C 
ATOM     45  C   UNL A   1      41.472  25.283  28.003  1.00  0.00     0.029 A 
ATOM     46  C   UNL A   1      42.883  25.575  27.759  1.00  0.00     0.049 A 
ATOM     47  H   UNL A   1      43.880  27.371  28.107  1.00  0.00     0.167 HD
ATOM     48  C   UNL A   1      45.731  31.345  28.371  1.00  0.00     0.037 A 
ATOM     49  C   UNL A   1      43.784  24.702  27.267  1.00  0.00     0.037 A 
ATOM     50  C   UNL A   1      46.792  30.453  27.988  1.00  0.00     0.049 A 
ATOM     51  C   UNL A   1      45.206  25.148  27.066  1.00  0.00     0.074 A 
ATOM     52  C   UNL A   1      48.136  30.735  27.825  1.00  0.00     0.029 A 
ATOM     53  N   UNL A   1      46.627  29.106  27.700  1.00  0.00    -0.354 N 
ATOM     54  N   UNL A   1      45.725  26.339  27.247  1.00  0.00    -0.248 NA
ATOM     55  C   UNL A   1      46.166  24.137  26.602  1.00  0.00     0.031 C 
ATOM     56  C   UNL A   1      48.778  29.566  27.401  1.00  0.00     0.029 A 
ATOM     57  C   UNL A   1      47.842  28.545  27.342  1.00  0.00     0.049 A 
ATOM     58  H   UNL A   1      45.772  28.619  27.744  1.00  0.00     0.167 HD
ATOM     59  C   UNL A   1      47.077  26.216  26.944  1.00  0.00     0.074 A 
ATOM     60  C   UNL A   1      47.296  24.834  26.568  1.00  0.00     0.031 C 
ATOM     61  C   UNL A   1      48.046  27.162  26.981  1.00  0.00     0.037 A 
BRANCH  48  62
ATOM     62  C   UNL A   1      46.037  32.808  28.540  1.00  0.00     0.058 A 
ATOM     63  C   UNL A   1      45.961  33.709  27.465  1.00  0.00     0.135 A 
ATOM     64  C   UNL A   1      46.430  33.312  29.790  1.00  0.00     0.135 A 
ATOM     65  F   UNL A   1      45.601  33.278  26.246  1.00  0.00    -0.206 F 
ATOM     66  C   UNL A   1      46.319  35.045  27.611  1.00  0.00     0.059 A 
ATOM     67  C   UNL A   1      46.763  34.652  29.965  1.00  0.00     0.059 A 
ATOM     68  F   UNL A   1      46.515  32.496  30.853  1.00  0.00    -0.206 F 
ATOM     69  C   UNL A   1      46.730  35.504  28.863  1.00  0.00     0.060 A 
BRANCH  69  70
ATOM     70  S   UNL A   1      47.240  37.228  29.028  1.00  0.00     0.124 S 
ATOM     71  O   UNL A   1      46.290  37.716  30.023  1.00  0.00    -0.237 OA
ATOM     72  O   UNL A   1      48.622  37.106  29.482  1.00  0.00    -0.237 OA
ATOM     73  O   UNL A   1      47.071  37.762  27.681  1.00  0.00    -0.744 OA
ENDBRANCH  69  70
ENDBRANCH  48  62
BRANCH  49  74
ATOM     74  C   UNL A   1      43.352  23.317  26.945  1.00  0.00     0.058 A 
ATOM     75  C   UNL A   1      43.240  22.887  25.616  1.00  0.00     0.135 A 
ATOM     76  C   UNL A   1      43.122  22.376  27.961  1.00  0.00     0.135 A 
ATOM     77  F   UNL A   1      43.444  23.752  24.612  1.00  0.00    -0.206 F 
ATOM     78  C   UNL A   1      42.925  21.569  25.303  1.00  0.00     0.059 A 
ATOM     79  C   UNL A   1      42.825  21.048  27.673  1.00  0.00     0.059 A 
ATOM     80  F   UNL A   1      43.235  22.736  29.249  1.00  0.00    -0.206 F 
ATOM     81  C   UNL A   1      42.730  20.653  26.340  1.00  0.00     0.060 A 
BRANCH  81  82
ATOM     82  S   UNL A   1      42.426  18.922  25.921  1.00  0.00     0.124 S 
ATOM     83  O   UNL A   1      40.993  18.933  25.647  1.00  0.00    -0.237 OA
ATOM     84  O   UNL A   1      43.296  18.729  24.765  1.00  0.00    -0.237 OA
ATOM     85  O   UNL A   1      42.834  18.210  27.128  1.00  0.00    -0.744 OA
ENDBRANCH  81  82
ENDBRANCH  49  74
BRANCH  61  86
ATOM     86  C   UNL A   1      49.449  26.746  26.641  1.00  0.00     0.058 A 
ATOM     87  C   UNL A   1      50.322  26.241  27.615  1.00  0.00     0.135 A 
ATOM     88  C   UNL A   1      49.881  26.748  25.305  1.00  0.00     0.135 A 
ATOM     89  F   UNL A   1      49.959  26.227  28.907  1.00  0.00    -0.206 F 
ATOM     90  C   UNL A   1      51.577  25.744  27.275  1.00  0.00     0.059 A 
ATOM     91  C   UNL A   1      51.122  26.237  24.939  1.00  0.00     0.059 A 
ATOM     92  F   UNL A   1      49.079  27.215  24.336  1.00  0.00    -0.206 F 
ATOM     93  C   UNL A   1      51.963  25.735  25.933  1.00  0.00     0.060 A 
BRANCH  93  94
ATOM     94  S   UNL A   1      53.556  25.006  25.493  1.00  0.00     0.124 S 
ATOM     95  O   UNL A   1      53.191  23.609  25.279  1.00  0.00    -0.237 OA
ATOM     96  O   UNL A   1      53.922  25.755  24.296  1.00  0.00    -0.237 OA
ATOM     97  O   UNL A   1      54.384  25.266  26.666  1.00  0.00    -0.744 OA
ENDBRANCH  93  94
ENDBRANCH  61  86
ENDBRANCH  35  36
ENDBRANCH  27  30
ENDBRANCH  25  26
ENDBRANCH  24  25
ENDBRANCH   1  24
TORSDOF 18
ENDMDL
MODEL 2
REMARK VINA RESULT:     -11.3      1.580      3.881
REMARK SMILES C[C@@H](C(=O)NCCCCCCNC(=O)c1ccc(-c2c3nc(c(-c4c(F)cc(S(=O)(=O)[O-])cc4F)c4ccc([nH]4)c(-c4c(F)cc(S(=O)(=O)[O-])cc4F)c4nc(c(-c5c(F)cc(S(=O)(=O)[O-])cc5F)c5ccc2[nH]5)C=C4)C=C3)cc1)c1ccc(-c2ccccc2)c(F)c1
REMARK SMILES IDX 9 1 8 2 7 3 6 4 5 5 3 6 4 7 2 9 1 10 81 11 82 12 93 13 83 14
REMARK SMILES IDX 91 15 84 16 92 17 85 18 86 19 90 20 87 21 89 22 88 23 10 24
REMARK SMILES IDX 11 25 12 26 13 27 14 29 15 30 16 31 80 32 17 33 79 34 18 35
REMARK SMILES IDX 19 36 20 37 73 38 21 39 78 40 72 41 74 42 22 43 77 44 71 45
REMARK SMILES IDX 70 46 23 48 57 49 36 50 56 51 37 52 40 53 55 54 75 55 38 56
REMARK SMILES IDX 39 57 54 59 76 60 41 61 24 62 25 63 34 64 26 65 27 66 33 67
REMARK SMILES IDX 35 68 28 69 29 70 30 71 31 72 32 73 58 74 59 75 68 76 60 77
REMARK SMILES IDX 61 78 67 79 69 80 62 81 63 82 64 83 65 84 66 85 42 86 43 87
REMARK SMILES IDX 52 88 44 89 45 90 51 91 53 92 46 93 47 94 48 95 49 96 50 97
REMARK H PARENT 5 8 12 28 74 47 40 58
REMARK Flexibility Score: inf
ROOT
ATOM      1  C   UNL A   1      33.276  28.008  26.828  1.00  0.00     0.002 C 
ENDROOT
BRANCH   1   2
ATOM      2  C   UNL A   1      33.542  26.696  26.082  1.00  0.00     0.002 C 
BRANCH   2   3
ATOM      3  C   UNL A   1      32.732  25.490  26.582  1.00  0.00     0.021 C 
BRANCH   3   4
ATOM      4  C   UNL A   1      33.289  24.136  26.133  1.00  0.00     0.116 C 
BRANCH   4   5
ATOM      5  N   UNL A   1      34.215  24.320  25.034  1.00  0.00    -0.356 N 
ATOM      6  C   UNL A   1      34.084  24.009  23.713  1.00  0.00     0.227 C 
ATOM      7  O   UNL A   1      35.116  24.019  23.037  1.00  0.00    -0.274 OA
ATOM      8  H   UNL A   1      35.074  24.735  25.280  1.00  0.00     0.163 HD
BRANCH   6   9
ATOM      9  C   UNL A   1      32.690  23.723  23.117  1.00  0.00     0.105 C 
ATOM     10  C   UNL A   1      32.815  23.039  21.749  1.00  0.00     0.023 C 
BRANCH   9  11
ATOM     11  C   UNL A   1      31.823  24.989  23.082  1.00  0.00    -0.033 A 
ATOM     12  C   UNL A   1      32.182  26.135  22.358  1.00  0.00     0.005 A 
ATOM     13  C   UNL A   1      30.625  25.032  23.817  1.00  0.00     0.044 A 
ATOM     14  C   UNL A   1      31.390  27.286  22.388  1.00  0.00     0.012 A 
ATOM     15  C   UNL A   1      29.849  26.194  23.857  1.00  0.00     0.131 A 
ATOM     16  C   UNL A   1      30.214  27.343  23.149  1.00  0.00     0.017 A 
ATOM     17  F   UNL A   1      28.734  26.186  24.606  1.00  0.00    -0.206 F 
BRANCH  16  18
ATOM     18  C   UNL A   1      29.438  28.589  23.196  1.00  0.00    -0.015 A 
ATOM     19  C   UNL A   1      30.012  29.771  23.695  1.00  0.00     0.009 A 
ATOM     20  C   UNL A   1      28.089  28.617  22.811  1.00  0.00     0.009 A 
ATOM     21  C   UNL A   1      29.255  30.939  23.822  1.00  0.00     0.001 A 
ATOM     22  C   UNL A   1      27.330  29.784  22.942  1.00  0.00     0.001 A 
ATOM     23  C   UNL A   1      27.914  30.942  23.452  1.00  0.00     0.000 A 
ENDBRANCH  16  18
ENDBRANCH   9  11
ENDBRANCH   6   9
ENDBRANCH   4   5
ENDBRANCH   3   4
ENDBRANCH   2   3
ENDBRANCH   1   2
BRANCH   1  24
ATOM     24  C   UNL A   1      34.340  29.088  26.626  1.00  0.00     0.021 C 
BRANCH  24  25
ATOM     25  C   UNL A   1      35.509  29.011  27.602  1.00  0.00     0.116 C 
BRANCH  25  26
ATOM     26  N   UNL A   1      35.327  29.900  28.740  1.00  0.00    -0.352 N 
ATOM     27  C   UNL A   1      36.259  30.309  29.663  1.00  0.00     0.251 C 
ATOM     28  H   UNL A   1      34.417  30.255  28.865  1.00  0.00     0.163 HD
ATOM     29  O   UNL A   1      35.913  30.906  30.677  1.00  0.00    -0.269 OA
BRANCH  27  30
ATOM     30  C   UNL A   1      37.685  30.002  29.427  1.00  0.00     0.039 A 
ATOM     31  C   UNL A   1      38.504  29.677  30.511  1.00  0.00     0.014 A 
ATOM     32  C   UNL A   1      38.197  30.006  28.127  1.00  0.00     0.014 A 
ATOM     33  C   UNL A   1      39.827  29.293  30.284  1.00  0.00     0.010 A 
ATOM     34  C   UNL A   1      39.494  29.561  27.898  1.00  0.00     0.010 A 
ATOM     35  C   UNL A   1      40.322  29.202  28.974  1.00  0.00    -0.014 A 
BRANCH  35  36
ATOM     36  C   UNL A   1      41.704  28.742  28.685  1.00  0.00     0.031 A 
ATOM     37  C   UNL A   1      42.818  29.747  28.601  1.00  0.00     0.074 A 
ATOM     38  C   UNL A   1      41.933  27.450  28.382  1.00  0.00     0.049 A 
ATOM     39  N   UNL A   1      44.050  29.586  28.197  1.00  0.00    -0.248 NA
ATOM     40  C   UNL A   1      42.485  31.128  28.987  1.00  0.00     0.031 C 
ATOM     41  C   UNL A   1      40.923  26.390  28.381  1.00  0.00     0.029 A 
ATOM     42  N   UNL A   1      43.082  26.815  27.980  1.00  0.00    -0.354 N 
ATOM     43  C   UNL A   1      44.631  30.847  28.247  1.00  0.00     0.074 A 
ATOM     44  C   UNL A   1      43.604  31.768  28.682  1.00  0.00     0.031 C 
ATOM     45  C   UNL A   1      41.495  25.240  27.989  1.00  0.00     0.029 A 
ATOM     46  C   UNL A   1      42.899  25.488  27.673  1.00  0.00     0.049 A 
ATOM     47  H   UNL A   1      43.954  27.269  27.917  1.00  0.00     0.167 HD
ATOM     48  C   UNL A   1      45.908  31.201  27.968  1.00  0.00     0.037 A 
ATOM     49  C   UNL A   1      43.756  24.578  27.169  1.00  0.00     0.037 A 
ATOM     50  C   UNL A   1      46.929  30.271  27.566  1.00  0.00     0.049 A 
ATOM     51  C   UNL A   1      45.177  24.981  26.890  1.00  0.00     0.074 A 
ATOM     52  C   UNL A   1      48.271  30.514  27.334  1.00  0.00     0.029 A 
ATOM     53  N   UNL A   1      46.719  28.920  27.330  1.00  0.00    -0.354 N 
ATOM     54  N   UNL A   1      45.732  26.164  27.008  1.00  0.00    -0.248 NA
ATOM     55  C   UNL A   1      46.090  23.933  26.416  1.00  0.00     0.031 C 
ATOM     56  C   UNL A   1      48.865  29.317  26.919  1.00  0.00     0.029 A 
ATOM     57  C   UNL A   1      47.903  28.318  26.936  1.00  0.00     0.049 A 
ATOM     58  H   UNL A   1      45.856  28.457  27.429  1.00  0.00     0.167 HD
ATOM     59  C   UNL A   1      47.065  25.998  26.649  1.00  0.00     0.074 A 
ATOM     60  C   UNL A   1      47.234  24.600  26.308  1.00  0.00     0.031 C 
ATOM     61  C   UNL A   1      48.057  26.920  26.611  1.00  0.00     0.037 A 
BRANCH  48  62
ATOM     62  C   UNL A   1      46.257  32.661  28.075  1.00  0.00     0.058 A 
ATOM     63  C   UNL A   1      46.084  33.544  26.997  1.00  0.00     0.135 A 
ATOM     64  C   UNL A   1      46.789  33.179  29.267  1.00  0.00     0.135 A 
ATOM     65  F   UNL A   1      45.590  33.099  25.831  1.00  0.00    -0.206 F 
ATOM     66  C   UNL A   1      46.479  34.876  27.078  1.00  0.00     0.059 A 
ATOM     67  C   UNL A   1      47.161  34.515  29.380  1.00  0.00     0.059 A 
ATOM     68  F   UNL A   1      46.970  32.380  30.331  1.00  0.00    -0.206 F 
ATOM     69  C   UNL A   1      47.028  35.348  28.271  1.00  0.00     0.060 A 
BRANCH  69  70
ATOM     70  S   UNL A   1      47.583  37.064  28.348  1.00  0.00     0.124 S 
ATOM     71  O   UNL A   1      47.332  37.510  26.981  1.00  0.00    -0.237 OA
ATOM     72  O   UNL A   1      46.708  37.633  29.369  1.00  0.00    -0.237 OA
ATOM     73  O   UNL A   1      48.988  36.950  28.725  1.00  0.00    -0.744 OA
ENDBRANCH  69  70
ENDBRANCH  48  62
BRANCH  49  74
ATOM     74  C   UNL A   1      43.277  23.196  26.913  1.00  0.00     0.058 A 
ATOM     75  C   UNL A   1      43.135  22.712  25.605  1.00  0.00     0.135 A 
ATOM     76  C   UNL A   1      43.030  22.307  27.971  1.00  0.00     0.135 A 
ATOM     77  F   UNL A   1      43.354  23.527  24.562  1.00  0.00    -0.206 F 
ATOM     78  C   UNL A   1      42.775  21.392  25.353  1.00  0.00     0.059 A 
ATOM     79  C   UNL A   1      42.688  20.977  27.743  1.00  0.00     0.059 A 
ATOM     80  F   UNL A   1      43.170  22.718  29.241  1.00  0.00    -0.206 F 
ATOM     81  C   UNL A   1      42.564  20.529  26.430  1.00  0.00     0.060 A 
BRANCH  81  82
ATOM     82  S   UNL A   1      42.201  18.791  26.090  1.00  0.00     0.124 S 
ATOM     83  O   UNL A   1      43.156  18.495  25.028  1.00  0.00    -0.237 OA
ATOM     84  O   UNL A   1      42.467  18.165  27.381  1.00  0.00    -0.237 OA
ATOM     85  O   UNL A   1      40.798  18.815  25.691  1.00  0.00    -0.744 OA
ENDBRANCH  81  82
ENDBRANCH  49  74
BRANCH  61  86
ATOM     86  C   UNL A   1      49.433  26.458  26.222  1.00  0.00     0.058 A 
ATOM     87  C   UNL A   1      49.929  26.639  24.923  1.00  0.00     0.135 A 
ATOM     88  C   UNL A   1      50.302  25.934  27.193  1.00  0.00     0.135 A 
ATOM     89  F   UNL A   1      49.135  27.128  23.958  1.00  0.00    -0.206 F 
ATOM     90  C   UNL A   1      51.245  26.320  24.601  1.00  0.00     0.059 A 
ATOM     91  C   UNL A   1      51.626  25.628  26.898  1.00  0.00     0.059 A 
ATOM     92  F   UNL A   1      49.875  25.749  28.453  1.00  0.00    -0.206 F 
ATOM     93  C   UNL A   1      52.089  25.827  25.598  1.00  0.00     0.060 A 
BRANCH  93  94
ATOM     94  S   UNL A   1      53.818  25.502  25.189  1.00  0.00     0.124 S 
ATOM     95  O   UNL A   1      53.935  26.136  23.879  1.00  0.00    -0.237 OA
ATOM     96  O   UNL A   1      54.527  26.164  26.279  1.00  0.00    -0.237 OA
ATOM     97  O   UNL A   1      53.899  24.045  25.190  1.00  0.00    -0.744 OA
ENDBRANCH  93  94
ENDBRANCH  61  86
ENDBRANCH  35  36
ENDBRANCH  27  30
ENDBRANCH  25  26
ENDBRANCH  24  25
ENDBRANCH   1  24
TORSDOF 18
ENDMDL
MODEL 3
REMARK VINA RESULT:     -11.3      4.723      5.805
REMARK SMILES C[C@@H](C(=O)NCCCCCCNC(=O)c1ccc(-c2c3nc(c(-c4c(F)cc(S(=O)(=O)[O-])cc4F)c4ccc([nH]4)c(-c4c(F)cc(S(=O)(=O)[O-])cc4F)c4nc(c(-c5c(F)cc(S(=O)(=O)[O-])cc5F)c5ccc2[nH]5)C=C4)C=C3)cc1)c1ccc(-c2ccccc2)c(F)c1
REMARK SMILES IDX 9 1 8 2 7 3 6 4 5 5 3 6 4 7 2 9 1 10 81 11 82 12 93 13 83 14
REMARK SMILES IDX 91 15 84 16 92 17 85 18 86 19 90 20 87 21 89 22 88 23 10 24
REMARK SMILES IDX 11 25 12 26 13 27 14 29 15 30 16 31 80 32 17 33 79 34 18 35
REMARK SMILES IDX 19 36 20 37 73 38 21 39 78 40 72 41 74 42 22 43 77 44 71 45
REMARK SMILES IDX 70 46 23 48 57 49 36 50 56 51 37 52 40 53 55 54 75 55 38 56
REMARK SMILES IDX 39 57 54 59 76 60 41 61 24 62 25 63 34 64 26 65 27 66 33 67
REMARK SMILES IDX 35 68 28 69 29 70 30 71 31 72 32 73 58 74 59 75 68 76 60 77
REMARK SMILES IDX 61 78 67 79 69 80 62 81 63 82 64 83 65 84 66 85 42 86 43 87
REMARK SMILES IDX 52 88 44 89 45 90 51 91 53 92 46 93 47 94 48 95 49 96 50 97
REMARK H PARENT 5 8 12 28 74 47 40 58
REMARK Flexibility Score: inf
ROOT
ATOM      1  C   UNL A   1      32.106  29.264  24.636  1.00  0.00     0.002 C 
ENDROOT
BRANCH   1   2
ATOM      2  C   UNL A   1      31.181  28.750  23.528  1.00  0.00     0.002 C 
BRANCH   2   3
ATOM      3  C   UNL A   1      31.810  27.712  22.587  1.00  0.00     0.021 C 
BRANCH   3   4
ATOM      4  C   UNL A   1      31.122  26.344  22.617  1.00  0.00     0.116 C 
BRANCH   4   5
ATOM      5  N   UNL A   1      31.860  25.400  21.802  1.00  0.00    -0.356 N 
ATOM      6  C   UNL A   1      32.866  24.544  22.142  1.00  0.00     0.227 C 
ATOM      7  O   UNL A   1      33.505  24.045  21.213  1.00  0.00    -0.274 OA
ATOM      8  H   UNL A   1      31.592  25.372  20.854  1.00  0.00     0.163 HD
BRANCH   6   9
ATOM      9  C   UNL A   1      33.124  24.198  23.623  1.00  0.00     0.105 C 
ATOM     10  C   UNL A   1      34.341  24.966  24.156  1.00  0.00     0.023 C 
BRANCH   9  11
ATOM     11  C   UNL A   1      33.227  22.680  23.835  1.00  0.00    -0.033 A 
ATOM     12  C   UNL A   1      32.213  21.790  23.455  1.00  0.00     0.005 A 
ATOM     13  C   UNL A   1      34.368  22.141  24.457  1.00  0.00     0.044 A 
ATOM     14  C   UNL A   1      32.322  20.420  23.707  1.00  0.00     0.012 A 
ATOM     15  C   UNL A   1      34.459  20.772  24.724  1.00  0.00     0.131 A 
ATOM     16  C   UNL A   1      33.442  19.885  24.358  1.00  0.00     0.017 A 
ATOM     17  F   UNL A   1      35.557  20.321  25.352  1.00  0.00    -0.206 F 
BRANCH  16  18
ATOM     18  C   UNL A   1      33.493  18.447  24.653  1.00  0.00    -0.015 A 
ATOM     19  C   UNL A   1      34.319  17.591  23.904  1.00  0.00     0.009 A 
ATOM     20  C   UNL A   1      32.671  17.880  25.639  1.00  0.00     0.009 A 
ATOM     21  C   UNL A   1      34.309  16.211  24.121  1.00  0.00     0.001 A 
ATOM     22  C   UNL A   1      32.658  16.499  25.854  1.00  0.00     0.001 A 
ATOM     23  C   UNL A   1      33.474  15.666  25.092  1.00  0.00     0.000 A 
ENDBRANCH  16  18
ENDBRANCH   9  11
ENDBRANCH   6   9
ENDBRANCH   4   5
ENDBRANCH   3   4
ENDBRANCH   2   3
ENDBRANCH   1   2
BRANCH   1  24
ATOM     24  C   UNL A   1      32.900  28.179  25.364  1.00  0.00     0.021 C 
BRANCH  24  25
ATOM     25  C   UNL A   1      34.043  28.706  26.226  1.00  0.00     0.116 C 
BRANCH  25  26
ATOM     26  N   UNL A   1      33.846  30.098  26.600  1.00  0.00    -0.352 N 
ATOM     27  C   UNL A   1      34.551  30.847  27.511  1.00  0.00     0.251 C 
ATOM     28  H   UNL A   1      33.111  30.566  26.139  1.00  0.00     0.163 HD
ATOM     29  O   UNL A   1      34.146  31.951  27.859  1.00  0.00    -0.269 OA
BRANCH  27  30
ATOM     30  C   UNL A   1      35.797  30.294  28.083  1.00  0.00     0.039 A 
ATOM     31  C   UNL A   1      37.003  30.480  27.404  1.00  0.00     0.014 A 
ATOM     32  C   UNL A   1      35.768  29.620  29.307  1.00  0.00     0.014 A 
ATOM     33  C   UNL A   1      38.196  30.044  27.984  1.00  0.00     0.010 A 
ATOM     34  C   UNL A   1      36.962  29.245  29.912  1.00  0.00     0.010 A 
ATOM     35  C   UNL A   1      38.187  29.452  29.257  1.00  0.00    -0.014 A 
BRANCH  35  36
ATOM     36  C   UNL A   1      39.437  29.027  29.936  1.00  0.00     0.031 A 
ATOM     37  C   UNL A   1      39.968  29.835  31.086  1.00  0.00     0.074 A 
ATOM     38  C   UNL A   1      40.151  27.995  29.445  1.00  0.00     0.049 A 
ATOM     39  N   UNL A   1      41.116  29.742  31.703  1.00  0.00    -0.248 NA
ATOM     40  C   UNL A   1      39.102  30.918  31.581  1.00  0.00     0.031 C 
ATOM     41  C   UNL A   1      39.763  27.166  28.303  1.00  0.00     0.029 A 
ATOM     42  N   UNL A   1      41.370  27.492  29.824  1.00  0.00    -0.354 N 
ATOM     43  C   UNL A   1      41.128  30.774  32.634  1.00  0.00     0.074 A 
ATOM     44  C   UNL A   1      39.888  31.503  32.472  1.00  0.00     0.031 C 
ATOM     45  C   UNL A   1      40.730  26.264  28.069  1.00  0.00     0.029 A 
ATOM     46  C   UNL A   1      41.821  26.475  29.016  1.00  0.00     0.049 A 
ATOM     47  H   UNL A   1      41.875  27.828  30.601  1.00  0.00     0.167 HD
ATOM     48  C   UNL A   1      42.079  31.076  33.549  1.00  0.00     0.037 A 
ATOM     49  C   UNL A   1      42.991  25.805  29.019  1.00  0.00     0.037 A 
ATOM     50  C   UNL A   1      43.293  30.325  33.722  1.00  0.00     0.049 A 
ATOM     51  C   UNL A   1      44.026  26.136  30.058  1.00  0.00     0.074 A 
ATOM     52  C   UNL A   1      44.286  30.501  34.669  1.00  0.00     0.029 A 
ATOM     53  N   UNL A   1      43.683  29.258  32.925  1.00  0.00    -0.354 N 
ATOM     54  N   UNL A   1      43.994  27.070  30.979  1.00  0.00    -0.248 NA
ATOM     55  C   UNL A   1      45.249  25.324  30.066  1.00  0.00     0.031 C 
ATOM     56  C   UNL A   1      45.296  29.565  34.420  1.00  0.00     0.029 A 
ATOM     57  C   UNL A   1      44.912  28.776  33.346  1.00  0.00     0.049 A 
ATOM     58  H   UNL A   1      43.163  28.896  32.172  1.00  0.00     0.167 HD
ATOM     59  C   UNL A   1      45.180  26.942  31.693  1.00  0.00     0.074 A 
ATOM     60  C   UNL A   1      45.908  25.840  31.097  1.00  0.00     0.031 C 
ATOM     61  C   UNL A   1      45.619  27.669  32.749  1.00  0.00     0.037 A 
BRANCH  48  62
ATOM     62  C   UNL A   1      41.842  32.282  34.417  1.00  0.00     0.058 A 
ATOM     63  C   UNL A   1      41.105  32.202  35.610  1.00  0.00     0.135 A 
ATOM     64  C   UNL A   1      42.342  33.538  34.039  1.00  0.00     0.135 A 
ATOM     65  F   UNL A   1      40.594  31.027  36.012  1.00  0.00    -0.206 F 
ATOM     66  C   UNL A   1      40.825  33.334  36.368  1.00  0.00     0.059 A 
ATOM     67  C   UNL A   1      42.100  34.679  34.799  1.00  0.00     0.059 A 
ATOM     68  F   UNL A   1      43.057  33.671  32.910  1.00  0.00    -0.206 F 
ATOM     69  C   UNL A   1      41.317  34.571  35.947  1.00  0.00     0.060 A 
BRANCH  69  70
ATOM     70  S   UNL A   1      40.905  36.040  36.911  1.00  0.00     0.124 S 
ATOM     71  O   UNL A   1      40.482  35.446  38.175  1.00  0.00    -0.237 OA
ATOM     72  O   UNL A   1      42.174  36.761  36.945  1.00  0.00    -0.237 OA
ATOM     73  O   UNL A   1      39.849  36.674  36.128  1.00  0.00    -0.744 OA
ENDBRANCH  69  70
ENDBRANCH  48  62
BRANCH  49  74
ATOM     74  C   UNL A   1      43.223  24.749  28.000  1.00  0.00     0.058 A 
ATOM     75  C   UNL A   1      43.861  25.044  26.788  1.00  0.00     0.135 A 
ATOM     76  C   UNL A   1      42.884  23.410  28.255  1.00  0.00     0.135 A 
ATOM     77  F   UNL A   1      44.198  26.309  26.498  1.00  0.00    -0.206 F 
ATOM     78  C   UNL A   1      44.165  24.048  25.866  1.00  0.00     0.059 A 
ATOM     79  C   UNL A   1      43.196  22.394  27.357  1.00  0.00     0.059 A 
ATOM     80  F   UNL A   1      42.288  23.076  29.410  1.00  0.00    -0.206 F 
ATOM     81  C   UNL A   1      43.839  22.723  26.165  1.00  0.00     0.060 A 
BRANCH  81  82
ATOM     82  S   UNL A   1      44.334  21.426  25.009  1.00  0.00     0.124 S 
ATOM     83  O   UNL A   1      43.277  20.439  25.204  1.00  0.00    -0.237 OA
ATOM     84  O   UNL A   1      44.321  22.132  23.732  1.00  0.00    -0.237 OA
ATOM     85  O   UNL A   1      45.657  21.038  25.488  1.00  0.00    -0.744 OA
ENDBRANCH  81  82
ENDBRANCH  49  74
BRANCH  61  86
ATOM     86  C   UNL A   1      46.936  27.288  33.367  1.00  0.00     0.058 A 
ATOM     87  C   UNL A   1      47.028  26.278  34.335  1.00  0.00     0.135 A 
ATOM     88  C   UNL A   1      48.127  27.864  32.898  1.00  0.00     0.135 A 
ATOM     89  F   UNL A   1      45.917  25.703  34.821  1.00  0.00    -0.206 F 
ATOM     90  C   UNL A   1      48.261  25.846  34.814  1.00  0.00     0.059 A 
ATOM     91  C   UNL A   1      49.371  27.433  33.347  1.00  0.00     0.059 A 
ATOM     92  F   UNL A   1      48.091  28.830  31.966  1.00  0.00    -0.206 F 
ATOM     93  C   UNL A   1      49.428  26.421  34.305  1.00  0.00     0.060 A 
BRANCH  93  94
ATOM     94  S   UNL A   1      51.023  25.791  34.869  1.00  0.00     0.124 S 
ATOM     95  O   UNL A   1      51.067  26.286  36.241  1.00  0.00    -0.237 OA
ATOM     96  O   UNL A   1      50.859  24.349  34.722  1.00  0.00    -0.237 OA
ATOM     97  O   UNL A   1      51.975  26.404  33.949  1.00  0.00    -0.744 OA
ENDBRANCH  93  94
ENDBRANCH  61  86
ENDBRANCH  35  36
ENDBRANCH  27  30
ENDBRANCH  25  26
ENDBRANCH  24  25
ENDBRANCH   1  24
TORSDOF 18
ENDMDL
