MODEL 1
REMARK VINA RESULT:     -11.2      0.000      0.000
REMARK SMILES O=C(NCCCCCCNC(=O)[C@@H]1CC[C@H](CNC(=O)c2cccn2C2CC2)O1)c1ccc(-c2c3nc(c(-c4c(F)cc(S(=O)(=O)[O-])cc4F)c4ccc([nH]4)c(-c4c(F)cc(S(=O)(=O)[O-])cc4F)c4nc(c(-c5c(F)cc(S(=O)(=O)[O-])cc5F)c5ccc2[nH]5)C=C4)C=C3)cc1
REMARK SMILES IDX 7 1 6 2 5 3 4 4 3 5 1 6 2 7 30 9 31 10 95 11 32 12 94 13
REMARK SMILES IDX 33 14 34 15 35 16 88 17 36 18 93 19 87 20 89 21 37 22 92 23
REMARK SMILES IDX 86 24 85 25 38 27 72 28 51 29 71 30 52 31 55 32 70 33 90 34
REMARK SMILES IDX 53 35 54 36 69 38 91 39 56 40 39 41 40 42 49 43 41 44 42 45
REMARK SMILES IDX 48 46 50 47 43 48 44 49 45 50 46 51 47 52 73 53 74 54 83 55
REMARK SMILES IDX 75 56 76 57 82 58 84 59 77 60 78 61 79 62 80 63 81 64 57 65
REMARK SMILES IDX 58 66 67 67 59 68 60 69 66 70 68 71 61 72 62 73 63 74 64 75
REMARK SMILES IDX 65 76 8 77 9 78 10 79 11 80 12 82 13 83 14 84 29 85 15 86
REMARK SMILES IDX 16 87 17 88 18 89 19 90 20 92 21 93 22 94 25 95 23 96 24 97
REMARK SMILES IDX 26 98 27 99 28 100
REMARK H PARENT 3 8 89 26 55 37 10 81 18 91
REMARK Flexibility Score: inf
ROOT
ATOM      1  C   UNL A   1      34.409  20.627  24.916  1.00  0.00     0.002 C 
ENDROOT
BRANCH   1   2
ATOM      2  C   UNL A   1      35.835  21.093  25.241  1.00  0.00     0.002 C 
BRANCH   2   3
ATOM      3  C   UNL A   1      36.266  22.418  24.605  1.00  0.00     0.021 C 
BRANCH   3   4
ATOM      4  C   UNL A   1      37.294  23.208  25.413  1.00  0.00     0.116 C 
BRANCH   4   5
ATOM      5  N   UNL A   1      38.578  22.551  25.563  1.00  0.00    -0.352 N 
ATOM      6  O   UNL A   1      40.695  22.166  26.167  1.00  0.00    -0.269 OA
ATOM      7  C   UNL A   1      39.722  22.917  26.225  1.00  0.00     0.251 C 
ATOM      8  H   UNL A   1      38.639  21.681  25.105  1.00  0.00     0.163 HD
BRANCH   7   9
ATOM      9  C   UNL A   1      39.836  24.204  26.952  1.00  0.00     0.039 A 
ATOM     10  C   UNL A   1      39.253  24.413  28.204  1.00  0.00     0.014 A 
ATOM     11  C   UNL A   1      40.615  25.218  26.373  1.00  0.00     0.014 A 
ATOM     12  C   UNL A   1      39.376  25.645  28.835  1.00  0.00     0.010 A 
ATOM     13  C   UNL A   1      40.778  26.443  27.024  1.00  0.00     0.010 A 
ATOM     14  C   UNL A   1      40.156  26.654  28.259  1.00  0.00    -0.014 A 
BRANCH  14  15
ATOM     15  C   UNL A   1      40.433  27.847  29.093  1.00  0.00     0.031 A 
ATOM     16  C   UNL A   1      41.679  27.676  29.968  1.00  0.00     0.074 A 
ATOM     17  C   UNL A   1      39.522  28.860  29.061  1.00  0.00     0.049 A 
ATOM     18  N   UNL A   1      41.943  28.150  31.148  1.00  0.00    -0.248 NA
ATOM     19  C   UNL A   1      42.743  26.747  29.501  1.00  0.00     0.031 C 
ATOM     20  C   UNL A   1      38.353  28.885  28.168  1.00  0.00     0.029 A 
ATOM     21  N   UNL A   1      39.375  30.045  29.756  1.00  0.00    -0.354 N 
ATOM     22  C   UNL A   1      43.245  27.729  31.485  1.00  0.00     0.074 A 
ATOM     23  C   UNL A   1      43.633  26.769  30.495  1.00  0.00     0.031 C 
ATOM     24  C   UNL A   1      37.593  29.971  28.413  1.00  0.00     0.029 A 
ATOM     25  C   UNL A   1      38.181  30.758  29.480  1.00  0.00     0.049 A 
ATOM     26  H   UNL A   1      40.049  30.369  30.395  1.00  0.00     0.167 HD
ATOM     27  C   UNL A   1      43.987  28.266  32.495  1.00  0.00     0.037 A 
ATOM     28  C   UNL A   1      37.673  31.873  30.094  1.00  0.00     0.037 A 
ATOM     29  C   UNL A   1      43.281  29.315  33.152  1.00  0.00     0.049 A 
ATOM     30  C   UNL A   1      38.691  32.295  31.078  1.00  0.00     0.074 A 
ATOM     31  C   UNL A   1      42.322  29.350  34.129  1.00  0.00     0.029 A 
ATOM     32  N   UNL A   1      43.413  30.578  32.626  1.00  0.00    -0.354 N 
ATOM     33  N   UNL A   1      39.839  32.832  30.790  1.00  0.00    -0.248 NA
ATOM     34  C   UNL A   1      38.439  32.043  32.504  1.00  0.00     0.031 C 
ATOM     35  C   UNL A   1      41.658  30.585  33.948  1.00  0.00     0.029 A 
ATOM     36  C   UNL A   1      42.244  31.262  32.876  1.00  0.00     0.049 A 
ATOM     37  H   UNL A   1      44.201  30.929  32.153  1.00  0.00     0.167 HD
ATOM     38  C   UNL A   1      40.554  32.693  31.957  1.00  0.00     0.074 A 
ATOM     39  C   UNL A   1      39.587  32.483  33.009  1.00  0.00     0.031 C 
ATOM     40  C   UNL A   1      41.844  32.275  31.917  1.00  0.00     0.037 A 
BRANCH  27  41
ATOM     41  C   UNL A   1      45.433  28.069  32.867  1.00  0.00     0.058 A 
ATOM     42  C   UNL A   1      46.426  28.598  32.008  1.00  0.00     0.135 A 
ATOM     43  C   UNL A   1      45.876  27.155  33.835  1.00  0.00     0.135 A 
ATOM     44  F   UNL A   1      46.114  29.523  31.085  1.00  0.00    -0.206 F 
ATOM     45  C   UNL A   1      47.748  28.162  32.030  1.00  0.00     0.059 A 
ATOM     46  C   UNL A   1      47.209  26.733  33.902  1.00  0.00     0.059 A 
ATOM     47  F   UNL A   1      45.016  26.587  34.691  1.00  0.00    -0.206 F 
ATOM     48  C   UNL A   1      48.123  27.202  32.960  1.00  0.00     0.060 A 
BRANCH  48  49
ATOM     49  S   UNL A   1      49.806  26.549  32.888  1.00  0.00     0.124 S 
ATOM     50  O   UNL A   1      49.720  25.406  33.790  1.00  0.00    -0.237 OA
ATOM     51  O   UNL A   1      49.955  26.226  31.472  1.00  0.00    -0.237 OA
ATOM     52  O   UNL A   1      50.620  27.667  33.355  1.00  0.00    -0.744 OA
ENDBRANCH  48  49
ENDBRANCH  27  41
BRANCH  28  53
ATOM     53  C   UNL A   1      36.354  32.633  30.107  1.00  0.00     0.058 A 
ATOM     54  C   UNL A   1      35.347  32.537  31.079  1.00  0.00     0.135 A 
ATOM     55  C   UNL A   1      36.117  33.652  29.139  1.00  0.00     0.135 A 
ATOM     56  F   UNL A   1      35.330  31.553  31.982  1.00  0.00    -0.206 F 
ATOM     57  C   UNL A   1      34.296  33.463  31.182  1.00  0.00     0.059 A 
ATOM     58  C   UNL A   1      35.107  34.610  29.244  1.00  0.00     0.059 A 
ATOM     59  F   UNL A   1      36.891  33.783  28.052  1.00  0.00    -0.206 F 
ATOM     60  C   UNL A   1      34.215  34.529  30.294  1.00  0.00     0.060 A 
BRANCH  60  61
ATOM     61  S   UNL A   1      33.041  35.871  30.570  1.00  0.00     0.124 S 
ATOM     62  O   UNL A   1      33.904  36.928  31.081  1.00  0.00    -0.237 OA
ATOM     63  O   UNL A   1      32.486  36.092  29.237  1.00  0.00    -0.237 OA
ATOM     64  O   UNL A   1      32.107  35.294  31.534  1.00  0.00    -0.744 OA
ENDBRANCH  60  61
ENDBRANCH  28  53
BRANCH  40  65
ATOM     65  C   UNL A   1      42.540  32.572  30.605  1.00  0.00     0.058 A 
ATOM     66  C   UNL A   1      42.895  33.887  30.268  1.00  0.00     0.135 A 
ATOM     67  C   UNL A   1      42.770  31.598  29.619  1.00  0.00     0.135 A 
ATOM     68  F   UNL A   1      42.691  34.881  31.148  1.00  0.00    -0.206 F 
ATOM     69  C   UNL A   1      43.461  34.208  29.030  1.00  0.00     0.059 A 
ATOM     70  C   UNL A   1      43.349  31.883  28.384  1.00  0.00     0.059 A 
ATOM     71  F   UNL A   1      42.422  30.330  29.835  1.00  0.00    -0.206 F 
ATOM     72  C   UNL A   1      43.688  33.197  28.094  1.00  0.00     0.060 A 
BRANCH  72  73
ATOM     73  S   UNL A   1      44.435  33.620  26.505  1.00  0.00     0.124 S 
ATOM     74  O   UNL A   1      43.941  34.974  26.278  1.00  0.00    -0.237 OA
ATOM     75  O   UNL A   1      45.861  33.508  26.797  1.00  0.00    -0.237 OA
ATOM     76  O   UNL A   1      43.908  32.607  25.593  1.00  0.00    -0.744 OA
ENDBRANCH  72  73
ENDBRANCH  40  65
ENDBRANCH  14  15
ENDBRANCH   7   9
ENDBRANCH   4   5
ENDBRANCH   3   4
ENDBRANCH   2   3
ENDBRANCH   1   2
BRANCH   1  77
ATOM     77  C   UNL A   1      33.485  20.426  26.120  1.00  0.00     0.021 C 
BRANCH  77  78
ATOM     78  C   UNL A   1      33.731  21.390  27.276  1.00  0.00     0.116 C 
BRANCH  78  79
ATOM     79  N   UNL A   1      32.666  22.356  27.424  1.00  0.00    -0.354 N 
ATOM     80  C   UNL A   1      32.454  23.534  26.774  1.00  0.00     0.249 C 
ATOM     81  H   UNL A   1      31.988  22.126  28.100  1.00  0.00     0.163 HD
ATOM     82  O   UNL A   1      31.475  24.205  27.123  1.00  0.00    -0.272 OA
BRANCH  80  83
ATOM     83  C   UNL A   1      33.320  23.996  25.572  1.00  0.00     0.207 C 
ATOM     84  C   UNL A   1      33.655  25.475  25.688  1.00  0.00     0.045 C 
ATOM     85  O   UNL A   1      32.870  23.786  24.232  1.00  0.00    -0.363 OA
ATOM     86  C   UNL A   1      34.091  25.817  24.284  1.00  0.00     0.037 C 
ATOM     87  C   UNL A   1      33.175  24.957  23.430  1.00  0.00     0.138 C 
BRANCH  87  88
ATOM     88  C   UNL A   1      31.851  25.634  23.048  1.00  0.00     0.148 C 
BRANCH  88  89
ATOM     89  N   UNL A   1      30.765  25.461  23.985  1.00  0.00    -0.348 N 
ATOM     90  C   UNL A   1      29.783  26.364  24.320  1.00  0.00     0.268 C 
ATOM     91  H   UNL A   1      30.722  24.589  24.440  1.00  0.00     0.163 HD
ATOM     92  O   UNL A   1      28.832  25.946  24.973  1.00  0.00    -0.268 OA
BRANCH  90  93
ATOM     93  C   UNL A   1      29.904  27.728  23.865  1.00  0.00     0.107 A 
ATOM     94  C   UNL A   1      29.116  28.361  22.905  1.00  0.00     0.033 A 
ATOM     95  N   UNL A   1      30.752  28.699  24.361  1.00  0.00    -0.340 N 
ATOM     96  C   UNL A   1      29.528  29.707  22.791  1.00  0.00     0.020 A 
ATOM     97  C   UNL A   1      30.527  29.892  23.715  1.00  0.00     0.086 A 
BRANCH  95  98
ATOM     98  C   UNL A   1      31.838  28.598  25.321  1.00  0.00     0.087 C 
ATOM     99  C   UNL A   1      32.840  29.670  25.685  1.00  0.00     0.027 C 
ATOM    100  C   UNL A   1      31.769  29.314  26.658  1.00  0.00     0.027 C 
ENDBRANCH  95  98
ENDBRANCH  90  93
ENDBRANCH  88  89
ENDBRANCH  87  88
ENDBRANCH  80  83
ENDBRANCH  78  79
ENDBRANCH  77  78
ENDBRANCH   1  77
TORSDOF 20
ENDMDL
MODEL 2
REMARK VINA RESULT:     -10.9      3.882      9.658
REMARK SMILES O=C(NCCCCCCNC(=O)[C@@H]1CC[C@H](CNC(=O)c2cccn2C2CC2)O1)c1ccc(-c2c3nc(c(-c4c(F)cc(S(=O)(=O)[O-])cc4F)c4ccc([nH]4)c(-c4c(F)cc(S(=O)(=O)[O-])cc4F)c4nc(c(-c5c(F)cc(S(=O)(=O)[O-])cc5F)c5ccc2[nH]5)C=C4)C=C3)cc1
REMARK SMILES IDX 7 1 6 2 5 3 4 4 3 5 1 6 2 7 30 9 31 10 95 11 32 12 94 13
REMARK SMILES IDX 33 14 34 15 35 16 88 17 36 18 93 19 87 20 89 21 37 22 92 23
REMARK SMILES IDX 86 24 85 25 38 27 72 28 51 29 71 30 52 31 55 32 70 33 90 34
REMARK SMILES IDX 53 35 54 36 69 38 91 39 56 40 39 41 40 42 49 43 41 44 42 45
REMARK SMILES IDX 48 46 50 47 43 48 44 49 45 50 46 51 47 52 73 53 74 54 83 55
REMARK SMILES IDX 75 56 76 57 82 58 84 59 77 60 78 61 79 62 80 63 81 64 57 65
REMARK SMILES IDX 58 66 67 67 59 68 60 69 66 70 68 71 61 72 62 73 63 74 64 75
REMARK SMILES IDX 65 76 8 77 9 78 10 79 11 80 12 82 13 83 14 84 29 85 15 86
REMARK SMILES IDX 16 87 17 88 18 89 19 90 20 92 21 93 22 94 25 95 23 96 24 97
REMARK SMILES IDX 26 98 27 99 28 100
REMARK H PARENT 3 8 89 26 55 37 10 81 18 91
REMARK Flexibility Score: inf
ROOT
ATOM      1  C   UNL A   1      37.240  22.508  25.431  1.00  0.00     0.002 C 
ENDROOT
BRANCH   1   2
ATOM      2  C   UNL A   1      37.043  21.303  24.501  1.00  0.00     0.002 C 
BRANCH   2   3
ATOM      3  C   UNL A   1      37.772  20.019  24.911  1.00  0.00     0.021 C 
BRANCH   3   4
ATOM      4  C   UNL A   1      38.917  20.226  25.901  1.00  0.00     0.116 C 
BRANCH   4   5
ATOM      5  N   UNL A   1      39.990  19.256  25.795  1.00  0.00    -0.352 N 
ATOM      6  O   UNL A   1      42.039  18.363  25.813  1.00  0.00    -0.269 OA
ATOM      7  C   UNL A   1      41.342  19.359  26.002  1.00  0.00     0.251 C 
ATOM      8  H   UNL A   1      39.692  18.357  25.523  1.00  0.00     0.163 HD
BRANCH   7   9
ATOM      9  C   UNL A   1      41.985  20.637  26.391  1.00  0.00     0.039 A 
ATOM     10  C   UNL A   1      42.389  21.591  25.455  1.00  0.00     0.014 A 
ATOM     11  C   UNL A   1      42.130  20.908  27.761  1.00  0.00     0.014 A 
ATOM     12  C   UNL A   1      43.004  22.765  25.872  1.00  0.00     0.010 A 
ATOM     13  C   UNL A   1      42.707  22.106  28.188  1.00  0.00     0.010 A 
ATOM     14  C   UNL A   1      43.143  23.036  27.238  1.00  0.00    -0.014 A 
BRANCH  14  15
ATOM     15  C   UNL A   1      43.590  24.400  27.610  1.00  0.00     0.031 A 
ATOM     16  C   UNL A   1      42.417  25.353  27.862  1.00  0.00     0.074 A 
ATOM     17  C   UNL A   1      44.928  24.654  27.574  1.00  0.00     0.049 A 
ATOM     18  N   UNL A   1      42.320  26.631  27.654  1.00  0.00    -0.248 NA
ATOM     19  C   UNL A   1      41.123  24.772  28.310  1.00  0.00     0.031 C 
ATOM     20  C   UNL A   1      45.951  23.631  27.303  1.00  0.00     0.029 A 
ATOM     21  N   UNL A   1      45.697  25.789  27.738  1.00  0.00    -0.354 N 
ATOM     22  C   UNL A   1      41.043  27.030  28.098  1.00  0.00     0.074 A 
ATOM     23  C   UNL A   1      40.311  25.829  28.369  1.00  0.00     0.031 C 
ATOM     24  C   UNL A   1      47.177  24.188  27.257  1.00  0.00     0.029 A 
ATOM     25  C   UNL A   1      47.083  25.617  27.489  1.00  0.00     0.049 A 
ATOM     26  H   UNL A   1      45.312  26.653  28.009  1.00  0.00     0.167 HD
ATOM     27  C   UNL A   1      40.681  28.325  28.327  1.00  0.00     0.037 A 
ATOM     28  C   UNL A   1      48.077  26.557  27.424  1.00  0.00     0.037 A 
ATOM     29  C   UNL A   1      41.764  29.216  28.075  1.00  0.00     0.049 A 
ATOM     30  C   UNL A   1      47.445  27.843  27.787  1.00  0.00     0.074 A 
ATOM     31  C   UNL A   1      42.281  29.788  26.944  1.00  0.00     0.029 A 
ATOM     32  N   UNL A   1      42.624  29.459  29.119  1.00  0.00    -0.354 N 
ATOM     33  N   UNL A   1      47.047  28.175  28.977  1.00  0.00    -0.248 NA
ATOM     34  C   UNL A   1      47.179  28.820  26.722  1.00  0.00     0.031 C 
ATOM     35  C   UNL A   1      43.623  30.096  27.268  1.00  0.00     0.029 A 
ATOM     36  C   UNL A   1      43.869  29.711  28.588  1.00  0.00     0.049 A 
ATOM     37  H   UNL A   1      42.391  29.454  30.076  1.00  0.00     0.167 HD
ATOM     38  C   UNL A   1      46.217  29.248  28.743  1.00  0.00     0.074 A 
ATOM     39  C   UNL A   1      46.560  29.755  27.436  1.00  0.00     0.031 C 
ATOM     40  C   UNL A   1      45.024  29.336  29.383  1.00  0.00     0.037 A 
BRANCH  27  41
ATOM     41  C   UNL A   1      39.446  28.903  28.966  1.00  0.00     0.058 A 
ATOM     42  C   UNL A   1      38.611  29.736  28.183  1.00  0.00     0.135 A 
ATOM     43  C   UNL A   1      39.214  28.920  30.350  1.00  0.00     0.135 A 
ATOM     44  F   UNL A   1      38.715  29.748  26.843  1.00  0.00    -0.206 F 
ATOM     45  C   UNL A   1      37.689  30.615  28.743  1.00  0.00     0.059 A 
ATOM     46  C   UNL A   1      38.262  29.766  30.931  1.00  0.00     0.059 A 
ATOM     47  F   UNL A   1      39.954  28.176  31.182  1.00  0.00    -0.206 F 
ATOM     48  C   UNL A   1      37.545  30.648  30.124  1.00  0.00     0.060 A 
BRANCH  48  49
ATOM     49  S   UNL A   1      36.444  31.886  30.843  1.00  0.00     0.124 S 
ATOM     50  O   UNL A   1      36.598  31.628  32.270  1.00  0.00    -0.237 OA
ATOM     51  O   UNL A   1      37.024  33.136  30.361  1.00  0.00    -0.237 OA
ATOM     52  O   UNL A   1      35.143  31.550  30.273  1.00  0.00    -0.744 OA
ENDBRANCH  48  49
ENDBRANCH  27  41
BRANCH  28  53
ATOM     53  C   UNL A   1      49.526  26.614  26.963  1.00  0.00     0.058 A 
ATOM     54  C   UNL A   1      50.646  26.880  27.765  1.00  0.00     0.135 A 
ATOM     55  C   UNL A   1      49.858  26.240  25.628  1.00  0.00     0.135 A 
ATOM     56  F   UNL A   1      50.526  27.377  28.999  1.00  0.00    -0.206 F 
ATOM     57  C   UNL A   1      51.963  26.640  27.342  1.00  0.00     0.059 A 
ATOM     58  C   UNL A   1      51.154  25.952  25.196  1.00  0.00     0.059 A 
ATOM     59  F   UNL A   1      48.918  26.101  24.683  1.00  0.00    -0.206 F 
ATOM     60  C   UNL A   1      52.205  26.124  26.075  1.00  0.00     0.060 A 
BRANCH  60  61
ATOM     61  S   UNL A   1      53.854  25.556  25.610  1.00  0.00     0.124 S 
ATOM     62  O   UNL A   1      53.555  24.541  24.609  1.00  0.00    -0.237 OA
ATOM     63  O   UNL A   1      54.484  26.775  25.110  1.00  0.00    -0.237 OA
ATOM     64  O   UNL A   1      54.396  25.061  26.873  1.00  0.00    -0.744 OA
ENDBRANCH  60  61
ENDBRANCH  28  53
BRANCH  40  65
ATOM     65  C   UNL A   1      44.983  28.589  30.701  1.00  0.00     0.058 A 
ATOM     66  C   UNL A   1      44.356  27.338  30.792  1.00  0.00     0.135 A 
ATOM     67  C   UNL A   1      45.458  29.133  31.907  1.00  0.00     0.135 A 
ATOM     68  F   UNL A   1      43.857  26.757  29.689  1.00  0.00    -0.206 F 
ATOM     69  C   UNL A   1      44.226  26.661  32.009  1.00  0.00     0.059 A 
ATOM     70  C   UNL A   1      45.360  28.475  33.131  1.00  0.00     0.059 A 
ATOM     71  F   UNL A   1      46.027  30.338  31.921  1.00  0.00    -0.206 F 
ATOM     72  C   UNL A   1      44.735  27.237  33.175  1.00  0.00     0.060 A 
BRANCH  72  73
ATOM     73  S   UNL A   1      44.577  26.346  34.739  1.00  0.00     0.124 S 
ATOM     74  O   UNL A   1      43.500  25.404  34.453  1.00  0.00    -0.237 OA
ATOM     75  O   UNL A   1      45.905  25.761  34.893  1.00  0.00    -0.237 OA
ATOM     76  O   UNL A   1      44.244  27.393  35.702  1.00  0.00    -0.744 OA
ENDBRANCH  72  73
ENDBRANCH  40  65
ENDBRANCH  14  15
ENDBRANCH   7   9
ENDBRANCH   4   5
ENDBRANCH   3   4
ENDBRANCH   2   3
ENDBRANCH   1   2
BRANCH   1  77
ATOM     77  C   UNL A   1      35.985  22.998  26.159  1.00  0.00     0.021 C 
BRANCH  77  78
ATOM     78  C   UNL A   1      34.977  21.902  26.491  1.00  0.00     0.116 C 
BRANCH  78  79
ATOM     79  N   UNL A   1      33.834  22.408  27.217  1.00  0.00    -0.354 N 
ATOM     80  C   UNL A   1      32.550  22.605  26.806  1.00  0.00     0.249 C 
ATOM     81  H   UNL A   1      34.011  22.646  28.156  1.00  0.00     0.163 HD
ATOM     82  O   UNL A   1      31.763  23.098  27.623  1.00  0.00    -0.272 OA
BRANCH  80  83
ATOM     83  C   UNL A   1      32.037  22.148  25.415  1.00  0.00     0.207 C 
ATOM     84  C   UNL A   1      33.131  22.288  24.366  1.00  0.00     0.045 C 
ATOM     85  O   UNL A   1      30.860  22.729  24.851  1.00  0.00    -0.363 OA
ATOM     86  C   UNL A   1      32.350  22.229  23.076  1.00  0.00     0.037 C 
ATOM     87  C   UNL A   1      31.063  22.954  23.431  1.00  0.00     0.138 C 
BRANCH  87  88
ATOM     88  C   UNL A   1      31.107  24.470  23.187  1.00  0.00     0.148 C 
BRANCH  88  89
ATOM     89  N   UNL A   1      32.094  24.923  22.234  1.00  0.00    -0.348 N 
ATOM     90  C   UNL A   1      32.608  26.190  22.086  1.00  0.00     0.268 C 
ATOM     91  H   UNL A   1      32.439  24.241  21.613  1.00  0.00     0.163 HD
ATOM     92  O   UNL A   1      33.592  26.317  21.363  1.00  0.00    -0.268 OA
BRANCH  90  93
ATOM     93  C   UNL A   1      31.997  27.281  22.806  1.00  0.00     0.107 A 
ATOM     94  C   UNL A   1      30.942  28.082  22.371  1.00  0.00     0.033 A 
ATOM     95  N   UNL A   1      32.267  27.679  24.100  1.00  0.00    -0.340 N 
ATOM     96  C   UNL A   1      30.611  28.997  23.393  1.00  0.00     0.020 A 
ATOM     97  C   UNL A   1      31.434  28.713  24.456  1.00  0.00     0.086 A 
BRANCH  95  98
ATOM     98  C   UNL A   1      33.311  27.254  25.017  1.00  0.00     0.087 C 
ATOM     99  C   UNL A   1      33.383  27.511  26.504  1.00  0.00     0.027 C 
ATOM    100  C   UNL A   1      33.066  26.138  26.018  1.00  0.00     0.027 C 
ENDBRANCH  95  98
ENDBRANCH  90  93
ENDBRANCH  88  89
ENDBRANCH  87  88
ENDBRANCH  80  83
ENDBRANCH  78  79
ENDBRANCH  77  78
ENDBRANCH   1  77
TORSDOF 20
ENDMDL
MODEL 3
REMARK VINA RESULT:     -10.6      3.837      7.539
REMARK SMILES O=C(NCCCCCCNC(=O)[C@@H]1CC[C@H](CNC(=O)c2cccn2C2CC2)O1)c1ccc(-c2c3nc(c(-c4c(F)cc(S(=O)(=O)[O-])cc4F)c4ccc([nH]4)c(-c4c(F)cc(S(=O)(=O)[O-])cc4F)c4nc(c(-c5c(F)cc(S(=O)(=O)[O-])cc5F)c5ccc2[nH]5)C=C4)C=C3)cc1
REMARK SMILES IDX 7 1 6 2 5 3 4 4 3 5 1 6 2 7 30 9 31 10 95 11 32 12 94 13
REMARK SMILES IDX 33 14 34 15 35 16 88 17 36 18 93 19 87 20 89 21 37 22 92 23
REMARK SMILES IDX 86 24 85 25 38 27 72 28 51 29 71 30 52 31 55 32 70 33 90 34
REMARK SMILES IDX 53 35 54 36 69 38 91 39 56 40 39 41 40 42 49 43 41 44 42 45
REMARK SMILES IDX 48 46 50 47 43 48 44 49 45 50 46 51 47 52 73 53 74 54 83 55
REMARK SMILES IDX 75 56 76 57 82 58 84 59 77 60 78 61 79 62 80 63 81 64 57 65
REMARK SMILES IDX 58 66 67 67 59 68 60 69 66 70 68 71 61 72 62 73 63 74 64 75
REMARK SMILES IDX 65 76 8 77 9 78 10 79 11 80 12 82 13 83 14 84 29 85 15 86
REMARK SMILES IDX 16 87 17 88 18 89 19 90 20 92 21 93 22 94 25 95 23 96 24 97
REMARK SMILES IDX 26 98 27 99 28 100
REMARK H PARENT 3 8 89 26 55 37 10 81 18 91
REMARK Flexibility Score: inf
ROOT
ATOM      1  C   UNL A   1      32.630  29.989  25.889  1.00  0.00     0.002 C 
ENDROOT
BRANCH   1   2
ATOM      2  C   UNL A   1      31.248  30.648  25.782  1.00  0.00     0.002 C 
BRANCH   2   3
ATOM      3  C   UNL A   1      31.085  31.980  26.519  1.00  0.00     0.021 C 
BRANCH   3   4
ATOM      4  C   UNL A   1      32.398  32.674  26.878  1.00  0.00     0.116 C 
BRANCH   4   5
ATOM      5  N   UNL A   1      32.244  33.979  27.491  1.00  0.00    -0.352 N 
ATOM      6  O   UNL A   1      32.618  35.760  28.788  1.00  0.00    -0.269 OA
ATOM      7  C   UNL A   1      33.000  34.651  28.417  1.00  0.00     0.251 C 
ATOM      8  H   UNL A   1      31.450  34.474  27.184  1.00  0.00     0.163 HD
BRANCH   7   9
ATOM      9  C   UNL A   1      34.220  34.061  29.018  1.00  0.00     0.039 A 
ATOM     10  C   UNL A   1      35.507  34.453  28.642  1.00  0.00     0.014 A 
ATOM     11  C   UNL A   1      34.056  33.118  30.045  1.00  0.00     0.014 A 
ATOM     12  C   UNL A   1      36.618  33.855  29.225  1.00  0.00     0.010 A 
ATOM     13  C   UNL A   1      35.169  32.546  30.664  1.00  0.00     0.010 A 
ATOM     14  C   UNL A   1      36.453  32.919  30.252  1.00  0.00    -0.014 A 
BRANCH  14  15
ATOM     15  C   UNL A   1      37.674  32.501  30.982  1.00  0.00     0.031 A 
ATOM     16  C   UNL A   1      38.316  31.246  30.384  1.00  0.00     0.074 A 
ATOM     17  C   UNL A   1      37.996  33.191  32.112  1.00  0.00     0.049 A 
ATOM     18  N   UNL A   1      38.970  30.285  30.962  1.00  0.00    -0.248 NA
ATOM     19  C   UNL A   1      38.099  30.967  28.938  1.00  0.00     0.031 C 
ATOM     20  C   UNL A   1      37.274  34.386  32.578  1.00  0.00     0.029 A 
ATOM     21  N   UNL A   1      38.958  33.040  33.091  1.00  0.00    -0.354 N 
ATOM     22  C   UNL A   1      39.384  29.394  29.951  1.00  0.00     0.074 A 
ATOM     23  C   UNL A   1      38.713  29.797  28.751  1.00  0.00     0.031 C 
ATOM     24  C   UNL A   1      37.768  34.807  33.759  1.00  0.00     0.029 A 
ATOM     25  C   UNL A   1      38.851  33.940  34.182  1.00  0.00     0.049 A 
ATOM     26  H   UNL A   1      39.665  32.358  33.036  1.00  0.00     0.167 HD
ATOM     27  C   UNL A   1      40.342  28.438  30.118  1.00  0.00     0.037 A 
ATOM     28  C   UNL A   1      39.546  33.960  35.363  1.00  0.00     0.037 A 
ATOM     29  C   UNL A   1      40.877  28.467  31.438  1.00  0.00     0.049 A 
ATOM     30  C   UNL A   1      40.561  32.891  35.256  1.00  0.00     0.074 A 
ATOM     31  C   UNL A   1      40.467  27.960  32.641  1.00  0.00     0.029 A 
ATOM     32  N   UNL A   1      41.938  29.312  31.660  1.00  0.00    -0.354 N 
ATOM     33  N   UNL A   1      41.615  32.927  34.498  1.00  0.00    -0.248 NA
ATOM     34  C   UNL A   1      40.354  31.647  36.012  1.00  0.00     0.031 C 
ATOM     35  C   UNL A   1      41.095  28.770  33.616  1.00  0.00     0.029 A 
ATOM     36  C   UNL A   1      41.873  29.734  32.969  1.00  0.00     0.049 A 
ATOM     37  H   UNL A   1      42.621  29.571  31.000  1.00  0.00     0.167 HD
ATOM     38  C   UNL A   1      42.016  31.611  34.453  1.00  0.00     0.074 A 
ATOM     39  C   UNL A   1      41.408  30.957  35.587  1.00  0.00     0.031 C 
ATOM     40  C   UNL A   1      42.389  31.055  33.273  1.00  0.00     0.037 A 
BRANCH  27  41
ATOM     41  C   UNL A   1      41.024  27.543  29.116  1.00  0.00     0.058 A 
ATOM     42  C   UNL A   1      40.498  26.246  28.906  1.00  0.00     0.135 A 
ATOM     43  C   UNL A   1      42.304  27.783  28.594  1.00  0.00     0.135 A 
ATOM     44  F   UNL A   1      39.258  25.932  29.317  1.00  0.00    -0.206 F 
ATOM     45  C   UNL A   1      41.237  25.221  28.323  1.00  0.00     0.059 A 
ATOM     46  C   UNL A   1      43.049  26.779  27.966  1.00  0.00     0.059 A 
ATOM     47  F   UNL A   1      42.897  28.975  28.746  1.00  0.00    -0.206 F 
ATOM     48  C   UNL A   1      42.528  25.489  27.885  1.00  0.00     0.060 A 
BRANCH  48  49
ATOM     49  S   UNL A   1      43.521  24.119  27.254  1.00  0.00     0.124 S 
ATOM     50  O   UNL A   1      44.331  24.782  26.239  1.00  0.00    -0.237 OA
ATOM     51  O   UNL A   1      44.239  23.679  28.447  1.00  0.00    -0.237 OA
ATOM     52  O   UNL A   1      42.521  23.180  26.755  1.00  0.00    -0.744 OA
ENDBRANCH  48  49
ENDBRANCH  27  41
BRANCH  28  53
ATOM     53  C   UNL A   1      39.437  34.666  36.707  1.00  0.00     0.058 A 
ATOM     54  C   UNL A   1      38.818  34.167  37.862  1.00  0.00     0.135 A 
ATOM     55  C   UNL A   1      40.123  35.899  36.915  1.00  0.00     0.135 A 
ATOM     56  F   UNL A   1      38.017  33.100  37.827  1.00  0.00    -0.206 F 
ATOM     57  C   UNL A   1      38.998  34.740  39.132  1.00  0.00     0.059 A 
ATOM     58  C   UNL A   1      40.353  36.463  38.170  1.00  0.00     0.059 A 
ATOM     59  F   UNL A   1      40.638  36.598  35.893  1.00  0.00    -0.206 F 
ATOM     60  C   UNL A   1      39.812  35.855  39.286  1.00  0.00     0.060 A 
BRANCH  60  61
ATOM     61  S   UNL A   1      40.273  36.440  40.929  1.00  0.00     0.124 S 
ATOM     62  O   UNL A   1      39.049  37.098  41.371  1.00  0.00    -0.237 OA
ATOM     63  O   UNL A   1      40.616  35.203  41.626  1.00  0.00    -0.237 OA
ATOM     64  O   UNL A   1      41.404  37.323  40.656  1.00  0.00    -0.744 OA
ENDBRANCH  60  61
ENDBRANCH  28  53
BRANCH  40  65
ATOM     65  C   UNL A   1      42.892  32.061  32.258  1.00  0.00     0.058 A 
ATOM     66  C   UNL A   1      44.185  32.593  32.362  1.00  0.00     0.135 A 
ATOM     67  C   UNL A   1      42.084  32.595  31.240  1.00  0.00     0.135 A 
ATOM     68  F   UNL A   1      45.016  32.150  33.320  1.00  0.00    -0.206 F 
ATOM     69  C   UNL A   1      44.651  33.585  31.493  1.00  0.00     0.059 A 
ATOM     70  C   UNL A   1      42.525  33.570  30.348  1.00  0.00     0.059 A 
ATOM     71  F   UNL A   1      40.825  32.182  31.096  1.00  0.00    -0.206 F 
ATOM     72  C   UNL A   1      43.814  34.066  30.485  1.00  0.00     0.060 A 
BRANCH  72  73
ATOM     73  S   UNL A   1      44.431  35.335  29.357  1.00  0.00     0.124 S 
ATOM     74  O   UNL A   1      43.587  36.479  29.684  1.00  0.00    -0.237 OA
ATOM     75  O   UNL A   1      45.830  35.447  29.759  1.00  0.00    -0.237 OA
ATOM     76  O   UNL A   1      44.210  34.759  28.033  1.00  0.00    -0.744 OA
ENDBRANCH  72  73
ENDBRANCH  40  65
ENDBRANCH  14  15
ENDBRANCH   7   9
ENDBRANCH   4   5
ENDBRANCH   3   4
ENDBRANCH   2   3
ENDBRANCH   1   2
BRANCH   1  77
ATOM     77  C   UNL A   1      32.772  28.625  25.207  1.00  0.00     0.021 C 
BRANCH  77  78
ATOM     78  C   UNL A   1      33.055  28.691  23.710  1.00  0.00     0.116 C 
BRANCH  78  79
ATOM     79  N   UNL A   1      31.996  29.349  22.978  1.00  0.00    -0.354 N 
ATOM     80  C   UNL A   1      30.918  28.823  22.332  1.00  0.00     0.249 C 
ATOM     81  H   UNL A   1      32.065  30.331  22.940  1.00  0.00     0.163 HD
ATOM     82  O   UNL A   1      30.174  29.612  21.736  1.00  0.00    -0.272 OA
BRANCH  80  83
ATOM     83  C   UNL A   1      30.550  27.317  22.406  1.00  0.00     0.207 C 
ATOM     84  C   UNL A   1      30.023  26.960  23.787  1.00  0.00     0.045 C 
ATOM     85  O   UNL A   1      31.516  26.319  22.070  1.00  0.00    -0.363 OA
ATOM     86  C   UNL A   1      30.142  25.455  23.798  1.00  0.00     0.037 C 
ATOM     87  C   UNL A   1      31.416  25.215  23.007  1.00  0.00     0.138 C 
BRANCH  87  88
ATOM     88  C   UNL A   1      32.693  25.194  23.861  1.00  0.00     0.148 C 
BRANCH  88  89
ATOM     89  N   UNL A   1      33.858  24.617  23.232  1.00  0.00    -0.348 N 
ATOM     90  C   UNL A   1      34.586  23.524  23.640  1.00  0.00     0.268 C 
ATOM     91  H   UNL A   1      34.171  25.061  22.410  1.00  0.00     0.163 HD
ATOM     92  O   UNL A   1      35.408  23.068  22.850  1.00  0.00    -0.268 OA
BRANCH  90  93
ATOM     93  C   UNL A   1      34.327  22.957  24.941  1.00  0.00     0.107 A 
ATOM     94  C   UNL A   1      35.023  23.218  26.120  1.00  0.00     0.033 A 
ATOM     95  N   UNL A   1      33.280  22.128  25.294  1.00  0.00    -0.340 N 
ATOM     96  C   UNL A   1      34.418  22.502  27.176  1.00  0.00     0.020 A 
ATOM     97  C   UNL A   1      33.334  21.853  26.640  1.00  0.00     0.086 A 
BRANCH  95  98
ATOM     98  C   UNL A   1      32.279  21.474  24.469  1.00  0.00     0.087 C 
ATOM     99  C   UNL A   1      32.224  21.430  22.960  1.00  0.00     0.027 C 
ATOM    100  C   UNL A   1      32.602  20.199  23.710  1.00  0.00     0.027 C 
ENDBRANCH  95  98
ENDBRANCH  90  93
ENDBRANCH  88  89
ENDBRANCH  87  88
ENDBRANCH  80  83
ENDBRANCH  78  79
ENDBRANCH  77  78
ENDBRANCH   1  77
TORSDOF 20
ENDMDL
