MODEL 1
REMARK VINA RESULT:     -12.1      0.000      0.000
REMARK SMILES Cc1nc(-c2ccccc2)sc1C(=O)N[C@@H](CC1=c2ccccc2=NC1)C(=O)NCCCCCCNC(=O)c1ccc(-c2c3nc(c(-c4c(F)cc(S(=O)(=O)[O-])cc4F)c4ccc([nH]4)c(-c4c(F)cc(S(=O)(=O)[O-])cc4F)c4nc(c(-c5c(F)cc(S(=O)(=O)[O-])cc5F)c5ccc2[nH]5)C=C4)C=C3)cc1
REMARK SMILES IDX 32 1 31 2 30 3 29 4 27 5 28 6 16 8 15 9 13 10 14 11 12 13
REMARK SMILES IDX 1 14 2 15 3 16 4 17 11 18 5 19 6 20 10 21 7 22 9 23 8 24
REMARK SMILES IDX 17 25 18 26 19 27 26 28 20 29 24 30 25 31 21 32 23 33 22 34
REMARK SMILES IDX 33 35 34 36 35 37 36 38 37 39 38 41 39 42 40 43 104 44 41 45
REMARK SMILES IDX 103 46 42 47 43 48 44 49 97 50 45 51 102 52 96 53 98 54
REMARK SMILES IDX 46 55 101 56 95 57 94 58 47 60 81 61 60 62 80 63 61 64 64 65
REMARK SMILES IDX 79 66 99 67 62 68 63 69 78 71 100 72 65 73 48 74 49 75 58 76
REMARK SMILES IDX 50 77 51 78 57 79 59 80 52 81 53 82 54 83 55 84 56 85 82 86
REMARK SMILES IDX 83 87 92 88 84 89 85 90 91 91 93 92 86 93 87 94 88 95 89 96
REMARK SMILES IDX 90 97 66 98 67 99 76 100 68 101 69 102 75 103 77 104 70 105
REMARK SMILES IDX 71 106 72 107 73 108 74 109
REMARK H PARENT 29 7 15 12 36 40 98 59 64 70
REMARK Flexibility Score: inf
ROOT
ATOM      1  C   UNL A   1      33.889  30.609  27.234  1.00  0.00     0.002 C 
ENDROOT
BRANCH   1   2
ATOM      2  C   UNL A   1      34.753  29.353  27.340  1.00  0.00     0.021 C 
BRANCH   2   3
ATOM      3  C   UNL A   1      34.283  28.195  26.483  1.00  0.00     0.116 C 
BRANCH   3   4
ATOM      4  N   UNL A   1      32.889  27.883  26.643  1.00  0.00    -0.354 N 
ATOM      5  C   UNL A   1      32.241  26.720  26.386  1.00  0.00     0.242 C 
ATOM      6  O   UNL A   1      31.117  26.583  26.886  1.00  0.00    -0.273 OA
ATOM      7  H   UNL A   1      32.327  28.614  26.987  1.00  0.00     0.163 HD
BRANCH   5   8
ATOM      8  C   UNL A   1      32.854  25.573  25.558  1.00  0.00     0.175 C 
BRANCH   8   9
ATOM      9  N   UNL A   1      33.370  25.937  24.252  1.00  0.00    -0.339 N 
ATOM     10  C   UNL A   1      32.818  26.579  23.175  1.00  0.00     0.263 C 
ATOM     11  O   UNL A   1      33.582  26.586  22.201  1.00  0.00    -0.268 OA
ATOM     12  H   UNL A   1      34.306  25.668  24.112  1.00  0.00     0.164 HD
BRANCH  10  13
ATOM     13  C   UNL A   1      31.502  27.220  23.142  1.00  0.00     0.115 A 
ATOM     14  C   UNL A   1      29.437  25.700  23.864  1.00  0.00     0.068 C 
ATOM     15  C   UNL A   1      30.167  26.921  23.430  1.00  0.00     0.062 A 
ATOM     16  N   UNL A   1      29.292  27.982  23.302  1.00  0.00    -0.241 NA
ATOM     17  C   UNL A   1      29.883  29.046  22.833  1.00  0.00     0.124 A 
ATOM     18  S   UNL A   1      31.541  28.883  22.547  1.00  0.00    -0.108 S 
BRANCH  17  19
ATOM     19  C   UNL A   1      29.142  30.274  22.601  1.00  0.00     0.010 A 
ATOM     20  C   UNL A   1      28.615  30.496  21.320  1.00  0.00     0.011 A 
ATOM     21  C   UNL A   1      29.129  31.307  23.543  1.00  0.00     0.011 A 
ATOM     22  C   UNL A   1      28.108  31.743  20.972  1.00  0.00     0.001 A 
ATOM     23  C   UNL A   1      28.627  32.560  23.189  1.00  0.00     0.001 A 
ATOM     24  C   UNL A   1      28.127  32.779  21.905  1.00  0.00     0.000 A 
ENDBRANCH  17  19
ENDBRANCH  10  13
ENDBRANCH   8   9
BRANCH   8  25
ATOM     25  C   UNL A   1      33.758  24.565  26.314  1.00  0.00     0.068 C 
BRANCH  25  26
ATOM     26  C   UNL A   1      34.054  23.251  25.663  1.00  0.00    -0.037 C 
ATOM     27  C   UNL A   1      35.225  22.745  25.276  1.00  0.00     0.001 A 
ATOM     28  C   UNL A   1      32.954  22.256  25.427  1.00  0.00     0.174 C 
ATOM     29  C   UNL A   1      36.574  23.210  25.245  1.00  0.00     0.010 A 
ATOM     30  C   UNL A   1      34.893  21.327  25.045  1.00  0.00     0.065 A 
ATOM     31  N   UNL A   1      33.642  20.986  25.107  1.00  0.00    -0.280 NA
ATOM     32  C   UNL A   1      37.564  22.312  25.118  1.00  0.00     0.001 A 
ATOM     33  C   UNL A   1      36.037  20.400  24.901  1.00  0.00     0.028 A 
ATOM     34  C   UNL A   1      37.284  20.892  24.984  1.00  0.00     0.002 A 
ENDBRANCH  25  26
ENDBRANCH   8  25
ENDBRANCH   5   8
ENDBRANCH   3   4
ENDBRANCH   2   3
ENDBRANCH   1   2
BRANCH   1  35
ATOM     35  C   UNL A   1      34.250  31.750  28.193  1.00  0.00     0.002 C 
BRANCH  35  36
ATOM     36  C   UNL A   1      35.578  32.459  27.918  1.00  0.00     0.021 C 
BRANCH  36  37
ATOM     37  C   UNL A   1      36.579  32.424  29.064  1.00  0.00     0.116 C 
BRANCH  37  38
ATOM     38  N   UNL A   1      36.119  31.601  30.169  1.00  0.00    -0.352 N 
ATOM     39  C   UNL A   1      36.616  30.406  30.624  1.00  0.00     0.251 C 
ATOM     40  H   UNL A   1      35.341  31.950  30.662  1.00  0.00     0.163 HD
ATOM     41  O   UNL A   1      35.994  29.749  31.446  1.00  0.00    -0.269 OA
BRANCH  39  42
ATOM     42  C   UNL A   1      37.902  29.915  30.087  1.00  0.00     0.039 A 
ATOM     43  C   UNL A   1      38.146  30.023  28.716  1.00  0.00     0.014 A 
ATOM     44  C   UNL A   1      38.871  29.383  30.943  1.00  0.00     0.014 A 
ATOM     45  C   UNL A   1      39.394  29.660  28.212  1.00  0.00     0.010 A 
ATOM     46  C   UNL A   1      40.136  29.091  30.449  1.00  0.00     0.010 A 
ATOM     47  C   UNL A   1      40.412  29.231  29.080  1.00  0.00    -0.014 A 
BRANCH  47  48
ATOM     48  C   UNL A   1      41.782  28.950  28.585  1.00  0.00     0.031 A 
ATOM     49  C   UNL A   1      42.159  27.558  28.164  1.00  0.00     0.074 A 
ATOM     50  C   UNL A   1      42.703  29.933  28.589  1.00  0.00     0.049 A 
ATOM     51  N   UNL A   1      43.325  27.095  27.794  1.00  0.00    -0.248 NA
ATOM     52  C   UNL A   1      41.088  26.548  28.185  1.00  0.00     0.031 C 
ATOM     53  C   UNL A   1      42.459  31.317  29.003  1.00  0.00     0.029 A 
ATOM     54  N   UNL A   1      44.030  29.920  28.245  1.00  0.00    -0.354 N 
ATOM     55  C   UNL A   1      43.131  25.742  27.543  1.00  0.00     0.074 A 
ATOM     56  C   UNL A   1      41.750  25.447  27.860  1.00  0.00     0.031 C 
ATOM     57  C   UNL A   1      43.593  32.024  28.865  1.00  0.00     0.029 A 
ATOM     58  C   UNL A   1      44.654  31.136  28.403  1.00  0.00     0.049 A 
ATOM     59  H   UNL A   1      44.494  29.116  27.916  1.00  0.00     0.167 HD
ATOM     60  C   UNL A   1      44.018  24.835  27.067  1.00  0.00     0.037 A 
ATOM     61  C   UNL A   1      45.940  31.490  28.214  1.00  0.00     0.037 A 
ATOM     62  C   UNL A   1      45.389  25.142  26.753  1.00  0.00     0.049 A 
ATOM     63  C   UNL A   1      46.923  30.451  27.747  1.00  0.00     0.074 A 
ATOM     64  C   UNL A   1      46.360  24.308  26.228  1.00  0.00     0.029 A 
ATOM     65  N   UNL A   1      45.990  26.380  26.947  1.00  0.00    -0.354 N 
ATOM     66  N   UNL A   1      46.712  29.189  27.456  1.00  0.00    -0.248 NA
ATOM     67  C   UNL A   1      48.320  30.878  27.593  1.00  0.00     0.031 C 
ATOM     68  C   UNL A   1      47.560  25.022  26.159  1.00  0.00     0.029 A 
ATOM     69  C   UNL A   1      47.325  26.320  26.587  1.00  0.00     0.049 A 
ATOM     70  H   UNL A   1      45.532  27.180  27.291  1.00  0.00     0.167 HD
ATOM     71  C   UNL A   1      47.943  28.677  27.061  1.00  0.00     0.074 A 
ATOM     72  C   UNL A   1      48.892  29.769  27.140  1.00  0.00     0.031 C 
ATOM     73  C   UNL A   1      48.259  27.418  26.672  1.00  0.00     0.037 A 
BRANCH  60  74
ATOM     74  C   UNL A   1      43.529  23.425  26.868  1.00  0.00     0.058 A 
ATOM     75  C   UNL A   1      43.432  22.521  27.939  1.00  0.00     0.135 A 
ATOM     76  C   UNL A   1      43.141  22.974  25.597  1.00  0.00     0.135 A 
ATOM     77  F   UNL A   1      43.801  22.894  29.175  1.00  0.00    -0.206 F 
ATOM     78  C   UNL A   1      43.014  21.207  27.749  1.00  0.00     0.059 A 
ATOM     79  C   UNL A   1      42.688  21.673  25.388  1.00  0.00     0.059 A 
ATOM     80  F   UNL A   1      43.210  23.794  24.537  1.00  0.00    -0.206 F 
ATOM     81  C   UNL A   1      42.649  20.792  26.467  1.00  0.00     0.060 A 
BRANCH  81  82
ATOM     82  S   UNL A   1      42.134  19.078  26.234  1.00  0.00     0.124 S 
ATOM     83  O   UNL A   1      40.732  19.244  25.864  1.00  0.00    -0.237 OA
ATOM     84  O   UNL A   1      43.023  18.628  25.168  1.00  0.00    -0.237 OA
ATOM     85  O   UNL A   1      42.369  18.471  27.541  1.00  0.00    -0.744 OA
ENDBRANCH  81  82
ENDBRANCH  60  74
BRANCH  61  86
ATOM     86  C   UNL A   1      46.364  32.896  28.449  1.00  0.00     0.058 A 
ATOM     87  C   UNL A   1      46.347  33.834  27.405  1.00  0.00     0.135 A 
ATOM     88  C   UNL A   1      46.767  33.338  29.718  1.00  0.00     0.135 A 
ATOM     89  F   UNL A   1      45.978  33.457  26.172  1.00  0.00    -0.206 F 
ATOM     90  C   UNL A   1      46.722  35.157  27.608  1.00  0.00     0.059 A 
ATOM     91  C   UNL A   1      47.121  34.665  29.952  1.00  0.00     0.059 A 
ATOM     92  F   UNL A   1      46.789  32.485  30.753  1.00  0.00    -0.206 F 
ATOM     93  C   UNL A   1      47.102  35.565  28.889  1.00  0.00     0.060 A 
BRANCH  93  94
ATOM     94  S   UNL A   1      47.532  37.300  29.149  1.00  0.00     0.124 S 
ATOM     95  O   UNL A   1      46.375  37.779  29.896  1.00  0.00    -0.237 OA
ATOM     96  O   UNL A   1      48.779  37.195  29.900  1.00  0.00    -0.237 OA
ATOM     97  O   UNL A   1      47.667  37.820  27.792  1.00  0.00    -0.744 OA
ENDBRANCH  93  94
ENDBRANCH  61  86
BRANCH  73  98
ATOM     98  C   UNL A   1      49.687  27.146  26.284  1.00  0.00     0.058 A 
ATOM     99  C   UNL A   1      50.138  27.328  24.968  1.00  0.00     0.135 A 
ATOM    100  C   UNL A   1      50.632  26.781  27.258  1.00  0.00     0.135 A 
ATOM    101  F   UNL A   1      49.274  27.664  23.998  1.00  0.00    -0.206 F 
ATOM    102  C   UNL A   1      51.475  27.153  24.629  1.00  0.00     0.059 A 
ATOM    103  C   UNL A   1      51.980  26.630  26.945  1.00  0.00     0.059 A 
ATOM    104  F   UNL A   1      50.255  26.600  28.532  1.00  0.00    -0.206 F 
ATOM    105  C   UNL A   1      52.391  26.815  25.627  1.00  0.00     0.060 A 
BRANCH 105 106
ATOM    106  S   UNL A   1      54.135  26.664  25.182  1.00  0.00     0.124 S 
ATOM    107  O   UNL A   1      54.503  28.056  24.950  1.00  0.00    -0.237 OA
ATOM    108  O   UNL A   1      54.707  26.047  26.376  1.00  0.00    -0.237 OA
ATOM    109  O   UNL A   1      54.111  25.814  23.995  1.00  0.00    -0.744 OA
ENDBRANCH 105 106
ENDBRANCH  73  98
ENDBRANCH  47  48
ENDBRANCH  39  42
ENDBRANCH  37  38
ENDBRANCH  36  37
ENDBRANCH  35  36
ENDBRANCH   1  35
TORSDOF 21
ENDMDL
MODEL 2
REMARK VINA RESULT:     -12.1      1.257      7.922
REMARK SMILES Cc1nc(-c2ccccc2)sc1C(=O)N[C@@H](CC1=c2ccccc2=NC1)C(=O)NCCCCCCNC(=O)c1ccc(-c2c3nc(c(-c4c(F)cc(S(=O)(=O)[O-])cc4F)c4ccc([nH]4)c(-c4c(F)cc(S(=O)(=O)[O-])cc4F)c4nc(c(-c5c(F)cc(S(=O)(=O)[O-])cc5F)c5ccc2[nH]5)C=C4)C=C3)cc1
REMARK SMILES IDX 32 1 31 2 30 3 29 4 27 5 28 6 16 8 15 9 13 10 14 11 12 13
REMARK SMILES IDX 1 14 2 15 3 16 4 17 11 18 5 19 6 20 10 21 7 22 9 23 8 24
REMARK SMILES IDX 17 25 18 26 19 27 26 28 20 29 24 30 25 31 21 32 23 33 22 34
REMARK SMILES IDX 33 35 34 36 35 37 36 38 37 39 38 41 39 42 40 43 104 44 41 45
REMARK SMILES IDX 103 46 42 47 43 48 44 49 97 50 45 51 102 52 96 53 98 54
REMARK SMILES IDX 46 55 101 56 95 57 94 58 47 60 81 61 60 62 80 63 61 64 64 65
REMARK SMILES IDX 79 66 99 67 62 68 63 69 78 71 100 72 65 73 48 74 49 75 58 76
REMARK SMILES IDX 50 77 51 78 57 79 59 80 52 81 53 82 54 83 55 84 56 85 82 86
REMARK SMILES IDX 83 87 92 88 84 89 85 90 91 91 93 92 86 93 87 94 88 95 89 96
REMARK SMILES IDX 90 97 66 98 67 99 76 100 68 101 69 102 75 103 77 104 70 105
REMARK SMILES IDX 71 106 72 107 73 108 74 109
REMARK H PARENT 29 7 15 12 36 40 98 59 64 70
REMARK Flexibility Score: inf
ROOT
ATOM      1  C   UNL A   1      32.501  29.115  26.598  1.00  0.00     0.002 C 
ENDROOT
BRANCH   1   2
ATOM      2  C   UNL A   1      33.003  27.772  27.129  1.00  0.00     0.021 C 
BRANCH   2   3
ATOM      3  C   UNL A   1      33.379  26.774  26.052  1.00  0.00     0.116 C 
BRANCH   3   4
ATOM      4  N   UNL A   1      32.276  25.977  25.590  1.00  0.00    -0.354 N 
ATOM      5  C   UNL A   1      32.296  24.855  24.827  1.00  0.00     0.242 C 
ATOM      6  O   UNL A   1      31.266  24.170  24.813  1.00  0.00    -0.273 OA
ATOM      7  H   UNL A   1      31.383  26.286  25.864  1.00  0.00     0.163 HD
BRANCH   5   8
ATOM      8  C   UNL A   1      33.535  24.389  24.037  1.00  0.00     0.175 C 
BRANCH   8   9
ATOM      9  N   UNL A   1      33.499  24.617  22.605  1.00  0.00    -0.339 N 
ATOM     10  C   UNL A   1      33.045  25.656  21.836  1.00  0.00     0.263 C 
ATOM     11  O   UNL A   1      33.101  25.394  20.627  1.00  0.00    -0.268 OA
ATOM     12  H   UNL A   1      33.877  23.876  22.080  1.00  0.00     0.164 HD
BRANCH  10  13
ATOM     13  C   UNL A   1      32.570  26.947  22.335  1.00  0.00     0.115 A 
ATOM     14  C   UNL A   1      34.450  28.735  22.938  1.00  0.00     0.068 C 
ATOM     15  C   UNL A   1      33.083  28.181  22.747  1.00  0.00     0.062 A 
ATOM     16  N   UNL A   1      32.132  29.137  23.048  1.00  0.00    -0.241 NA
ATOM     17  C   UNL A   1      30.922  28.655  22.981  1.00  0.00     0.124 A 
ATOM     18  S   UNL A   1      30.815  27.035  22.511  1.00  0.00    -0.108 S 
BRANCH  17  19
ATOM     19  C   UNL A   1      29.767  29.486  23.279  1.00  0.00     0.010 A 
ATOM     20  C   UNL A   1      28.532  29.127  22.718  1.00  0.00     0.011 A 
ATOM     21  C   UNL A   1      29.904  30.721  23.919  1.00  0.00     0.011 A 
ATOM     22  C   UNL A   1      27.454  30.003  22.769  1.00  0.00     0.001 A 
ATOM     23  C   UNL A   1      28.822  31.602  23.963  1.00  0.00     0.001 A 
ATOM     24  C   UNL A   1      27.604  31.247  23.381  1.00  0.00     0.000 A 
ENDBRANCH  17  19
ENDBRANCH  10  13
ENDBRANCH   8   9
BRANCH   8  25
ATOM     25  C   UNL A   1      34.922  24.680  24.668  1.00  0.00     0.068 C 
BRANCH  25  26
ATOM     26  C   UNL A   1      35.779  23.519  25.062  1.00  0.00    -0.037 C 
ATOM     27  C   UNL A   1      35.458  22.229  25.163  1.00  0.00     0.001 A 
ATOM     28  C   UNL A   1      37.241  23.715  25.340  1.00  0.00     0.174 C 
ATOM     29  C   UNL A   1      34.261  21.464  25.025  1.00  0.00     0.010 A 
ATOM     30  C   UNL A   1      36.781  21.582  25.241  1.00  0.00     0.065 A 
ATOM     31  N   UNL A   1      37.820  22.353  25.350  1.00  0.00    -0.280 NA
ATOM     32  C   UNL A   1      34.360  20.136  24.848  1.00  0.00     0.001 A 
ATOM     33  C   UNL A   1      36.808  20.116  25.050  1.00  0.00     0.028 A 
ATOM     34  C   UNL A   1      35.651  19.470  24.824  1.00  0.00     0.002 A 
ENDBRANCH  25  26
ENDBRANCH   8  25
ENDBRANCH   5   8
ENDBRANCH   3   4
ENDBRANCH   2   3
ENDBRANCH   1   2
BRANCH   1  35
ATOM     35  C   UNL A   1      33.353  30.336  26.962  1.00  0.00     0.002 C 
BRANCH  35  36
ATOM     36  C   UNL A   1      34.869  30.146  26.864  1.00  0.00     0.021 C 
BRANCH  36  37
ATOM     37  C   UNL A   1      35.518  29.489  28.075  1.00  0.00     0.116 C 
BRANCH  37  38
ATOM     38  N   UNL A   1      35.334  30.269  29.286  1.00  0.00    -0.352 N 
ATOM     39  C   UNL A   1      36.260  30.633  30.231  1.00  0.00     0.251 C 
ATOM     40  H   UNL A   1      34.415  30.581  29.453  1.00  0.00     0.163 HD
ATOM     41  O   UNL A   1      35.903  31.128  31.290  1.00  0.00    -0.269 OA
BRANCH  39  42
ATOM     42  C   UNL A   1      37.692  30.393  29.957  1.00  0.00     0.039 A 
ATOM     43  C   UNL A   1      38.497  29.878  30.976  1.00  0.00     0.014 A 
ATOM     44  C   UNL A   1      38.224  30.647  28.689  1.00  0.00     0.014 A 
ATOM     45  C   UNL A   1      39.824  29.550  30.700  1.00  0.00     0.010 A 
ATOM     46  C   UNL A   1      39.524  30.252  28.399  1.00  0.00     0.010 A 
ATOM     47  C   UNL A   1      40.335  29.696  29.400  1.00  0.00    -0.014 A 
BRANCH  47  48
ATOM     48  C   UNL A   1      41.706  29.248  29.054  1.00  0.00     0.031 A 
ATOM     49  C   UNL A   1      42.845  30.228  29.066  1.00  0.00     0.074 A 
ATOM     50  C   UNL A   1      41.907  27.976  28.655  1.00  0.00     0.049 A 
ATOM     51  N   UNL A   1      44.089  30.052  28.707  1.00  0.00    -0.248 NA
ATOM     52  C   UNL A   1      42.536  31.594  29.521  1.00  0.00     0.031 C 
ATOM     53  C   UNL A   1      40.872  26.942  28.577  1.00  0.00     0.029 A 
ATOM     54  N   UNL A   1      43.045  27.338  28.233  1.00  0.00    -0.354 N 
ATOM     55  C   UNL A   1      44.711  31.281  28.887  1.00  0.00     0.074 A 
ATOM     56  C   UNL A   1      43.693  32.209  29.330  1.00  0.00     0.031 C 
ATOM     57  C   UNL A   1      41.428  25.795  28.156  1.00  0.00     0.029 A 
ATOM     58  C   UNL A   1      42.844  26.022  27.886  1.00  0.00     0.049 A 
ATOM     59  H   UNL A   1      43.923  27.780  28.180  1.00  0.00     0.167 HD
ATOM     60  C   UNL A   1      46.018  31.600  28.721  1.00  0.00     0.037 A 
ATOM     61  C   UNL A   1      43.700  25.107  27.393  1.00  0.00     0.037 A 
ATOM     62  C   UNL A   1      47.022  30.666  28.281  1.00  0.00     0.049 A 
ATOM     63  C   UNL A   1      45.133  25.501  27.154  1.00  0.00     0.074 A 
ATOM     64  C   UNL A   1      48.380  30.875  28.119  1.00  0.00     0.029 A 
ATOM     65  N   UNL A   1      46.776  29.348  27.920  1.00  0.00    -0.354 N 
ATOM     66  N   UNL A   1      45.720  26.651  27.386  1.00  0.00    -0.248 NA
ATOM     67  C   UNL A   1      46.017  24.479  26.578  1.00  0.00     0.031 C 
ATOM     68  C   UNL A   1      48.945  29.703  27.605  1.00  0.00     0.029 A 
ATOM     69  C   UNL A   1      47.949  28.744  27.501  1.00  0.00     0.049 A 
ATOM     70  H   UNL A   1      45.896  28.908  27.956  1.00  0.00     0.167 HD
ATOM     71  C   UNL A   1      47.047  26.484  27.007  1.00  0.00     0.074 A 
ATOM     72  C   UNL A   1      47.179  25.118  26.542  1.00  0.00     0.031 C 
ATOM     73  C   UNL A   1      48.063  27.381  27.040  1.00  0.00     0.037 A 
BRANCH  60  74
ATOM     74  C   UNL A   1      46.427  33.020  29.009  1.00  0.00     0.058 A 
ATOM     75  C   UNL A   1      46.711  33.455  30.314  1.00  0.00     0.135 A 
ATOM     76  C   UNL A   1      46.549  33.955  27.969  1.00  0.00     0.135 A 
ATOM     77  F   UNL A   1      46.599  32.607  31.349  1.00  0.00    -0.206 F 
ATOM     78  C   UNL A   1      47.054  34.776  30.583  1.00  0.00     0.059 A 
ATOM     79  C   UNL A   1      46.923  35.274  28.211  1.00  0.00     0.059 A 
ATOM     80  F   UNL A   1      46.294  33.595  26.701  1.00  0.00    -0.206 F 
ATOM     81  C   UNL A   1      47.153  35.680  29.525  1.00  0.00     0.060 A 
BRANCH  81  82
ATOM     82  S   UNL A   1      47.574  37.396  29.895  1.00  0.00     0.124 S 
ATOM     83  O   UNL A   1      48.437  37.732  28.768  1.00  0.00    -0.237 OA
ATOM     84  O   UNL A   1      46.265  38.042  29.907  1.00  0.00    -0.237 OA
ATOM     85  O   UNL A   1      48.240  37.310  31.191  1.00  0.00    -0.744 OA
ENDBRANCH  81  82
ENDBRANCH  60  74
BRANCH  61  86
ATOM     86  C   UNL A   1      43.226  23.726  27.109  1.00  0.00     0.058 A 
ATOM     87  C   UNL A   1      42.858  23.348  25.809  1.00  0.00     0.135 A 
ATOM     88  C   UNL A   1      43.157  22.752  28.117  1.00  0.00     0.135 A 
ATOM     89  F   UNL A   1      42.898  24.246  24.813  1.00  0.00    -0.206 F 
ATOM     90  C   UNL A   1      42.430  22.057  25.519  1.00  0.00     0.059 A 
ATOM     91  C   UNL A   1      42.758  21.446  27.846  1.00  0.00     0.059 A 
ATOM     92  F   UNL A   1      43.511  23.058  29.374  1.00  0.00    -0.206 F 
ATOM     93  C   UNL A   1      42.389  21.110  26.545  1.00  0.00     0.060 A 
BRANCH  93  94
ATOM     94  S   UNL A   1      41.885  19.423  26.142  1.00  0.00     0.124 S 
ATOM     95  O   UNL A   1      40.476  19.608  25.816  1.00  0.00    -0.237 OA
ATOM     96  O   UNL A   1      42.764  19.103  25.022  1.00  0.00    -0.237 OA
ATOM     97  O   UNL A   1      42.157  18.688  27.373  1.00  0.00    -0.744 OA
ENDBRANCH  93  94
ENDBRANCH  61  86
BRANCH  73  98
ATOM     98  C   UNL A   1      49.416  26.917  26.573  1.00  0.00     0.058 A 
ATOM     99  C   UNL A   1      50.331  26.318  27.453  1.00  0.00     0.135 A 
ATOM    100  C   UNL A   1      49.768  26.997  25.215  1.00  0.00     0.135 A 
ATOM    101  F   UNL A   1      50.050  26.228  28.762  1.00  0.00    -0.206 F 
ATOM    102  C   UNL A   1      51.549  25.818  27.004  1.00  0.00     0.059 A 
ATOM    103  C   UNL A   1      50.969  26.477  24.740  1.00  0.00     0.059 A 
ATOM    104  F   UNL A   1      48.928  27.556  24.331  1.00  0.00    -0.206 F 
ATOM    105  C   UNL A   1      51.854  25.892  25.643  1.00  0.00     0.060 A 
BRANCH 105 106
ATOM    106  S   UNL A   1      53.407  25.173  25.068  1.00  0.00     0.124 S 
ATOM    107  O   UNL A   1      53.194  23.755  25.335  1.00  0.00    -0.237 OA
ATOM    108  O   UNL A   1      53.423  25.558  23.659  1.00  0.00    -0.237 OA
ATOM    109  O   UNL A   1      54.414  25.824  25.901  1.00  0.00    -0.744 OA
ENDBRANCH 105 106
ENDBRANCH  73  98
ENDBRANCH  47  48
ENDBRANCH  39  42
ENDBRANCH  37  38
ENDBRANCH  36  37
ENDBRANCH  35  36
ENDBRANCH   1  35
TORSDOF 21
ENDMDL
MODEL 3
REMARK VINA RESULT:     -11.0      5.731      7.758
REMARK SMILES Cc1nc(-c2ccccc2)sc1C(=O)N[C@@H](CC1=c2ccccc2=NC1)C(=O)NCCCCCCNC(=O)c1ccc(-c2c3nc(c(-c4c(F)cc(S(=O)(=O)[O-])cc4F)c4ccc([nH]4)c(-c4c(F)cc(S(=O)(=O)[O-])cc4F)c4nc(c(-c5c(F)cc(S(=O)(=O)[O-])cc5F)c5ccc2[nH]5)C=C4)C=C3)cc1
REMARK SMILES IDX 32 1 31 2 30 3 29 4 27 5 28 6 16 8 15 9 13 10 14 11 12 13
REMARK SMILES IDX 1 14 2 15 3 16 4 17 11 18 5 19 6 20 10 21 7 22 9 23 8 24
REMARK SMILES IDX 17 25 18 26 19 27 26 28 20 29 24 30 25 31 21 32 23 33 22 34
REMARK SMILES IDX 33 35 34 36 35 37 36 38 37 39 38 41 39 42 40 43 104 44 41 45
REMARK SMILES IDX 103 46 42 47 43 48 44 49 97 50 45 51 102 52 96 53 98 54
REMARK SMILES IDX 46 55 101 56 95 57 94 58 47 60 81 61 60 62 80 63 61 64 64 65
REMARK SMILES IDX 79 66 99 67 62 68 63 69 78 71 100 72 65 73 48 74 49 75 58 76
REMARK SMILES IDX 50 77 51 78 57 79 59 80 52 81 53 82 54 83 55 84 56 85 82 86
REMARK SMILES IDX 83 87 92 88 84 89 85 90 91 91 93 92 86 93 87 94 88 95 89 96
REMARK SMILES IDX 90 97 66 98 67 99 76 100 68 101 69 102 75 103 77 104 70 105
REMARK SMILES IDX 71 106 72 107 73 108 74 109
REMARK H PARENT 29 7 15 12 36 40 98 59 64 70
REMARK Flexibility Score: inf
ROOT
ATOM      1  C   UNL A   1      31.757  28.717  26.353  1.00  0.00     0.002 C 
ENDROOT
BRANCH   1   2
ATOM      2  C   UNL A   1      31.588  27.259  26.778  1.00  0.00     0.021 C 
BRANCH   2   3
ATOM      3  C   UNL A   1      32.315  26.262  25.900  1.00  0.00     0.116 C 
BRANCH   3   4
ATOM      4  N   UNL A   1      31.445  25.320  25.248  1.00  0.00    -0.354 N 
ATOM      5  C   UNL A   1      31.767  24.290  24.428  1.00  0.00     0.242 C 
ATOM      6  O   UNL A   1      30.894  23.434  24.236  1.00  0.00    -0.273 OA
ATOM      7  H   UNL A   1      30.483  25.440  25.421  1.00  0.00     0.163 HD
BRANCH   5   8
ATOM      8  C   UNL A   1      33.156  24.123  23.780  1.00  0.00     0.175 C 
BRANCH   8   9
ATOM      9  N   UNL A   1      33.249  24.470  22.376  1.00  0.00    -0.339 N 
ATOM     10  C   UNL A   1      32.912  25.593  21.667  1.00  0.00     0.263 C 
ATOM     11  O   UNL A   1      33.054  25.429  20.448  1.00  0.00    -0.268 OA
ATOM     12  H   UNL A   1      33.630  23.754  21.819  1.00  0.00     0.164 HD
BRANCH  10  13
ATOM     13  C   UNL A   1      32.465  26.864  22.238  1.00  0.00     0.115 A 
ATOM     14  C   UNL A   1      34.383  28.540  23.020  1.00  0.00     0.068 C 
ATOM     15  C   UNL A   1      33.006  28.048  22.750  1.00  0.00     0.062 A 
ATOM     16  N   UNL A   1      32.077  29.015  23.085  1.00  0.00    -0.241 NA
ATOM     17  C   UNL A   1      30.854  28.582  22.949  1.00  0.00     0.124 A 
ATOM     18  S   UNL A   1      30.709  27.002  22.366  1.00  0.00    -0.108 S 
BRANCH  17  19
ATOM     19  C   UNL A   1      29.720  29.432  23.267  1.00  0.00     0.010 A 
ATOM     20  C   UNL A   1      28.455  29.051  22.794  1.00  0.00     0.011 A 
ATOM     21  C   UNL A   1      29.892  30.697  23.837  1.00  0.00     0.011 A 
ATOM     22  C   UNL A   1      27.382  29.933  22.860  1.00  0.00     0.001 A 
ATOM     23  C   UNL A   1      28.816  31.583  23.896  1.00  0.00     0.001 A 
ATOM     24  C   UNL A   1      27.568  31.205  23.399  1.00  0.00     0.000 A 
ENDBRANCH  17  19
ENDBRANCH  10  13
ENDBRANCH   8   9
BRANCH   8  25
ATOM     25  C   UNL A   1      34.379  24.594  24.609  1.00  0.00     0.068 C 
BRANCH  25  26
ATOM     26  C   UNL A   1      35.373  23.568  25.054  1.00  0.00    -0.037 C 
ATOM     27  C   UNL A   1      35.241  22.243  25.131  1.00  0.00     0.001 A 
ATOM     28  C   UNL A   1      36.770  23.975  25.425  1.00  0.00     0.174 C 
ATOM     29  C   UNL A   1      34.182  21.312  24.916  1.00  0.00     0.010 A 
ATOM     30  C   UNL A   1      36.638  21.799  25.292  1.00  0.00     0.065 A 
ATOM     31  N   UNL A   1      37.542  22.713  25.468  1.00  0.00    -0.280 NA
ATOM     32  C   UNL A   1      34.487  20.016  24.741  1.00  0.00     0.001 A 
ATOM     33  C   UNL A   1      36.893  20.355  25.099  1.00  0.00     0.028 A 
ATOM     34  C   UNL A   1      35.862  19.548  24.798  1.00  0.00     0.002 A 
ENDBRANCH  25  26
ENDBRANCH   8  25
ENDBRANCH   5   8
ENDBRANCH   3   4
ENDBRANCH   2   3
ENDBRANCH   1   2
BRANCH   1  35
ATOM     35  C   UNL A   1      32.635  29.581  27.266  1.00  0.00     0.002 C 
BRANCH  35  36
ATOM     36  C   UNL A   1      34.142  29.333  27.171  1.00  0.00     0.021 C 
BRANCH  36  37
ATOM     37  C   UNL A   1      35.014  30.566  27.363  1.00  0.00     0.116 C 
BRANCH  37  38
ATOM     38  N   UNL A   1      34.225  31.767  27.581  1.00  0.00    -0.352 N 
ATOM     39  C   UNL A   1      34.371  32.736  28.541  1.00  0.00     0.251 C 
ATOM     40  H   UNL A   1      33.482  31.904  26.950  1.00  0.00     0.163 HD
ATOM     41  O   UNL A   1      33.504  33.583  28.703  1.00  0.00    -0.269 OA
BRANCH  39  42
ATOM     42  C   UNL A   1      35.579  32.724  29.392  1.00  0.00     0.039 A 
ATOM     43  C   UNL A   1      35.612  31.882  30.505  1.00  0.00     0.014 A 
ATOM     44  C   UNL A   1      36.683  33.519  29.067  1.00  0.00     0.014 A 
ATOM     45  C   UNL A   1      36.784  31.784  31.255  1.00  0.00     0.010 A 
ATOM     46  C   UNL A   1      37.870  33.365  29.772  1.00  0.00     0.010 A 
ATOM     47  C   UNL A   1      37.933  32.493  30.870  1.00  0.00    -0.014 A 
BRANCH  47  48
ATOM     48  C   UNL A   1      39.223  32.319  31.582  1.00  0.00     0.031 A 
ATOM     49  C   UNL A   1      40.272  31.398  31.026  1.00  0.00     0.074 A 
ATOM     50  C   UNL A   1      39.414  32.932  32.767  1.00  0.00     0.049 A 
ATOM     51  N   UNL A   1      41.418  31.044  31.546  1.00  0.00    -0.248 NA
ATOM     52  C   UNL A   1      39.982  30.776  29.724  1.00  0.00     0.031 C 
ATOM     53  C   UNL A   1      38.455  33.827  33.419  1.00  0.00     0.029 A 
ATOM     54  N   UNL A   1      40.472  32.890  33.638  1.00  0.00    -0.354 N 
ATOM     55  C   UNL A   1      41.985  30.156  30.639  1.00  0.00     0.074 A 
ATOM     56  C   UNL A   1      41.029  29.980  29.567  1.00  0.00     0.031 C 
ATOM     57  C   UNL A   1      38.979  34.267  34.574  1.00  0.00     0.029 A 
ATOM     58  C   UNL A   1      40.285  33.648  34.771  1.00  0.00     0.049 A 
ATOM     59  H   UNL A   1      41.288  32.365  33.470  1.00  0.00     0.167 HD
ATOM     60  C   UNL A   1      43.202  29.561  30.686  1.00  0.00     0.037 A 
ATOM     61  C   UNL A   1      41.072  33.813  35.852  1.00  0.00     0.037 A 
ATOM     62  C   UNL A   1      44.144  29.747  31.759  1.00  0.00     0.049 A 
ATOM     63  C   UNL A   1      42.391  33.091  35.913  1.00  0.00     0.074 A 
ATOM     64  C   UNL A   1      45.419  29.223  31.884  1.00  0.00     0.029 A 
ATOM     65  N   UNL A   1      43.911  30.505  32.898  1.00  0.00    -0.354 N 
ATOM     66  N   UNL A   1      42.939  32.301  35.020  1.00  0.00    -0.248 NA
ATOM     67  C   UNL A   1      43.193  33.273  37.130  1.00  0.00     0.031 C 
ATOM     68  C   UNL A   1      45.933  29.617  33.124  1.00  0.00     0.029 A 
ATOM     69  C   UNL A   1      45.002  30.434  33.747  1.00  0.00     0.049 A 
ATOM     70  H   UNL A   1      43.089  31.018  33.076  1.00  0.00     0.167 HD
ATOM     71  C   UNL A   1      44.161  31.911  35.557  1.00  0.00     0.074 A 
ATOM     72  C   UNL A   1      44.276  32.562  36.847  1.00  0.00     0.031 C 
ATOM     73  C   UNL A   1      45.101  31.088  35.030  1.00  0.00     0.037 A 
BRANCH  60  74
ATOM     74  C   UNL A   1      43.572  28.649  29.547  1.00  0.00     0.058 A 
ATOM     75  C   UNL A   1      43.427  27.255  29.643  1.00  0.00     0.135 A 
ATOM     76  C   UNL A   1      44.067  29.172  28.342  1.00  0.00     0.135 A 
ATOM     77  F   UNL A   1      42.969  26.698  30.775  1.00  0.00    -0.206 F 
ATOM     78  C   UNL A   1      43.803  26.410  28.603  1.00  0.00     0.059 A 
ATOM     79  C   UNL A   1      44.418  28.348  27.276  1.00  0.00     0.059 A 
ATOM     80  F   UNL A   1      44.224  30.496  28.193  1.00  0.00    -0.206 F 
ATOM     81  C   UNL A   1      44.303  26.966  27.425  1.00  0.00     0.060 A 
BRANCH  81  82
ATOM     82  S   UNL A   1      44.809  25.854  26.097  1.00  0.00     0.124 S 
ATOM     83  O   UNL A   1      45.802  25.027  26.774  1.00  0.00    -0.237 OA
ATOM     84  O   UNL A   1      43.557  25.189  25.753  1.00  0.00    -0.237 OA
ATOM     85  O   UNL A   1      45.336  26.758  25.079  1.00  0.00    -0.744 OA
ENDBRANCH  81  82
ENDBRANCH  60  74
BRANCH  61  86
ATOM     86  C   UNL A   1      40.637  34.713  36.954  1.00  0.00     0.058 A 
ATOM     87  C   UNL A   1      41.072  36.046  37.004  1.00  0.00     0.135 A 
ATOM     88  C   UNL A   1      39.764  34.271  37.960  1.00  0.00     0.135 A 
ATOM     89  F   UNL A   1      41.915  36.511  36.070  1.00  0.00    -0.206 F 
ATOM     90  C   UNL A   1      40.663  36.908  38.016  1.00  0.00     0.059 A 
ATOM     91  C   UNL A   1      39.320  35.123  38.968  1.00  0.00     0.059 A 
ATOM     92  F   UNL A   1      39.309  33.009  37.951  1.00  0.00    -0.206 F 
ATOM     93  C   UNL A   1      39.781  36.438  38.991  1.00  0.00     0.060 A 
BRANCH  93  94
ATOM     94  S   UNL A   1      39.214  37.585  40.265  1.00  0.00     0.124 S 
ATOM     95  O   UNL A   1      38.754  36.669  41.302  1.00  0.00    -0.237 OA
ATOM     96  O   UNL A   1      40.432  38.330  40.567  1.00  0.00    -0.237 OA
ATOM     97  O   UNL A   1      38.171  38.350  39.590  1.00  0.00    -0.744 OA
ENDBRANCH  93  94
ENDBRANCH  61  86
BRANCH  73  98
ATOM     98  C   UNL A   1      46.348  30.849  35.837  1.00  0.00     0.058 A 
ATOM     99  C   UNL A   1      47.451  31.713  35.758  1.00  0.00     0.135 A 
ATOM    100  C   UNL A   1      46.408  29.791  36.760  1.00  0.00     0.135 A 
ATOM    101  F   UNL A   1      47.451  32.731  34.883  1.00  0.00    -0.206 F 
ATOM    102  C   UNL A   1      48.571  31.535  36.563  1.00  0.00     0.059 A 
ATOM    103  C   UNL A   1      47.507  29.613  37.596  1.00  0.00     0.059 A 
ATOM    104  F   UNL A   1      45.378  28.939  36.880  1.00  0.00    -0.206 F 
ATOM    105  C   UNL A   1      48.585  30.489  37.487  1.00  0.00     0.060 A 
BRANCH 105 106
ATOM    106  S   UNL A   1      50.017  30.317  38.574  1.00  0.00     0.124 S 
ATOM    107  O   UNL A   1      49.842  28.961  39.083  1.00  0.00    -0.237 OA
ATOM    108  O   UNL A   1      51.131  30.510  37.651  1.00  0.00    -0.237 OA
ATOM    109  O   UNL A   1      49.831  31.384  39.554  1.00  0.00    -0.744 OA
ENDBRANCH 105 106
ENDBRANCH  73  98
ENDBRANCH  47  48
ENDBRANCH  39  42
ENDBRANCH  37  38
ENDBRANCH  36  37
ENDBRANCH  35  36
ENDBRANCH   1  35
TORSDOF 21
ENDMDL
