MODEL 1
REMARK VINA RESULT:     -10.7      0.000      0.000
REMARK SMILES CC(C)[C@@H]1CCCN1C(=O)N1CCO[C@H](CC(=O)NCCCCCCNC(=O)c2ccc(-c3c4nc(c(-c5c(F)cc(S(=O)(=O)[O-])cc5F)c5ccc([nH]5)c(-c5c(F)cc(S(=O)(=O)[O-])cc5F)c5nc(c(-c6c(F)cc(S(=O)(=O)[O-])cc6F)c6ccc3[nH]6)C=C5)C=C4)cc2)C1
REMARK SMILES IDX 22 1 21 2 20 3 19 4 17 5 18 6 16 8 15 9 11 10 12 11 95 12
REMARK SMILES IDX 13 13 14 14 9 15 10 16 8 17 4 18 5 19 6 20 7 21 2 22 1 23
REMARK SMILES IDX 3 24 23 25 24 26 25 27 26 28 27 29 28 31 29 32 30 33 94 34
REMARK SMILES IDX 31 35 93 36 32 37 33 38 34 39 87 40 35 41 92 42 86 43 88 44
REMARK SMILES IDX 36 45 91 46 85 47 84 48 37 50 71 51 50 52 70 53 51 54 54 55
REMARK SMILES IDX 69 56 89 57 52 58 53 59 68 61 90 62 55 63 38 64 39 65 48 66
REMARK SMILES IDX 40 67 41 68 47 69 49 70 42 71 43 72 44 73 45 74 46 75 72 76
REMARK SMILES IDX 73 77 82 78 74 79 75 80 81 81 83 82 76 83 77 84 78 85 79 86
REMARK SMILES IDX 80 87 56 88 57 89 66 90 58 91 59 92 65 93 67 94 60 95 61 96
REMARK SMILES IDX 62 97 63 98 64 99
REMARK H PARENT 19 7 26 30 88 49 54 60
REMARK Flexibility Score: inf
ROOT
ATOM      1  C   UNL A   1      37.665  21.072  24.663  1.00  0.00     0.002 C 
ENDROOT
BRANCH   1   2
ATOM      2  C   UNL A   1      38.520  19.903  25.172  1.00  0.00     0.021 C 
BRANCH   2   3
ATOM      3  C   UNL A   1      39.646  20.330  26.122  1.00  0.00     0.116 C 
BRANCH   3   4
ATOM      4  N   UNL A   1      40.766  19.407  26.125  1.00  0.00    -0.356 N 
ATOM      5  C   UNL A   1      42.115  19.550  26.129  1.00  0.00     0.222 C 
ATOM      6  O   UNL A   1      42.756  18.525  26.400  1.00  0.00    -0.275 OA
ATOM      7  H   UNL A   1      40.482  18.464  26.126  1.00  0.00     0.163 HD
BRANCH   5   8
ATOM      8  C   UNL A   1      42.870  20.852  25.958  1.00  0.00     0.133 C 
BRANCH   8   9
ATOM      9  C   UNL A   1      44.266  20.926  25.328  1.00  0.00     0.147 C 
ATOM     10  N   UNL A   1      45.247  23.158  25.935  1.00  0.00    -0.320 N 
ATOM     11  C   UNL A   1      45.616  23.330  24.528  1.00  0.00     0.150 C 
ATOM     12  C   UNL A   1      45.242  21.725  26.228  1.00  0.00     0.154 C 
ATOM     13  C   UNL A   1      44.652  22.603  23.594  1.00  0.00     0.182 C 
ATOM     14  O   UNL A   1      44.343  21.251  23.939  1.00  0.00    -0.374 OA
BRANCH  10  15
ATOM     15  C   UNL A   1      46.004  23.932  26.796  1.00  0.00     0.320 C 
ATOM     16  O   UNL A   1      47.231  23.949  26.658  1.00  0.00    -0.248 OA
BRANCH  15  17
ATOM     17  N   UNL A   1      45.376  24.697  27.758  1.00  0.00    -0.321 N 
ATOM     18  C   UNL A   1      44.985  24.519  29.171  1.00  0.00     0.089 C 
ATOM     19  C   UNL A   1      44.097  25.751  29.433  1.00  0.00     0.027 C 
ATOM     20  C   UNL A   1      44.824  26.840  28.694  1.00  0.00     0.024 C 
ATOM     21  C   UNL A   1      45.290  26.127  27.434  1.00  0.00     0.122 C 
BRANCH  18  22
ATOM     22  C   UNL A   1      44.218  23.325  29.744  1.00  0.00     0.005 C 
ATOM     23  C   UNL A   1      44.048  23.312  31.250  1.00  0.00     0.009 C 
ATOM     24  C   UNL A   1      42.917  23.133  28.998  1.00  0.00     0.009 C 
ENDBRANCH  18  22
ENDBRANCH  15  17
ENDBRANCH  10  15
ENDBRANCH   8   9
ENDBRANCH   5   8
ENDBRANCH   3   4
ENDBRANCH   2   3
ENDBRANCH   1   2
BRANCH   1  25
ATOM     25  C   UNL A   1      37.131  22.031  25.734  1.00  0.00     0.002 C 
BRANCH  25  26
ATOM     26  C   UNL A   1      37.477  23.508  25.539  1.00  0.00     0.021 C 
BRANCH  26  27
ATOM     27  C   UNL A   1      38.449  24.104  26.545  1.00  0.00     0.116 C 
BRANCH  27  28
ATOM     28  N   UNL A   1      39.822  24.105  26.073  1.00  0.00    -0.352 N 
ATOM     29  C   UNL A   1      40.858  24.949  26.391  1.00  0.00     0.251 C 
ATOM     30  H   UNL A   1      40.043  23.395  25.428  1.00  0.00     0.163 HD
ATOM     31  O   UNL A   1      41.907  24.884  25.764  1.00  0.00    -0.269 OA
BRANCH  29  32
ATOM     32  C   UNL A   1      40.693  25.947  27.471  1.00  0.00     0.039 A 
ATOM     33  C   UNL A   1      39.892  25.623  28.567  1.00  0.00     0.014 A 
ATOM     34  C   UNL A   1      41.316  27.196  27.402  1.00  0.00     0.014 A 
ATOM     35  C   UNL A   1      39.754  26.534  29.616  1.00  0.00     0.010 A 
ATOM     36  C   UNL A   1      41.256  28.062  28.488  1.00  0.00     0.010 A 
ATOM     37  C   UNL A   1      40.457  27.749  29.597  1.00  0.00    -0.014 A 
BRANCH  37  38
ATOM     38  C   UNL A   1      40.340  28.719  30.716  1.00  0.00     0.031 A 
ATOM     39  C   UNL A   1      41.232  28.584  31.921  1.00  0.00     0.074 A 
ATOM     40  C   UNL A   1      39.409  29.691  30.661  1.00  0.00     0.049 A 
ATOM     41  N   UNL A   1      41.262  29.308  33.011  1.00  0.00    -0.248 NA
ATOM     42  C   UNL A   1      42.199  27.473  31.915  1.00  0.00     0.031 C 
ATOM     43  C   UNL A   1      38.456  29.889  29.565  1.00  0.00     0.029 A 
ATOM     44  N   UNL A   1      39.107  30.693  31.546  1.00  0.00    -0.354 N 
ATOM     45  C   UNL A   1      42.241  28.736  33.817  1.00  0.00     0.074 A 
ATOM     46  C   UNL A   1      42.731  27.567  33.123  1.00  0.00     0.031 C 
ATOM     47  C   UNL A   1      37.701  30.968  29.828  1.00  0.00     0.029 A 
ATOM     48  C   UNL A   1      38.085  31.513  31.126  1.00  0.00     0.049 A 
ATOM     49  H   UNL A   1      39.577  30.816  32.402  1.00  0.00     0.167 HD
ATOM     50  C   UNL A   1      42.707  29.165  35.014  1.00  0.00     0.037 A 
ATOM     51  C   UNL A   1      37.520  32.581  31.722  1.00  0.00     0.037 A 
ATOM     52  C   UNL A   1      42.225  30.342  35.685  1.00  0.00     0.049 A 
ATOM     53  C   UNL A   1      38.050  33.031  33.058  1.00  0.00     0.074 A 
ATOM     54  C   UNL A   1      42.661  30.894  36.877  1.00  0.00     0.029 A 
ATOM     55  N   UNL A   1      41.194  31.150  35.225  1.00  0.00    -0.354 N 
ATOM     56  N   UNL A   1      39.018  32.517  33.778  1.00  0.00    -0.248 NA
ATOM     57  C   UNL A   1      37.416  34.213  33.658  1.00  0.00     0.031 C 
ATOM     58  C   UNL A   1      41.861  32.005  37.162  1.00  0.00     0.029 A 
ATOM     59  C   UNL A   1      40.966  32.183  36.120  1.00  0.00     0.049 A 
ATOM     60  H   UNL A   1      40.700  31.011  34.386  1.00  0.00     0.167 HD
ATOM     61  C   UNL A   1      39.130  33.330  34.901  1.00  0.00     0.074 A 
ATOM     62  C   UNL A   1      38.139  34.376  34.756  1.00  0.00     0.031 C 
ATOM     63  C   UNL A   1      39.977  33.220  35.955  1.00  0.00     0.037 A 
BRANCH  50  64
ATOM     64  C   UNL A   1      43.797  28.357  35.667  1.00  0.00     0.058 A 
ATOM     65  C   UNL A   1      45.156  28.587  35.391  1.00  0.00     0.135 A 
ATOM     66  C   UNL A   1      43.483  27.357  36.603  1.00  0.00     0.135 A 
ATOM     67  F   UNL A   1      45.515  29.518  34.493  1.00  0.00    -0.206 F 
ATOM     68  C   UNL A   1      46.160  27.833  35.989  1.00  0.00     0.059 A 
ATOM     69  C   UNL A   1      44.473  26.613  37.239  1.00  0.00     0.059 A 
ATOM     70  F   UNL A   1      42.203  27.092  36.905  1.00  0.00    -0.206 F 
ATOM     71  C   UNL A   1      45.808  26.849  36.913  1.00  0.00     0.060 A 
BRANCH  71  72
ATOM     72  S   UNL A   1      47.124  25.882  37.683  1.00  0.00     0.124 S 
ATOM     73  O   UNL A   1      48.094  25.792  36.596  1.00  0.00    -0.237 OA
ATOM     74  O   UNL A   1      47.513  26.727  38.809  1.00  0.00    -0.237 OA
ATOM     75  O   UNL A   1      46.465  24.630  38.041  1.00  0.00    -0.744 OA
ENDBRANCH  71  72
ENDBRANCH  50  64
BRANCH  51  76
ATOM     76  C   UNL A   1      36.413  33.312  31.049  1.00  0.00     0.058 A 
ATOM     77  C   UNL A   1      35.099  33.241  31.534  1.00  0.00     0.135 A 
ATOM     78  C   UNL A   1      36.647  34.107  29.917  1.00  0.00     0.135 A 
ATOM     79  F   UNL A   1      34.822  32.490  32.612  1.00  0.00    -0.206 F 
ATOM     80  C   UNL A   1      34.053  33.915  30.912  1.00  0.00     0.059 A 
ATOM     81  C   UNL A   1      35.623  34.814  29.293  1.00  0.00     0.059 A 
ATOM     82  F   UNL A   1      37.890  34.225  29.422  1.00  0.00    -0.206 F 
ATOM     83  C   UNL A   1      34.327  34.702  29.793  1.00  0.00     0.060 A 
BRANCH  83  84
ATOM     84  S   UNL A   1      32.969  35.609  29.021  1.00  0.00     0.124 S 
ATOM     85  O   UNL A   1      32.174  35.993  30.180  1.00  0.00    -0.237 OA
ATOM     86  O   UNL A   1      33.673  36.692  28.340  1.00  0.00    -0.237 OA
ATOM     87  O   UNL A   1      32.362  34.617  28.138  1.00  0.00    -0.744 OA
ENDBRANCH  83  84
ENDBRANCH  51  76
BRANCH  63  88
ATOM     88  C   UNL A   1      39.898  34.282  37.019  1.00  0.00     0.058 A 
ATOM     89  C   UNL A   1      40.470  35.551  36.844  1.00  0.00     0.135 A 
ATOM     90  C   UNL A   1      39.196  34.037  38.211  1.00  0.00     0.135 A 
ATOM     91  F   UNL A   1      41.157  35.835  35.726  1.00  0.00    -0.206 F 
ATOM     92  C   UNL A   1      40.373  36.532  37.825  1.00  0.00     0.059 A 
ATOM     93  C   UNL A   1      39.059  35.015  39.191  1.00  0.00     0.059 A 
ATOM     94  F   UNL A   1      38.619  32.844  38.424  1.00  0.00    -0.206 F 
ATOM     95  C   UNL A   1      39.663  36.254  38.995  1.00  0.00     0.060 A 
BRANCH  95  96
ATOM     96  S   UNL A   1      39.521  37.547  40.246  1.00  0.00     0.124 S 
ATOM     97  O   UNL A   1      40.913  37.956  40.406  1.00  0.00    -0.237 OA
ATOM     98  O   UNL A   1      38.646  38.517  39.595  1.00  0.00    -0.237 OA
ATOM     99  O   UNL A   1      38.936  36.852  41.389  1.00  0.00    -0.744 OA
ENDBRANCH  95  96
ENDBRANCH  63  88
ENDBRANCH  37  38
ENDBRANCH  29  32
ENDBRANCH  27  28
ENDBRANCH  26  27
ENDBRANCH  25  26
ENDBRANCH   1  25
TORSDOF 20
ENDMDL
MODEL 2
REMARK VINA RESULT:     -10.4      3.150      6.438
REMARK SMILES CC(C)[C@@H]1CCCN1C(=O)N1CCO[C@H](CC(=O)NCCCCCCNC(=O)c2ccc(-c3c4nc(c(-c5c(F)cc(S(=O)(=O)[O-])cc5F)c5ccc([nH]5)c(-c5c(F)cc(S(=O)(=O)[O-])cc5F)c5nc(c(-c6c(F)cc(S(=O)(=O)[O-])cc6F)c6ccc3[nH]6)C=C5)C=C4)cc2)C1
REMARK SMILES IDX 22 1 21 2 20 3 19 4 17 5 18 6 16 8 15 9 11 10 12 11 95 12
REMARK SMILES IDX 13 13 14 14 9 15 10 16 8 17 4 18 5 19 6 20 7 21 2 22 1 23
REMARK SMILES IDX 3 24 23 25 24 26 25 27 26 28 27 29 28 31 29 32 30 33 94 34
REMARK SMILES IDX 31 35 93 36 32 37 33 38 34 39 87 40 35 41 92 42 86 43 88 44
REMARK SMILES IDX 36 45 91 46 85 47 84 48 37 50 71 51 50 52 70 53 51 54 54 55
REMARK SMILES IDX 69 56 89 57 52 58 53 59 68 61 90 62 55 63 38 64 39 65 48 66
REMARK SMILES IDX 40 67 41 68 47 69 49 70 42 71 43 72 44 73 45 74 46 75 72 76
REMARK SMILES IDX 73 77 82 78 74 79 75 80 81 81 83 82 76 83 77 84 78 85 79 86
REMARK SMILES IDX 80 87 56 88 57 89 66 90 58 91 59 92 65 93 67 94 60 95 61 96
REMARK SMILES IDX 62 97 63 98 64 99
REMARK H PARENT 19 7 26 30 88 49 54 60
REMARK Flexibility Score: inf
ROOT
ATOM      1  C   UNL A   1      36.049  23.326  23.892  1.00  0.00     0.002 C 
ENDROOT
BRANCH   1   2
ATOM      2  C   UNL A   1      34.978  24.324  24.355  1.00  0.00     0.021 C 
BRANCH   2   3
ATOM      3  C   UNL A   1      33.909  24.616  23.295  1.00  0.00     0.116 C 
BRANCH   3   4
ATOM      4  N   UNL A   1      33.862  26.014  22.907  1.00  0.00    -0.356 N 
ATOM      5  C   UNL A   1      33.703  27.181  23.580  1.00  0.00     0.222 C 
ATOM      6  O   UNL A   1      33.984  28.204  22.941  1.00  0.00    -0.275 OA
ATOM      7  H   UNL A   1      33.973  26.145  21.938  1.00  0.00     0.163 HD
BRANCH   5   8
ATOM      8  C   UNL A   1      33.341  27.320  25.044  1.00  0.00     0.133 C 
BRANCH   8   9
ATOM      9  C   UNL A   1      31.899  27.229  25.556  1.00  0.00     0.147 C 
ATOM     10  N   UNL A   1      31.343  24.792  25.808  1.00  0.00    -0.320 N 
ATOM     11  C   UNL A   1      30.092  25.048  25.091  1.00  0.00     0.150 C 
ATOM     12  C   UNL A   1      31.721  26.019  26.508  1.00  0.00     0.154 C 
ATOM     13  C   UNL A   1      30.230  26.200  24.099  1.00  0.00     0.182 C 
ATOM     14  O   UNL A   1      30.851  27.386  24.598  1.00  0.00    -0.374 OA
BRANCH  10  15
ATOM     15  C   UNL A   1      31.298  23.656  26.596  1.00  0.00     0.320 C 
ATOM     16  O   UNL A   1      30.315  23.473  27.321  1.00  0.00    -0.248 OA
BRANCH  15  17
ATOM     17  N   UNL A   1      32.323  22.735  26.526  1.00  0.00    -0.321 N 
ATOM     18  C   UNL A   1      32.925  21.891  25.473  1.00  0.00     0.089 C 
ATOM     19  C   UNL A   1      33.849  20.955  26.277  1.00  0.00     0.027 C 
ATOM     20  C   UNL A   1      34.426  21.880  27.314  1.00  0.00     0.024 C 
ATOM     21  C   UNL A   1      33.233  22.750  27.678  1.00  0.00     0.122 C 
BRANCH  18  22
ATOM     22  C   UNL A   1      32.160  20.985  24.504  1.00  0.00     0.005 C 
ATOM     23  C   UNL A   1      32.161  21.423  23.053  1.00  0.00     0.009 C 
ATOM     24  C   UNL A   1      32.582  19.546  24.692  1.00  0.00     0.009 C 
ENDBRANCH  18  22
ENDBRANCH  15  17
ENDBRANCH  10  15
ENDBRANCH   8   9
ENDBRANCH   5   8
ENDBRANCH   3   4
ENDBRANCH   2   3
ENDBRANCH   1   2
BRANCH   1  25
ATOM     25  C   UNL A   1      37.140  22.987  24.915  1.00  0.00     0.002 C 
BRANCH  25  26
ATOM     26  C   UNL A   1      37.519  24.110  25.882  1.00  0.00     0.021 C 
BRANCH  26  27
ATOM     27  C   UNL A   1      38.642  23.799  26.859  1.00  0.00     0.116 C 
BRANCH  27  28
ATOM     28  N   UNL A   1      39.960  23.922  26.264  1.00  0.00    -0.352 N 
ATOM     29  C   UNL A   1      40.958  24.830  26.524  1.00  0.00     0.251 C 
ATOM     30  H   UNL A   1      40.170  23.256  25.571  1.00  0.00     0.163 HD
ATOM     31  O   UNL A   1      41.946  24.869  25.802  1.00  0.00    -0.269 OA
BRANCH  29  32
ATOM     32  C   UNL A   1      40.824  25.770  27.659  1.00  0.00     0.039 A 
ATOM     33  C   UNL A   1      41.865  26.663  27.918  1.00  0.00     0.014 A 
ATOM     34  C   UNL A   1      39.684  25.768  28.468  1.00  0.00     0.014 A 
ATOM     35  C   UNL A   1      41.742  27.585  28.958  1.00  0.00     0.010 A 
ATOM     36  C   UNL A   1      39.522  26.748  29.441  1.00  0.00     0.010 A 
ATOM     37  C   UNL A   1      40.558  27.654  29.710  1.00  0.00    -0.014 A 
BRANCH  37  38
ATOM     38  C   UNL A   1      40.403  28.644  30.806  1.00  0.00     0.031 A 
ATOM     39  C   UNL A   1      41.256  28.535  32.042  1.00  0.00     0.074 A 
ATOM     40  C   UNL A   1      39.472  29.612  30.702  1.00  0.00     0.049 A 
ATOM     41  N   UNL A   1      41.250  29.279  33.117  1.00  0.00    -0.248 NA
ATOM     42  C   UNL A   1      42.225  27.426  32.088  1.00  0.00     0.031 C 
ATOM     43  C   UNL A   1      38.556  29.787  29.573  1.00  0.00     0.029 A 
ATOM     44  N   UNL A   1      39.140  30.631  31.558  1.00  0.00    -0.354 N 
ATOM     45  C   UNL A   1      42.203  28.726  33.966  1.00  0.00     0.074 A 
ATOM     46  C   UNL A   1      42.718  27.544  33.310  1.00  0.00     0.031 C 
ATOM     47  C   UNL A   1      37.790  30.869  29.791  1.00  0.00     0.029 A 
ATOM     48  C   UNL A   1      38.131  31.439  31.089  1.00  0.00     0.049 A 
ATOM     49  H   UNL A   1      39.583  30.771  32.426  1.00  0.00     0.167 HD
ATOM     50  C   UNL A   1      42.630  29.178  35.168  1.00  0.00     0.037 A 
ATOM     51  C   UNL A   1      37.545  32.517  31.647  1.00  0.00     0.037 A 
ATOM     52  C   UNL A   1      42.124  30.367  35.802  1.00  0.00     0.049 A 
ATOM     53  C   UNL A   1      38.030  32.995  32.990  1.00  0.00     0.074 A 
ATOM     54  C   UNL A   1      42.521  30.942  36.996  1.00  0.00     0.029 A 
ATOM     55  N   UNL A   1      41.107  31.164  35.293  1.00  0.00    -0.354 N 
ATOM     56  N   UNL A   1      38.976  32.497  33.750  1.00  0.00    -0.248 NA
ATOM     57  C   UNL A   1      37.375  34.186  33.546  1.00  0.00     0.031 C 
ATOM     58  C   UNL A   1      41.709  32.057  37.234  1.00  0.00     0.029 A 
ATOM     59  C   UNL A   1      40.848  32.212  36.160  1.00  0.00     0.049 A 
ATOM     60  H   UNL A   1      40.640  31.007  34.441  1.00  0.00     0.167 HD
ATOM     61  C   UNL A   1      39.050  33.331  34.860  1.00  0.00     0.074 A 
ATOM     62  C   UNL A   1      38.062  34.372  34.664  1.00  0.00     0.031 C 
ATOM     63  C   UNL A   1      39.863  33.244  35.943  1.00  0.00     0.037 A 
BRANCH  50  64
ATOM     64  C   UNL A   1      43.700  28.386  35.872  1.00  0.00     0.058 A 
ATOM     65  C   UNL A   1      43.385  27.332  36.747  1.00  0.00     0.135 A 
ATOM     66  C   UNL A   1      45.059  28.665  35.651  1.00  0.00     0.135 A 
ATOM     67  F   UNL A   1      42.103  27.031  37.009  1.00  0.00    -0.206 F 
ATOM     68  C   UNL A   1      44.375  26.608  37.402  1.00  0.00     0.059 A 
ATOM     69  C   UNL A   1      46.067  27.931  36.271  1.00  0.00     0.059 A 
ATOM     70  F   UNL A   1      45.419  29.661  34.828  1.00  0.00    -0.206 F 
ATOM     71  C   UNL A   1      45.714  26.915  37.157  1.00  0.00     0.060 A 
BRANCH  71  72
ATOM     72  S   UNL A   1      46.985  25.962  38.014  1.00  0.00     0.124 S 
ATOM     73  O   UNL A   1      48.087  26.920  38.058  1.00  0.00    -0.237 OA
ATOM     74  O   UNL A   1      46.347  25.672  39.294  1.00  0.00    -0.237 OA
ATOM     75  O   UNL A   1      47.193  24.809  37.144  1.00  0.00    -0.744 OA
ENDBRANCH  71  72
ENDBRANCH  50  64
BRANCH  51  76
ATOM     76  C   UNL A   1      36.458  33.232  30.924  1.00  0.00     0.058 A 
ATOM     77  C   UNL A   1      35.121  33.119  31.333  1.00  0.00     0.135 A 
ATOM     78  C   UNL A   1      36.736  34.054  29.821  1.00  0.00     0.135 A 
ATOM     79  F   UNL A   1      34.804  32.342  32.380  1.00  0.00    -0.206 F 
ATOM     80  C   UNL A   1      34.095  33.778  30.664  1.00  0.00     0.059 A 
ATOM     81  C   UNL A   1      35.730  34.746  29.152  1.00  0.00     0.059 A 
ATOM     82  F   UNL A   1      38.000  34.213  29.400  1.00  0.00    -0.206 F 
ATOM     83  C   UNL A   1      34.410  34.593  29.575  1.00  0.00     0.060 A 
BRANCH  83  84
ATOM     84  S   UNL A   1      33.075  35.480  28.743  1.00  0.00     0.124 S 
ATOM     85  O   UNL A   1      33.817  36.447  27.944  1.00  0.00    -0.237 OA
ATOM     86  O   UNL A   1      32.413  34.410  28.003  1.00  0.00    -0.237 OA
ATOM     87  O   UNL A   1      32.301  36.035  29.850  1.00  0.00    -0.744 OA
ENDBRANCH  83  84
ENDBRANCH  51  76
BRANCH  63  88
ATOM     88  C   UNL A   1      39.747  34.325  36.983  1.00  0.00     0.058 A 
ATOM     89  C   UNL A   1      38.913  34.190  38.104  1.00  0.00     0.135 A 
ATOM     90  C   UNL A   1      40.520  35.493  36.879  1.00  0.00     0.135 A 
ATOM     91  F   UNL A   1      38.148  33.096  38.249  1.00  0.00    -0.206 F 
ATOM     92  C   UNL A   1      38.827  35.186  39.070  1.00  0.00     0.059 A 
ATOM     93  C   UNL A   1      40.476  36.488  37.850  1.00  0.00     0.059 A 
ATOM     94  F   UNL A   1      41.344  35.668  35.833  1.00  0.00    -0.206 F 
ATOM     95  C   UNL A   1      39.615  36.331  38.935  1.00  0.00     0.060 A 
BRANCH  95  96
ATOM     96  S   UNL A   1      39.516  37.604  40.211  1.00  0.00     0.124 S 
ATOM     97  O   UNL A   1      39.385  36.797  41.420  1.00  0.00    -0.237 OA
ATOM     98  O   UNL A   1      40.786  38.305  40.052  1.00  0.00    -0.237 OA
ATOM     99  O   UNL A   1      38.333  38.371  39.836  1.00  0.00    -0.744 OA
ENDBRANCH  95  96
ENDBRANCH  63  88
ENDBRANCH  37  38
ENDBRANCH  29  32
ENDBRANCH  27  28
ENDBRANCH  26  27
ENDBRANCH  25  26
ENDBRANCH   1  25
TORSDOF 20
ENDMDL
MODEL 3
REMARK VINA RESULT:     -10.4      6.315     13.192
REMARK SMILES CC(C)[C@@H]1CCCN1C(=O)N1CCO[C@H](CC(=O)NCCCCCCNC(=O)c2ccc(-c3c4nc(c(-c5c(F)cc(S(=O)(=O)[O-])cc5F)c5ccc([nH]5)c(-c5c(F)cc(S(=O)(=O)[O-])cc5F)c5nc(c(-c6c(F)cc(S(=O)(=O)[O-])cc6F)c6ccc3[nH]6)C=C5)C=C4)cc2)C1
REMARK SMILES IDX 22 1 21 2 20 3 19 4 17 5 18 6 16 8 15 9 11 10 12 11 95 12
REMARK SMILES IDX 13 13 14 14 9 15 10 16 8 17 4 18 5 19 6 20 7 21 2 22 1 23
REMARK SMILES IDX 3 24 23 25 24 26 25 27 26 28 27 29 28 31 29 32 30 33 94 34
REMARK SMILES IDX 31 35 93 36 32 37 33 38 34 39 87 40 35 41 92 42 86 43 88 44
REMARK SMILES IDX 36 45 91 46 85 47 84 48 37 50 71 51 50 52 70 53 51 54 54 55
REMARK SMILES IDX 69 56 89 57 52 58 53 59 68 61 90 62 55 63 38 64 39 65 48 66
REMARK SMILES IDX 40 67 41 68 47 69 49 70 42 71 43 72 44 73 45 74 46 75 72 76
REMARK SMILES IDX 73 77 82 78 74 79 75 80 81 81 83 82 76 83 77 84 78 85 79 86
REMARK SMILES IDX 80 87 56 88 57 89 66 90 58 91 59 92 65 93 67 94 60 95 61 96
REMARK SMILES IDX 62 97 63 98 64 99
REMARK H PARENT 19 7 26 30 88 49 54 60
REMARK Flexibility Score: inf
ROOT
ATOM      1  C   UNL A   1      34.116  32.079  27.991  1.00  0.00     0.002 C 
ENDROOT
BRANCH   1   2
ATOM      2  C   UNL A   1      34.927  30.834  27.606  1.00  0.00     0.021 C 
BRANCH   2   3
ATOM      3  C   UNL A   1      34.064  29.648  27.161  1.00  0.00     0.116 C 
BRANCH   3   4
ATOM      4  N   UNL A   1      33.628  29.751  25.780  1.00  0.00    -0.356 N 
ATOM      5  C   UNL A   1      33.376  28.854  24.794  1.00  0.00     0.222 C 
ATOM      6  O   UNL A   1      32.762  29.299  23.815  1.00  0.00    -0.275 OA
ATOM      7  H   UNL A   1      33.480  30.681  25.495  1.00  0.00     0.163 HD
BRANCH   5   8
ATOM      8  C   UNL A   1      33.666  27.367  24.850  1.00  0.00     0.133 C 
BRANCH   8   9
ATOM      9  C   UNL A   1      32.568  26.313  25.033  1.00  0.00     0.147 C 
ATOM     10  N   UNL A   1      32.763  24.688  23.127  1.00  0.00    -0.320 N 
ATOM     11  C   UNL A   1      31.318  24.816  22.927  1.00  0.00     0.150 C 
ATOM     12  C   UNL A   1      33.045  24.922  24.543  1.00  0.00     0.154 C 
ATOM     13  C   UNL A   1      30.806  26.192  23.346  1.00  0.00     0.182 C 
ATOM     14  O   UNL A   1      31.246  26.663  24.621  1.00  0.00    -0.374 OA
BRANCH  10  15
ATOM     15  C   UNL A   1      33.283  23.515  22.610  1.00  0.00     0.320 C 
ATOM     16  O   UNL A   1      33.511  23.449  21.398  1.00  0.00    -0.248 OA
BRANCH  15  17
ATOM     17  N   UNL A   1      33.577  22.465  23.456  1.00  0.00    -0.321 N 
ATOM     18  C   UNL A   1      34.528  22.222  24.560  1.00  0.00     0.089 C 
ATOM     19  C   UNL A   1      34.390  20.706  24.797  1.00  0.00     0.027 C 
ATOM     20  C   UNL A   1      32.910  20.485  24.643  1.00  0.00     0.024 C 
ATOM     21  C   UNL A   1      32.560  21.407  23.485  1.00  0.00     0.122 C 
BRANCH  18  22
ATOM     22  C   UNL A   1      36.033  22.501  24.524  1.00  0.00     0.005 C 
ATOM     23  C   UNL A   1      36.618  22.783  23.155  1.00  0.00     0.009 C 
ATOM     24  C   UNL A   1      36.395  23.547  25.553  1.00  0.00     0.009 C 
ENDBRANCH  18  22
ENDBRANCH  15  17
ENDBRANCH  10  15
ENDBRANCH   8   9
ENDBRANCH   5   8
ENDBRANCH   3   4
ENDBRANCH   2   3
ENDBRANCH   1   2
BRANCH   1  25
ATOM     25  C   UNL A   1      34.919  33.368  28.201  1.00  0.00     0.002 C 
BRANCH  25  26
ATOM     26  C   UNL A   1      36.417  33.186  28.454  1.00  0.00     0.021 C 
BRANCH  26  27
ATOM     27  C   UNL A   1      36.853  33.190  29.910  1.00  0.00     0.116 C 
BRANCH  27  28
ATOM     28  N   UNL A   1      36.285  32.093  30.673  1.00  0.00    -0.352 N 
ATOM     29  C   UNL A   1      36.752  30.814  30.851  1.00  0.00     0.251 C 
ATOM     30  H   UNL A   1      35.438  32.297  31.131  1.00  0.00     0.163 HD
ATOM     31  O   UNL A   1      36.046  29.981  31.405  1.00  0.00    -0.269 OA
BRANCH  29  32
ATOM     32  C   UNL A   1      38.095  30.442  30.352  1.00  0.00     0.039 A 
ATOM     33  C   UNL A   1      39.144  30.334  31.266  1.00  0.00     0.014 A 
ATOM     34  C   UNL A   1      38.321  30.208  28.993  1.00  0.00     0.014 A 
ATOM     35  C   UNL A   1      40.409  29.945  30.823  1.00  0.00     0.010 A 
ATOM     36  C   UNL A   1      39.555  29.730  28.568  1.00  0.00     0.010 A 
ATOM     37  C   UNL A   1      40.618  29.614  29.475  1.00  0.00    -0.014 A 
BRANCH  37  38
ATOM     38  C   UNL A   1      41.953  29.177  28.991  1.00  0.00     0.031 A 
ATOM     39  C   UNL A   1      43.089  30.164  28.932  1.00  0.00     0.074 A 
ATOM     40  C   UNL A   1      42.128  27.909  28.573  1.00  0.00     0.049 A 
ATOM     41  N   UNL A   1      44.315  29.987  28.512  1.00  0.00    -0.248 NA
ATOM     42  C   UNL A   1      42.802  31.539  29.376  1.00  0.00     0.031 C 
ATOM     43  C   UNL A   1      41.088  26.877  28.539  1.00  0.00     0.029 A 
ATOM     44  N   UNL A   1      43.243  27.269  28.094  1.00  0.00    -0.354 N 
ATOM     45  C   UNL A   1      44.939  31.224  28.635  1.00  0.00     0.074 A 
ATOM     46  C   UNL A   1      43.938  32.158  29.101  1.00  0.00     0.031 C 
ATOM     47  C   UNL A   1      41.622  25.727  28.097  1.00  0.00     0.029 A 
ATOM     48  C   UNL A   1      43.029  25.948  27.779  1.00  0.00     0.049 A 
ATOM     49  H   UNL A   1      44.114  27.714  27.986  1.00  0.00     0.167 HD
ATOM     50  C   UNL A   1      46.234  31.545  28.407  1.00  0.00     0.037 A 
ATOM     51  C   UNL A   1      43.872  25.020  27.285  1.00  0.00     0.037 A 
ATOM     52  C   UNL A   1      47.225  30.601  27.962  1.00  0.00     0.049 A 
ATOM     53  C   UNL A   1      45.306  25.404  27.030  1.00  0.00     0.074 A 
ATOM     54  C   UNL A   1      48.577  30.808  27.747  1.00  0.00     0.029 A 
ATOM     55  N   UNL A   1      46.973  29.270  27.661  1.00  0.00    -0.354 N 
ATOM     56  N   UNL A   1      45.895  26.561  27.211  1.00  0.00    -0.248 NA
ATOM     57  C   UNL A   1      46.191  24.352  26.512  1.00  0.00     0.031 C 
ATOM     58  C   UNL A   1      49.130  29.616  27.267  1.00  0.00     0.029 A 
ATOM     59  C   UNL A   1      48.137  28.649  27.240  1.00  0.00     0.049 A 
ATOM     60  H   UNL A   1      46.095  28.831  27.736  1.00  0.00     0.167 HD
ATOM     61  C   UNL A   1      47.226  26.371  26.859  1.00  0.00     0.074 A 
ATOM     62  C   UNL A   1      47.356  24.982  26.466  1.00  0.00     0.031 C 
ATOM     63  C   UNL A   1      48.248  27.263  26.860  1.00  0.00     0.037 A 
BRANCH  50  64
ATOM     64  C   UNL A   1      46.651  32.973  28.641  1.00  0.00     0.058 A 
ATOM     65  C   UNL A   1      46.608  33.933  27.616  1.00  0.00     0.135 A 
ATOM     66  C   UNL A   1      47.076  33.395  29.912  1.00  0.00     0.135 A 
ATOM     67  F   UNL A   1      46.227  33.583  26.377  1.00  0.00    -0.206 F 
ATOM     68  C   UNL A   1      47.002  35.249  27.832  1.00  0.00     0.059 A 
ATOM     69  C   UNL A   1      47.443  34.715  30.159  1.00  0.00     0.059 A 
ATOM     70  F   UNL A   1      47.139  32.522  30.928  1.00  0.00    -0.206 F 
ATOM     71  C   UNL A   1      47.418  35.631  29.108  1.00  0.00     0.060 A 
BRANCH  71  72
ATOM     72  S   UNL A   1      47.922  37.344  29.372  1.00  0.00     0.124 S 
ATOM     73  O   UNL A   1      48.858  37.204  30.484  1.00  0.00    -0.237 OA
ATOM     74  O   UNL A   1      48.516  37.695  28.086  1.00  0.00    -0.237 OA
ATOM     75  O   UNL A   1      46.670  38.024  29.688  1.00  0.00    -0.744 OA
ENDBRANCH  71  72
ENDBRANCH  50  64
BRANCH  51  76
ATOM     76  C   UNL A   1      43.390  23.635  27.029  1.00  0.00     0.058 A 
ATOM     77  C   UNL A   1      43.150  23.183  25.723  1.00  0.00     0.135 A 
ATOM     78  C   UNL A   1      43.176  22.733  28.081  1.00  0.00     0.135 A 
ATOM     79  F   UNL A   1      43.336  24.010  24.682  1.00  0.00    -0.206 F 
ATOM     80  C   UNL A   1      42.695  21.894  25.469  1.00  0.00     0.059 A 
ATOM     81  C   UNL A   1      42.748  21.428  27.852  1.00  0.00     0.059 A 
ATOM     82  F   UNL A   1      43.409  23.108  29.349  1.00  0.00    -0.206 F 
ATOM     83  C   UNL A   1      42.500  21.021  26.541  1.00  0.00     0.060 A 
BRANCH  83  84
ATOM     84  S   UNL A   1      41.953  19.335  26.196  1.00  0.00     0.124 S 
ATOM     85  O   UNL A   1      42.716  19.018  24.996  1.00  0.00    -0.237 OA
ATOM     86  O   UNL A   1      42.348  18.631  27.412  1.00  0.00    -0.237 OA
ATOM     87  O   UNL A   1      40.512  19.482  26.009  1.00  0.00    -0.744 OA
ENDBRANCH  83  84
ENDBRANCH  51  76
BRANCH  63  88
ATOM     88  C   UNL A   1      49.609  26.756  26.462  1.00  0.00     0.058 A 
ATOM     89  C   UNL A   1      50.480  26.165  27.390  1.00  0.00     0.135 A 
ATOM     90  C   UNL A   1      50.024  26.822  25.122  1.00  0.00     0.135 A 
ATOM     91  F   UNL A   1      50.134  26.082  28.685  1.00  0.00    -0.206 F 
ATOM     92  C   UNL A   1      51.727  25.682  27.008  1.00  0.00     0.059 A 
ATOM     93  C   UNL A   1      51.253  26.315  24.712  1.00  0.00     0.059 A 
ATOM     94  F   UNL A   1      49.224  27.367  24.191  1.00  0.00    -0.206 F 
ATOM     95  C   UNL A   1      52.103  25.760  25.666  1.00  0.00     0.060 A 
BRANCH  95  96
ATOM     96  S   UNL A   1      53.712  25.102  25.180  1.00  0.00     0.124 S 
ATOM     97  O   UNL A   1      53.465  23.664  25.215  1.00  0.00    -0.237 OA
ATOM     98  O   UNL A   1      53.899  25.682  23.854  1.00  0.00    -0.237 OA
ATOM     99  O   UNL A   1      54.613  25.609  26.211  1.00  0.00    -0.744 OA
ENDBRANCH  95  96
ENDBRANCH  63  88
ENDBRANCH  37  38
ENDBRANCH  29  32
ENDBRANCH  27  28
ENDBRANCH  26  27
ENDBRANCH  25  26
ENDBRANCH   1  25
TORSDOF 20
ENDMDL
