MODEL 1
REMARK VINA RESULT:     -12.0      0.000      0.000
REMARK SMILES Cc1cc(NC(=O)c2ccc(Br)nc2)sc1C(=O)NCCCCCCNC(=O)c1ccc(-c2c3nc(c(-c4c(F)cc(S(=O)(=O)[O-])cc4F)c4ccc([nH]4)c(-c4c(F)cc(S(=O)(=O)[O-])cc4F)c4nc(c(-c5c(F)cc(S(=O)(=O)[O-])cc5F)c5ccc2[nH]5)C=C4)C=C3)cc1
REMARK SMILES IDX 23 1 22 2 21 3 20 4 19 5 17 6 18 7 16 9 1 10 2 11 3 12 4 13
REMARK SMILES IDX 15 14 5 15 6 16 7 18 8 19 9 20 14 21 10 22 13 23 11 24 12 25
REMARK SMILES IDX 24 26 25 27 26 28 27 29 28 31 29 32 30 33 94 34 31 35 93 36
REMARK SMILES IDX 32 37 33 38 34 39 87 40 35 41 92 42 86 43 88 44 36 45 91 46
REMARK SMILES IDX 85 47 84 48 37 50 71 51 50 52 70 53 51 54 54 55 69 56 89 57
REMARK SMILES IDX 52 58 53 59 68 61 90 62 55 63 38 64 39 65 48 66 40 67 41 68
REMARK SMILES IDX 47 69 49 70 42 71 43 72 44 73 45 74 46 75 72 76 73 77 82 78
REMARK SMILES IDX 74 79 75 80 81 81 83 82 76 83 77 84 78 85 79 86 80 87 56 88
REMARK SMILES IDX 57 89 66 90 58 91 59 92 65 93 67 94 60 95 61 96 62 97 63 98
REMARK SMILES IDX 64 99
REMARK H PARENT 19 8 5 17 26 30 88 49 54 60
REMARK Flexibility Score: inf
ROOT
ATOM      1  C   UNL A   1      33.130  29.543  26.926  1.00  0.00     0.002 C 
ENDROOT
BRANCH   1   2
ATOM      2  C   UNL A   1      32.885  29.729  25.424  1.00  0.00     0.002 C 
BRANCH   2   3
ATOM      3  C   UNL A   1      33.490  28.634  24.545  1.00  0.00     0.021 C 
BRANCH   3   4
ATOM      4  C   UNL A   1      33.578  28.999  23.060  1.00  0.00     0.116 C 
BRANCH   4   5
ATOM      5  N   UNL A   1      32.270  29.107  22.464  1.00  0.00    -0.351 N 
ATOM      6  C   UNL A   1      31.152  28.317  22.455  1.00  0.00     0.261 C 
ATOM      7  O   UNL A   1      30.179  28.886  21.941  1.00  0.00    -0.268 OA
ATOM      8  H   UNL A   1      32.155  29.937  21.947  1.00  0.00     0.163 HD
BRANCH   6   9
ATOM      9  C   UNL A   1      31.067  26.944  22.971  1.00  0.00     0.097 A 
ATOM     10  C   UNL A   1      32.469  25.206  21.558  1.00  0.00     0.046 C 
ATOM     11  C   UNL A   1      31.515  25.672  22.602  1.00  0.00    -0.025 A 
ATOM     12  C   UNL A   1      30.870  24.657  23.382  1.00  0.00     0.042 A 
ATOM     13  C   UNL A   1      30.336  25.142  24.537  1.00  0.00     0.096 A 
ATOM     14  S   UNL A   1      30.120  26.808  24.454  1.00  0.00    -0.112 S 
BRANCH  13  15
ATOM     15  N   UNL A   1      29.950  24.529  25.704  1.00  0.00    -0.313 N 
ATOM     16  C   UNL A   1      30.757  23.765  26.528  1.00  0.00     0.257 C 
ATOM     17  H   UNL A   1      29.011  24.644  25.980  1.00  0.00     0.171 HD
ATOM     18  O   UNL A   1      30.287  23.099  27.446  1.00  0.00    -0.269 OA
BRANCH  16  19
ATOM     19  C   UNL A   1      32.224  23.783  26.351  1.00  0.00     0.058 A 
ATOM     20  C   UNL A   1      32.936  24.979  26.217  1.00  0.00     0.018 A 
ATOM     21  C   UNL A   1      32.898  22.585  26.178  1.00  0.00     0.126 A 
ATOM     22  C   UNL A   1      34.276  24.928  25.831  1.00  0.00     0.037 A 
ATOM     23  N   UNL A   1      34.197  22.514  25.799  1.00  0.00    -0.249 NA
ATOM     24  C   UNL A   1      34.855  23.683  25.621  1.00  0.00     0.106 A 
ATOM     25  Br  UNL A   1      36.637  23.605  24.977  1.00  0.00    -0.029 Br
ENDBRANCH  16  19
ENDBRANCH  13  15
ENDBRANCH   6   9
ENDBRANCH   4   5
ENDBRANCH   3   4
ENDBRANCH   2   3
ENDBRANCH   1   2
BRANCH   1  26
ATOM     26  C   UNL A   1      34.569  29.195  27.322  1.00  0.00     0.021 C 
BRANCH  26  27
ATOM     27  C   UNL A   1      35.449  30.398  27.657  1.00  0.00     0.116 C 
BRANCH  27  28
ATOM     28  N   UNL A   1      35.424  30.697  29.079  1.00  0.00    -0.352 N 
ATOM     29  C   UNL A   1      36.338  30.389  30.055  1.00  0.00     0.251 C 
ATOM     30  H   UNL A   1      34.634  31.196  29.388  1.00  0.00     0.163 HD
ATOM     31  O   UNL A   1      36.018  30.481  31.236  1.00  0.00    -0.269 OA
BRANCH  29  32
ATOM     32  C   UNL A   1      37.701  29.948  29.688  1.00  0.00     0.039 A 
ATOM     33  C   UNL A   1      38.083  29.972  28.343  1.00  0.00     0.014 A 
ATOM     34  C   UNL A   1      38.586  29.473  30.660  1.00  0.00     0.014 A 
ATOM     35  C   UNL A   1      39.369  29.565  27.981  1.00  0.00     0.010 A 
ATOM     36  C   UNL A   1      39.888  29.133  30.306  1.00  0.00     0.010 A 
ATOM     37  C   UNL A   1      40.292  29.168  28.963  1.00  0.00    -0.014 A 
BRANCH  37  38
ATOM     38  C   UNL A   1      41.680  28.781  28.603  1.00  0.00     0.031 A 
ATOM     39  C   UNL A   1      42.767  29.820  28.555  1.00  0.00     0.074 A 
ATOM     40  C   UNL A   1      41.944  27.507  28.255  1.00  0.00     0.049 A 
ATOM     41  N   UNL A   1      44.018  29.690  28.197  1.00  0.00    -0.248 NA
ATOM     42  C   UNL A   1      42.391  31.192  28.934  1.00  0.00     0.031 C 
ATOM     43  C   UNL A   1      40.962  26.420  28.218  1.00  0.00     0.029 A 
ATOM     44  N   UNL A   1      43.113  26.910  27.856  1.00  0.00    -0.354 N 
ATOM     45  C   UNL A   1      44.574  30.961  28.292  1.00  0.00     0.074 A 
ATOM     46  C   UNL A   1      43.511  31.857  28.691  1.00  0.00     0.031 C 
ATOM     47  C   UNL A   1      41.574  25.287  27.838  1.00  0.00     0.029 A 
ATOM     48  C   UNL A   1      42.980  25.572  27.569  1.00  0.00     0.049 A 
ATOM     49  H   UNL A   1      43.967  27.395  27.783  1.00  0.00     0.167 HD
ATOM     50  C   UNL A   1      45.858  31.341  28.086  1.00  0.00     0.037 A 
ATOM     51  C   UNL A   1      43.887  24.678  27.129  1.00  0.00     0.037 A 
ATOM     52  C   UNL A   1      46.916  30.438  27.711  1.00  0.00     0.049 A 
ATOM     53  C   UNL A   1      45.307  25.122  26.910  1.00  0.00     0.074 A 
ATOM     54  C   UNL A   1      48.261  30.710  27.538  1.00  0.00     0.029 A 
ATOM     55  N   UNL A   1      46.746  29.085  27.448  1.00  0.00    -0.354 N 
ATOM     56  N   UNL A   1      45.830  26.315  27.067  1.00  0.00    -0.248 NA
ATOM     57  C   UNL A   1      46.261  24.100  26.460  1.00  0.00     0.031 C 
ATOM     58  C   UNL A   1      48.897  29.534  27.128  1.00  0.00     0.029 A 
ATOM     59  C   UNL A   1      47.958  28.516  27.094  1.00  0.00     0.049 A 
ATOM     60  H   UNL A   1      45.890  28.603  27.506  1.00  0.00     0.167 HD
ATOM     61  C   UNL A   1      47.180  26.182  26.759  1.00  0.00     0.074 A 
ATOM     62  C   UNL A   1      47.393  24.790  26.418  1.00  0.00     0.031 C 
ATOM     63  C   UNL A   1      48.153  27.126  26.759  1.00  0.00     0.037 A 
BRANCH  50  64
ATOM     64  C   UNL A   1      46.189  32.798  28.264  1.00  0.00     0.058 A 
ATOM     65  C   UNL A   1      46.597  33.316  29.505  1.00  0.00     0.135 A 
ATOM     66  C   UNL A   1      46.118  33.685  27.177  1.00  0.00     0.135 A 
ATOM     67  F   UNL A   1      46.668  32.517  30.580  1.00  0.00    -0.206 F 
ATOM     68  C   UNL A   1      46.885  34.668  29.670  1.00  0.00     0.059 A 
ATOM     69  C   UNL A   1      46.432  35.035  27.314  1.00  0.00     0.059 A 
ATOM     70  F   UNL A   1      45.737  33.246  25.969  1.00  0.00    -0.206 F 
ATOM     71  C   UNL A   1      46.796  35.520  28.569  1.00  0.00     0.060 A 
BRANCH  71  72
ATOM     72  S   UNL A   1      47.165  37.272  28.804  1.00  0.00     0.124 S 
ATOM     73  O   UNL A   1      46.345  37.586  29.971  1.00  0.00    -0.237 OA
ATOM     74  O   UNL A   1      48.607  37.262  29.027  1.00  0.00    -0.237 OA
ATOM     75  O   UNL A   1      46.730  37.881  27.551  1.00  0.00    -0.744 OA
ENDBRANCH  71  72
ENDBRANCH  50  64
BRANCH  51  76
ATOM     76  C   UNL A   1      43.480  23.266  26.898  1.00  0.00     0.058 A 
ATOM     77  C   UNL A   1      43.260  22.394  27.973  1.00  0.00     0.135 A 
ATOM     78  C   UNL A   1      43.274  22.771  25.600  1.00  0.00     0.135 A 
ATOM     79  F   UNL A   1      43.449  22.820  29.232  1.00  0.00    -0.206 F 
ATOM     80  C   UNL A   1      42.860  21.077  27.773  1.00  0.00     0.059 A 
ATOM     81  C   UNL A   1      42.851  21.464  25.375  1.00  0.00     0.059 A 
ATOM     82  F   UNL A   1      43.453  23.572  24.538  1.00  0.00    -0.206 F 
ATOM     83  C   UNL A   1      42.653  20.623  26.470  1.00  0.00     0.060 A 
BRANCH  83  84
ATOM     84  S   UNL A   1      42.071  18.930  26.224  1.00  0.00     0.124 S 
ATOM     85  O   UNL A   1      40.710  19.153  25.754  1.00  0.00    -0.237 OA
ATOM     86  O   UNL A   1      43.015  18.423  25.234  1.00  0.00    -0.237 OA
ATOM     87  O   UNL A   1      42.192  18.339  27.554  1.00  0.00    -0.744 OA
ENDBRANCH  83  84
ENDBRANCH  51  76
BRANCH  63  88
ATOM     88  C   UNL A   1      49.546  26.681  26.408  1.00  0.00     0.058 A 
ATOM     89  C   UNL A   1      50.379  26.058  27.348  1.00  0.00     0.135 A 
ATOM     90  C   UNL A   1      50.031  26.834  25.099  1.00  0.00     0.135 A 
ATOM     91  F   UNL A   1      49.966  25.895  28.616  1.00  0.00    -0.206 F 
ATOM     92  C   UNL A   1      51.657  25.622  27.010  1.00  0.00     0.059 A 
ATOM     93  C   UNL A   1      51.295  26.381  24.731  1.00  0.00     0.059 A 
ATOM     94  F   UNL A   1      49.270  27.414  24.157  1.00  0.00    -0.206 F 
ATOM     95  C   UNL A   1      52.105  25.786  25.698  1.00  0.00     0.060 A 
BRANCH  95  96
ATOM     96  S   UNL A   1      53.751  25.186  25.263  1.00  0.00     0.124 S 
ATOM     97  O   UNL A   1      53.895  25.687  23.900  1.00  0.00    -0.237 OA
ATOM     98  O   UNL A   1      54.594  25.828  26.268  1.00  0.00    -0.237 OA
ATOM     99  O   UNL A   1      53.628  23.737  25.390  1.00  0.00    -0.744 OA
ENDBRANCH  95  96
ENDBRANCH  63  88
ENDBRANCH  37  38
ENDBRANCH  29  32
ENDBRANCH  27  28
ENDBRANCH  26  27
ENDBRANCH   1  26
TORSDOF 18
ENDMDL
MODEL 2
REMARK VINA RESULT:     -12.0      4.528      9.925
REMARK SMILES Cc1cc(NC(=O)c2ccc(Br)nc2)sc1C(=O)NCCCCCCNC(=O)c1ccc(-c2c3nc(c(-c4c(F)cc(S(=O)(=O)[O-])cc4F)c4ccc([nH]4)c(-c4c(F)cc(S(=O)(=O)[O-])cc4F)c4nc(c(-c5c(F)cc(S(=O)(=O)[O-])cc5F)c5ccc2[nH]5)C=C4)C=C3)cc1
REMARK SMILES IDX 23 1 22 2 21 3 20 4 19 5 17 6 18 7 16 9 1 10 2 11 3 12 4 13
REMARK SMILES IDX 15 14 5 15 6 16 7 18 8 19 9 20 14 21 10 22 13 23 11 24 12 25
REMARK SMILES IDX 24 26 25 27 26 28 27 29 28 31 29 32 30 33 94 34 31 35 93 36
REMARK SMILES IDX 32 37 33 38 34 39 87 40 35 41 92 42 86 43 88 44 36 45 91 46
REMARK SMILES IDX 85 47 84 48 37 50 71 51 50 52 70 53 51 54 54 55 69 56 89 57
REMARK SMILES IDX 52 58 53 59 68 61 90 62 55 63 38 64 39 65 48 66 40 67 41 68
REMARK SMILES IDX 47 69 49 70 42 71 43 72 44 73 45 74 46 75 72 76 73 77 82 78
REMARK SMILES IDX 74 79 75 80 81 81 83 82 76 83 77 84 78 85 79 86 80 87 56 88
REMARK SMILES IDX 57 89 66 90 58 91 59 92 65 93 67 94 60 95 61 96 62 97 63 98
REMARK SMILES IDX 64 99
REMARK H PARENT 19 8 5 17 26 30 88 49 54 60
REMARK Flexibility Score: inf
ROOT
ATOM      1  C   UNL A   1      34.666  24.114  23.710  1.00  0.00     0.002 C 
ENDROOT
BRANCH   1   2
ATOM      2  C   UNL A   1      33.929  23.667  22.442  1.00  0.00     0.002 C 
BRANCH   2   3
ATOM      3  C   UNL A   1      32.704  24.512  22.091  1.00  0.00     0.021 C 
BRANCH   3   4
ATOM      4  C   UNL A   1      33.032  25.947  21.667  1.00  0.00     0.116 C 
BRANCH   4   5
ATOM      5  N   UNL A   1      31.842  26.757  21.579  1.00  0.00    -0.351 N 
ATOM      6  C   UNL A   1      30.968  27.280  22.494  1.00  0.00     0.261 C 
ATOM      7  O   UNL A   1      30.162  28.066  21.977  1.00  0.00    -0.268 OA
ATOM      8  H   UNL A   1      31.606  26.987  20.651  1.00  0.00     0.163 HD
BRANCH   6   9
ATOM      9  C   UNL A   1      30.938  26.967  23.929  1.00  0.00     0.097 A 
ATOM     10  C   UNL A   1      32.011  28.853  25.435  1.00  0.00     0.046 C 
ATOM     11  C   UNL A   1      31.406  27.530  25.120  1.00  0.00    -0.025 A 
ATOM     12  C   UNL A   1      31.296  26.600  26.204  1.00  0.00     0.042 A 
ATOM     13  C   UNL A   1      30.406  25.600  25.950  1.00  0.00     0.096 A 
ATOM     14  S   UNL A   1      30.117  25.449  24.300  1.00  0.00    -0.112 S 
BRANCH  13  15
ATOM     15  N   UNL A   1      29.742  24.725  26.774  1.00  0.00    -0.313 N 
ATOM     16  C   UNL A   1      29.981  23.366  26.880  1.00  0.00     0.257 C 
ATOM     17  H   UNL A   1      29.030  25.099  27.342  1.00  0.00     0.171 HD
ATOM     18  O   UNL A   1      29.218  22.629  27.498  1.00  0.00    -0.269 OA
BRANCH  16  19
ATOM     19  C   UNL A   1      31.204  22.781  26.293  1.00  0.00     0.058 A 
ATOM     20  C   UNL A   1      31.175  22.059  25.096  1.00  0.00     0.018 A 
ATOM     21  C   UNL A   1      32.388  22.833  27.011  1.00  0.00     0.126 A 
ATOM     22  C   UNL A   1      32.311  21.347  24.709  1.00  0.00     0.037 A 
ATOM     23  N   UNL A   1      33.501  22.145  26.655  1.00  0.00    -0.249 NA
ATOM     24  C   UNL A   1      33.436  21.407  25.521  1.00  0.00     0.106 A 
ATOM     25  Br  UNL A   1      34.942  20.346  25.072  1.00  0.00    -0.029 Br
ENDBRANCH  16  19
ENDBRANCH  13  15
ENDBRANCH   6   9
ENDBRANCH   4   5
ENDBRANCH   3   4
ENDBRANCH   2   3
ENDBRANCH   1   2
BRANCH   1  26
ATOM     26  C   UNL A   1      36.130  23.672  23.813  1.00  0.00     0.021 C 
BRANCH  26  27
ATOM     27  C   UNL A   1      36.732  23.770  25.213  1.00  0.00     0.116 C 
BRANCH  27  28
ATOM     28  N   UNL A   1      37.750  22.756  25.428  1.00  0.00    -0.352 N 
ATOM     29  C   UNL A   1      39.009  22.877  25.962  1.00  0.00     0.251 C 
ATOM     30  H   UNL A   1      37.500  21.846  25.150  1.00  0.00     0.163 HD
ATOM     31  O   UNL A   1      39.822  21.971  25.811  1.00  0.00    -0.269 OA
BRANCH  29  32
ATOM     32  C   UNL A   1      39.384  24.093  26.715  1.00  0.00     0.039 A 
ATOM     33  C   UNL A   1      38.910  24.256  28.020  1.00  0.00     0.014 A 
ATOM     34  C   UNL A   1      40.166  25.089  26.123  1.00  0.00     0.014 A 
ATOM     35  C   UNL A   1      39.262  25.396  28.747  1.00  0.00     0.010 A 
ATOM     36  C   UNL A   1      40.570  26.191  26.872  1.00  0.00     0.010 A 
ATOM     37  C   UNL A   1      40.117  26.360  28.188  1.00  0.00    -0.014 A 
BRANCH  37  38
ATOM     38  C   UNL A   1      40.544  27.553  28.963  1.00  0.00     0.031 A 
ATOM     39  C   UNL A   1      41.866  27.557  29.681  1.00  0.00     0.074 A 
ATOM     40  C   UNL A   1      39.709  28.604  29.075  1.00  0.00     0.049 A 
ATOM     41  N   UNL A   1      42.380  28.472  30.462  1.00  0.00    -0.248 NA
ATOM     42  C   UNL A   1      42.712  26.362  29.521  1.00  0.00     0.031 C 
ATOM     43  C   UNL A   1      38.381  28.698  28.464  1.00  0.00     0.029 A 
ATOM     44  N   UNL A   1      39.847  29.791  29.749  1.00  0.00    -0.354 N 
ATOM     45  C   UNL A   1      43.597  27.960  30.898  1.00  0.00     0.074 A 
ATOM     46  C   UNL A   1      43.721  26.633  30.335  1.00  0.00     0.031 C 
ATOM     47  C   UNL A   1      37.836  29.885  28.775  1.00  0.00     0.029 A 
ATOM     48  C   UNL A   1      38.756  30.621  29.636  1.00  0.00     0.049 A 
ATOM     49  H   UNL A   1      40.651  30.026  30.266  1.00  0.00     0.167 HD
ATOM     50  C   UNL A   1      44.535  28.551  31.677  1.00  0.00     0.037 A 
ATOM     51  C   UNL A   1      38.521  31.834  30.172  1.00  0.00     0.037 A 
ATOM     52  C   UNL A   1      44.413  29.883  32.213  1.00  0.00     0.049 A 
ATOM     53  C   UNL A   1      39.578  32.472  31.032  1.00  0.00     0.074 A 
ATOM     54  C   UNL A   1      45.331  30.597  32.961  1.00  0.00     0.029 A 
ATOM     55  N   UNL A   1      43.301  30.700  32.059  1.00  0.00    -0.354 N 
ATOM     56  N   UNL A   1      40.751  32.000  31.381  1.00  0.00    -0.248 NA
ATOM     57  C   UNL A   1      39.282  33.808  31.565  1.00  0.00     0.031 C 
ATOM     58  C   UNL A   1      44.759  31.828  33.298  1.00  0.00     0.029 A 
ATOM     59  C   UNL A   1      43.503  31.902  32.717  1.00  0.00     0.049 A 
ATOM     60  H   UNL A   1      42.490  30.460  31.556  1.00  0.00     0.167 HD
ATOM     61  C   UNL A   1      41.344  32.992  32.156  1.00  0.00     0.074 A 
ATOM     62  C   UNL A   1      40.404  34.093  32.212  1.00  0.00     0.031 C 
ATOM     63  C   UNL A   1      42.556  32.990  32.763  1.00  0.00     0.037 A 
BRANCH  50  64
ATOM     64  C   UNL A   1      45.774  27.760  31.993  1.00  0.00     0.058 A 
ATOM     65  C   UNL A   1      46.892  27.768  31.143  1.00  0.00     0.135 A 
ATOM     66  C   UNL A   1      45.857  27.001  33.173  1.00  0.00     0.135 A 
ATOM     67  F   UNL A   1      46.864  28.464  29.996  1.00  0.00    -0.206 F 
ATOM     68  C   UNL A   1      48.031  27.021  31.430  1.00  0.00     0.059 A 
ATOM     69  C   UNL A   1      46.998  26.272  33.495  1.00  0.00     0.059 A 
ATOM     70  F   UNL A   1      44.820  26.959  34.024  1.00  0.00    -0.206 F 
ATOM     71  C   UNL A   1      48.073  26.274  32.607  1.00  0.00     0.060 A 
BRANCH  71  72
ATOM     72  S   UNL A   1      49.554  25.304  32.960  1.00  0.00     0.124 S 
ATOM     73  O   UNL A   1      50.088  25.092  31.618  1.00  0.00    -0.237 OA
ATOM     74  O   UNL A   1      50.324  26.205  33.812  1.00  0.00    -0.237 OA
ATOM     75  O   UNL A   1      49.032  24.113  33.622  1.00  0.00    -0.744 OA
ENDBRANCH  71  72
ENDBRANCH  50  64
BRANCH  51  76
ATOM     76  C   UNL A   1      37.241  32.534  29.883  1.00  0.00     0.058 A 
ATOM     77  C   UNL A   1      36.064  32.193  30.563  1.00  0.00     0.135 A 
ATOM     78  C   UNL A   1      37.176  33.577  28.946  1.00  0.00     0.135 A 
ATOM     79  F   UNL A   1      36.075  31.199  31.466  1.00  0.00    -0.206 F 
ATOM     80  C   UNL A   1      34.864  32.851  30.320  1.00  0.00     0.059 A 
ATOM     81  C   UNL A   1      35.992  34.267  28.701  1.00  0.00     0.059 A 
ATOM     82  F   UNL A   1      38.280  33.955  28.281  1.00  0.00    -0.206 F 
ATOM     83  C   UNL A   1      34.839  33.892  29.389  1.00  0.00     0.060 A 
BRANCH  83  84
ATOM     84  S   UNL A   1      33.291  34.783  29.126  1.00  0.00     0.124 S 
ATOM     85  O   UNL A   1      32.558  33.854  28.275  1.00  0.00    -0.237 OA
ATOM     86  O   UNL A   1      32.790  34.935  30.488  1.00  0.00    -0.237 OA
ATOM     87  O   UNL A   1      33.723  36.022  28.484  1.00  0.00    -0.744 OA
ENDBRANCH  83  84
ENDBRANCH  51  76
BRANCH  63  88
ATOM     88  C   UNL A   1      42.951  34.229  33.519  1.00  0.00     0.058 A 
ATOM     89  C   UNL A   1      42.703  34.364  34.892  1.00  0.00     0.135 A 
ATOM     90  C   UNL A   1      43.634  35.269  32.868  1.00  0.00     0.135 A 
ATOM     91  F   UNL A   1      42.048  33.401  35.560  1.00  0.00    -0.206 F 
ATOM     92  C   UNL A   1      43.097  35.501  35.593  1.00  0.00     0.059 A 
ATOM     93  C   UNL A   1      44.060  36.403  33.554  1.00  0.00     0.059 A 
ATOM     94  F   UNL A   1      43.905  35.186  31.556  1.00  0.00    -0.206 F 
ATOM     95  C   UNL A   1      43.777  36.514  34.914  1.00  0.00     0.060 A 
BRANCH  95  96
ATOM     96  S   UNL A   1      44.313  37.968  35.841  1.00  0.00     0.124 S 
ATOM     97  O   UNL A   1      45.757  37.766  35.893  1.00  0.00    -0.237 OA
ATOM     98  O   UNL A   1      43.856  39.065  34.992  1.00  0.00    -0.237 OA
ATOM     99  O   UNL A   1      43.614  37.836  37.115  1.00  0.00    -0.744 OA
ENDBRANCH  95  96
ENDBRANCH  63  88
ENDBRANCH  37  38
ENDBRANCH  29  32
ENDBRANCH  27  28
ENDBRANCH  26  27
ENDBRANCH   1  26
TORSDOF 18
ENDMDL
MODEL 3
REMARK VINA RESULT:     -12.0      6.419     11.902
REMARK SMILES Cc1cc(NC(=O)c2ccc(Br)nc2)sc1C(=O)NCCCCCCNC(=O)c1ccc(-c2c3nc(c(-c4c(F)cc(S(=O)(=O)[O-])cc4F)c4ccc([nH]4)c(-c4c(F)cc(S(=O)(=O)[O-])cc4F)c4nc(c(-c5c(F)cc(S(=O)(=O)[O-])cc5F)c5ccc2[nH]5)C=C4)C=C3)cc1
REMARK SMILES IDX 23 1 22 2 21 3 20 4 19 5 17 6 18 7 16 9 1 10 2 11 3 12 4 13
REMARK SMILES IDX 15 14 5 15 6 16 7 18 8 19 9 20 14 21 10 22 13 23 11 24 12 25
REMARK SMILES IDX 24 26 25 27 26 28 27 29 28 31 29 32 30 33 94 34 31 35 93 36
REMARK SMILES IDX 32 37 33 38 34 39 87 40 35 41 92 42 86 43 88 44 36 45 91 46
REMARK SMILES IDX 85 47 84 48 37 50 71 51 50 52 70 53 51 54 54 55 69 56 89 57
REMARK SMILES IDX 52 58 53 59 68 61 90 62 55 63 38 64 39 65 48 66 40 67 41 68
REMARK SMILES IDX 47 69 49 70 42 71 43 72 44 73 45 74 46 75 72 76 73 77 82 78
REMARK SMILES IDX 74 79 75 80 81 81 83 82 76 83 77 84 78 85 79 86 80 87 56 88
REMARK SMILES IDX 57 89 66 90 58 91 59 92 65 93 67 94 60 95 61 96 62 97 63 98
REMARK SMILES IDX 64 99
REMARK H PARENT 19 8 5 17 26 30 88 49 54 60
REMARK Flexibility Score: inf
ROOT
ATOM      1  C   UNL A   1      37.840  23.768  26.018  1.00  0.00     0.002 C 
ENDROOT
BRANCH   1   2
ATOM      2  C   UNL A   1      36.535  23.275  25.382  1.00  0.00     0.002 C 
BRANCH   2   3
ATOM      3  C   UNL A   1      36.125  21.861  25.796  1.00  0.00     0.021 C 
BRANCH   3   4
ATOM      4  C   UNL A   1      35.006  21.812  26.841  1.00  0.00     0.116 C 
BRANCH   4   5
ATOM      5  N   UNL A   1      34.024  20.808  26.517  1.00  0.00    -0.351 N 
ATOM      6  C   UNL A   1      32.981  20.736  25.632  1.00  0.00     0.261 C 
ATOM      7  O   UNL A   1      32.493  19.599  25.574  1.00  0.00    -0.268 OA
ATOM      8  H   UNL A   1      34.127  19.988  27.053  1.00  0.00     0.163 HD
BRANCH   6   9
ATOM      9  C   UNL A   1      32.456  21.850  24.832  1.00  0.00     0.097 A 
ATOM     10  C   UNL A   1      30.583  23.240  26.072  1.00  0.00     0.046 C 
ATOM     11  C   UNL A   1      31.455  22.820  24.941  1.00  0.00    -0.025 A 
ATOM     12  C   UNL A   1      31.241  23.478  23.686  1.00  0.00     0.042 A 
ATOM     13  C   UNL A   1      32.295  23.339  22.834  1.00  0.00     0.096 A 
ATOM     14  S   UNL A   1      33.265  22.038  23.274  1.00  0.00    -0.112 S 
BRANCH  13  15
ATOM     15  N   UNL A   1      32.677  24.043  21.718  1.00  0.00    -0.313 N 
ATOM     16  C   UNL A   1      32.971  25.394  21.668  1.00  0.00     0.257 C 
ATOM     17  H   UNL A   1      32.750  23.539  20.875  1.00  0.00     0.171 HD
ATOM     18  O   UNL A   1      33.118  25.978  20.599  1.00  0.00    -0.269 OA
BRANCH  16  19
ATOM     19  C   UNL A   1      33.170  26.155  22.919  1.00  0.00     0.058 A 
ATOM     20  C   UNL A   1      34.023  25.700  23.930  1.00  0.00     0.018 A 
ATOM     21  C   UNL A   1      32.394  27.277  23.158  1.00  0.00     0.126 A 
ATOM     22  C   UNL A   1      34.001  26.339  25.171  1.00  0.00     0.037 A 
ATOM     23  N   UNL A   1      32.355  27.910  24.357  1.00  0.00    -0.249 NA
ATOM     24  C   UNL A   1      33.147  27.421  25.341  1.00  0.00     0.106 A 
ATOM     25  Br  UNL A   1      33.017  28.218  27.056  1.00  0.00    -0.029 Br
ENDBRANCH  16  19
ENDBRANCH  13  15
ENDBRANCH   6   9
ENDBRANCH   4   5
ENDBRANCH   3   4
ENDBRANCH   2   3
ENDBRANCH   1   2
BRANCH   1  26
ATOM     26  C   UNL A   1      38.841  22.672  26.402  1.00  0.00     0.021 C 
BRANCH  26  27
ATOM     27  C   UNL A   1      40.095  23.173  27.118  1.00  0.00     0.116 C 
BRANCH  27  28
ATOM     28  N   UNL A   1      41.068  23.704  26.178  1.00  0.00    -0.352 N 
ATOM     29  C   UNL A   1      41.564  24.977  26.057  1.00  0.00     0.251 C 
ATOM     30  H   UNL A   1      41.426  23.052  25.533  1.00  0.00     0.163 HD
ATOM     31  O   UNL A   1      42.168  25.299  25.037  1.00  0.00    -0.269 OA
BRANCH  29  32
ATOM     32  C   UNL A   1      41.375  25.957  27.147  1.00  0.00     0.039 A 
ATOM     33  C   UNL A   1      40.296  25.801  28.022  1.00  0.00     0.014 A 
ATOM     34  C   UNL A   1      42.234  27.053  27.282  1.00  0.00     0.014 A 
ATOM     35  C   UNL A   1      40.108  26.715  29.061  1.00  0.00     0.010 A 
ATOM     36  C   UNL A   1      42.084  27.923  28.358  1.00  0.00     0.010 A 
ATOM     37  C   UNL A   1      41.016  27.768  29.254  1.00  0.00    -0.014 A 
BRANCH  37  38
ATOM     38  C   UNL A   1      40.862  28.721  30.384  1.00  0.00     0.031 A 
ATOM     39  C   UNL A   1      41.735  28.595  31.604  1.00  0.00     0.074 A 
ATOM     40  C   UNL A   1      39.892  29.653  30.337  1.00  0.00     0.049 A 
ATOM     41  N   UNL A   1      41.704  29.284  32.715  1.00  0.00    -0.248 NA
ATOM     42  C   UNL A   1      42.760  27.540  31.581  1.00  0.00     0.031 C 
ATOM     43  C   UNL A   1      38.953  29.841  29.228  1.00  0.00     0.029 A 
ATOM     44  N   UNL A   1      39.525  30.612  31.248  1.00  0.00    -0.354 N 
ATOM     45  C   UNL A   1      42.690  28.737  33.528  1.00  0.00     0.074 A 
ATOM     46  C   UNL A   1      43.266  27.627  32.802  1.00  0.00     0.031 C 
ATOM     47  C   UNL A   1      38.132  30.864  29.515  1.00  0.00     0.029 A 
ATOM     48  C   UNL A   1      38.460  31.381  30.841  1.00  0.00     0.049 A 
ATOM     49  H   UNL A   1      39.981  30.737  32.111  1.00  0.00     0.167 HD
ATOM     50  C   UNL A   1      43.093  29.139  34.758  1.00  0.00     0.037 A 
ATOM     51  C   UNL A   1      37.816  32.383  31.468  1.00  0.00     0.037 A 
ATOM     52  C   UNL A   1      42.528  30.260  35.464  1.00  0.00     0.049 A 
ATOM     53  C   UNL A   1      38.282  32.814  32.832  1.00  0.00     0.074 A 
ATOM     54  C   UNL A   1      42.906  30.787  36.686  1.00  0.00     0.029 A 
ATOM     55  N   UNL A   1      41.464  31.028  35.011  1.00  0.00    -0.354 N 
ATOM     56  N   UNL A   1      39.258  32.326  33.560  1.00  0.00    -0.248 NA
ATOM     57  C   UNL A   1      37.563  33.931  33.458  1.00  0.00     0.031 C 
ATOM     58  C   UNL A   1      42.042  31.844  36.993  1.00  0.00     0.029 A 
ATOM     59  C   UNL A   1      41.158  32.009  35.939  1.00  0.00     0.049 A 
ATOM     60  H   UNL A   1      40.996  30.893  34.155  1.00  0.00     0.167 HD
ATOM     61  C   UNL A   1      39.288  33.094  34.720  1.00  0.00     0.074 A 
ATOM     62  C   UNL A   1      38.238  34.085  34.589  1.00  0.00     0.031 C 
ATOM     63  C   UNL A   1      40.110  32.989  35.793  1.00  0.00     0.037 A 
BRANCH  50  64
ATOM     64  C   UNL A   1      44.198  28.358  35.417  1.00  0.00     0.058 A 
ATOM     65  C   UNL A   1      45.550  28.678  35.212  1.00  0.00     0.135 A 
ATOM     66  C   UNL A   1      43.902  27.291  36.280  1.00  0.00     0.135 A 
ATOM     67  F   UNL A   1      45.890  29.679  34.386  1.00  0.00    -0.206 F 
ATOM     68  C   UNL A   1      46.571  27.943  35.809  1.00  0.00     0.059 A 
ATOM     69  C   UNL A   1      44.907  26.562  36.912  1.00  0.00     0.059 A 
ATOM     70  F   UNL A   1      42.628  26.942  36.514  1.00  0.00    -0.206 F 
ATOM     71  C   UNL A   1      46.239  26.885  36.655  1.00  0.00     0.060 A 
BRANCH  71  72
ATOM     72  S   UNL A   1      47.574  25.936  37.414  1.00  0.00     0.124 S 
ATOM     73  O   UNL A   1      48.646  26.927  37.454  1.00  0.00    -0.237 OA
ATOM     74  O   UNL A   1      47.003  25.569  38.705  1.00  0.00    -0.237 OA
ATOM     75  O   UNL A   1      47.778  24.831  36.483  1.00  0.00    -0.744 OA
ENDBRANCH  71  72
ENDBRANCH  50  64
BRANCH  51  76
ATOM     76  C   UNL A   1      36.679  33.066  30.796  1.00  0.00     0.058 A 
ATOM     77  C   UNL A   1      35.359  32.856  31.219  1.00  0.00     0.135 A 
ATOM     78  C   UNL A   1      36.890  33.965  29.738  1.00  0.00     0.135 A 
ATOM     79  F   UNL A   1      35.105  32.002  32.224  1.00  0.00    -0.206 F 
ATOM     80  C   UNL A   1      34.287  33.503  30.614  1.00  0.00     0.059 A 
ATOM     81  C   UNL A   1      35.837  34.642  29.132  1.00  0.00     0.059 A 
ATOM     82  F   UNL A   1      38.137  34.216  29.308  1.00  0.00    -0.206 F 
ATOM     83  C   UNL A   1      34.537  34.399  29.573  1.00  0.00     0.060 A 
BRANCH  83  84
ATOM     84  S   UNL A   1      33.144  35.282  28.837  1.00  0.00     0.124 S 
ATOM     85  O   UNL A   1      32.402  35.700  30.020  1.00  0.00    -0.237 OA
ATOM     86  O   UNL A   1      33.813  36.342  28.093  1.00  0.00    -0.237 OA
ATOM     87  O   UNL A   1      32.499  34.261  28.014  1.00  0.00    -0.744 OA
ENDBRANCH  83  84
ENDBRANCH  51  76
BRANCH  63  88
ATOM     88  C   UNL A   1      39.928  33.989  36.902  1.00  0.00     0.058 A 
ATOM     89  C   UNL A   1      40.569  35.236  36.881  1.00  0.00     0.135 A 
ATOM     90  C   UNL A   1      39.060  33.713  37.970  1.00  0.00     0.135 A 
ATOM     91  F   UNL A   1      41.415  35.546  35.886  1.00  0.00    -0.206 F 
ATOM     92  C   UNL A   1      40.375  36.169  37.896  1.00  0.00     0.059 A 
ATOM     93  C   UNL A   1      38.829  34.641  38.981  1.00  0.00     0.059 A 
ATOM     94  F   UNL A   1      38.413  32.538  38.033  1.00  0.00    -0.206 F 
ATOM     95  C   UNL A   1      39.501  35.863  38.941  1.00  0.00     0.060 A 
BRANCH  95  96
ATOM     96  S   UNL A   1      39.230  37.095  40.232  1.00  0.00     0.124 S 
ATOM     97  O   UNL A   1      40.599  37.410  40.628  1.00  0.00    -0.237 OA
ATOM     98  O   UNL A   1      38.519  38.149  39.514  1.00  0.00    -0.237 OA
ATOM     99  O   UNL A   1      38.438  36.377  41.226  1.00  0.00    -0.744 OA
ENDBRANCH  95  96
ENDBRANCH  63  88
ENDBRANCH  37  38
ENDBRANCH  29  32
ENDBRANCH  27  28
ENDBRANCH  26  27
ENDBRANCH   1  26
TORSDOF 18
ENDMDL
