MODEL 1
REMARK VINA RESULT:     -12.3      0.000      0.000
REMARK SMILES Cc1ncc(CC(=O)N2CCC(Cc3cccc(C(=O)NCCCCCCNC(=O)c4ccc(-c5c6nc(c(-c7c(F)cc(S(=O)(=O)[O-])cc7F)c7ccc([nH]7)c(-c7c(F)cc(S(=O)(=O)[O-])cc7F)c7nc(c(-c8c(F)cc(S(=O)(=O)[O-])cc8F)c8ccc5[nH]8)C=C7)C=C6)cc4)c3)CC2)c(=O)[nH]1
REMARK SMILES IDX 24 1 23 2 22 3 21 4 19 5 20 6 18 8 14 9 15 10 97 11 16 12
REMARK SMILES IDX 17 13 13 14 12 15 7 16 8 17 9 18 10 19 99 20 11 21 98 22
REMARK SMILES IDX 6 23 5 24 1 25 2 26 3 27 102 28 4 29 100 30 101 32 25 33
REMARK SMILES IDX 26 34 27 35 28 36 29 37 30 39 31 40 32 41 96 42 33 43 95 44
REMARK SMILES IDX 34 45 35 46 36 47 89 48 37 49 94 50 88 51 90 52 38 53 93 54
REMARK SMILES IDX 87 55 86 56 39 58 73 59 52 60 72 61 53 62 56 63 71 64 91 65
REMARK SMILES IDX 54 66 55 67 70 69 92 70 57 71 40 72 41 73 50 74 42 75 43 76
REMARK SMILES IDX 49 77 51 78 44 79 45 80 46 81 47 82 48 83 74 84 75 85 84 86
REMARK SMILES IDX 76 87 77 88 83 89 85 90 78 91 79 92 80 93 81 94 82 95 58 96
REMARK SMILES IDX 59 97 68 98 60 99 61 100 67 101 69 102 62 103 63 104 64 105
REMARK SMILES IDX 65 106 66 107
REMARK H PARENT 21 7 102 31 28 38 90 57 56 68
REMARK Flexibility Score: inf
ROOT
ATOM      1  C   UNL A   1      33.544  30.920  27.333  1.00  0.00     0.002 C 
ENDROOT
BRANCH   1   2
ATOM      2  C   UNL A   1      34.495  29.727  27.277  1.00  0.00     0.021 C 
BRANCH   2   3
ATOM      3  C   UNL A   1      34.111  28.586  26.342  1.00  0.00     0.116 C 
BRANCH   3   4
ATOM      4  N   UNL A   1      34.349  28.844  24.929  1.00  0.00    -0.352 N 
ATOM      5  C   UNL A   1      33.520  28.731  23.829  1.00  0.00     0.251 C 
ATOM      6  O   UNL A   1      33.977  28.999  22.718  1.00  0.00    -0.269 OA
ATOM      7  H   UNL A   1      35.260  29.154  24.721  1.00  0.00     0.163 HD
BRANCH   5   8
ATOM      8  C   UNL A   1      32.116  28.239  23.936  1.00  0.00     0.040 A 
ATOM      9  C   UNL A   1      30.469  26.752  24.951  1.00  0.00    -0.047 A 
ATOM     10  C   UNL A   1      29.573  27.063  23.924  1.00  0.00     0.004 A 
ATOM     11  C   UNL A   1      31.695  27.429  24.987  1.00  0.00     0.017 A 
ATOM     12  C   UNL A   1      29.917  28.002  22.947  1.00  0.00     0.001 A 
ATOM     13  C   UNL A   1      31.196  28.568  22.937  1.00  0.00     0.014 A 
BRANCH   9  14
ATOM     14  C   UNL A   1      30.186  25.597  25.891  1.00  0.00     0.039 C 
BRANCH  14  15
ATOM     15  C   UNL A   1      30.659  24.216  25.406  1.00  0.00    -0.003 C 
ATOM     16  C   UNL A   1      33.971  22.559  23.841  1.00  0.00     0.227 C 
ATOM     17  O   UNL A   1      34.224  23.301  22.884  1.00  0.00    -0.275 OA
ATOM     18  N   UNL A   1      32.670  22.458  24.325  1.00  0.00    -0.342 N 
ATOM     19  C   UNL A   1      31.586  22.912  23.462  1.00  0.00     0.120 C 
ATOM     20  C   UNL A   1      32.287  22.329  25.729  1.00  0.00     0.120 C 
ATOM     21  C   UNL A   1      31.062  24.265  23.923  1.00  0.00     0.025 C 
ATOM     22  C   UNL A   1      31.817  23.685  26.264  1.00  0.00     0.025 C 
BRANCH  16  23
ATOM     23  C   UNL A   1      35.037  21.558  24.307  1.00  0.00     0.143 C 
BRANCH  23  24
ATOM     24  C   UNL A   1      36.215  22.089  25.042  1.00  0.00     0.045 A 
ATOM     25  C   UNL A   1      39.666  23.704  26.880  1.00  0.00     0.087 C 
ATOM     26  C   UNL A   1      38.415  23.157  26.261  1.00  0.00     0.105 A 
ATOM     27  N   UNL A   1      37.370  23.902  26.120  1.00  0.00    -0.243 NA
ATOM     28  N   UNL A   1      38.470  21.862  25.832  1.00  0.00    -0.311 N 
ATOM     29  C   UNL A   1      36.269  23.327  25.552  1.00  0.00     0.123 A 
ATOM     30  C   UNL A   1      37.428  21.261  25.182  1.00  0.00     0.254 A 
ATOM     31  H   UNL A   1      39.290  21.342  25.997  1.00  0.00     0.171 HD
ATOM     32  O   UNL A   1      37.518  20.135  24.710  1.00  0.00    -0.269 OA
ENDBRANCH  23  24
ENDBRANCH  16  23
ENDBRANCH  14  15
ENDBRANCH   9  14
ENDBRANCH   5   8
ENDBRANCH   3   4
ENDBRANCH   2   3
ENDBRANCH   1   2
BRANCH   1  33
ATOM     33  C   UNL A   1      34.054  32.171  28.052  1.00  0.00     0.002 C 
BRANCH  33  34
ATOM     34  C   UNL A   1      35.549  32.476  27.924  1.00  0.00     0.021 C 
BRANCH  34  35
ATOM     35  C   UNL A   1      36.307  32.675  29.233  1.00  0.00     0.116 C 
BRANCH  35  36
ATOM     36  N   UNL A   1      35.941  31.709  30.255  1.00  0.00    -0.352 N 
ATOM     37  C   UNL A   1      36.638  30.611  30.710  1.00  0.00     0.251 C 
ATOM     38  H   UNL A   1      35.069  31.861  30.684  1.00  0.00     0.163 HD
ATOM     39  O   UNL A   1      36.110  29.830  31.488  1.00  0.00    -0.269 OA
BRANCH  37  40
ATOM     40  C   UNL A   1      38.018  30.364  30.230  1.00  0.00     0.039 A 
ATOM     41  C   UNL A   1      39.062  30.348  31.158  1.00  0.00     0.014 A 
ATOM     42  C   UNL A   1      38.281  30.141  28.875  1.00  0.00     0.014 A 
ATOM     43  C   UNL A   1      40.359  30.035  30.738  1.00  0.00     0.010 A 
ATOM     44  C   UNL A   1      39.559  29.762  28.470  1.00  0.00     0.010 A 
ATOM     45  C   UNL A   1      40.610  29.697  29.399  1.00  0.00    -0.014 A 
BRANCH  45  46
ATOM     46  C   UNL A   1      41.960  29.264  28.948  1.00  0.00     0.031 A 
ATOM     47  C   UNL A   1      43.070  30.272  28.815  1.00  0.00     0.074 A 
ATOM     48  C   UNL A   1      42.170  27.980  28.592  1.00  0.00     0.049 A 
ATOM     49  N   UNL A   1      44.273  30.118  28.324  1.00  0.00    -0.248 NA
ATOM     50  C   UNL A   1      42.779  31.641  29.272  1.00  0.00     0.031 C 
ATOM     51  C   UNL A   1      41.164  26.917  28.642  1.00  0.00     0.029 A 
ATOM     52  N   UNL A   1      43.289  27.353  28.103  1.00  0.00    -0.354 N 
ATOM     53  C   UNL A   1      44.875  31.369  28.394  1.00  0.00     0.074 A 
ATOM     54  C   UNL A   1      43.888  32.282  28.932  1.00  0.00     0.031 C 
ATOM     55  C   UNL A   1      41.717  25.768  28.220  1.00  0.00     0.029 A 
ATOM     56  C   UNL A   1      43.098  26.019  27.820  1.00  0.00     0.049 A 
ATOM     57  H   UNL A   1      44.148  27.814  27.967  1.00  0.00     0.167 HD
ATOM     58  C   UNL A   1      46.138  31.720  28.058  1.00  0.00     0.037 A 
ATOM     59  C   UNL A   1      43.929  25.108  27.275  1.00  0.00     0.037 A 
ATOM     60  C   UNL A   1      47.122  30.799  27.551  1.00  0.00     0.049 A 
ATOM     61  C   UNL A   1      45.315  25.532  26.872  1.00  0.00     0.074 A 
ATOM     62  C   UNL A   1      48.448  31.043  27.238  1.00  0.00     0.029 A 
ATOM     63  N   UNL A   1      46.890  29.457  27.282  1.00  0.00    -0.354 N 
ATOM     64  N   UNL A   1      45.880  26.712  26.980  1.00  0.00    -0.248 NA
ATOM     65  C   UNL A   1      46.177  24.507  26.267  1.00  0.00     0.031 C 
ATOM     66  C   UNL A   1      49.004  29.861  26.736  1.00  0.00     0.029 A 
ATOM     67  C   UNL A   1      48.040  28.867  26.787  1.00  0.00     0.049 A 
ATOM     68  H   UNL A   1      46.033  28.994  27.424  1.00  0.00     0.167 HD
ATOM     69  C   UNL A   1      47.174  26.560  26.497  1.00  0.00     0.074 A 
ATOM     70  C   UNL A   1      47.308  25.177  26.090  1.00  0.00     0.031 C 
ATOM     71  C   UNL A   1      48.164  27.482  26.405  1.00  0.00     0.037 A 
BRANCH  58  72
ATOM     72  C   UNL A   1      46.532  33.163  28.226  1.00  0.00     0.058 A 
ATOM     73  C   UNL A   1      47.122  33.636  29.408  1.00  0.00     0.135 A 
ATOM     74  C   UNL A   1      46.349  34.078  27.176  1.00  0.00     0.135 A 
ATOM     75  F   UNL A   1      47.309  32.808  30.449  1.00  0.00    -0.206 F 
ATOM     76  C   UNL A   1      47.485  34.970  29.559  1.00  0.00     0.059 A 
ATOM     77  C   UNL A   1      46.731  35.412  27.293  1.00  0.00     0.059 A 
ATOM     78  F   UNL A   1      45.790  33.682  26.022  1.00  0.00    -0.206 F 
ATOM     79  C   UNL A   1      47.284  35.851  28.495  1.00  0.00     0.060 A 
BRANCH  79  80
ATOM     80  S   UNL A   1      47.759  37.580  28.705  1.00  0.00     0.124 S 
ATOM     81  O   UNL A   1      46.465  38.249  28.608  1.00  0.00    -0.237 OA
ATOM     82  O   UNL A   1      48.373  37.577  30.029  1.00  0.00    -0.237 OA
ATOM     83  O   UNL A   1      48.674  37.819  27.594  1.00  0.00    -0.744 OA
ENDBRANCH  79  80
ENDBRANCH  58  72
BRANCH  59  84
ATOM     84  C   UNL A   1      43.460  23.714  27.039  1.00  0.00     0.058 A 
ATOM     85  C   UNL A   1      43.314  22.788  28.079  1.00  0.00     0.135 A 
ATOM     86  C   UNL A   1      43.141  23.283  25.745  1.00  0.00     0.135 A 
ATOM     87  F   UNL A   1      43.619  23.141  29.338  1.00  0.00    -0.206 F 
ATOM     88  C   UNL A   1      42.877  21.486  27.840  1.00  0.00     0.059 A 
ATOM     89  C   UNL A   1      42.681  22.000  25.479  1.00  0.00     0.059 A 
ATOM     90  F   UNL A   1      43.246  24.138  24.725  1.00  0.00    -0.206 F 
ATOM     91  C   UNL A   1      42.557  21.104  26.536  1.00  0.00     0.060 A 
BRANCH  91  92
ATOM     92  S   UNL A   1      41.934  19.437  26.236  1.00  0.00     0.124 S 
ATOM     93  O   UNL A   1      42.635  19.076  25.010  1.00  0.00    -0.237 OA
ATOM     94  O   UNL A   1      42.351  18.735  27.445  1.00  0.00    -0.237 OA
ATOM     95  O   UNL A   1      40.493  19.638  26.105  1.00  0.00    -0.744 OA
ENDBRANCH  91  92
ENDBRANCH  59  84
BRANCH  71  96
ATOM     96  C   UNL A   1      49.503  27.015  25.907  1.00  0.00     0.058 A 
ATOM     97  C   UNL A   1      49.869  27.114  24.556  1.00  0.00     0.135 A 
ATOM     98  C   UNL A   1      50.457  26.520  26.812  1.00  0.00     0.135 A 
ATOM     99  F   UNL A   1      48.992  27.573  23.650  1.00  0.00    -0.206 F 
ATOM    100  C   UNL A   1      51.131  26.723  24.117  1.00  0.00     0.059 A 
ATOM    101  C   UNL A   1      51.732  26.149  26.400  1.00  0.00     0.059 A 
ATOM    102  F   UNL A   1      50.160  26.415  28.117  1.00  0.00    -0.206 F 
ATOM    103  C   UNL A   1      52.056  26.246  25.048  1.00  0.00     0.060 A 
BRANCH 103 104
ATOM    104  S   UNL A   1      53.705  25.787  24.472  1.00  0.00     0.124 S 
ATOM    105  O   UNL A   1      53.804  24.407  24.934  1.00  0.00    -0.237 OA
ATOM    106  O   UNL A   1      53.592  25.966  23.028  1.00  0.00    -0.237 OA
ATOM    107  O   UNL A   1      54.579  26.741  25.149  1.00  0.00    -0.744 OA
ENDBRANCH 103 104
ENDBRANCH  71  96
ENDBRANCH  45  46
ENDBRANCH  37  40
ENDBRANCH  35  36
ENDBRANCH  34  35
ENDBRANCH  33  34
ENDBRANCH   1  33
TORSDOF 20
ENDMDL
MODEL 2
REMARK VINA RESULT:     -12.2      0.468      7.853
REMARK SMILES Cc1ncc(CC(=O)N2CCC(Cc3cccc(C(=O)NCCCCCCNC(=O)c4ccc(-c5c6nc(c(-c7c(F)cc(S(=O)(=O)[O-])cc7F)c7ccc([nH]7)c(-c7c(F)cc(S(=O)(=O)[O-])cc7F)c7nc(c(-c8c(F)cc(S(=O)(=O)[O-])cc8F)c8ccc5[nH]8)C=C7)C=C6)cc4)c3)CC2)c(=O)[nH]1
REMARK SMILES IDX 24 1 23 2 22 3 21 4 19 5 20 6 18 8 14 9 15 10 97 11 16 12
REMARK SMILES IDX 17 13 13 14 12 15 7 16 8 17 9 18 10 19 99 20 11 21 98 22
REMARK SMILES IDX 6 23 5 24 1 25 2 26 3 27 102 28 4 29 100 30 101 32 25 33
REMARK SMILES IDX 26 34 27 35 28 36 29 37 30 39 31 40 32 41 96 42 33 43 95 44
REMARK SMILES IDX 34 45 35 46 36 47 89 48 37 49 94 50 88 51 90 52 38 53 93 54
REMARK SMILES IDX 87 55 86 56 39 58 73 59 52 60 72 61 53 62 56 63 71 64 91 65
REMARK SMILES IDX 54 66 55 67 70 69 92 70 57 71 40 72 41 73 50 74 42 75 43 76
REMARK SMILES IDX 49 77 51 78 44 79 45 80 46 81 47 82 48 83 74 84 75 85 84 86
REMARK SMILES IDX 76 87 77 88 83 89 85 90 78 91 79 92 80 93 81 94 82 95 58 96
REMARK SMILES IDX 59 97 68 98 60 99 61 100 67 101 69 102 62 103 63 104 64 105
REMARK SMILES IDX 65 106 66 107
REMARK H PARENT 21 7 102 31 28 38 90 57 56 68
REMARK Flexibility Score: inf
ROOT
ATOM      1  C   UNL A   1      33.656  31.397  27.630  1.00  0.00     0.002 C 
ENDROOT
BRANCH   1   2
ATOM      2  C   UNL A   1      34.584  30.204  27.416  1.00  0.00     0.021 C 
BRANCH   2   3
ATOM      3  C   UNL A   1      34.013  29.019  26.648  1.00  0.00     0.116 C 
BRANCH   3   4
ATOM      4  N   UNL A   1      34.350  28.985  25.231  1.00  0.00    -0.352 N 
ATOM      5  C   UNL A   1      33.602  28.636  24.124  1.00  0.00     0.251 C 
ATOM      6  O   UNL A   1      34.136  28.677  23.016  1.00  0.00    -0.269 OA
ATOM      7  H   UNL A   1      35.274  29.258  25.028  1.00  0.00     0.163 HD
BRANCH   5   8
ATOM      8  C   UNL A   1      32.193  28.155  24.233  1.00  0.00     0.040 A 
ATOM      9  C   UNL A   1      30.561  26.579  25.128  1.00  0.00    -0.047 A 
ATOM     10  C   UNL A   1      29.628  27.029  24.190  1.00  0.00     0.004 A 
ATOM     11  C   UNL A   1      31.802  27.226  25.193  1.00  0.00     0.017 A 
ATOM     12  C   UNL A   1      29.949  28.079  23.323  1.00  0.00     0.001 A 
ATOM     13  C   UNL A   1      31.238  28.622  23.325  1.00  0.00     0.014 A 
BRANCH   9  14
ATOM     14  C   UNL A   1      30.296  25.318  25.928  1.00  0.00     0.039 C 
BRANCH  14  15
ATOM     15  C   UNL A   1      30.849  24.018  25.322  1.00  0.00    -0.003 C 
ATOM     16  C   UNL A   1      34.179  22.759  23.454  1.00  0.00     0.227 C 
ATOM     17  O   UNL A   1      34.308  23.580  22.537  1.00  0.00    -0.275 OA
ATOM     18  N   UNL A   1      32.924  22.514  24.005  1.00  0.00    -0.342 N 
ATOM     19  C   UNL A   1      31.753  22.927  23.240  1.00  0.00     0.120 C 
ATOM     20  C   UNL A   1      32.643  22.262  25.416  1.00  0.00     0.120 C 
ATOM     21  C   UNL A   1      31.150  24.198  23.824  1.00  0.00     0.025 C 
ATOM     22  C   UNL A   1      32.099  23.535  26.071  1.00  0.00     0.025 C 
BRANCH  16  23
ATOM     23  C   UNL A   1      35.351  21.825  23.786  1.00  0.00     0.143 C 
BRANCH  23  24
ATOM     24  C   UNL A   1      36.383  22.317  24.736  1.00  0.00     0.045 A 
ATOM     25  C   UNL A   1      39.481  23.792  27.210  1.00  0.00     0.087 C 
ATOM     26  C   UNL A   1      38.351  23.299  26.357  1.00  0.00     0.105 A 
ATOM     27  N   UNL A   1      37.441  24.112  25.937  1.00  0.00    -0.243 NA
ATOM     28  N   UNL A   1      38.374  21.973  26.030  1.00  0.00    -0.311 N 
ATOM     29  C   UNL A   1      36.443  23.584  25.169  1.00  0.00     0.123 A 
ATOM     30  C   UNL A   1      37.449  21.408  25.198  1.00  0.00     0.254 A 
ATOM     31  H   UNL A   1      39.083  21.404  26.409  1.00  0.00     0.171 HD
ATOM     32  O   UNL A   1      37.531  20.244  24.828  1.00  0.00    -0.269 OA
ENDBRANCH  23  24
ENDBRANCH  16  23
ENDBRANCH  14  15
ENDBRANCH   9  14
ENDBRANCH   5   8
ENDBRANCH   3   4
ENDBRANCH   2   3
ENDBRANCH   1   2
BRANCH   1  33
ATOM     33  C   UNL A   1      34.266  32.630  28.302  1.00  0.00     0.002 C 
BRANCH  33  34
ATOM     34  C   UNL A   1      35.787  32.774  28.221  1.00  0.00     0.021 C 
BRANCH  34  35
ATOM     35  C   UNL A   1      36.532  32.788  29.554  1.00  0.00     0.116 C 
BRANCH  35  36
ATOM     36  N   UNL A   1      36.182  31.668  30.411  1.00  0.00    -0.352 N 
ATOM     37  C   UNL A   1      36.873  30.502  30.653  1.00  0.00     0.251 C 
ATOM     38  H   UNL A   1      35.326  31.757  30.890  1.00  0.00     0.163 HD
ATOM     39  O   UNL A   1      36.358  29.608  31.307  1.00  0.00    -0.269 OA
BRANCH  37  40
ATOM     40  C   UNL A   1      38.233  30.322  30.090  1.00  0.00     0.039 A 
ATOM     41  C   UNL A   1      39.335  30.442  30.940  1.00  0.00     0.014 A 
ATOM     42  C   UNL A   1      38.420  30.031  28.736  1.00  0.00     0.014 A 
ATOM     43  C   UNL A   1      40.621  30.194  30.449  1.00  0.00     0.010 A 
ATOM     44  C   UNL A   1      39.694  29.717  28.264  1.00  0.00     0.010 A 
ATOM     45  C   UNL A   1      40.806  29.788  29.117  1.00  0.00    -0.014 A 
BRANCH  45  46
ATOM     46  C   UNL A   1      42.152  29.424  28.598  1.00  0.00     0.031 A 
ATOM     47  C   UNL A   1      42.441  28.006  28.182  1.00  0.00     0.074 A 
ATOM     48  C   UNL A   1      43.133  30.349  28.566  1.00  0.00     0.049 A 
ATOM     49  N   UNL A   1      43.577  27.465  27.824  1.00  0.00    -0.248 NA
ATOM     50  C   UNL A   1      41.307  27.068  28.197  1.00  0.00     0.031 C 
ATOM     51  C   UNL A   1      42.986  31.747  28.976  1.00  0.00     0.029 A 
ATOM     52  N   UNL A   1      44.449  30.252  28.188  1.00  0.00    -0.354 N 
ATOM     53  C   UNL A   1      43.300  26.123  27.589  1.00  0.00     0.074 A 
ATOM     54  C   UNL A   1      41.899  25.922  27.891  1.00  0.00     0.031 C 
ATOM     55  C   UNL A   1      44.159  32.380  28.809  1.00  0.00     0.029 A 
ATOM     56  C   UNL A   1      45.155  31.426  28.331  1.00  0.00     0.049 A 
ATOM     57  H   UNL A   1      44.851  29.421  27.846  1.00  0.00     0.167 HD
ATOM     58  C   UNL A   1      44.134  25.152  27.146  1.00  0.00     0.037 A 
ATOM     59  C   UNL A   1      46.460  31.697  28.129  1.00  0.00     0.037 A 
ATOM     60  C   UNL A   1      45.520  25.368  26.820  1.00  0.00     0.049 A 
ATOM     61  C   UNL A   1      47.374  30.592  27.675  1.00  0.00     0.074 A 
ATOM     62  C   UNL A   1      46.433  24.464  26.305  1.00  0.00     0.029 A 
ATOM     63  N   UNL A   1      46.195  26.571  26.976  1.00  0.00    -0.354 N 
ATOM     64  N   UNL A   1      47.087  29.337  27.421  1.00  0.00    -0.248 NA
ATOM     65  C   UNL A   1      48.790  30.935  27.484  1.00  0.00     0.031 C 
ATOM     66  C   UNL A   1      47.671  25.107  26.194  1.00  0.00     0.029 A 
ATOM     67  C   UNL A   1      47.516  26.426  26.589  1.00  0.00     0.049 A 
ATOM     68  H   UNL A   1      45.792  27.404  27.312  1.00  0.00     0.167 HD
ATOM     69  C   UNL A   1      48.276  28.752  27.003  1.00  0.00     0.074 A 
ATOM     70  C   UNL A   1      49.288  29.788  27.042  1.00  0.00     0.031 C 
ATOM     71  C   UNL A   1      48.507  27.474  26.614  1.00  0.00     0.037 A 
BRANCH  58  72
ATOM     72  C   UNL A   1      43.572  23.766  26.986  1.00  0.00     0.058 A 
ATOM     73  C   UNL A   1      43.303  22.945  28.093  1.00  0.00     0.135 A 
ATOM     74  C   UNL A   1      43.267  23.262  25.711  1.00  0.00     0.135 A 
ATOM     75  F   UNL A   1      43.588  23.370  29.335  1.00  0.00    -0.206 F 
ATOM     76  C   UNL A   1      42.783  21.664  27.941  1.00  0.00     0.059 A 
ATOM     77  C   UNL A   1      42.719  21.995  25.536  1.00  0.00     0.059 A 
ATOM     78  F   UNL A   1      43.503  24.003  24.617  1.00  0.00    -0.206 F 
ATOM     79  C   UNL A   1      42.495  21.197  26.658  1.00  0.00     0.060 A 
BRANCH  79  80
ATOM     80  S   UNL A   1      41.822  19.532  26.476  1.00  0.00     0.124 S 
ATOM     81  O   UNL A   1      40.387  19.794  26.516  1.00  0.00    -0.237 OA
ATOM     82  O   UNL A   1      42.355  19.118  25.183  1.00  0.00    -0.237 OA
ATOM     83  O   UNL A   1      42.361  18.819  27.630  1.00  0.00    -0.744 OA
ENDBRANCH  79  80
ENDBRANCH  58  72
BRANCH  59  84
ATOM     84  C   UNL A   1      46.989  33.065  28.394  1.00  0.00     0.058 A 
ATOM     85  C   UNL A   1      47.055  34.047  27.398  1.00  0.00     0.135 A 
ATOM     86  C   UNL A   1      47.441  33.414  29.673  1.00  0.00     0.135 A 
ATOM     87  F   UNL A   1      46.650  33.764  26.150  1.00  0.00    -0.206 F 
ATOM     88  C   UNL A   1      47.556  35.320  27.663  1.00  0.00     0.059 A 
ATOM     89  C   UNL A   1      47.923  34.681  29.972  1.00  0.00     0.059 A 
ATOM     90  F   UNL A   1      47.379  32.515  30.658  1.00  0.00    -0.206 F 
ATOM     91  C   UNL A   1      47.983  35.629  28.956  1.00  0.00     0.060 A 
BRANCH  91  92
ATOM     92  S   UNL A   1      48.576  37.296  29.311  1.00  0.00     0.124 S 
ATOM     93  O   UNL A   1      47.921  38.071  28.264  1.00  0.00    -0.237 OA
ATOM     94  O   UNL A   1      48.086  37.510  30.669  1.00  0.00    -0.237 OA
ATOM     95  O   UNL A   1      50.026  37.168  29.189  1.00  0.00    -0.744 OA
ENDBRANCH  91  92
ENDBRANCH  59  84
BRANCH  71  96
ATOM     96  C   UNL A   1      49.890  27.133  26.134  1.00  0.00     0.058 A 
ATOM     97  C   UNL A   1      50.879  26.645  27.001  1.00  0.00     0.135 A 
ATOM     98  C   UNL A   1      50.208  27.240  24.769  1.00  0.00     0.135 A 
ATOM     99  F   UNL A   1      50.629  26.531  28.315  1.00  0.00    -0.206 F 
ATOM    100  C   UNL A   1      52.141  26.288  26.534  1.00  0.00     0.059 A 
ATOM    101  C   UNL A   1      51.453  26.864  24.277  1.00  0.00     0.059 A 
ATOM    102  F   UNL A   1      49.294  27.693  23.896  1.00  0.00    -0.206 F 
ATOM    103  C   UNL A   1      52.416  26.397  25.169  1.00  0.00     0.060 A 
BRANCH 103 104
ATOM    104  S   UNL A   1      54.040  25.885  24.570  1.00  0.00     0.124 S 
ATOM    105  O   UNL A   1      54.021  24.455  24.856  1.00  0.00    -0.237 OA
ATOM    106  O   UNL A   1      53.980  26.250  23.158  1.00  0.00    -0.237 OA
ATOM    107  O   UNL A   1      54.965  26.675  25.377  1.00  0.00    -0.744 OA
ENDBRANCH 103 104
ENDBRANCH  71  96
ENDBRANCH  45  46
ENDBRANCH  37  40
ENDBRANCH  35  36
ENDBRANCH  34  35
ENDBRANCH  33  34
ENDBRANCH   1  33
TORSDOF 20
ENDMDL
MODEL 3
REMARK VINA RESULT:     -12.1      6.263     11.655
REMARK SMILES Cc1ncc(CC(=O)N2CCC(Cc3cccc(C(=O)NCCCCCCNC(=O)c4ccc(-c5c6nc(c(-c7c(F)cc(S(=O)(=O)[O-])cc7F)c7ccc([nH]7)c(-c7c(F)cc(S(=O)(=O)[O-])cc7F)c7nc(c(-c8c(F)cc(S(=O)(=O)[O-])cc8F)c8ccc5[nH]8)C=C7)C=C6)cc4)c3)CC2)c(=O)[nH]1
REMARK SMILES IDX 24 1 23 2 22 3 21 4 19 5 20 6 18 8 14 9 15 10 97 11 16 12
REMARK SMILES IDX 17 13 13 14 12 15 7 16 8 17 9 18 10 19 99 20 11 21 98 22
REMARK SMILES IDX 6 23 5 24 1 25 2 26 3 27 102 28 4 29 100 30 101 32 25 33
REMARK SMILES IDX 26 34 27 35 28 36 29 37 30 39 31 40 32 41 96 42 33 43 95 44
REMARK SMILES IDX 34 45 35 46 36 47 89 48 37 49 94 50 88 51 90 52 38 53 93 54
REMARK SMILES IDX 87 55 86 56 39 58 73 59 52 60 72 61 53 62 56 63 71 64 91 65
REMARK SMILES IDX 54 66 55 67 70 69 92 70 57 71 40 72 41 73 50 74 42 75 43 76
REMARK SMILES IDX 49 77 51 78 44 79 45 80 46 81 47 82 48 83 74 84 75 85 84 86
REMARK SMILES IDX 76 87 77 88 83 89 85 90 78 91 79 92 80 93 81 94 82 95 58 96
REMARK SMILES IDX 59 97 68 98 60 99 61 100 67 101 69 102 62 103 63 104 64 105
REMARK SMILES IDX 65 106 66 107
REMARK H PARENT 21 7 102 31 28 38 90 57 56 68
REMARK Flexibility Score: inf
ROOT
ATOM      1  C   UNL A   1      38.853  23.093  26.595  1.00  0.00     0.002 C 
ENDROOT
BRANCH   1   2
ATOM      2  C   UNL A   1      37.801  22.947  25.498  1.00  0.00     0.021 C 
BRANCH   2   3
ATOM      3  C   UNL A   1      36.932  21.697  25.540  1.00  0.00     0.116 C 
BRANCH   3   4
ATOM      4  N   UNL A   1      35.880  21.714  26.547  1.00  0.00    -0.352 N 
ATOM      5  C   UNL A   1      34.511  21.574  26.438  1.00  0.00     0.251 C 
ATOM      6  O   UNL A   1      33.828  21.645  27.459  1.00  0.00    -0.269 OA
ATOM      7  H   UNL A   1      36.203  21.850  27.468  1.00  0.00     0.163 HD
BRANCH   5   8
ATOM      8  C   UNL A   1      33.829  21.401  25.121  1.00  0.00     0.040 A 
ATOM      9  C   UNL A   1      33.238  22.265  22.918  1.00  0.00    -0.047 A 
ATOM     10  C   UNL A   1      32.288  21.248  22.787  1.00  0.00     0.004 A 
ATOM     11  C   UNL A   1      34.062  22.260  24.051  1.00  0.00     0.017 A 
ATOM     12  C   UNL A   1      32.154  20.275  23.782  1.00  0.00     0.001 A 
ATOM     13  C   UNL A   1      32.903  20.367  24.960  1.00  0.00     0.014 A 
BRANCH   9  14
ATOM     14  C   UNL A   1      33.252  23.430  21.948  1.00  0.00     0.039 C 
BRANCH  14  15
ATOM     15  C   UNL A   1      32.158  24.488  22.165  1.00  0.00    -0.003 C 
ATOM     16  C   UNL A   1      31.128  27.213  24.936  1.00  0.00     0.227 C 
ATOM     17  O   UNL A   1      31.092  26.545  25.978  1.00  0.00    -0.275 OA
ATOM     18  N   UNL A   1      30.936  26.597  23.703  1.00  0.00    -0.342 N 
ATOM     19  C   UNL A   1      30.316  25.277  23.690  1.00  0.00     0.120 C 
ATOM     20  C   UNL A   1      31.636  26.928  22.463  1.00  0.00     0.120 C 
ATOM     21  C   UNL A   1      31.359  24.195  23.446  1.00  0.00     0.025 C 
ATOM     22  C   UNL A   1      32.747  25.906  22.207  1.00  0.00     0.025 C 
BRANCH  16  23
ATOM     23  C   UNL A   1      31.112  28.744  25.034  1.00  0.00     0.143 C 
BRANCH  23  24
ATOM     24  C   UNL A   1      32.185  29.401  25.825  1.00  0.00     0.045 A 
ATOM     25  C   UNL A   1      35.251  31.477  27.871  1.00  0.00     0.087 C 
ATOM     26  C   UNL A   1      34.137  30.743  27.187  1.00  0.00     0.105 A 
ATOM     27  N   UNL A   1      32.907  31.069  27.400  1.00  0.00    -0.243 NA
ATOM     28  N   UNL A   1      34.507  29.760  26.315  1.00  0.00    -0.311 N 
ATOM     29  C   UNL A   1      31.950  30.348  26.744  1.00  0.00     0.123 A 
ATOM     30  C   UNL A   1      33.599  29.063  25.568  1.00  0.00     0.254 A 
ATOM     31  H   UNL A   1      35.463  29.544  26.221  1.00  0.00     0.171 HD
ATOM     32  O   UNL A   1      33.940  28.255  24.715  1.00  0.00    -0.269 OA
ENDBRANCH  23  24
ENDBRANCH  16  23
ENDBRANCH  14  15
ENDBRANCH   9  14
ENDBRANCH   5   8
ENDBRANCH   3   4
ENDBRANCH   2   3
ENDBRANCH   1   2
BRANCH   1  33
ATOM     33  C   UNL A   1      40.083  22.187  26.492  1.00  0.00     0.002 C 
BRANCH  33  34
ATOM     34  C   UNL A   1      41.078  22.246  27.653  1.00  0.00     0.021 C 
BRANCH  34  35
ATOM     35  C   UNL A   1      41.940  23.503  27.736  1.00  0.00     0.116 C 
BRANCH  35  36
ATOM     36  N   UNL A   1      41.999  24.234  26.483  1.00  0.00    -0.352 N 
ATOM     37  C   UNL A   1      41.713  25.557  26.227  1.00  0.00     0.251 C 
ATOM     38  H   UNL A   1      42.287  23.708  25.702  1.00  0.00     0.163 HD
ATOM     39  O   UNL A   1      41.692  25.968  25.077  1.00  0.00    -0.269 OA
BRANCH  37  40
ATOM     40  C   UNL A   1      41.401  26.472  27.350  1.00  0.00     0.039 A 
ATOM     41  C   UNL A   1      40.310  26.181  28.173  1.00  0.00     0.014 A 
ATOM     42  C   UNL A   1      42.181  27.606  27.595  1.00  0.00     0.014 A 
ATOM     43  C   UNL A   1      40.048  26.985  29.287  1.00  0.00     0.010 A 
ATOM     44  C   UNL A   1      41.960  28.364  28.743  1.00  0.00     0.010 A 
ATOM     45  C   UNL A   1      40.896  28.058  29.605  1.00  0.00    -0.014 A 
BRANCH  45  46
ATOM     46  C   UNL A   1      40.696  28.866  30.838  1.00  0.00     0.031 A 
ATOM     47  C   UNL A   1      39.640  29.938  30.874  1.00  0.00     0.074 A 
ATOM     48  C   UNL A   1      41.509  28.684  31.899  1.00  0.00     0.049 A 
ATOM     49  N   UNL A   1      39.395  30.826  31.802  1.00  0.00    -0.248 NA
ATOM     50  C   UNL A   1      38.761  30.041  29.698  1.00  0.00     0.031 C 
ATOM     51  C   UNL A   1      42.592  27.701  31.973  1.00  0.00     0.029 A 
ATOM     52  N   UNL A   1      41.563  29.326  33.112  1.00  0.00    -0.354 N 
ATOM     53  C   UNL A   1      38.349  31.603  31.318  1.00  0.00     0.074 A 
ATOM     54  C   UNL A   1      38.038  31.112  29.993  1.00  0.00     0.031 C 
ATOM     55  C   UNL A   1      43.189  27.793  33.173  1.00  0.00     0.029 A 
ATOM     56  C   UNL A   1      42.570  28.873  33.935  1.00  0.00     0.049 A 
ATOM     57  H   UNL A   1      40.939  30.044  33.369  1.00  0.00     0.167 HD
ATOM     58  C   UNL A   1      37.698  32.621  31.929  1.00  0.00     0.037 A 
ATOM     59  C   UNL A   1      42.968  29.297  35.151  1.00  0.00     0.037 A 
ATOM     60  C   UNL A   1      37.995  33.085  33.259  1.00  0.00     0.049 A 
ATOM     61  C   UNL A   1      42.254  30.456  35.792  1.00  0.00     0.074 A 
ATOM     62  C   UNL A   1      37.353  34.068  33.991  1.00  0.00     0.029 A 
ATOM     63  N   UNL A   1      39.020  32.598  34.059  1.00  0.00    -0.354 N 
ATOM     64  N   UNL A   1      41.242  31.155  35.334  1.00  0.00    -0.248 NA
ATOM     65  C   UNL A   1      42.737  30.889  37.110  1.00  0.00     0.031 C 
ATOM     66  C   UNL A   1      38.018  34.209  35.214  1.00  0.00     0.029 A 
ATOM     67  C   UNL A   1      39.041  33.276  35.266  1.00  0.00     0.049 A 
ATOM     68  H   UNL A   1      39.639  31.876  33.805  1.00  0.00     0.167 HD
ATOM     69  C   UNL A   1      40.942  32.082  36.324  1.00  0.00     0.074 A 
ATOM     70  C   UNL A   1      41.882  31.860  37.404  1.00  0.00     0.031 C 
ATOM     71  C   UNL A   1      39.970  33.028  36.341  1.00  0.00     0.037 A 
BRANCH  58  72
ATOM     72  C   UNL A   1      36.597  33.306  31.165  1.00  0.00     0.058 A 
ATOM     73  C   UNL A   1      36.868  34.172  30.094  1.00  0.00     0.135 A 
ATOM     74  C   UNL A   1      35.251  33.068  31.486  1.00  0.00     0.135 A 
ATOM     75  F   UNL A   1      38.138  34.447  29.751  1.00  0.00    -0.206 F 
ATOM     76  C   UNL A   1      35.848  34.803  29.390  1.00  0.00     0.059 A 
ATOM     77  C   UNL A   1      34.212  33.665  30.778  1.00  0.00     0.059 A 
ATOM     78  F   UNL A   1      34.932  32.249  32.502  1.00  0.00    -0.206 F 
ATOM     79  C   UNL A   1      34.522  34.545  29.741  1.00  0.00     0.060 A 
BRANCH  79  80
ATOM     80  S   UNL A   1      33.208  35.372  28.820  1.00  0.00     0.124 S 
ATOM     81  O   UNL A   1      32.430  35.968  29.900  1.00  0.00    -0.237 OA
ATOM     82  O   UNL A   1      33.954  36.307  27.984  1.00  0.00    -0.237 OA
ATOM     83  O   UNL A   1      32.555  34.280  28.104  1.00  0.00    -0.744 OA
ENDBRANCH  79  80
ENDBRANCH  58  72
BRANCH  59  84
ATOM     84  C   UNL A   1      44.127  28.648  35.826  1.00  0.00     0.058 A 
ATOM     85  C   UNL A   1      45.449  29.050  35.595  1.00  0.00     0.135 A 
ATOM     86  C   UNL A   1      43.924  27.599  36.732  1.00  0.00     0.135 A 
ATOM     87  F   UNL A   1      45.705  30.040  34.726  1.00  0.00    -0.206 F 
ATOM     88  C   UNL A   1      46.521  28.429  36.232  1.00  0.00     0.059 A 
ATOM     89  C   UNL A   1      44.970  26.977  37.400  1.00  0.00     0.059 A 
ATOM     90  F   UNL A   1      42.679  27.195  36.998  1.00  0.00    -0.206 F 
ATOM     91  C   UNL A   1      46.271  27.396  37.138  1.00  0.00     0.060 A 
BRANCH  91  92
ATOM     92  S   UNL A   1      47.656  26.634  38.007  1.00  0.00     0.124 S 
ATOM     93  O   UNL A   1      47.015  26.168  39.232  1.00  0.00    -0.237 OA
ATOM     94  O   UNL A   1      48.073  25.599  37.067  1.00  0.00    -0.237 OA
ATOM     95  O   UNL A   1      48.597  27.739  38.168  1.00  0.00    -0.744 OA
ENDBRANCH  91  92
ENDBRANCH  59  84
BRANCH  71  96
ATOM     96  C   UNL A   1      39.825  33.852  37.589  1.00  0.00     0.058 A 
ATOM     97  C   UNL A   1      40.470  35.089  37.743  1.00  0.00     0.135 A 
ATOM     98  C   UNL A   1      38.974  33.423  38.621  1.00  0.00     0.135 A 
ATOM     99  F   UNL A   1      41.299  35.542  36.789  1.00  0.00    -0.206 F 
ATOM    100  C   UNL A   1      40.288  35.865  38.884  1.00  0.00     0.059 A 
ATOM    101  C   UNL A   1      38.757  34.193  39.758  1.00  0.00     0.059 A 
ATOM    102  F   UNL A   1      38.326  32.251  38.520  1.00  0.00    -0.206 F 
ATOM    103  C   UNL A   1      39.426  35.410  39.884  1.00  0.00     0.060 A 
BRANCH 103 104
ATOM    104  S   UNL A   1      39.161  36.448  41.337  1.00  0.00     0.124 S 
ATOM    105  O   UNL A   1      38.918  37.750  40.727  1.00  0.00    -0.237 OA
ATOM    106  O   UNL A   1      38.006  35.815  41.966  1.00  0.00    -0.237 OA
ATOM    107  O   UNL A   1      40.415  36.324  42.075  1.00  0.00    -0.744 OA
ENDBRANCH 103 104
ENDBRANCH  71  96
ENDBRANCH  45  46
ENDBRANCH  37  40
ENDBRANCH  35  36
ENDBRANCH  34  35
ENDBRANCH  33  34
ENDBRANCH   1  33
TORSDOF 20
ENDMDL
