MODEL 1
REMARK VINA RESULT:     -11.4      0.000      0.000
REMARK SMILES Cn1ccc(C(=O)NCc2ccc(C(=O)NCCCCCCNC(=O)c3ccc(-c4c5nc(c(-c6c(F)cc(S(=O)(=O)[O-])cc6F)c6ccc([nH]6)c(-c6c(F)cc(S(=O)(=O)[O-])cc6F)c6nc(c(-c7c(F)cc(S(=O)(=O)[O-])cc7F)c7ccc4[nH]7)C=C6)C=C5)cc3)cc2)cc1=O
REMARK SMILES IDX 19 1 18 2 17 3 16 4 14 5 15 6 13 8 10 9 11 10 93 11 12 12
REMARK SMILES IDX 92 13 9 14 8 15 6 16 7 17 5 19 1 20 2 21 3 22 95 23 4 24
REMARK SMILES IDX 94 25 96 26 20 27 21 28 22 29 23 30 24 31 25 33 26 34 27 35
REMARK SMILES IDX 91 36 28 37 90 38 29 39 30 40 31 41 84 42 32 43 89 44 83 45
REMARK SMILES IDX 85 46 33 47 88 48 82 49 81 50 34 52 68 53 47 54 67 55 48 56
REMARK SMILES IDX 51 57 66 58 86 59 49 60 50 61 65 63 87 64 52 65 35 66 36 67
REMARK SMILES IDX 45 68 37 69 38 70 44 71 46 72 39 73 40 74 41 75 42 76 43 77
REMARK SMILES IDX 69 78 70 79 79 80 71 81 72 82 78 83 80 84 73 85 74 86 75 87
REMARK SMILES IDX 76 88 77 89 53 90 54 91 63 92 55 93 56 94 62 95 64 96 57 97
REMARK SMILES IDX 58 98 59 99 60 100 61 101
REMARK H PARENT 16 7 8 18 23 32 85 51 51 62
REMARK Flexibility Score: inf
ROOT
ATOM      1  C   UNL A   1      34.011  27.483  24.867  1.00  0.00     0.002 C 
ENDROOT
BRANCH   1   2
ATOM      2  C   UNL A   1      33.737  28.769  24.077  1.00  0.00     0.021 C 
BRANCH   2   3
ATOM      3  C   UNL A   1      33.482  28.531  22.586  1.00  0.00     0.116 C 
BRANCH   3   4
ATOM      4  N   UNL A   1      32.087  28.772  22.263  1.00  0.00    -0.352 N 
ATOM      5  C   UNL A   1      30.953  28.026  22.458  1.00  0.00     0.251 C 
ATOM      6  O   UNL A   1      29.877  28.518  22.114  1.00  0.00    -0.269 OA
ATOM      7  H   UNL A   1      31.924  29.636  21.820  1.00  0.00     0.163 HD
BRANCH   5   8
ATOM      8  C   UNL A   1      30.957  26.678  23.094  1.00  0.00     0.039 A 
ATOM      9  C   UNL A   1      30.896  24.184  24.450  1.00  0.00    -0.029 A 
ATOM     10  C   UNL A   1      30.365  25.333  25.047  1.00  0.00     0.006 A 
ATOM     11  C   UNL A   1      31.405  24.295  23.146  1.00  0.00     0.006 A 
ATOM     12  C   UNL A   1      30.403  26.565  24.380  1.00  0.00     0.014 A 
ATOM     13  C   UNL A   1      31.415  25.519  22.471  1.00  0.00     0.014 A 
BRANCH   9  14
ATOM     14  C   UNL A   1      30.829  22.846  25.155  1.00  0.00     0.152 C 
BRANCH  14  15
ATOM     15  N   UNL A   1      31.308  22.938  26.520  1.00  0.00    -0.348 N 
ATOM     16  C   UNL A   1      32.488  22.691  27.135  1.00  0.00     0.251 C 
ATOM     17  O   UNL A   1      32.478  22.733  28.369  1.00  0.00    -0.269 OA
ATOM     18  H   UNL A   1      30.615  23.253  27.145  1.00  0.00     0.164 HD
BRANCH  16  19
ATOM     19  C   UNL A   1      33.787  22.497  26.415  1.00  0.00     0.046 A 
ATOM     20  C   UNL A   1      37.507  21.455  24.641  1.00  0.00     0.153 C 
ATOM     21  N   UNL A   1      36.222  21.835  25.204  1.00  0.00    -0.319 N 
ATOM     22  C   UNL A   1      35.312  20.839  25.494  1.00  0.00     0.089 A 
ATOM     23  C   UNL A   1      35.932  23.179  25.416  1.00  0.00     0.251 A 
ATOM     24  C   UNL A   1      34.143  21.126  26.073  1.00  0.00     0.032 A 
ATOM     25  C   UNL A   1      34.602  23.484  26.015  1.00  0.00     0.085 A 
ATOM     26  O   UNL A   1      36.697  24.110  25.175  1.00  0.00    -0.269 OA
ENDBRANCH  16  19
ENDBRANCH  14  15
ENDBRANCH   9  14
ENDBRANCH   5   8
ENDBRANCH   3   4
ENDBRANCH   2   3
ENDBRANCH   1   2
BRANCH   1  27
ATOM     27  C   UNL A   1      33.537  27.508  26.325  1.00  0.00     0.002 C 
BRANCH  27  28
ATOM     28  C   UNL A   1      33.714  28.850  27.043  1.00  0.00     0.021 C 
BRANCH  28  29
ATOM     29  C   UNL A   1      35.151  29.163  27.451  1.00  0.00     0.116 C 
BRANCH  29  30
ATOM     30  N   UNL A   1      35.200  30.011  28.635  1.00  0.00    -0.352 N 
ATOM     31  C   UNL A   1      36.235  30.220  29.507  1.00  0.00     0.251 C 
ATOM     32  H   UNL A   1      34.372  30.503  28.836  1.00  0.00     0.163 HD
ATOM     33  O   UNL A   1      36.022  30.774  30.589  1.00  0.00    -0.269 OA
BRANCH  31  34
ATOM     34  C   UNL A   1      37.601  29.777  29.160  1.00  0.00     0.039 A 
ATOM     35  C   UNL A   1      38.021  29.844  27.830  1.00  0.00     0.014 A 
ATOM     36  C   UNL A   1      38.460  29.283  30.146  1.00  0.00     0.014 A 
ATOM     37  C   UNL A   1      39.325  29.471  27.497  1.00  0.00     0.010 A 
ATOM     38  C   UNL A   1      39.780  28.975  29.823  1.00  0.00     0.010 A 
ATOM     39  C   UNL A   1      40.226  29.066  28.496  1.00  0.00    -0.014 A 
BRANCH  39  40
ATOM     40  C   UNL A   1      41.642  28.757  28.174  1.00  0.00     0.031 A 
ATOM     41  C   UNL A   1      42.050  27.356  27.802  1.00  0.00     0.074 A 
ATOM     42  C   UNL A   1      42.572  29.726  28.286  1.00  0.00     0.049 A 
ATOM     43  N   UNL A   1      43.244  26.885  27.552  1.00  0.00    -0.248 NA
ATOM     44  C   UNL A   1      40.980  26.348  27.728  1.00  0.00     0.031 C 
ATOM     45  C   UNL A   1      42.305  31.108  28.693  1.00  0.00     0.029 A 
ATOM     46  N   UNL A   1      43.928  29.698  28.083  1.00  0.00    -0.354 N 
ATOM     47  C   UNL A   1      43.074  25.528  27.306  1.00  0.00     0.074 A 
ATOM     48  C   UNL A   1      41.666  25.241  27.482  1.00  0.00     0.031 C 
ATOM     49  C   UNL A   1      43.459  31.797  28.697  1.00  0.00     0.029 A 
ATOM     50  C   UNL A   1      44.550  30.900  28.329  1.00  0.00     0.049 A 
ATOM     51  H   UNL A   1      44.412  28.892  27.788  1.00  0.00     0.167 HD
ATOM     52  C   UNL A   1      44.003  24.610  26.948  1.00  0.00     0.037 A 
ATOM     53  C   UNL A   1      45.853  31.239  28.279  1.00  0.00     0.037 A 
ATOM     54  C   UNL A   1      45.398  24.910  26.750  1.00  0.00     0.049 A 
ATOM     55  C   UNL A   1      46.863  30.204  27.870  1.00  0.00     0.074 A 
ATOM     56  C   UNL A   1      46.404  24.067  26.312  1.00  0.00     0.029 A 
ATOM     57  N   UNL A   1      45.985  26.145  26.984  1.00  0.00    -0.354 N 
ATOM     58  N   UNL A   1      46.672  28.944  27.560  1.00  0.00    -0.248 NA
ATOM     59  C   UNL A   1      48.266  30.634  27.799  1.00  0.00     0.031 C 
ATOM     60  C   UNL A   1      47.609  24.778  26.328  1.00  0.00     0.029 A 
ATOM     61  C   UNL A   1      47.344  26.079  26.726  1.00  0.00     0.049 A 
ATOM     62  H   UNL A   1      45.506  26.949  27.289  1.00  0.00     0.167 HD
ATOM     63  C   UNL A   1      47.925  28.436  27.238  1.00  0.00     0.074 A 
ATOM     64  C   UNL A   1      48.865  29.531  27.372  1.00  0.00     0.031 C 
ATOM     65  C   UNL A   1      48.268  27.178  26.866  1.00  0.00     0.037 A 
BRANCH  52  66
ATOM     66  C   UNL A   1      43.547  23.190  26.743  1.00  0.00     0.058 A 
ATOM     67  C   UNL A   1      43.496  22.609  25.466  1.00  0.00     0.135 A 
ATOM     68  C   UNL A   1      43.207  22.384  27.842  1.00  0.00     0.135 A 
ATOM     69  F   UNL A   1      43.797  23.336  24.378  1.00  0.00    -0.206 F 
ATOM     70  C   UNL A   1      43.101  21.287  25.283  1.00  0.00     0.059 A 
ATOM     71  C   UNL A   1      42.836  21.052  27.686  1.00  0.00     0.059 A 
ATOM     72  F   UNL A   1      43.238  22.890  29.085  1.00  0.00    -0.206 F 
ATOM     73  C   UNL A   1      42.775  20.515  26.400  1.00  0.00     0.060 A 
BRANCH  73  74
ATOM     74  S   UNL A   1      42.281  18.798  26.146  1.00  0.00     0.124 S 
ATOM     75  O   UNL A   1      40.883  18.951  25.756  1.00  0.00    -0.237 OA
ATOM     76  O   UNL A   1      43.190  18.364  25.090  1.00  0.00    -0.237 OA
ATOM     77  O   UNL A   1      42.503  18.183  27.451  1.00  0.00    -0.744 OA
ENDBRANCH  73  74
ENDBRANCH  52  66
BRANCH  53  78
ATOM     78  C   UNL A   1      46.271  32.627  28.618  1.00  0.00     0.058 A 
ATOM     79  C   UNL A   1      46.665  32.967  29.920  1.00  0.00     0.135 A 
ATOM     80  C   UNL A   1      46.297  33.636  27.643  1.00  0.00     0.135 A 
ATOM     81  F   UNL A   1      46.653  32.038  30.889  1.00  0.00    -0.206 F 
ATOM     82  C   UNL A   1      47.053  34.261  30.250  1.00  0.00     0.059 A 
ATOM     83  C   UNL A   1      46.706  34.932  27.941  1.00  0.00     0.059 A 
ATOM     84  F   UNL A   1      45.947  33.358  26.377  1.00  0.00    -0.206 F 
ATOM     85  C   UNL A   1      47.072  35.238  29.252  1.00  0.00     0.060 A 
BRANCH  85  86
ATOM     86  S   UNL A   1      47.620  36.904  29.679  1.00  0.00     0.124 S 
ATOM     87  O   UNL A   1      48.049  37.413  28.382  1.00  0.00    -0.237 OA
ATOM     88  O   UNL A   1      46.404  37.496  30.228  1.00  0.00    -0.237 OA
ATOM     89  O   UNL A   1      48.685  36.669  30.649  1.00  0.00    -0.744 OA
ENDBRANCH  85  86
ENDBRANCH  53  78
BRANCH  65  90
ATOM     90  C   UNL A   1      49.717  26.919  26.556  1.00  0.00     0.058 A 
ATOM     91  C   UNL A   1      50.635  26.581  27.562  1.00  0.00     0.135 A 
ATOM     92  C   UNL A   1      50.180  26.961  25.231  1.00  0.00     0.135 A 
ATOM     93  F   UNL A   1      50.245  26.535  28.846  1.00  0.00    -0.206 F 
ATOM     94  C   UNL A   1      51.969  26.316  27.267  1.00  0.00     0.059 A 
ATOM     95  C   UNL A   1      51.503  26.672  24.911  1.00  0.00     0.059 A 
ATOM     96  F   UNL A   1      49.341  27.270  24.230  1.00  0.00    -0.206 F 
ATOM     97  C   UNL A   1      52.393  26.362  25.939  1.00  0.00     0.060 A 
BRANCH  97  98
ATOM     98  S   UNL A   1      54.118  25.983  25.568  1.00  0.00     0.124 S 
ATOM     99  O   UNL A   1      54.682  25.838  26.905  1.00  0.00    -0.237 OA
ATOM    100  O   UNL A   1      54.009  24.754  24.789  1.00  0.00    -0.237 OA
ATOM    101  O   UNL A   1      54.569  27.153  24.819  1.00  0.00    -0.744 OA
ENDBRANCH  97  98
ENDBRANCH  65  90
ENDBRANCH  39  40
ENDBRANCH  31  34
ENDBRANCH  29  30
ENDBRANCH  28  29
ENDBRANCH  27  28
ENDBRANCH   1  27
TORSDOF 19
ENDMDL
MODEL 2
REMARK VINA RESULT:     -11.4      1.661      2.736
REMARK SMILES Cn1ccc(C(=O)NCc2ccc(C(=O)NCCCCCCNC(=O)c3ccc(-c4c5nc(c(-c6c(F)cc(S(=O)(=O)[O-])cc6F)c6ccc([nH]6)c(-c6c(F)cc(S(=O)(=O)[O-])cc6F)c6nc(c(-c7c(F)cc(S(=O)(=O)[O-])cc7F)c7ccc4[nH]7)C=C6)C=C5)cc3)cc2)cc1=O
REMARK SMILES IDX 19 1 18 2 17 3 16 4 14 5 15 6 13 8 10 9 11 10 93 11 12 12
REMARK SMILES IDX 92 13 9 14 8 15 6 16 7 17 5 19 1 20 2 21 3 22 95 23 4 24
REMARK SMILES IDX 94 25 96 26 20 27 21 28 22 29 23 30 24 31 25 33 26 34 27 35
REMARK SMILES IDX 91 36 28 37 90 38 29 39 30 40 31 41 84 42 32 43 89 44 83 45
REMARK SMILES IDX 85 46 33 47 88 48 82 49 81 50 34 52 68 53 47 54 67 55 48 56
REMARK SMILES IDX 51 57 66 58 86 59 49 60 50 61 65 63 87 64 52 65 35 66 36 67
REMARK SMILES IDX 45 68 37 69 38 70 44 71 46 72 39 73 40 74 41 75 42 76 43 77
REMARK SMILES IDX 69 78 70 79 79 80 71 81 72 82 78 83 80 84 73 85 74 86 75 87
REMARK SMILES IDX 76 88 77 89 53 90 54 91 63 92 55 93 56 94 62 95 64 96 57 97
REMARK SMILES IDX 58 98 59 99 60 100 61 101
REMARK H PARENT 16 7 8 18 23 32 85 51 51 62
REMARK Flexibility Score: inf
ROOT
ATOM      1  C   UNL A   1      35.608  32.629  27.990  1.00  0.00     0.002 C 
ENDROOT
BRANCH   1   2
ATOM      2  C   UNL A   1      35.631  31.130  28.313  1.00  0.00     0.021 C 
BRANCH   2   3
ATOM      3  C   UNL A   1      34.587  30.319  27.540  1.00  0.00     0.116 C 
BRANCH   3   4
ATOM      4  N   UNL A   1      33.432  31.143  27.229  1.00  0.00    -0.352 N 
ATOM      5  C   UNL A   1      32.187  30.840  26.741  1.00  0.00     0.251 C 
ATOM      6  O   UNL A   1      31.380  31.762  26.617  1.00  0.00    -0.269 OA
ATOM      7  H   UNL A   1      33.570  32.103  27.401  1.00  0.00     0.163 HD
BRANCH   5   8
ATOM      8  C   UNL A   1      31.757  29.456  26.391  1.00  0.00     0.039 A 
ATOM      9  C   UNL A   1      30.910  26.877  25.560  1.00  0.00    -0.029 A 
ATOM     10  C   UNL A   1      31.023  27.922  24.636  1.00  0.00     0.006 A 
ATOM     11  C   UNL A   1      31.279  27.132  26.891  1.00  0.00     0.006 A 
ATOM     12  C   UNL A   1      31.434  29.197  25.049  1.00  0.00     0.014 A 
ATOM     13  C   UNL A   1      31.717  28.397  27.294  1.00  0.00     0.014 A 
BRANCH   9  14
ATOM     14  C   UNL A   1      30.496  25.491  25.113  1.00  0.00     0.152 C 
BRANCH  14  15
ATOM     15  N   UNL A   1      30.037  24.686  26.228  1.00  0.00    -0.348 N 
ATOM     16  C   UNL A   1      30.364  23.470  26.724  1.00  0.00     0.251 C 
ATOM     17  O   UNL A   1      29.631  23.030  27.614  1.00  0.00    -0.269 OA
ATOM     18  H   UNL A   1      29.321  25.124  26.742  1.00  0.00     0.164 HD
BRANCH  16  19
ATOM     19  C   UNL A   1      31.600  22.712  26.346  1.00  0.00     0.046 A 
ATOM     20  C   UNL A   1      35.390  21.020  25.428  1.00  0.00     0.153 C 
ATOM     21  N   UNL A   1      34.077  21.552  25.756  1.00  0.00    -0.319 N 
ATOM     22  C   UNL A   1      33.971  22.430  26.814  1.00  0.00     0.089 A 
ATOM     23  C   UNL A   1      32.967  21.153  25.018  1.00  0.00     0.251 A 
ATOM     24  C   UNL A   1      32.802  23.001  27.118  1.00  0.00     0.032 A 
ATOM     25  C   UNL A   1      31.661  21.759  25.405  1.00  0.00     0.085 A 
ATOM     26  O   UNL A   1      32.996  20.373  24.070  1.00  0.00    -0.269 OA
ENDBRANCH  16  19
ENDBRANCH  14  15
ENDBRANCH   9  14
ENDBRANCH   5   8
ENDBRANCH   3   4
ENDBRANCH   2   3
ENDBRANCH   1   2
BRANCH   1  27
ATOM     27  C   UNL A   1      36.748  33.443  28.615  1.00  0.00     0.002 C 
BRANCH  27  28
ATOM     28  C   UNL A   1      36.547  33.818  30.086  1.00  0.00     0.021 C 
BRANCH  28  29
ATOM     29  C   UNL A   1      37.514  33.136  31.050  1.00  0.00     0.116 C 
BRANCH  29  30
ATOM     30  N   UNL A   1      36.885  32.020  31.743  1.00  0.00    -0.352 N 
ATOM     31  C   UNL A   1      37.171  30.682  31.669  1.00  0.00     0.251 C 
ATOM     32  H   UNL A   1      36.149  32.262  32.350  1.00  0.00     0.163 HD
ATOM     33  O   UNL A   1      36.377  29.860  32.132  1.00  0.00    -0.269 OA
BRANCH  31  34
ATOM     34  C   UNL A   1      38.420  30.224  31.028  1.00  0.00     0.039 A 
ATOM     35  C   UNL A   1      38.532  30.278  29.637  1.00  0.00     0.014 A 
ATOM     36  C   UNL A   1      39.476  29.730  31.800  1.00  0.00     0.014 A 
ATOM     37  C   UNL A   1      39.725  29.892  29.024  1.00  0.00     0.010 A 
ATOM     38  C   UNL A   1      40.688  29.408  31.192  1.00  0.00     0.010 A 
ATOM     39  C   UNL A   1      40.825  29.486  29.798  1.00  0.00    -0.014 A 
BRANCH  39  40
ATOM     40  C   UNL A   1      42.130  29.162  29.169  1.00  0.00     0.031 A 
ATOM     41  C   UNL A   1      42.391  27.784  28.623  1.00  0.00     0.074 A 
ATOM     42  C   UNL A   1      43.106  30.092  29.155  1.00  0.00     0.049 A 
ATOM     43  N   UNL A   1      43.488  27.299  28.099  1.00  0.00    -0.248 NA
ATOM     44  C   UNL A   1      41.285  26.816  28.701  1.00  0.00     0.031 C 
ATOM     45  C   UNL A   1      42.989  31.445  29.705  1.00  0.00     0.029 A 
ATOM     46  N   UNL A   1      44.389  30.041  28.674  1.00  0.00    -0.354 N 
ATOM     47  C   UNL A   1      43.210  25.971  27.798  1.00  0.00     0.074 A 
ATOM     48  C   UNL A   1      41.856  25.712  28.241  1.00  0.00     0.031 C 
ATOM     49  C   UNL A   1      44.148  32.098  29.519  1.00  0.00     0.029 A 
ATOM     50  C   UNL A   1      45.100  31.202  28.871  1.00  0.00     0.049 A 
ATOM     51  H   UNL A   1      44.766  29.247  28.230  1.00  0.00     0.167 HD
ATOM     52  C   UNL A   1      44.006  25.057  27.193  1.00  0.00     0.037 A 
ATOM     53  C   UNL A   1      46.380  31.506  28.577  1.00  0.00     0.037 A 
ATOM     54  C   UNL A   1      45.342  25.331  26.732  1.00  0.00     0.049 A 
ATOM     55  C   UNL A   1      47.238  30.477  27.896  1.00  0.00     0.074 A 
ATOM     56  C   UNL A   1      46.200  24.497  26.037  1.00  0.00     0.029 A 
ATOM     57  N   UNL A   1      46.019  26.527  26.926  1.00  0.00    -0.354 N 
ATOM     58  N   UNL A   1      46.932  29.251  27.544  1.00  0.00    -0.248 NA
ATOM     59  C   UNL A   1      48.615  30.871  27.566  1.00  0.00     0.031 C 
ATOM     60  C   UNL A   1      47.413  25.169  25.854  1.00  0.00     0.029 A 
ATOM     61  C   UNL A   1      47.293  26.442  26.389  1.00  0.00     0.049 A 
ATOM     62  H   UNL A   1      45.648  27.319  27.379  1.00  0.00     0.167 HD
ATOM     63  C   UNL A   1      48.069  28.735  26.934  1.00  0.00     0.074 A 
ATOM     64  C   UNL A   1      49.065  29.788  26.948  1.00  0.00     0.031 C 
ATOM     65  C   UNL A   1      48.274  27.500  26.412  1.00  0.00     0.037 A 
BRANCH  52  66
ATOM     66  C   UNL A   1      43.455  23.672  26.987  1.00  0.00     0.058 A 
ATOM     67  C   UNL A   1      43.097  23.202  25.713  1.00  0.00     0.135 A 
ATOM     68  C   UNL A   1      43.332  22.785  28.069  1.00  0.00     0.135 A 
ATOM     69  F   UNL A   1      43.180  24.011  24.645  1.00  0.00    -0.206 F 
ATOM     70  C   UNL A   1      42.615  21.910  25.523  1.00  0.00     0.059 A 
ATOM     71  C   UNL A   1      42.878  21.480  27.898  1.00  0.00     0.059 A 
ATOM     72  F   UNL A   1      43.659  23.182  29.308  1.00  0.00    -0.206 F 
ATOM     73  C   UNL A   1      42.511  21.055  26.621  1.00  0.00     0.060 A 
BRANCH  73  74
ATOM     74  S   UNL A   1      41.900  19.378  26.354  1.00  0.00     0.124 S 
ATOM     75  O   UNL A   1      40.456  19.587  26.376  1.00  0.00    -0.237 OA
ATOM     76  O   UNL A   1      42.472  19.042  25.053  1.00  0.00    -0.237 OA
ATOM     77  O   UNL A   1      42.443  18.633  27.485  1.00  0.00    -0.744 OA
ENDBRANCH  73  74
ENDBRANCH  52  66
BRANCH  53  78
ATOM     78  C   UNL A   1      46.920  32.850  28.919  1.00  0.00     0.058 A 
ATOM     79  C   UNL A   1      46.944  33.883  27.971  1.00  0.00     0.135 A 
ATOM     80  C   UNL A   1      47.411  33.130  30.203  1.00  0.00     0.135 A 
ATOM     81  F   UNL A   1      46.491  33.664  26.727  1.00  0.00    -0.206 F 
ATOM     82  C   UNL A   1      47.452  35.142  28.277  1.00  0.00     0.059 A 
ATOM     83  C   UNL A   1      47.900  34.388  30.542  1.00  0.00     0.059 A 
ATOM     84  F   UNL A   1      47.393  32.181  31.152  1.00  0.00    -0.206 F 
ATOM     85  C   UNL A   1      47.927  35.385  29.568  1.00  0.00     0.060 A 
BRANCH  85  86
ATOM     86  S   UNL A   1      48.542  37.034  29.969  1.00  0.00     0.124 S 
ATOM     87  O   UNL A   1      48.431  37.043  31.423  1.00  0.00    -0.237 OA
ATOM     88  O   UNL A   1      49.898  36.995  29.431  1.00  0.00    -0.237 OA
ATOM     89  O   UNL A   1      47.621  37.918  29.259  1.00  0.00    -0.744 OA
ENDBRANCH  85  86
ENDBRANCH  53  78
BRANCH  65  90
ATOM     90  C   UNL A   1      49.616  27.224  25.791  1.00  0.00     0.058 A 
ATOM     91  C   UNL A   1      50.713  26.815  26.564  1.00  0.00     0.135 A 
ATOM     92  C   UNL A   1      49.792  27.322  24.402  1.00  0.00     0.135 A 
ATOM     93  F   UNL A   1      50.600  26.713  27.898  1.00  0.00    -0.206 F 
ATOM     94  C   UNL A   1      51.946  26.535  25.984  1.00  0.00     0.059 A 
ATOM     95  C   UNL A   1      51.008  27.020  23.797  1.00  0.00     0.059 A 
ATOM     96  F   UNL A   1      48.772  27.700  23.615  1.00  0.00    -0.206 F 
ATOM     97  C   UNL A   1      52.083  26.638  24.599  1.00  0.00     0.060 A 
BRANCH  97  98
ATOM     98  S   UNL A   1      53.678  26.240  23.855  1.00  0.00     0.124 S 
ATOM     99  O   UNL A   1      54.473  27.407  24.222  1.00  0.00    -0.237 OA
ATOM    100  O   UNL A   1      54.034  24.994  24.526  1.00  0.00    -0.237 OA
ATOM    101  O   UNL A   1      53.369  26.113  22.433  1.00  0.00    -0.744 OA
ENDBRANCH  97  98
ENDBRANCH  65  90
ENDBRANCH  39  40
ENDBRANCH  31  34
ENDBRANCH  29  30
ENDBRANCH  28  29
ENDBRANCH  27  28
ENDBRANCH   1  27
TORSDOF 19
ENDMDL
MODEL 3
REMARK VINA RESULT:     -11.2      1.089      8.318
REMARK SMILES Cn1ccc(C(=O)NCc2ccc(C(=O)NCCCCCCNC(=O)c3ccc(-c4c5nc(c(-c6c(F)cc(S(=O)(=O)[O-])cc6F)c6ccc([nH]6)c(-c6c(F)cc(S(=O)(=O)[O-])cc6F)c6nc(c(-c7c(F)cc(S(=O)(=O)[O-])cc7F)c7ccc4[nH]7)C=C6)C=C5)cc3)cc2)cc1=O
REMARK SMILES IDX 19 1 18 2 17 3 16 4 14 5 15 6 13 8 10 9 11 10 93 11 12 12
REMARK SMILES IDX 92 13 9 14 8 15 6 16 7 17 5 19 1 20 2 21 3 22 95 23 4 24
REMARK SMILES IDX 94 25 96 26 20 27 21 28 22 29 23 30 24 31 25 33 26 34 27 35
REMARK SMILES IDX 91 36 28 37 90 38 29 39 30 40 31 41 84 42 32 43 89 44 83 45
REMARK SMILES IDX 85 46 33 47 88 48 82 49 81 50 34 52 68 53 47 54 67 55 48 56
REMARK SMILES IDX 51 57 66 58 86 59 49 60 50 61 65 63 87 64 52 65 35 66 36 67
REMARK SMILES IDX 45 68 37 69 38 70 44 71 46 72 39 73 40 74 41 75 42 76 43 77
REMARK SMILES IDX 69 78 70 79 79 80 71 81 72 82 78 83 80 84 73 85 74 86 75 87
REMARK SMILES IDX 76 88 77 89 53 90 54 91 63 92 55 93 56 94 62 95 64 96 57 97
REMARK SMILES IDX 58 98 59 99 60 100 61 101
REMARK H PARENT 16 7 8 18 23 32 85 51 51 62
REMARK Flexibility Score: inf
ROOT
ATOM      1  C   UNL A   1      33.880  28.596  24.729  1.00  0.00     0.002 C 
ENDROOT
BRANCH   1   2
ATOM      2  C   UNL A   1      33.113  28.984  23.459  1.00  0.00     0.021 C 
BRANCH   2   3
ATOM      3  C   UNL A   1      32.991  27.843  22.443  1.00  0.00     0.116 C 
BRANCH   3   4
ATOM      4  N   UNL A   1      31.963  26.904  22.855  1.00  0.00    -0.352 N 
ATOM      5  C   UNL A   1      32.026  25.633  23.367  1.00  0.00     0.251 C 
ATOM      6  O   UNL A   1      30.965  25.085  23.672  1.00  0.00    -0.269 OA
ATOM      7  H   UNL A   1      31.045  27.244  22.745  1.00  0.00     0.163 HD
BRANCH   5   8
ATOM      8  C   UNL A   1      33.305  24.906  23.605  1.00  0.00     0.039 A 
ATOM      9  C   UNL A   1      35.752  23.601  24.214  1.00  0.00    -0.029 A 
ATOM     10  C   UNL A   1      35.129  24.424  25.159  1.00  0.00     0.006 A 
ATOM     11  C   UNL A   1      35.104  23.403  22.984  1.00  0.00     0.006 A 
ATOM     12  C   UNL A   1      33.924  25.074  24.854  1.00  0.00     0.014 A 
ATOM     13  C   UNL A   1      33.888  24.028  22.694  1.00  0.00     0.014 A 
BRANCH   9  14
ATOM     14  C   UNL A   1      37.037  22.874  24.550  1.00  0.00     0.152 C 
BRANCH  14  15
ATOM     15  N   UNL A   1      36.853  21.436  24.542  1.00  0.00    -0.348 N 
ATOM     16  C   UNL A   1      35.904  20.593  25.013  1.00  0.00     0.251 C 
ATOM     17  O   UNL A   1      36.169  19.389  24.959  1.00  0.00    -0.269 OA
ATOM     18  H   UNL A   1      37.589  20.962  24.090  1.00  0.00     0.164 HD
BRANCH  16  19
ATOM     19  C   UNL A   1      34.544  21.028  25.467  1.00  0.00     0.046 A 
ATOM     20  C   UNL A   1      30.590  22.393  26.221  1.00  0.00     0.153 C 
ATOM     21  N   UNL A   1      31.936  21.891  26.001  1.00  0.00    -0.319 N 
ATOM     22  C   UNL A   1      32.217  21.274  24.799  1.00  0.00     0.089 A 
ATOM     23  C   UNL A   1      32.894  22.023  27.000  1.00  0.00     0.251 A 
ATOM     24  C   UNL A   1      33.453  20.853  24.517  1.00  0.00     0.032 A 
ATOM     25  C   UNL A   1      34.254  21.501  26.689  1.00  0.00     0.085 A 
ATOM     26  O   UNL A   1      32.704  22.558  28.090  1.00  0.00    -0.269 OA
ENDBRANCH  16  19
ENDBRANCH  14  15
ENDBRANCH   9  14
ENDBRANCH   5   8
ENDBRANCH   3   4
ENDBRANCH   2   3
ENDBRANCH   1   2
BRANCH   1  27
ATOM     27  C   UNL A   1      33.622  29.500  25.941  1.00  0.00     0.002 C 
BRANCH  27  28
ATOM     28  C   UNL A   1      34.239  29.015  27.256  1.00  0.00     0.021 C 
BRANCH  28  29
ATOM     29  C   UNL A   1      35.437  29.832  27.732  1.00  0.00     0.116 C 
BRANCH  29  30
ATOM     30  N   UNL A   1      35.336  30.160  29.147  1.00  0.00    -0.352 N 
ATOM     31  C   UNL A   1      36.278  30.038  30.134  1.00  0.00     0.251 C 
ATOM     32  H   UNL A   1      34.466  30.521  29.436  1.00  0.00     0.163 HD
ATOM     33  O   UNL A   1      35.941  30.129  31.317  1.00  0.00    -0.269 OA
BRANCH  31  34
ATOM     34  C   UNL A   1      37.691  29.788  29.785  1.00  0.00     0.039 A 
ATOM     35  C   UNL A   1      38.604  29.502  30.802  1.00  0.00     0.014 A 
ATOM     36  C   UNL A   1      38.117  29.850  28.454  1.00  0.00     0.014 A 
ATOM     37  C   UNL A   1      39.932  29.219  30.480  1.00  0.00     0.010 A 
ATOM     38  C   UNL A   1      39.426  29.502  28.129  1.00  0.00     0.010 A 
ATOM     39  C   UNL A   1      40.347  29.183  29.138  1.00  0.00    -0.014 A 
BRANCH  39  40
ATOM     40  C   UNL A   1      41.732  28.791  28.772  1.00  0.00     0.031 A 
ATOM     41  C   UNL A   1      42.823  29.826  28.705  1.00  0.00     0.074 A 
ATOM     42  C   UNL A   1      41.988  27.513  28.430  1.00  0.00     0.049 A 
ATOM     43  N   UNL A   1      44.072  29.684  28.343  1.00  0.00    -0.248 NA
ATOM     44  C   UNL A   1      42.456  31.205  29.067  1.00  0.00     0.031 C 
ATOM     45  C   UNL A   1      40.999  26.432  28.402  1.00  0.00     0.029 A 
ATOM     46  N   UNL A   1      43.151  26.906  28.028  1.00  0.00    -0.354 N 
ATOM     47  C   UNL A   1      44.636  30.952  28.418  1.00  0.00     0.074 A 
ATOM     48  C   UNL A   1      43.581  31.859  28.816  1.00  0.00     0.031 C 
ATOM     49  C   UNL A   1      41.600  25.295  28.016  1.00  0.00     0.029 A 
ATOM     50  C   UNL A   1      43.005  25.570  27.735  1.00  0.00     0.049 A 
ATOM     51  H   UNL A   1      44.010  27.383  27.955  1.00  0.00     0.167 HD
ATOM     52  C   UNL A   1      45.920  31.321  28.193  1.00  0.00     0.037 A 
ATOM     53  C   UNL A   1      43.899  24.671  27.278  1.00  0.00     0.037 A 
ATOM     54  C   UNL A   1      46.969  30.406  27.823  1.00  0.00     0.049 A 
ATOM     55  C   UNL A   1      45.320  25.104  27.046  1.00  0.00     0.074 A 
ATOM     56  C   UNL A   1      48.316  30.668  27.649  1.00  0.00     0.029 A 
ATOM     57  N   UNL A   1      46.788  29.055  27.562  1.00  0.00    -0.354 N 
ATOM     58  N   UNL A   1      45.855  26.291  27.203  1.00  0.00    -0.248 NA
ATOM     59  C   UNL A   1      46.262  24.077  26.581  1.00  0.00     0.031 C 
ATOM     60  C   UNL A   1      48.942  29.487  27.235  1.00  0.00     0.029 A 
ATOM     61  C   UNL A   1      47.994  28.477  27.201  1.00  0.00     0.049 A 
ATOM     62  H   UNL A   1      45.929  28.578  27.623  1.00  0.00     0.167 HD
ATOM     63  C   UNL A   1      47.198  26.150  26.874  1.00  0.00     0.074 A 
ATOM     64  C   UNL A   1      47.398  24.757  26.529  1.00  0.00     0.031 C 
ATOM     65  C   UNL A   1      48.177  27.088  26.858  1.00  0.00     0.037 A 
BRANCH  52  66
ATOM     66  C   UNL A   1      46.270  32.777  28.344  1.00  0.00     0.058 A 
ATOM     67  C   UNL A   1      46.721  33.305  29.564  1.00  0.00     0.135 A 
ATOM     68  C   UNL A   1      46.202  33.644  27.241  1.00  0.00     0.135 A 
ATOM     69  F   UNL A   1      46.793  32.525  30.655  1.00  0.00    -0.206 F 
ATOM     70  C   UNL A   1      47.071  34.646  29.692  1.00  0.00     0.059 A 
ATOM     71  C   UNL A   1      46.573  34.982  27.339  1.00  0.00     0.059 A 
ATOM     72  F   UNL A   1      45.776  33.192  26.051  1.00  0.00    -0.206 F 
ATOM     73  C   UNL A   1      46.996  35.477  28.572  1.00  0.00     0.060 A 
BRANCH  73  74
ATOM     74  S   UNL A   1      47.470  37.209  28.752  1.00  0.00     0.124 S 
ATOM     75  O   UNL A   1      47.796  37.277  30.173  1.00  0.00    -0.237 OA
ATOM     76  O   UNL A   1      48.601  37.320  27.835  1.00  0.00    -0.237 OA
ATOM     77  O   UNL A   1      46.268  37.934  28.349  1.00  0.00    -0.744 OA
ENDBRANCH  73  74
ENDBRANCH  52  66
BRANCH  53  78
ATOM     78  C   UNL A   1      43.473  23.268  27.020  1.00  0.00     0.058 A 
ATOM     79  C   UNL A   1      43.288  22.362  28.073  1.00  0.00     0.135 A 
ATOM     80  C   UNL A   1      43.233  22.811  25.714  1.00  0.00     0.135 A 
ATOM     81  F   UNL A   1      43.510  22.749  29.338  1.00  0.00    -0.206 F 
ATOM     82  C   UNL A   1      42.896  21.047  27.843  1.00  0.00     0.059 A 
ATOM     83  C   UNL A   1      42.816  21.509  25.460  1.00  0.00     0.059 A 
ATOM     84  F   UNL A   1      43.379  23.645  24.672  1.00  0.00    -0.206 F 
ATOM     85  C   UNL A   1      42.661  20.630  26.532  1.00  0.00     0.060 A 
BRANCH  85  86
ATOM     86  S   UNL A   1      42.109  18.934  26.246  1.00  0.00     0.124 S 
ATOM     87  O   UNL A   1      40.731  19.143  25.819  1.00  0.00    -0.237 OA
ATOM     88  O   UNL A   1      43.036  18.480  25.215  1.00  0.00    -0.237 OA
ATOM     89  O   UNL A   1      42.278  18.303  27.552  1.00  0.00    -0.744 OA
ENDBRANCH  85  86
ENDBRANCH  53  78
BRANCH  65  90
ATOM     90  C   UNL A   1      49.560  26.638  26.475  1.00  0.00     0.058 A 
ATOM     91  C   UNL A   1      50.430  26.056  27.411  1.00  0.00     0.135 A 
ATOM     92  C   UNL A   1      50.002  26.744  25.147  1.00  0.00     0.135 A 
ATOM     93  F   UNL A   1      50.059  25.938  28.696  1.00  0.00    -0.206 F 
ATOM     94  C   UNL A   1      51.698  25.617  27.047  1.00  0.00     0.059 A 
ATOM     95  C   UNL A   1      51.256  26.286  24.756  1.00  0.00     0.059 A 
ATOM     96  F   UNL A   1      49.206  27.284  24.210  1.00  0.00    -0.206 F 
ATOM     97  C   UNL A   1      52.101  25.733  25.716  1.00  0.00     0.060 A 
BRANCH  97  98
ATOM     98  S   UNL A   1      53.737  25.129  25.252  1.00  0.00     0.124 S 
ATOM     99  O   UNL A   1      53.526  23.686  25.241  1.00  0.00    -0.237 OA
ATOM    100  O   UNL A   1      53.941  25.750  23.946  1.00  0.00    -0.237 OA
ATOM    101  O   UNL A   1      54.601  25.629  26.318  1.00  0.00    -0.744 OA
ENDBRANCH  97  98
ENDBRANCH  65  90
ENDBRANCH  39  40
ENDBRANCH  31  34
ENDBRANCH  29  30
ENDBRANCH  28  29
ENDBRANCH  27  28
ENDBRANCH   1  27
TORSDOF 19
ENDMDL
