MODEL 1
REMARK VINA RESULT:     -12.8      0.000      0.000
REMARK SMILES O=C(NCCCCCCNC(=O)c1ccc(-c2c3nc(c(-c4c(F)cc(S(=O)(=O)[O-])cc4F)c4ccc([nH]4)c(-c4c(F)cc(S(=O)(=O)[O-])cc4F)c4nc(c(-c5c(F)cc(S(=O)(=O)[O-])cc5F)c5ccc2[nH]5)C=C4)C=C3)cc1)C1=Cc2cc(S(F)(F)(F)(F)F)cc(Br)c2O[C@@H]1C(F)(F)F
REMARK SMILES IDX 7 1 6 2 5 3 4 4 3 5 1 6 2 7 79 9 80 10 95 11 81 12 94 13
REMARK SMILES IDX 82 14 93 15 83 16 91 17 90 18 92 19 96 20 97 21 98 22 99 23
REMARK SMILES IDX 84 24 85 25 86 26 87 27 88 28 89 29 8 30 9 31 10 32 11 33
REMARK SMILES IDX 12 35 13 36 14 37 78 38 15 39 77 40 16 41 17 42 18 43 71 44
REMARK SMILES IDX 19 45 76 46 70 47 72 48 20 49 75 50 69 51 68 52 21 54 55 55
REMARK SMILES IDX 34 56 54 57 35 58 38 59 53 60 73 61 36 62 37 63 52 65 74 66
REMARK SMILES IDX 39 67 22 68 23 69 32 70 24 71 25 72 31 73 33 74 26 75 27 76
REMARK SMILES IDX 28 77 29 78 30 79 56 80 57 81 66 82 58 83 59 84 65 85 67 86
REMARK SMILES IDX 60 87 61 88 62 89 63 90 64 91 40 92 41 93 50 94 42 95 43 96
REMARK SMILES IDX 49 97 51 98 44 99 45 100 46 101 47 102 48 103
REMARK H PARENT 3 8 10 34 72 53 38 64
REMARK Flexibility Score: inf
ROOT
ATOM      1  C   UNL A   1      40.218  21.798  26.253  1.00  0.00     0.002 C 
ENDROOT
BRANCH   1   2
ATOM      2  C   UNL A   1      38.755  22.060  25.933  1.00  0.00     0.002 C 
BRANCH   2   3
ATOM      3  C   UNL A   1      38.389  23.473  26.361  1.00  0.00     0.021 C 
BRANCH   3   4
ATOM      4  C   UNL A   1      36.952  23.766  25.963  1.00  0.00     0.116 C 
BRANCH   4   5
ATOM      5  N   UNL A   1      36.826  23.706  24.500  1.00  0.00    -0.352 N 
ATOM      6  O   UNL A   1      35.630  22.879  22.621  1.00  0.00    -0.270 OA
ATOM      7  C   UNL A   1      35.739  22.931  23.886  1.00  0.00     0.251 C 
ATOM      8  H   UNL A   1      37.471  24.185  23.931  1.00  0.00     0.163 HD
BRANCH   7   9
ATOM      9  C   UNL A   1      34.744  22.191  24.765  1.00  0.00     0.067 C 
ATOM     10  C   UNL A   1      33.730  22.871  25.367  1.00  0.00     0.025 C 
ATOM     11  C   UNL A   1      34.880  20.691  24.973  1.00  0.00     0.314 C 
ATOM     12  C   UNL A   1      33.593  24.371  25.159  1.00  0.00     0.020 A 
ATOM     13  O   UNL A   1      34.173  23.976  22.888  1.00  0.00    -0.474 OA
ATOM     14  C   UNL A   1      33.308  25.213  26.220  1.00  0.00     0.036 A 
ATOM     15  C   UNL A   1      33.725  24.838  23.923  1.00  0.00     0.142 A 
ATOM     16  C   UNL A   1      32.894  26.509  25.828  1.00  0.00     0.109 A 
ATOM     17  C   UNL A   1      33.431  26.150  23.637  1.00  0.00     0.062 A 
ATOM     18  C   UNL A   1      33.087  27.026  24.629  1.00  0.00     0.044 A 
ATOM     19  Br  UNL A   1      33.510  26.775  21.781  1.00  0.00    -0.047 Br
BRANCH  11  20
ATOM     20  C   UNL A   1      33.625  19.994  24.476  1.00  0.00     0.429 C 
ATOM     21  F   UNL A   1      32.746  19.901  25.470  1.00  0.00    -0.167 F 
ATOM     22  F   UNL A   1      33.094  20.695  23.479  1.00  0.00    -0.167 F 
ATOM     23  F   UNL A   1      33.937  18.775  24.044  1.00  0.00    -0.167 F 
ENDBRANCH  11  20
BRANCH  16  24
ATOM     24  S   UNL A   1      32.038  27.526  27.058  1.00  0.00     0.310 S 
ATOM     25  F   UNL A   1      31.790  28.695  26.016  1.00  0.00    -0.094 F 
ATOM     26  F   UNL A   1      33.413  28.216  27.398  1.00  0.00    -0.094 F 
ATOM     27  F   UNL A   1      31.307  28.397  28.117  1.00  0.00    -0.094 F 
ATOM     28  F   UNL A   1      30.650  26.925  26.605  1.00  0.00    -0.094 F 
ATOM     29  F   UNL A   1      32.750  26.716  25.900  1.00  0.00    -0.094 F 
ENDBRANCH  16  24
ENDBRANCH   7   9
ENDBRANCH   4   5
ENDBRANCH   3   4
ENDBRANCH   2   3
ENDBRANCH   1   2
BRANCH   1  30
ATOM     30  C   UNL A   1      40.545  22.360  27.627  1.00  0.00     0.021 C 
BRANCH  30  31
ATOM     31  C   UNL A   1      41.827  23.172  27.548  1.00  0.00     0.116 C 
BRANCH  31  32
ATOM     32  N   UNL A   1      41.943  23.777  26.214  1.00  0.00    -0.352 N 
ATOM     33  C   UNL A   1      41.831  25.235  26.056  1.00  0.00     0.251 C 
ATOM     34  H   UNL A   1      42.096  23.208  25.427  1.00  0.00     0.163 HD
ATOM     35  O   UNL A   1      41.932  25.759  24.902  1.00  0.00    -0.269 OA
BRANCH  33  36
ATOM     36  C   UNL A   1      41.595  26.115  27.272  1.00  0.00     0.039 A 
ATOM     37  C   UNL A   1      40.487  25.889  28.071  1.00  0.00     0.014 A 
ATOM     38  C   UNL A   1      42.455  27.089  27.547  1.00  0.00     0.014 A 
ATOM     39  C   UNL A   1      40.214  26.934  28.984  1.00  0.00     0.010 A 
ATOM     40  C   UNL A   1      42.189  27.996  28.545  1.00  0.00     0.010 A 
ATOM     41  C   UNL A   1      41.081  27.866  29.336  1.00  0.00    -0.014 A 
BRANCH  41  42
ATOM     42  C   UNL A   1      40.859  28.749  30.554  1.00  0.00     0.031 A 
ATOM     43  C   UNL A   1      41.674  28.546  31.668  1.00  0.00     0.074 A 
ATOM     44  C   UNL A   1      39.859  29.705  30.489  1.00  0.00     0.049 A 
ATOM     45  N   UNL A   1      41.668  29.227  32.816  1.00  0.00    -0.248 NA
ATOM     46  C   UNL A   1      42.713  27.508  31.752  1.00  0.00     0.031 C 
ATOM     47  C   UNL A   1      39.039  29.922  29.365  1.00  0.00     0.029 A 
ATOM     48  N   UNL A   1      39.480  30.599  31.466  1.00  0.00    -0.354 N 
ATOM     49  C   UNL A   1      42.606  28.754  33.638  1.00  0.00     0.074 A 
ATOM     50  C   UNL A   1      43.288  27.638  32.968  1.00  0.00     0.031 C 
ATOM     51  C   UNL A   1      38.170  30.922  29.664  1.00  0.00     0.029 A 
ATOM     52  C   UNL A   1      38.434  31.349  30.979  1.00  0.00     0.049 A 
ATOM     53  H   UNL A   1      39.887  30.685  32.358  1.00  0.00     0.167 HD
ATOM     54  C   UNL A   1      42.922  29.209  34.919  1.00  0.00     0.037 A 
ATOM     55  C   UNL A   1      37.733  32.353  31.631  1.00  0.00     0.037 A 
ATOM     56  C   UNL A   1      42.251  30.242  35.554  1.00  0.00     0.049 A 
ATOM     57  C   UNL A   1      38.011  32.770  32.934  1.00  0.00     0.074 A 
ATOM     58  C   UNL A   1      42.561  30.720  36.842  1.00  0.00     0.029 A 
ATOM     59  N   UNL A   1      41.187  30.977  35.077  1.00  0.00    -0.354 N 
ATOM     60  N   UNL A   1      38.975  32.324  33.740  1.00  0.00    -0.248 NA
ATOM     61  C   UNL A   1      37.255  33.809  33.646  1.00  0.00     0.031 C 
ATOM     62  C   UNL A   1      41.691  31.722  37.140  1.00  0.00     0.029 A 
ATOM     63  C   UNL A   1      40.823  31.885  36.045  1.00  0.00     0.049 A 
ATOM     64  H   UNL A   1      40.761  30.870  34.195  1.00  0.00     0.167 HD
ATOM     65  C   UNL A   1      38.940  32.977  34.904  1.00  0.00     0.074 A 
ATOM     66  C   UNL A   1      37.829  33.937  34.862  1.00  0.00     0.031 C 
ATOM     67  C   UNL A   1      39.793  32.813  35.997  1.00  0.00     0.037 A 
BRANCH  54  68
ATOM     68  C   UNL A   1      44.066  28.536  35.658  1.00  0.00     0.058 A 
ATOM     69  C   UNL A   1      45.368  28.995  35.542  1.00  0.00     0.135 A 
ATOM     70  C   UNL A   1      43.762  27.521  36.459  1.00  0.00     0.135 A 
ATOM     71  F   UNL A   1      45.681  30.150  34.961  1.00  0.00    -0.206 F 
ATOM     72  C   UNL A   1      46.335  28.124  36.098  1.00  0.00     0.059 A 
ATOM     73  C   UNL A   1      44.753  26.798  37.078  1.00  0.00     0.059 A 
ATOM     74  F   UNL A   1      42.488  27.203  36.663  1.00  0.00    -0.206 F 
ATOM     75  C   UNL A   1      46.067  27.159  36.959  1.00  0.00     0.060 A 
BRANCH  75  76
ATOM     76  S   UNL A   1      47.367  26.358  37.929  1.00  0.00     0.124 S 
ATOM     77  O   UNL A   1      46.907  26.220  39.383  1.00  0.00    -0.237 OA
ATOM     78  O   UNL A   1      47.656  24.972  37.350  1.00  0.00    -0.237 OA
ATOM     79  O   UNL A   1      48.789  27.308  37.871  1.00  0.00    -0.744 OA
ENDBRANCH  75  76
ENDBRANCH  54  68
BRANCH  55  80
ATOM     80  C   UNL A   1      36.600  33.037  30.885  1.00  0.00     0.058 A 
ATOM     81  C   UNL A   1      36.932  34.038  29.986  1.00  0.00     0.135 A 
ATOM     82  C   UNL A   1      35.333  32.720  31.126  1.00  0.00     0.135 A 
ATOM     83  F   UNL A   1      38.166  34.218  29.525  1.00  0.00    -0.206 F 
ATOM     84  C   UNL A   1      35.838  34.851  29.605  1.00  0.00     0.059 A 
ATOM     85  C   UNL A   1      34.312  33.481  30.609  1.00  0.00     0.059 A 
ATOM     86  F   UNL A   1      35.050  31.659  31.876  1.00  0.00    -0.206 F 
ATOM     87  C   UNL A   1      34.569  34.522  29.762  1.00  0.00     0.060 A 
BRANCH  87  88
ATOM     88  S   UNL A   1      33.242  35.401  28.902  1.00  0.00     0.124 S 
ATOM     89  O   UNL A   1      32.457  34.416  28.032  1.00  0.00    -0.237 OA
ATOM     90  O   UNL A   1      32.301  36.036  29.929  1.00  0.00    -0.237 OA
ATOM     91  O   UNL A   1      33.914  36.623  27.912  1.00  0.00    -0.744 OA
ENDBRANCH  87  88
ENDBRANCH  55  80
BRANCH  67  92
ATOM     92  C   UNL A   1      39.582  33.708  37.208  1.00  0.00     0.058 A 
ATOM     93  C   UNL A   1      40.231  34.929  37.272  1.00  0.00     0.135 A 
ATOM     94  C   UNL A   1      38.778  33.301  38.184  1.00  0.00     0.135 A 
ATOM     95  F   UNL A   1      40.835  35.486  36.227  1.00  0.00    -0.206 F 
ATOM     96  C   UNL A   1      40.193  35.531  38.553  1.00  0.00     0.059 A 
ATOM     97  C   UNL A   1      38.686  34.013  39.356  1.00  0.00     0.059 A 
ATOM     98  F   UNL A   1      38.054  32.197  38.024  1.00  0.00    -0.206 F 
ATOM     99  C   UNL A   1      39.348  35.199  39.512  1.00  0.00     0.060 A 
BRANCH  99 100
ATOM    100  S   UNL A   1      39.079  36.258  40.954  1.00  0.00     0.124 S 
ATOM    101  O   UNL A   1      37.965  35.666  41.821  1.00  0.00    -0.237 OA
ATOM    102  O   UNL A   1      40.370  36.344  41.773  1.00  0.00    -0.237 OA
ATOM    103  O   UNL A   1      38.628  37.824  40.437  1.00  0.00    -0.744 OA
ENDBRANCH  99 100
ENDBRANCH  67  92
ENDBRANCH  41  42
ENDBRANCH  33  36
ENDBRANCH  31  32
ENDBRANCH  30  31
ENDBRANCH   1  30
TORSDOF 18
ENDMDL
MODEL 2
REMARK VINA RESULT:     -12.5      5.045      9.795
REMARK SMILES O=C(NCCCCCCNC(=O)c1ccc(-c2c3nc(c(-c4c(F)cc(S(=O)(=O)[O-])cc4F)c4ccc([nH]4)c(-c4c(F)cc(S(=O)(=O)[O-])cc4F)c4nc(c(-c5c(F)cc(S(=O)(=O)[O-])cc5F)c5ccc2[nH]5)C=C4)C=C3)cc1)C1=Cc2cc(S(F)(F)(F)(F)F)cc(Br)c2O[C@@H]1C(F)(F)F
REMARK SMILES IDX 7 1 6 2 5 3 4 4 3 5 1 6 2 7 79 9 80 10 95 11 81 12 94 13
REMARK SMILES IDX 82 14 93 15 83 16 91 17 90 18 92 19 96 20 97 21 98 22 99 23
REMARK SMILES IDX 84 24 85 25 86 26 87 27 88 28 89 29 8 30 9 31 10 32 11 33
REMARK SMILES IDX 12 35 13 36 14 37 78 38 15 39 77 40 16 41 17 42 18 43 71 44
REMARK SMILES IDX 19 45 76 46 70 47 72 48 20 49 75 50 69 51 68 52 21 54 55 55
REMARK SMILES IDX 34 56 54 57 35 58 38 59 53 60 73 61 36 62 37 63 52 65 74 66
REMARK SMILES IDX 39 67 22 68 23 69 32 70 24 71 25 72 31 73 33 74 26 75 27 76
REMARK SMILES IDX 28 77 29 78 30 79 56 80 57 81 66 82 58 83 59 84 65 85 67 86
REMARK SMILES IDX 60 87 61 88 62 89 63 90 64 91 40 92 41 93 50 94 42 95 43 96
REMARK SMILES IDX 49 97 51 98 44 99 45 100 46 101 47 102 48 103
REMARK H PARENT 3 8 10 34 72 53 38 64
REMARK Flexibility Score: inf
ROOT
ATOM      1  C   UNL A   1      32.174  28.173  25.536  1.00  0.00     0.002 C 
ENDROOT
BRANCH   1   2
ATOM      2  C   UNL A   1      31.723  27.380  26.752  1.00  0.00     0.002 C 
BRANCH   2   3
ATOM      3  C   UNL A   1      31.038  26.101  26.296  1.00  0.00     0.021 C 
BRANCH   3   4
ATOM      4  C   UNL A   1      32.054  24.973  26.244  1.00  0.00     0.116 C 
BRANCH   4   5
ATOM      5  N   UNL A   1      31.482  23.831  25.515  1.00  0.00    -0.352 N 
ATOM      6  O   UNL A   1      31.269  22.672  23.452  1.00  0.00    -0.270 OA
ATOM      7  C   UNL A   1      31.763  23.659  24.082  1.00  0.00     0.251 C 
ATOM      8  H   UNL A   1      30.911  23.183  25.985  1.00  0.00     0.163 HD
BRANCH   7   9
ATOM      9  C   UNL A   1      32.646  24.661  23.355  1.00  0.00     0.067 C 
ATOM     10  C   UNL A   1      34.000  24.577  23.460  1.00  0.00     0.025 C 
ATOM     11  C   UNL A   1      32.016  25.756  22.510  1.00  0.00     0.314 C 
ATOM     12  C   UNL A   1      34.630  23.481  24.305  1.00  0.00     0.020 A 
ATOM     13  O   UNL A   1      32.967  22.028  23.425  1.00  0.00    -0.474 OA
ATOM     14  C   UNL A   1      35.689  23.757  25.154  1.00  0.00     0.036 A 
ATOM     15  C   UNL A   1      34.151  22.249  24.177  1.00  0.00     0.142 A 
ATOM     16  C   UNL A   1      36.368  22.604  25.616  1.00  0.00     0.109 A 
ATOM     17  C   UNL A   1      34.790  21.186  24.768  1.00  0.00     0.062 A 
ATOM     18  C   UNL A   1      35.878  21.379  25.574  1.00  0.00     0.044 A 
ATOM     19  Br  UNL A   1      34.133  19.366  24.451  1.00  0.00    -0.047 Br
BRANCH  11  20
ATOM     20  C   UNL A   1      32.488  25.622  21.072  1.00  0.00     0.429 C 
ATOM     21  F   UNL A   1      32.891  24.373  20.852  1.00  0.00    -0.167 F 
ATOM     22  F   UNL A   1      31.487  25.916  20.247  1.00  0.00    -0.167 F 
ATOM     23  F   UNL A   1      33.500  26.458  20.858  1.00  0.00    -0.167 F 
ENDBRANCH  11  20
BRANCH  16  24
ATOM     24  S   UNL A   1      38.025  22.826  26.310  1.00  0.00     0.310 S 
ATOM     25  F   UNL A   1      38.349  24.028  25.327  1.00  0.00    -0.094 F 
ATOM     26  F   UNL A   1      38.586  21.859  25.201  1.00  0.00    -0.094 F 
ATOM     27  F   UNL A   1      39.448  23.012  26.908  1.00  0.00    -0.094 F 
ATOM     28  F   UNL A   1      37.467  23.901  27.325  1.00  0.00    -0.094 F 
ATOM     29  F   UNL A   1      36.594  22.735  25.643  1.00  0.00    -0.094 F 
ENDBRANCH  16  24
ENDBRANCH   7   9
ENDBRANCH   4   5
ENDBRANCH   3   4
ENDBRANCH   2   3
ENDBRANCH   1   2
BRANCH   1  30
ATOM     30  C   UNL A   1      33.681  28.053  25.382  1.00  0.00     0.021 C 
BRANCH  30  31
ATOM     31  C   UNL A   1      34.353  28.388  26.704  1.00  0.00     0.116 C 
BRANCH  31  32
ATOM     32  N   UNL A   1      33.797  29.642  27.232  1.00  0.00    -0.352 N 
ATOM     33  C   UNL A   1      34.643  30.542  28.030  1.00  0.00     0.251 C 
ATOM     34  H   UNL A   1      32.860  29.879  27.051  1.00  0.00     0.163 HD
ATOM     35  O   UNL A   1      34.163  31.627  28.486  1.00  0.00    -0.269 OA
BRANCH  33  36
ATOM     36  C   UNL A   1      36.091  30.175  28.309  1.00  0.00     0.039 A 
ATOM     37  C   UNL A   1      37.046  30.375  27.326  1.00  0.00     0.014 A 
ATOM     38  C   UNL A   1      36.417  29.667  29.492  1.00  0.00     0.014 A 
ATOM     39  C   UNL A   1      38.280  29.736  27.586  1.00  0.00     0.010 A 
ATOM     40  C   UNL A   1      37.682  29.183  29.721  1.00  0.00     0.010 A 
ATOM     41  C   UNL A   1      38.660  29.295  28.772  1.00  0.00    -0.014 A 
BRANCH  41  42
ATOM     42  C   UNL A   1      40.107  28.930  29.065  1.00  0.00     0.031 A 
ATOM     43  C   UNL A   1      40.546  27.654  28.712  1.00  0.00     0.074 A 
ATOM     44  C   UNL A   1      40.907  29.885  29.668  1.00  0.00     0.049 A 
ATOM     45  N   UNL A   1      41.773  27.148  28.849  1.00  0.00    -0.248 NA
ATOM     46  C   UNL A   1      39.688  26.626  28.103  1.00  0.00     0.031 C 
ATOM     47  C   UNL A   1      40.474  31.179  30.020  1.00  0.00     0.029 A 
ATOM     48  N   UNL A   1      42.231  29.772  30.030  1.00  0.00    -0.354 N 
ATOM     49  C   UNL A   1      41.814  25.901  28.379  1.00  0.00     0.074 A 
ATOM     50  C   UNL A   1      40.472  25.544  27.897  1.00  0.00     0.031 C 
ATOM     51  C   UNL A   1      41.517  31.830  30.597  1.00  0.00     0.029 A 
ATOM     52  C   UNL A   1      42.620  30.957  30.614  1.00  0.00     0.049 A 
ATOM     53  H   UNL A   1      42.800  28.980  29.896  1.00  0.00     0.167 HD
ATOM     54  C   UNL A   1      42.916  25.046  28.330  1.00  0.00     0.037 A 
ATOM     55  C   UNL A   1      43.862  31.277  31.141  1.00  0.00     0.037 A 
ATOM     56  C   UNL A   1      44.170  25.382  28.816  1.00  0.00     0.049 A 
ATOM     57  C   UNL A   1      44.951  30.401  31.144  1.00  0.00     0.074 A 
ATOM     58  C   UNL A   1      45.295  24.535  28.768  1.00  0.00     0.029 A 
ATOM     59  N   UNL A   1      44.553  26.557  29.422  1.00  0.00    -0.354 N 
ATOM     60  N   UNL A   1      45.001  29.168  30.638  1.00  0.00    -0.248 NA
ATOM     61  C   UNL A   1      46.261  30.716  31.728  1.00  0.00     0.031 C 
ATOM     62  C   UNL A   1      46.338  25.189  29.345  1.00  0.00     0.029 A 
ATOM     63  C   UNL A   1      45.882  26.453  29.765  1.00  0.00     0.049 A 
ATOM     64  H   UNL A   1      43.975  27.339  29.583  1.00  0.00     0.167 HD
ATOM     65  C   UNL A   1      46.217  28.648  30.814  1.00  0.00     0.074 A 
ATOM     66  C   UNL A   1      47.043  29.635  31.524  1.00  0.00     0.031 C 
ATOM     67  C   UNL A   1      46.673  27.393  30.408  1.00  0.00     0.037 A 
BRANCH  54  68
ATOM     68  C   UNL A   1      42.732  23.672  27.708  1.00  0.00     0.058 A 
ATOM     69  C   UNL A   1      42.883  23.471  26.345  1.00  0.00     0.135 A 
ATOM     70  C   UNL A   1      42.470  22.661  28.528  1.00  0.00     0.135 A 
ATOM     71  F   UNL A   1      43.389  24.391  25.529  1.00  0.00    -0.206 F 
ATOM     72  C   UNL A   1      42.450  22.199  25.902  1.00  0.00     0.059 A 
ATOM     73  C   UNL A   1      42.188  21.411  28.031  1.00  0.00     0.059 A 
ATOM     74  F   UNL A   1      42.480  22.860  29.843  1.00  0.00    -0.206 F 
ATOM     75  C   UNL A   1      42.259  21.156  26.689  1.00  0.00     0.060 A 
BRANCH  75  76
ATOM     76  S   UNL A   1      42.103  19.478  26.028  1.00  0.00     0.124 S 
ATOM     77  O   UNL A   1      42.563  18.470  27.084  1.00  0.00    -0.237 OA
ATOM     78  O   UNL A   1      40.642  19.207  25.664  1.00  0.00    -0.237 OA
ATOM     79  O   UNL A   1      43.077  19.323  24.631  1.00  0.00    -0.744 OA
ENDBRANCH  75  76
ENDBRANCH  54  68
BRANCH  55  80
ATOM     80  C   UNL A   1      44.051  32.657  31.747  1.00  0.00     0.058 A 
ATOM     81  C   UNL A   1      44.512  33.667  30.919  1.00  0.00     0.135 A 
ATOM     82  C   UNL A   1      43.829  32.873  33.039  1.00  0.00     0.135 A 
ATOM     83  F   UNL A   1      44.507  33.576  29.592  1.00  0.00    -0.206 F 
ATOM     84  C   UNL A   1      44.990  34.803  31.614  1.00  0.00     0.059 A 
ATOM     85  C   UNL A   1      44.199  34.060  33.623  1.00  0.00     0.059 A 
ATOM     86  F   UNL A   1      43.246  31.930  33.773  1.00  0.00    -0.206 F 
ATOM     87  C   UNL A   1      44.717  35.080  32.875  1.00  0.00     0.060 A 
BRANCH  87  88
ATOM     88  S   UNL A   1      45.013  36.722  33.577  1.00  0.00     0.124 S 
ATOM     89  O   UNL A   1      46.057  37.457  32.733  1.00  0.00    -0.237 OA
ATOM     90  O   UNL A   1      43.706  37.519  33.579  1.00  0.00    -0.237 OA
ATOM     91  O   UNL A   1      45.586  36.562  35.180  1.00  0.00    -0.744 OA
ENDBRANCH  87  88
ENDBRANCH  55  80
BRANCH  67  92
ATOM     92  C   UNL A   1      48.124  27.035  30.686  1.00  0.00     0.058 A 
ATOM     93  C   UNL A   1      48.445  26.354  31.849  1.00  0.00     0.135 A 
ATOM     94  C   UNL A   1      49.059  27.383  29.810  1.00  0.00     0.135 A 
ATOM     95  F   UNL A   1      47.534  25.770  32.622  1.00  0.00    -0.206 F 
ATOM     96  C   UNL A   1      49.830  26.337  32.139  1.00  0.00     0.059 A 
ATOM     97  C   UNL A   1      50.391  27.211  30.104  1.00  0.00     0.059 A 
ATOM     98  F   UNL A   1      48.704  27.899  28.637  1.00  0.00    -0.206 F 
ATOM     99  C   UNL A   1      50.782  26.600  31.262  1.00  0.00     0.060 A 
BRANCH  99 100
ATOM    100  S   UNL A   1      52.512  26.171  31.577  1.00  0.00     0.124 S 
ATOM    101  O   UNL A   1      53.294  26.210  30.262  1.00  0.00    -0.237 OA
ATOM    102  O   UNL A   1      53.117  27.177  32.560  1.00  0.00    -0.237 OA
ATOM    103  O   UNL A   1      52.598  24.599  32.245  1.00  0.00    -0.744 OA
ENDBRANCH  99 100
ENDBRANCH  67  92
ENDBRANCH  41  42
ENDBRANCH  33  36
ENDBRANCH  31  32
ENDBRANCH  30  31
ENDBRANCH   1  30
TORSDOF 18
ENDMDL
MODEL 3
REMARK VINA RESULT:     -12.4      6.523     11.583
REMARK SMILES O=C(NCCCCCCNC(=O)c1ccc(-c2c3nc(c(-c4c(F)cc(S(=O)(=O)[O-])cc4F)c4ccc([nH]4)c(-c4c(F)cc(S(=O)(=O)[O-])cc4F)c4nc(c(-c5c(F)cc(S(=O)(=O)[O-])cc5F)c5ccc2[nH]5)C=C4)C=C3)cc1)C1=Cc2cc(S(F)(F)(F)(F)F)cc(Br)c2O[C@@H]1C(F)(F)F
REMARK SMILES IDX 7 1 6 2 5 3 4 4 3 5 1 6 2 7 79 9 80 10 95 11 81 12 94 13
REMARK SMILES IDX 82 14 93 15 83 16 91 17 90 18 92 19 96 20 97 21 98 22 99 23
REMARK SMILES IDX 84 24 85 25 86 26 87 27 88 28 89 29 8 30 9 31 10 32 11 33
REMARK SMILES IDX 12 35 13 36 14 37 78 38 15 39 77 40 16 41 17 42 18 43 71 44
REMARK SMILES IDX 19 45 76 46 70 47 72 48 20 49 75 50 69 51 68 52 21 54 55 55
REMARK SMILES IDX 34 56 54 57 35 58 38 59 53 60 73 61 36 62 37 63 52 65 74 66
REMARK SMILES IDX 39 67 22 68 23 69 32 70 24 71 25 72 31 73 33 74 26 75 27 76
REMARK SMILES IDX 28 77 29 78 30 79 56 80 57 81 66 82 58 83 59 84 65 85 67 86
REMARK SMILES IDX 60 87 61 88 62 89 63 90 64 91 40 92 41 93 50 94 42 95 43 96
REMARK SMILES IDX 49 97 51 98 44 99 45 100 46 101 47 102 48 103
REMARK H PARENT 3 8 10 34 72 53 38 64
REMARK Flexibility Score: inf
ROOT
ATOM      1  C   UNL A   1      33.353  28.317  27.101  1.00  0.00     0.002 C 
ENDROOT
BRANCH   1   2
ATOM      2  C   UNL A   1      32.720  27.916  25.779  1.00  0.00     0.002 C 
BRANCH   2   3
ATOM      3  C   UNL A   1      33.721  27.119  24.959  1.00  0.00     0.021 C 
BRANCH   3   4
ATOM      4  C   UNL A   1      33.570  25.639  25.273  1.00  0.00     0.116 C 
BRANCH   4   5
ATOM      5  N   UNL A   1      33.980  24.846  24.105  1.00  0.00    -0.352 N 
ATOM      6  O   UNL A   1      33.561  22.973  22.705  1.00  0.00    -0.270 OA
ATOM      7  C   UNL A   1      33.206  23.659  23.714  1.00  0.00     0.251 C 
ATOM      8  H   UNL A   1      34.774  25.108  23.586  1.00  0.00     0.163 HD
BRANCH   7   9
ATOM      9  C   UNL A   1      31.980  23.253  24.516  1.00  0.00     0.067 C 
ATOM     10  C   UNL A   1      31.876  21.987  25.005  1.00  0.00     0.025 C 
ATOM     11  C   UNL A   1      30.872  24.261  24.773  1.00  0.00     0.314 C 
ATOM     12  C   UNL A   1      32.984  20.979  24.748  1.00  0.00     0.020 A 
ATOM     13  O   UNL A   1      34.512  22.758  25.138  1.00  0.00    -0.474 OA
ATOM     14  C   UNL A   1      32.692  19.677  24.380  1.00  0.00     0.036 A 
ATOM     15  C   UNL A   1      34.238  21.383  24.918  1.00  0.00     0.142 A 
ATOM     16  C   UNL A   1      33.788  18.789  24.495  1.00  0.00     0.109 A 
ATOM     17  C   UNL A   1      35.273  20.480  24.884  1.00  0.00     0.062 A 
ATOM     18  C   UNL A   1      35.050  19.165  24.584  1.00  0.00     0.044 A 
ATOM     19  Br  UNL A   1      37.097  21.086  25.270  1.00  0.00    -0.047 Br
BRANCH  11  20
ATOM     20  C   UNL A   1      30.702  24.458  26.270  1.00  0.00     0.429 C 
ATOM     21  F   UNL A   1      30.394  25.728  26.519  1.00  0.00    -0.167 F 
ATOM     22  F   UNL A   1      29.728  23.669  26.713  1.00  0.00    -0.167 F 
ATOM     23  F   UNL A   1      31.839  24.149  26.889  1.00  0.00    -0.167 F 
ENDBRANCH  11  20
BRANCH  16  24
ATOM     24  S   UNL A   1      33.433  17.014  24.524  1.00  0.00     0.310 S 
ATOM     25  F   UNL A   1      34.930  16.652  24.902  1.00  0.00    -0.094 F 
ATOM     26  F   UNL A   1      33.869  16.933  23.012  1.00  0.00    -0.094 F 
ATOM     27  F   UNL A   1      33.124  15.490  24.545  1.00  0.00    -0.094 F 
ATOM     28  F   UNL A   1      33.135  17.087  26.073  1.00  0.00    -0.094 F 
ATOM     29  F   UNL A   1      33.850  18.539  24.547  1.00  0.00    -0.094 F 
ENDBRANCH  16  24
ENDBRANCH   7   9
ENDBRANCH   4   5
ENDBRANCH   3   4
ENDBRANCH   2   3
ENDBRANCH   1   2
BRANCH   1  30
ATOM     30  C   UNL A   1      34.333  29.456  26.868  1.00  0.00     0.021 C 
BRANCH  30  31
ATOM     31  C   UNL A   1      35.519  29.303  27.807  1.00  0.00     0.116 C 
BRANCH  31  32
ATOM     32  N   UNL A   1      35.279  30.083  29.029  1.00  0.00    -0.352 N 
ATOM     33  C   UNL A   1      36.411  30.487  29.877  1.00  0.00     0.251 C 
ATOM     34  H   UNL A   1      34.362  30.335  29.280  1.00  0.00     0.163 HD
ATOM     35  O   UNL A   1      36.204  31.163  30.933  1.00  0.00    -0.269 OA
BRANCH  33  36
ATOM     36  C   UNL A   1      37.828  30.098  29.489  1.00  0.00     0.039 A 
ATOM     37  C   UNL A   1      38.196  30.111  28.154  1.00  0.00     0.014 A 
ATOM     38  C   UNL A   1      38.689  29.749  30.437  1.00  0.00     0.014 A 
ATOM     39  C   UNL A   1      39.423  29.459  27.890  1.00  0.00     0.010 A 
ATOM     40  C   UNL A   1      39.925  29.245  30.109  1.00  0.00     0.010 A 
ATOM     41  C   UNL A   1      40.332  29.175  28.805  1.00  0.00    -0.014 A 
BRANCH  41  42
ATOM     42  C   UNL A   1      41.754  28.790  28.430  1.00  0.00     0.031 A 
ATOM     43  C   UNL A   1      42.008  27.458  28.100  1.00  0.00     0.074 A 
ATOM     44  C   UNL A   1      42.719  29.782  28.438  1.00  0.00     0.049 A 
ATOM     45  N   UNL A   1      43.166  26.921  27.713  1.00  0.00    -0.248 NA
ATOM     46  C   UNL A   1      40.992  26.395  28.124  1.00  0.00     0.031 C 
ATOM     47  C   UNL A   1      42.470  31.131  28.762  1.00  0.00     0.029 A 
ATOM     48  N   UNL A   1      44.059  29.661  28.144  1.00  0.00    -0.354 N 
ATOM     49  C   UNL A   1      43.012  25.619  27.465  1.00  0.00     0.074 A 
ATOM     50  C   UNL A   1      41.612  25.260  27.732  1.00  0.00     0.031 C 
ATOM     51  C   UNL A   1      43.644  31.809  28.677  1.00  0.00     0.029 A 
ATOM     52  C   UNL A   1      44.646  30.897  28.297  1.00  0.00     0.049 A 
ATOM     53  H   UNL A   1      44.518  28.833  27.873  1.00  0.00     0.167 HD
ATOM     54  C   UNL A   1      43.982  24.718  27.025  1.00  0.00     0.037 A 
ATOM     55  C   UNL A   1      45.981  31.231  28.122  1.00  0.00     0.037 A 
ATOM     56  C   UNL A   1      45.307  25.060  26.807  1.00  0.00     0.049 A 
ATOM     57  C   UNL A   1      46.964  30.315  27.737  1.00  0.00     0.074 A 
ATOM     58  C   UNL A   1      46.297  24.166  26.357  1.00  0.00     0.029 A 
ATOM     59  N   UNL A   1      45.900  26.291  26.984  1.00  0.00    -0.354 N 
ATOM     60  N   UNL A   1      46.801  29.023  27.452  1.00  0.00    -0.248 NA
ATOM     61  C   UNL A   1      48.385  30.650  27.580  1.00  0.00     0.031 C 
ATOM     62  C   UNL A   1      47.472  24.845  26.271  1.00  0.00     0.029 A 
ATOM     63  C   UNL A   1      47.236  26.175  26.669  1.00  0.00     0.049 A 
ATOM     64  H   UNL A   1      45.447  27.112  27.284  1.00  0.00     0.167 HD
ATOM     65  C   UNL A   1      47.969  28.478  27.106  1.00  0.00     0.074 A 
ATOM     66  C   UNL A   1      49.006  29.516  27.190  1.00  0.00     0.031 C 
ATOM     67  C   UNL A   1      48.211  27.159  26.719  1.00  0.00     0.037 A 
BRANCH  54  68
ATOM     68  C   UNL A   1      43.562  23.279  26.770  1.00  0.00     0.058 A 
ATOM     69  C   UNL A   1      43.354  22.806  25.485  1.00  0.00     0.135 A 
ATOM     70  C   UNL A   1      43.450  22.480  27.825  1.00  0.00     0.135 A 
ATOM     71  F   UNL A   1      43.697  23.490  24.397  1.00  0.00    -0.206 F 
ATOM     72  C   UNL A   1      42.745  21.530  25.435  1.00  0.00     0.059 A 
ATOM     73  C   UNL A   1      42.975  21.199  27.684  1.00  0.00     0.059 A 
ATOM     74  F   UNL A   1      43.802  22.925  29.028  1.00  0.00    -0.206 F 
ATOM     75  C   UNL A   1      42.692  20.685  26.449  1.00  0.00     0.060 A 
BRANCH  75  76
ATOM     76  S   UNL A   1      42.270  18.941  26.215  1.00  0.00     0.124 S 
ATOM     77  O   UNL A   1      43.210  18.324  25.176  1.00  0.00    -0.237 OA
ATOM     78  O   UNL A   1      42.418  18.198  27.544  1.00  0.00    -0.237 OA
ATOM     79  O   UNL A   1      40.655  18.814  25.667  1.00  0.00    -0.744 OA
ENDBRANCH  75  76
ENDBRANCH  54  68
BRANCH  55  80
ATOM     80  C   UNL A   1      46.397  32.672  28.360  1.00  0.00     0.058 A 
ATOM     81  C   UNL A   1      46.371  33.538  27.279  1.00  0.00     0.135 A 
ATOM     82  C   UNL A   1      46.821  33.073  29.553  1.00  0.00     0.135 A 
ATOM     83  F   UNL A   1      45.728  33.265  26.147  1.00  0.00    -0.206 F 
ATOM     84  C   UNL A   1      47.091  34.738  27.489  1.00  0.00     0.059 A 
ATOM     85  C   UNL A   1      47.391  34.313  29.712  1.00  0.00     0.059 A 
ATOM     86  F   UNL A   1      46.693  32.267  30.603  1.00  0.00    -0.206 F 
ATOM     87  C   UNL A   1      47.453  35.198  28.672  1.00  0.00     0.060 A 
BRANCH  87  88
ATOM     88  S   UNL A   1      48.001  36.906  28.905  1.00  0.00     0.124 S 
ATOM     89  O   UNL A   1      47.801  37.689  27.604  1.00  0.00    -0.237 OA
ATOM     90  O   UNL A   1      47.182  37.557  30.023  1.00  0.00    -0.237 OA
ATOM     91  O   UNL A   1      49.658  36.921  29.328  1.00  0.00    -0.744 OA
ENDBRANCH  87  88
ENDBRANCH  55  80
BRANCH  67  92
ATOM     92  C   UNL A   1      49.630  26.778  26.327  1.00  0.00     0.058 A 
ATOM     93  C   UNL A   1      50.055  26.987  25.026  1.00  0.00     0.135 A 
ATOM     94  C   UNL A   1      50.437  26.251  27.241  1.00  0.00     0.135 A 
ATOM     95  F   UNL A   1      49.383  27.732  24.154  1.00  0.00    -0.206 F 
ATOM     96  C   UNL A   1      51.271  26.335  24.709  1.00  0.00     0.059 A 
ATOM     97  C   UNL A   1      51.669  25.757  26.883  1.00  0.00     0.059 A 
ATOM     98  F   UNL A   1      50.051  26.203  28.512  1.00  0.00    -0.206 F 
ATOM     99  C   UNL A   1      52.129  25.875  25.602  1.00  0.00     0.060 A 
BRANCH  99 100
ATOM    100  S   UNL A   1      53.823  25.427  25.152  1.00  0.00     0.124 S 
ATOM    101  O   UNL A   1      54.770  25.799  26.295  1.00  0.00    -0.237 OA
ATOM    102  O   UNL A   1      53.902  23.919  24.896  1.00  0.00    -0.237 OA
ATOM    103  O   UNL A   1      54.280  26.270  23.736  1.00  0.00    -0.744 OA
ENDBRANCH  99 100
ENDBRANCH  67  92
ENDBRANCH  41  42
ENDBRANCH  33  36
ENDBRANCH  31  32
ENDBRANCH  30  31
ENDBRANCH   1  30
TORSDOF 18
ENDMDL
