MODEL 1
REMARK VINA RESULT:     -11.0      0.000      0.000
REMARK SMILES C[C@H]1[NH2+]CC[C@H]1C(=O)N1CC(C(=O)NCCCCCCNC(=O)c2ccc(-c3c4nc(c(-c5c(F)cc(S(=O)(=O)[O-])cc5F)c5ccc([nH]5)c(-c5c(F)cc(S(=O)(=O)[O-])cc5F)c5nc(c(-c6c(F)cc(S(=O)(=O)[O-])cc6F)c6ccc3[nH]6)C=C5)C=C4)cc2)C1
REMARK SMILES IDX 18 1 17 2 16 3 15 4 14 5 12 6 13 7 11 9 7 10 8 11 9 12 10 13
REMARK SMILES IDX 90 14 6 15 1 16 2 17 3 18 4 19 5 22 19 23 20 24 21 25 22 26
REMARK SMILES IDX 23 28 24 29 25 30 89 31 26 32 88 33 27 34 28 35 29 36 82 37
REMARK SMILES IDX 30 38 87 39 81 40 83 41 31 42 86 43 80 44 79 45 32 47 66 48
REMARK SMILES IDX 45 49 65 50 46 51 49 52 64 53 84 54 47 55 48 56 63 58 85 59
REMARK SMILES IDX 50 60 33 61 34 62 43 63 35 64 36 65 42 66 44 67 37 68 38 69
REMARK SMILES IDX 39 70 40 71 41 72 67 73 68 74 77 75 69 76 70 77 76 78 78 79
REMARK SMILES IDX 71 80 72 81 73 82 74 83 75 84 51 85 52 86 61 87 53 88 54 89
REMARK SMILES IDX 60 90 62 91 55 92 56 93 57 94 58 95 59 96
REMARK H PARENT 14 8 3 20 3 21 21 27 83 46 49 57
REMARK Flexibility Score: inf
ROOT
ATOM      1  C   UNL A   1      31.548  28.942  25.697  1.00  0.00     0.002 C 
ENDROOT
BRANCH   1   2
ATOM      2  C   UNL A   1      31.532  29.099  24.173  1.00  0.00     0.002 C 
BRANCH   2   3
ATOM      3  C   UNL A   1      30.261  28.599  23.477  1.00  0.00     0.021 C 
BRANCH   3   4
ATOM      4  C   UNL A   1      30.427  27.285  22.715  1.00  0.00     0.116 C 
BRANCH   4   5
ATOM      5  N   UNL A   1      31.660  27.257  21.952  1.00  0.00    -0.356 N 
ATOM      6  C   UNL A   1      32.718  26.383  21.971  1.00  0.00     0.226 C 
ATOM      7  O   UNL A   1      33.645  26.642  21.187  1.00  0.00    -0.275 OA
ATOM      8  H   UNL A   1      31.755  27.994  21.305  1.00  0.00     0.163 HD
BRANCH   6   9
ATOM      9  C   UNL A   1      32.769  25.171  22.905  1.00  0.00     0.117 C 
ATOM     10  C   UNL A   1      34.453  22.756  24.361  1.00  0.00     0.231 C 
ATOM     11  O   UNL A   1      33.546  22.342  25.084  1.00  0.00    -0.274 OA
ATOM     12  N   UNL A   1      34.301  23.881  23.570  1.00  0.00    -0.341 N 
ATOM     13  C   UNL A   1      33.705  25.128  24.103  1.00  0.00     0.134 C 
ATOM     14  C   UNL A   1      33.383  23.877  22.412  1.00  0.00     0.134 C 
BRANCH  10  15
ATOM     15  C   UNL A   1      35.804  22.059  24.291  1.00  0.00     0.142 C 
ATOM     16  C   UNL A   1      36.962  23.710  25.955  1.00  0.00     0.076 C 
ATOM     17  C   UNL A   1      37.045  22.856  24.695  1.00  0.00     0.192 C 
ATOM     18  N   UNL A   1      38.075  21.819  24.872  1.00  0.00    -0.343 N 
ATOM     19  C   UNL A   1      37.420  20.554  25.211  1.00  0.00     0.261 C 
ATOM     20  H   UNL A   1      38.709  22.090  25.624  1.00  0.00     0.346 HD
ATOM     21  H   UNL A   1      38.610  21.712  24.009  1.00  0.00     0.346 HD
ATOM     22  C   UNL A   1      35.920  20.784  25.111  1.00  0.00     0.081 C 
ENDBRANCH  10  15
ENDBRANCH   6   9
ENDBRANCH   4   5
ENDBRANCH   3   4
ENDBRANCH   2   3
ENDBRANCH   1   2
BRANCH   1  23
ATOM     23  C   UNL A   1      32.470  27.842  26.228  1.00  0.00     0.021 C 
BRANCH  23  24
ATOM     24  C   UNL A   1      33.632  28.340  27.080  1.00  0.00     0.116 C 
BRANCH  24  25
ATOM     25  N   UNL A   1      33.495  29.746  27.427  1.00  0.00    -0.352 N 
ATOM     26  C   UNL A   1      34.382  30.567  28.079  1.00  0.00     0.251 C 
ATOM     27  H   UNL A   1      32.649  30.169  27.155  1.00  0.00     0.163 HD
ATOM     28  O   UNL A   1      34.025  31.678  28.460  1.00  0.00    -0.269 OA
BRANCH  26  29
ATOM     29  C   UNL A   1      35.761  30.098  28.338  1.00  0.00     0.039 A 
ATOM     30  C   UNL A   1      36.709  30.174  27.316  1.00  0.00     0.014 A 
ATOM     31  C   UNL A   1      36.116  29.589  29.592  1.00  0.00     0.014 A 
ATOM     32  C   UNL A   1      38.030  29.796  27.569  1.00  0.00     0.010 A 
ATOM     33  C   UNL A   1      37.446  29.287  29.863  1.00  0.00     0.010 A 
ATOM     34  C   UNL A   1      38.418  29.382  28.854  1.00  0.00    -0.014 A 
BRANCH  34  35
ATOM     35  C   UNL A   1      39.829  29.035  29.167  1.00  0.00     0.031 A 
ATOM     36  C   UNL A   1      40.743  30.071  29.765  1.00  0.00     0.074 A 
ATOM     37  C   UNL A   1      40.306  27.815  28.845  1.00  0.00     0.049 A 
ATOM     38  N   UNL A   1      42.024  29.995  30.016  1.00  0.00    -0.248 NA
ATOM     39  C   UNL A   1      40.142  31.374  30.096  1.00  0.00     0.031 C 
ATOM     40  C   UNL A   1      39.530  26.739  28.225  1.00  0.00     0.029 A 
ATOM     41  N   UNL A   1      41.562  27.280  28.981  1.00  0.00    -0.354 N 
ATOM     42  C   UNL A   1      42.386  31.240  30.518  1.00  0.00     0.074 A 
ATOM     43  C   UNL A   1      41.201  32.069  30.484  1.00  0.00     0.031 C 
ATOM     44  C   UNL A   1      40.321  25.669  28.051  1.00  0.00     0.029 A 
ATOM     45  C   UNL A   1      41.671  25.995  28.502  1.00  0.00     0.049 A 
ATOM     46  H   UNL A   1      42.316  27.769  29.384  1.00  0.00     0.167 HD
ATOM     47  C   UNL A   1      43.590  31.648  30.985  1.00  0.00     0.037 A 
ATOM     48  C   UNL A   1      42.739  25.177  28.421  1.00  0.00     0.037 A 
ATOM     49  C   UNL A   1      44.758  30.808  31.037  1.00  0.00     0.049 A 
ATOM     50  C   UNL A   1      44.070  25.655  28.936  1.00  0.00     0.074 A 
ATOM     51  C   UNL A   1      46.010  31.109  31.545  1.00  0.00     0.029 A 
ATOM     52  N   UNL A   1      44.821  29.505  30.564  1.00  0.00    -0.354 N 
ATOM     53  N   UNL A   1      44.381  26.816  29.463  1.00  0.00    -0.248 NA
ATOM     54  C   UNL A   1      45.195  24.713  28.853  1.00  0.00     0.031 C 
ATOM     55  C   UNL A   1      46.845  30.007  31.328  1.00  0.00     0.029 A 
ATOM     56  C   UNL A   1      46.097  28.997  30.745  1.00  0.00     0.049 A 
ATOM     57  H   UNL A   1      44.070  29.015  30.159  1.00  0.00     0.167 HD
ATOM     58  C   UNL A   1      45.726  26.732  29.805  1.00  0.00     0.074 A 
ATOM     59  C   UNL A   1      46.169  25.405  29.431  1.00  0.00     0.031 C 
ATOM     60  C   UNL A   1      46.520  27.667  30.382  1.00  0.00     0.037 A 
BRANCH  47  61
ATOM     61  C   UNL A   1      43.709  33.066  31.475  1.00  0.00     0.058 A 
ATOM     62  C   UNL A   1      43.452  33.411  32.812  1.00  0.00     0.135 A 
ATOM     63  C   UNL A   1      44.125  34.088  30.606  1.00  0.00     0.135 A 
ATOM     64  F   UNL A   1      43.037  32.478  33.684  1.00  0.00    -0.206 F 
ATOM     65  C   UNL A   1      43.573  34.722  33.263  1.00  0.00     0.059 A 
ATOM     66  C   UNL A   1      44.285  35.401  31.042  1.00  0.00     0.059 A 
ATOM     67  F   UNL A   1      44.384  33.816  29.317  1.00  0.00    -0.206 F 
ATOM     68  C   UNL A   1      43.991  35.710  32.369  1.00  0.00     0.060 A 
BRANCH  68  69
ATOM     69  S   UNL A   1      44.151  37.404  32.973  1.00  0.00     0.124 S 
ATOM     70  O   UNL A   1      44.082  38.162  31.727  1.00  0.00    -0.237 OA
ATOM     71  O   UNL A   1      42.996  37.530  33.855  1.00  0.00    -0.237 OA
ATOM     72  O   UNL A   1      45.450  37.408  33.637  1.00  0.00    -0.744 OA
ENDBRANCH  68  69
ENDBRANCH  47  61
BRANCH  48  73
ATOM     73  C   UNL A   1      42.589  23.814  27.841  1.00  0.00     0.058 A 
ATOM     74  C   UNL A   1      42.585  23.616  26.452  1.00  0.00     0.135 A 
ATOM     75  C   UNL A   1      42.461  22.683  28.661  1.00  0.00     0.135 A 
ATOM     76  F   UNL A   1      42.697  24.665  25.624  1.00  0.00    -0.206 F 
ATOM     77  C   UNL A   1      42.440  22.349  25.896  1.00  0.00     0.059 A 
ATOM     78  C   UNL A   1      42.344  21.401  28.129  1.00  0.00     0.059 A 
ATOM     79  F   UNL A   1      42.477  22.814  29.997  1.00  0.00    -0.206 F 
ATOM     80  C   UNL A   1      42.324  21.246  26.744  1.00  0.00     0.060 A 
BRANCH  80  81
ATOM     81  S   UNL A   1      42.188  19.600  26.013  1.00  0.00     0.124 S 
ATOM     82  O   UNL A   1      43.105  19.704  24.884  1.00  0.00    -0.237 OA
ATOM     83  O   UNL A   1      42.619  18.742  27.111  1.00  0.00    -0.237 OA
ATOM     84  O   UNL A   1      40.773  19.503  25.669  1.00  0.00    -0.744 OA
ENDBRANCH  80  81
ENDBRANCH  48  73
BRANCH  60  85
ATOM     85  C   UNL A   1      47.941  27.282  30.694  1.00  0.00     0.058 A 
ATOM     86  C   UNL A   1      48.296  26.670  31.906  1.00  0.00     0.135 A 
ATOM     87  C   UNL A   1      48.948  27.463  29.732  1.00  0.00     0.135 A 
ATOM     88  F   UNL A   1      47.374  26.480  32.863  1.00  0.00    -0.206 F 
ATOM     89  C   UNL A   1      49.604  26.267  32.160  1.00  0.00     0.059 A 
ATOM     90  C   UNL A   1      50.256  27.040  29.952  1.00  0.00     0.059 A 
ATOM     91  F   UNL A   1      48.661  28.034  28.551  1.00  0.00    -0.206 F 
ATOM     92  C   UNL A   1      50.575  26.450  31.174  1.00  0.00     0.060 A 
BRANCH  92  93
ATOM     93  S   UNL A   1      52.255  25.876  31.498  1.00  0.00     0.124 S 
ATOM     94  O   UNL A   1      52.023  24.494  31.901  1.00  0.00    -0.237 OA
ATOM     95  O   UNL A   1      52.901  26.059  30.201  1.00  0.00    -0.237 OA
ATOM     96  O   UNL A   1      52.722  26.768  32.555  1.00  0.00    -0.744 OA
ENDBRANCH  92  93
ENDBRANCH  60  85
ENDBRANCH  34  35
ENDBRANCH  26  29
ENDBRANCH  24  25
ENDBRANCH  23  24
ENDBRANCH   1  23
TORSDOF 17
ENDMDL
MODEL 2
REMARK VINA RESULT:     -10.7      2.912      9.491
REMARK SMILES C[C@H]1[NH2+]CC[C@H]1C(=O)N1CC(C(=O)NCCCCCCNC(=O)c2ccc(-c3c4nc(c(-c5c(F)cc(S(=O)(=O)[O-])cc5F)c5ccc([nH]5)c(-c5c(F)cc(S(=O)(=O)[O-])cc5F)c5nc(c(-c6c(F)cc(S(=O)(=O)[O-])cc6F)c6ccc3[nH]6)C=C5)C=C4)cc2)C1
REMARK SMILES IDX 18 1 17 2 16 3 15 4 14 5 12 6 13 7 11 9 7 10 8 11 9 12 10 13
REMARK SMILES IDX 90 14 6 15 1 16 2 17 3 18 4 19 5 22 19 23 20 24 21 25 22 26
REMARK SMILES IDX 23 28 24 29 25 30 89 31 26 32 88 33 27 34 28 35 29 36 82 37
REMARK SMILES IDX 30 38 87 39 81 40 83 41 31 42 86 43 80 44 79 45 32 47 66 48
REMARK SMILES IDX 45 49 65 50 46 51 49 52 64 53 84 54 47 55 48 56 63 58 85 59
REMARK SMILES IDX 50 60 33 61 34 62 43 63 35 64 36 65 42 66 44 67 37 68 38 69
REMARK SMILES IDX 39 70 40 71 41 72 67 73 68 74 77 75 69 76 70 77 76 78 78 79
REMARK SMILES IDX 71 80 72 81 73 82 74 83 75 84 51 85 52 86 61 87 53 88 54 89
REMARK SMILES IDX 60 90 62 91 55 92 56 93 57 94 58 95 59 96
REMARK H PARENT 14 8 3 20 3 21 21 27 83 46 49 57
REMARK Flexibility Score: inf
ROOT
ATOM      1  C   UNL A   1      35.456  22.194  26.471  1.00  0.00     0.002 C 
ENDROOT
BRANCH   1   2
ATOM      2  C   UNL A   1      34.052  21.586  26.389  1.00  0.00     0.002 C 
BRANCH   2   3
ATOM      3  C   UNL A   1      33.576  21.224  24.978  1.00  0.00     0.021 C 
BRANCH   3   4
ATOM      4  C   UNL A   1      32.105  21.532  24.704  1.00  0.00     0.116 C 
BRANCH   4   5
ATOM      5  N   UNL A   1      31.383  21.841  25.924  1.00  0.00    -0.356 N 
ATOM      6  C   UNL A   1      30.847  23.018  26.387  1.00  0.00     0.226 C 
ATOM      7  O   UNL A   1      30.287  22.955  27.492  1.00  0.00    -0.275 OA
ATOM      8  H   UNL A   1      31.253  21.072  26.526  1.00  0.00     0.163 HD
BRANCH   6   9
ATOM      9  C   UNL A   1      30.941  24.330  25.604  1.00  0.00     0.117 C 
ATOM     10  C   UNL A   1      31.556  27.554  25.499  1.00  0.00     0.231 C 
ATOM     11  O   UNL A   1      31.460  27.696  24.280  1.00  0.00    -0.274 OA
ATOM     12  N   UNL A   1      31.476  26.311  26.099  1.00  0.00    -0.341 N 
ATOM     13  C   UNL A   1      32.223  25.146  25.570  1.00  0.00     0.134 C 
ATOM     14  C   UNL A   1      30.207  25.554  26.112  1.00  0.00     0.134 C 
BRANCH  10  15
ATOM     15  C   UNL A   1      31.771  28.740  26.430  1.00  0.00     0.142 C 
ATOM     16  C   UNL A   1      34.376  28.526  26.420  1.00  0.00     0.076 C 
ATOM     17  C   UNL A   1      33.094  28.826  27.190  1.00  0.00     0.192 C 
ATOM     18  N   UNL A   1      33.124  30.217  27.670  1.00  0.00    -0.343 N 
ATOM     19  C   UNL A   1      32.312  31.044  26.774  1.00  0.00     0.261 C 
ATOM     20  H   UNL A   1      34.085  30.558  27.675  1.00  0.00     0.346 HD
ATOM     21  H   UNL A   1      32.749  30.264  28.618  1.00  0.00     0.346 HD
ATOM     22  C   UNL A   1      31.647  30.108  25.777  1.00  0.00     0.081 C 
ENDBRANCH  10  15
ENDBRANCH   6   9
ENDBRANCH   4   5
ENDBRANCH   3   4
ENDBRANCH   2   3
ENDBRANCH   1   2
BRANCH   1  23
ATOM     23  C   UNL A   1      35.573  23.632  25.960  1.00  0.00     0.021 C 
BRANCH  23  24
ATOM     24  C   UNL A   1      36.893  23.957  25.269  1.00  0.00     0.116 C 
BRANCH  24  25
ATOM     25  N   UNL A   1      37.914  22.955  25.535  1.00  0.00    -0.352 N 
ATOM     26  C   UNL A   1      39.118  23.097  26.178  1.00  0.00     0.251 C 
ATOM     27  H   UNL A   1      37.711  22.048  25.209  1.00  0.00     0.163 HD
ATOM     28  O   UNL A   1      39.944  22.188  26.143  1.00  0.00    -0.269 OA
BRANCH  26  29
ATOM     29  C   UNL A   1      39.425  24.355  26.891  1.00  0.00     0.039 A 
ATOM     30  C   UNL A   1      38.951  24.533  28.192  1.00  0.00     0.014 A 
ATOM     31  C   UNL A   1      40.186  25.356  26.277  1.00  0.00     0.014 A 
ATOM     32  C   UNL A   1      39.290  25.689  28.901  1.00  0.00     0.010 A 
ATOM     33  C   UNL A   1      40.586  26.468  27.010  1.00  0.00     0.010 A 
ATOM     34  C   UNL A   1      40.139  26.650  28.328  1.00  0.00    -0.014 A 
BRANCH  34  35
ATOM     35  C   UNL A   1      40.566  27.858  29.082  1.00  0.00     0.031 A 
ATOM     36  C   UNL A   1      41.898  27.872  29.785  1.00  0.00     0.074 A 
ATOM     37  C   UNL A   1      39.729  28.908  29.196  1.00  0.00     0.049 A 
ATOM     38  N   UNL A   1      42.406  28.785  30.571  1.00  0.00    -0.248 NA
ATOM     39  C   UNL A   1      42.757  26.691  29.603  1.00  0.00     0.031 C 
ATOM     40  C   UNL A   1      38.397  28.997  28.594  1.00  0.00     0.029 A 
ATOM     41  N   UNL A   1      39.867  30.096  29.868  1.00  0.00    -0.354 N 
ATOM     42  C   UNL A   1      43.633  28.284  30.990  1.00  0.00     0.074 A 
ATOM     43  C   UNL A   1      43.769  26.964  30.414  1.00  0.00     0.031 C 
ATOM     44  C   UNL A   1      37.848  30.181  28.910  1.00  0.00     0.029 A 
ATOM     45  C   UNL A   1      38.768  30.917  29.774  1.00  0.00     0.049 A 
ATOM     46  H   UNL A   1      40.678  30.339  30.372  1.00  0.00     0.167 HD
ATOM     47  C   UNL A   1      44.571  28.879  31.765  1.00  0.00     0.037 A 
ATOM     48  C   UNL A   1      38.520  32.119  30.331  1.00  0.00     0.037 A 
ATOM     49  C   UNL A   1      44.439  30.204  32.313  1.00  0.00     0.049 A 
ATOM     50  C   UNL A   1      39.572  32.756  31.199  1.00  0.00     0.074 A 
ATOM     51  C   UNL A   1      45.356  30.918  33.063  1.00  0.00     0.029 A 
ATOM     52  N   UNL A   1      43.320  31.012  32.175  1.00  0.00    -0.354 N 
ATOM     53  N   UNL A   1      40.753  32.293  31.535  1.00  0.00    -0.248 NA
ATOM     54  C   UNL A   1      39.265  34.080  31.756  1.00  0.00     0.031 C 
ATOM     55  C   UNL A   1      44.770  32.136  33.425  1.00  0.00     0.029 A 
ATOM     56  C   UNL A   1      43.514  32.208  32.847  1.00  0.00     0.049 A 
ATOM     57  H   UNL A   1      42.507  30.771  31.674  1.00  0.00     0.167 HD
ATOM     58  C   UNL A   1      41.342  33.283  32.314  1.00  0.00     0.074 A 
ATOM     59  C   UNL A   1      40.391  34.372  32.395  1.00  0.00     0.031 C 
ATOM     60  C   UNL A   1      42.562  33.291  32.905  1.00  0.00     0.037 A 
BRANCH  47  61
ATOM     61  C   UNL A   1      45.825  28.104  32.069  1.00  0.00     0.058 A 
ATOM     62  C   UNL A   1      45.951  27.327  33.233  1.00  0.00     0.135 A 
ATOM     63  C   UNL A   1      46.901  28.105  31.167  1.00  0.00     0.135 A 
ATOM     64  F   UNL A   1      44.960  27.300  34.139  1.00  0.00    -0.206 F 
ATOM     65  C   UNL A   1      47.108  26.605  33.505  1.00  0.00     0.059 A 
ATOM     66  C   UNL A   1      48.056  27.365  31.402  1.00  0.00     0.059 A 
ATOM     67  F   UNL A   1      46.837  28.831  30.039  1.00  0.00    -0.206 F 
ATOM     68  C   UNL A   1      48.155  26.629  32.583  1.00  0.00     0.060 A 
BRANCH  68  69
ATOM     69  S   UNL A   1      49.647  25.680  32.948  1.00  0.00     0.124 S 
ATOM     70  O   UNL A   1      50.496  26.027  31.812  1.00  0.00    -0.237 OA
ATOM     71  O   UNL A   1      50.057  26.229  34.236  1.00  0.00    -0.237 OA
ATOM     72  O   UNL A   1      49.174  24.300  32.979  1.00  0.00    -0.744 OA
ENDBRANCH  68  69
ENDBRANCH  47  61
BRANCH  48  73
ATOM     73  C   UNL A   1      37.223  32.805  30.074  1.00  0.00     0.058 A 
ATOM     74  C   UNL A   1      36.108  32.574  30.893  1.00  0.00     0.135 A 
ATOM     75  C   UNL A   1      37.078  33.714  29.015  1.00  0.00     0.135 A 
ATOM     76  F   UNL A   1      36.193  31.708  31.915  1.00  0.00    -0.206 F 
ATOM     77  C   UNL A   1      34.889  33.203  30.661  1.00  0.00     0.059 A 
ATOM     78  C   UNL A   1      35.877  34.378  28.780  1.00  0.00     0.059 A 
ATOM     79  F   UNL A   1      38.118  33.985  28.213  1.00  0.00    -0.206 F 
ATOM     80  C   UNL A   1      34.785  34.108  29.604  1.00  0.00     0.060 A 
BRANCH  80  81
ATOM     81  S   UNL A   1      33.213  34.958  29.342  1.00  0.00     0.124 S 
ATOM     82  O   UNL A   1      32.640  34.934  30.683  1.00  0.00    -0.237 OA
ATOM     83  O   UNL A   1      33.649  36.263  28.856  1.00  0.00    -0.237 OA
ATOM     84  O   UNL A   1      32.541  34.122  28.353  1.00  0.00    -0.744 OA
ENDBRANCH  80  81
ENDBRANCH  48  73
BRANCH  60  85
ATOM     85  C   UNL A   1      42.970  34.531  33.653  1.00  0.00     0.058 A 
ATOM     86  C   UNL A   1      42.887  34.617  35.051  1.00  0.00     0.135 A 
ATOM     87  C   UNL A   1      43.522  35.622  32.961  1.00  0.00     0.135 A 
ATOM     88  F   UNL A   1      42.361  33.606  35.761  1.00  0.00    -0.206 F 
ATOM     89  C   UNL A   1      43.321  35.749  35.736  1.00  0.00     0.059 A 
ATOM     90  C   UNL A   1      43.991  36.750  33.627  1.00  0.00     0.059 A 
ATOM     91  F   UNL A   1      43.635  35.588  31.623  1.00  0.00    -0.206 F 
ATOM     92  C   UNL A   1      43.878  36.807  35.015  1.00  0.00     0.060 A 
BRANCH  92  93
ATOM     93  S   UNL A   1      44.484  38.246  35.921  1.00  0.00     0.124 S 
ATOM     94  O   UNL A   1      44.048  39.341  35.060  1.00  0.00    -0.237 OA
ATOM     95  O   UNL A   1      43.785  38.126  37.197  1.00  0.00    -0.237 OA
ATOM     96  O   UNL A   1      45.926  38.030  35.980  1.00  0.00    -0.744 OA
ENDBRANCH  92  93
ENDBRANCH  60  85
ENDBRANCH  34  35
ENDBRANCH  26  29
ENDBRANCH  24  25
ENDBRANCH  23  24
ENDBRANCH   1  23
TORSDOF 17
ENDMDL
MODEL 3
REMARK VINA RESULT:     -10.7      2.372      2.831
REMARK SMILES C[C@H]1[NH2+]CC[C@H]1C(=O)N1CC(C(=O)NCCCCCCNC(=O)c2ccc(-c3c4nc(c(-c5c(F)cc(S(=O)(=O)[O-])cc5F)c5ccc([nH]5)c(-c5c(F)cc(S(=O)(=O)[O-])cc5F)c5nc(c(-c6c(F)cc(S(=O)(=O)[O-])cc6F)c6ccc3[nH]6)C=C5)C=C4)cc2)C1
REMARK SMILES IDX 18 1 17 2 16 3 15 4 14 5 12 6 13 7 11 9 7 10 8 11 9 12 10 13
REMARK SMILES IDX 90 14 6 15 1 16 2 17 3 18 4 19 5 22 19 23 20 24 21 25 22 26
REMARK SMILES IDX 23 28 24 29 25 30 89 31 26 32 88 33 27 34 28 35 29 36 82 37
REMARK SMILES IDX 30 38 87 39 81 40 83 41 31 42 86 43 80 44 79 45 32 47 66 48
REMARK SMILES IDX 45 49 65 50 46 51 49 52 64 53 84 54 47 55 48 56 63 58 85 59
REMARK SMILES IDX 50 60 33 61 34 62 43 63 35 64 36 65 42 66 44 67 37 68 38 69
REMARK SMILES IDX 39 70 40 71 41 72 67 73 68 74 77 75 69 76 70 77 76 78 78 79
REMARK SMILES IDX 71 80 72 81 73 82 74 83 75 84 51 85 52 86 61 87 53 88 54 89
REMARK SMILES IDX 60 90 62 91 55 92 56 93 57 94 58 95 59 96
REMARK H PARENT 14 8 3 20 3 21 21 27 83 46 49 57
REMARK Flexibility Score: inf
ROOT
ATOM      1  C   UNL A   1      31.823  28.436  25.049  1.00  0.00     0.002 C 
ENDROOT
BRANCH   1   2
ATOM      2  C   UNL A   1      31.023  29.342  24.107  1.00  0.00     0.002 C 
BRANCH   2   3
ATOM      3  C   UNL A   1      30.711  28.743  22.731  1.00  0.00     0.021 C 
BRANCH   3   4
ATOM      4  C   UNL A   1      30.849  27.224  22.652  1.00  0.00     0.116 C 
BRANCH   4   5
ATOM      5  N   UNL A   1      31.653  26.814  21.515  1.00  0.00    -0.356 N 
ATOM      6  C   UNL A   1      32.433  25.704  21.310  1.00  0.00     0.226 C 
ATOM      7  O   UNL A   1      33.011  25.647  20.213  1.00  0.00    -0.275 OA
ATOM      8  H   UNL A   1      31.635  27.443  20.757  1.00  0.00     0.163 HD
BRANCH   6   9
ATOM      9  C   UNL A   1      32.598  24.606  22.365  1.00  0.00     0.117 C 
ATOM     10  C   UNL A   1      34.513  22.594  24.117  1.00  0.00     0.231 C 
ATOM     11  O   UNL A   1      33.636  22.133  24.846  1.00  0.00    -0.274 OA
ATOM     12  N   UNL A   1      34.253  23.606  23.210  1.00  0.00    -0.341 N 
ATOM     13  C   UNL A   1      33.473  24.806  23.591  1.00  0.00     0.134 C 
ATOM     14  C   UNL A   1      33.399  23.365  22.028  1.00  0.00     0.134 C 
BRANCH  10  15
ATOM     15  C   UNL A   1      35.947  22.083  24.164  1.00  0.00     0.142 C 
ATOM     16  C   UNL A   1      36.713  23.818  25.963  1.00  0.00     0.076 C 
ATOM     17  C   UNL A   1      37.026  23.023  24.701  1.00  0.00     0.192 C 
ATOM     18  N   UNL A   1      38.165  22.125  24.956  1.00  0.00    -0.343 N 
ATOM     19  C   UNL A   1      37.656  20.775  25.207  1.00  0.00     0.261 C 
ATOM     20  H   UNL A   1      38.684  22.453  25.771  1.00  0.00     0.346 HD
ATOM     21  H   UNL A   1      38.787  22.116  24.147  1.00  0.00     0.346 HD
ATOM     22  C   UNL A   1      36.155  20.809  24.967  1.00  0.00     0.081 C 
ENDBRANCH  10  15
ENDBRANCH   6   9
ENDBRANCH   4   5
ENDBRANCH   3   4
ENDBRANCH   2   3
ENDBRANCH   1   2
BRANCH   1  23
ATOM     23  C   UNL A   1      33.340  28.474  24.855  1.00  0.00     0.021 C 
BRANCH  23  24
ATOM     24  C   UNL A   1      34.135  28.826  26.107  1.00  0.00     0.116 C 
BRANCH  24  25
ATOM     25  N   UNL A   1      33.842  30.169  26.584  1.00  0.00    -0.352 N 
ATOM     26  C   UNL A   1      34.466  30.892  27.570  1.00  0.00     0.251 C 
ATOM     27  H   UNL A   1      33.091  30.623  26.137  1.00  0.00     0.163 HD
ATOM     28  O   UNL A   1      33.964  31.937  27.976  1.00  0.00    -0.269 OA
BRANCH  26  29
ATOM     29  C   UNL A   1      35.731  30.397  28.153  1.00  0.00     0.039 A 
ATOM     30  C   UNL A   1      36.943  30.770  27.569  1.00  0.00     0.014 A 
ATOM     31  C   UNL A   1      35.720  29.568  29.280  1.00  0.00     0.014 A 
ATOM     32  C   UNL A   1      38.146  30.363  28.151  1.00  0.00     0.010 A 
ATOM     33  C   UNL A   1      36.917  29.229  29.901  1.00  0.00     0.010 A 
ATOM     34  C   UNL A   1      38.144  29.618  29.341  1.00  0.00    -0.014 A 
BRANCH  34  35
ATOM     35  C   UNL A   1      39.410  29.225  30.015  1.00  0.00     0.031 A 
ATOM     36  C   UNL A   1      39.905  30.011  31.199  1.00  0.00     0.074 A 
ATOM     37  C   UNL A   1      40.147  28.212  29.518  1.00  0.00     0.049 A 
ATOM     38  N   UNL A   1      41.029  29.891  31.859  1.00  0.00    -0.248 NA
ATOM     39  C   UNL A   1      39.037  31.096  31.687  1.00  0.00     0.031 C 
ATOM     40  C   UNL A   1      39.793  27.400  28.352  1.00  0.00     0.029 A 
ATOM     41  N   UNL A   1      41.355  27.701  29.921  1.00  0.00    -0.354 N 
ATOM     42  C   UNL A   1      41.009  30.889  32.825  1.00  0.00     0.074 A 
ATOM     43  C   UNL A   1      39.789  31.642  32.631  1.00  0.00     0.031 C 
ATOM     44  C   UNL A   1      40.752  26.484  28.144  1.00  0.00     0.029 A 
ATOM     45  C   UNL A   1      41.812  26.671  29.132  1.00  0.00     0.049 A 
ATOM     46  H   UNL A   1      41.850  28.039  30.703  1.00  0.00     0.167 HD
ATOM     47  C   UNL A   1      41.915  31.143  33.800  1.00  0.00     0.037 A 
ATOM     48  C   UNL A   1      42.959  25.965  29.187  1.00  0.00     0.037 A 
ATOM     49  C   UNL A   1      43.115  30.373  34.001  1.00  0.00     0.049 A 
ATOM     50  C   UNL A   1      43.957  26.272  30.272  1.00  0.00     0.074 A 
ATOM     51  C   UNL A   1      44.069  30.513  34.994  1.00  0.00     0.029 A 
ATOM     52  N   UNL A   1      43.530  29.323  33.195  1.00  0.00    -0.354 N 
ATOM     53  N   UNL A   1      43.894  27.182  31.215  1.00  0.00    -0.248 NA
ATOM     54  C   UNL A   1      45.177  25.454  30.306  1.00  0.00     0.031 C 
ATOM     55  C   UNL A   1      45.087  29.584  34.756  1.00  0.00     0.029 A 
ATOM     56  C   UNL A   1      44.737  28.822  33.654  1.00  0.00     0.049 A 
ATOM     57  H   UNL A   1      43.038  28.984  32.412  1.00  0.00     0.167 HD
ATOM     58  C   UNL A   1      45.048  27.022  31.975  1.00  0.00     0.074 A 
ATOM     59  C   UNL A   1      45.787  25.926  31.385  1.00  0.00     0.031 C 
ATOM     60  C   UNL A   1      45.455  27.718  33.065  1.00  0.00     0.037 A 
BRANCH  47  61
ATOM     61  C   UNL A   1      41.647  32.301  34.724  1.00  0.00     0.058 A 
ATOM     62  C   UNL A   1      40.873  32.155  35.887  1.00  0.00     0.135 A 
ATOM     63  C   UNL A   1      42.205  33.563  34.464  1.00  0.00     0.135 A 
ATOM     64  F   UNL A   1      40.303  30.975  36.178  1.00  0.00    -0.206 F 
ATOM     65  C   UNL A   1      40.637  33.226  36.743  1.00  0.00     0.059 A 
ATOM     66  C   UNL A   1      42.009  34.641  35.323  1.00  0.00     0.059 A 
ATOM     67  F   UNL A   1      42.952  33.760  33.366  1.00  0.00    -0.206 F 
ATOM     68  C   UNL A   1      41.210  34.466  36.453  1.00  0.00     0.060 A 
BRANCH  68  69
ATOM     69  S   UNL A   1      40.899  35.842  37.578  1.00  0.00     0.124 S 
ATOM     70  O   UNL A   1      39.916  36.616  36.824  1.00  0.00    -0.237 OA
ATOM     71  O   UNL A   1      40.395  35.165  38.767  1.00  0.00    -0.237 OA
ATOM     72  O   UNL A   1      42.210  36.468  37.722  1.00  0.00    -0.744 OA
ENDBRANCH  68  69
ENDBRANCH  47  61
BRANCH  48  73
ATOM     73  C   UNL A   1      43.219  24.890  28.190  1.00  0.00     0.058 A 
ATOM     74  C   UNL A   1      43.800  25.181  26.947  1.00  0.00     0.135 A 
ATOM     75  C   UNL A   1      42.906  23.550  28.466  1.00  0.00     0.135 A 
ATOM     76  F   UNL A   1      44.112  26.448  26.632  1.00  0.00    -0.206 F 
ATOM     77  C   UNL A   1      44.044  24.188  26.004  1.00  0.00     0.059 A 
ATOM     78  C   UNL A   1      43.167  22.534  27.551  1.00  0.00     0.059 A 
ATOM     79  F   UNL A   1      42.366  23.214  29.647  1.00  0.00    -0.206 F 
ATOM     80  C   UNL A   1      43.727  22.865  26.318  1.00  0.00     0.060 A 
BRANCH  80  81
ATOM     81  S   UNL A   1      44.094  21.576  25.108  1.00  0.00     0.124 S 
ATOM     82  O   UNL A   1      43.978  22.310  23.853  1.00  0.00    -0.237 OA
ATOM     83  O   UNL A   1      45.444  21.173  25.490  1.00  0.00    -0.237 OA
ATOM     84  O   UNL A   1      43.057  20.579  25.354  1.00  0.00    -0.744 OA
ENDBRANCH  80  81
ENDBRANCH  48  73
BRANCH  60  85
ATOM     85  C   UNL A   1      46.735  27.291  33.730  1.00  0.00     0.058 A 
ATOM     86  C   UNL A   1      46.761  26.304  34.727  1.00  0.00     0.135 A 
ATOM     87  C   UNL A   1      47.963  27.827  33.308  1.00  0.00     0.135 A 
ATOM     88  F   UNL A   1      45.616  25.763  35.173  1.00  0.00    -0.206 F 
ATOM     89  C   UNL A   1      47.958  25.876  35.295  1.00  0.00     0.059 A 
ATOM     90  C   UNL A   1      49.174  27.393  33.839  1.00  0.00     0.059 A 
ATOM     91  F   UNL A   1      47.997  28.767  32.349  1.00  0.00    -0.206 F 
ATOM     92  C   UNL A   1      49.159  26.422  34.839  1.00  0.00     0.060 A 
BRANCH  92  93
ATOM     93  S   UNL A   1      50.707  25.821  35.548  1.00  0.00     0.124 S 
ATOM     94  O   UNL A   1      51.679  26.723  34.940  1.00  0.00    -0.237 OA
ATOM     95  O   UNL A   1      50.482  26.002  36.979  1.00  0.00    -0.237 OA
ATOM     96  O   UNL A   1      50.772  24.434  35.100  1.00  0.00    -0.744 OA
ENDBRANCH  92  93
ENDBRANCH  60  85
ENDBRANCH  34  35
ENDBRANCH  26  29
ENDBRANCH  24  25
ENDBRANCH  23  24
ENDBRANCH   1  23
TORSDOF 17
ENDMDL
