MODEL 1
REMARK VINA RESULT:     -10.8      0.000      0.000
REMARK SMILES NC(=O)C[C@@H](NC(=O)c1ccc(CO)cc1)C(=O)NCCCCCCNC(=O)c1ccc(-c2c3nc(c(-c4c(F)cc(S(=O)(=O)[O-])cc4F)c4ccc([nH]4)c(-c4c(F)cc(S(=O)(=O)[O-])cc4F)c4nc(c(-c5c(F)cc(S(=O)(=O)[O-])cc5F)c5ccc2[nH]5)C=C4)C=C3)cc1
REMARK SMILES IDX 22 1 21 2 20 3 19 4 17 5 18 6 5 8 4 9 2 10 1 11 3 14 6 15
REMARK SMILES IDX 7 16 8 18 9 19 10 20 16 21 11 22 15 23 12 24 13 25 14 26
REMARK SMILES IDX 23 28 24 29 25 30 26 31 27 32 28 34 29 35 30 36 94 37 31 38
REMARK SMILES IDX 93 39 32 40 33 41 34 42 87 43 35 44 92 45 86 46 88 47 36 48
REMARK SMILES IDX 91 49 85 50 84 51 37 53 71 54 50 55 70 56 51 57 54 58 69 59
REMARK SMILES IDX 89 60 52 61 53 62 68 64 90 65 55 66 38 67 39 68 48 69 40 70
REMARK SMILES IDX 41 71 47 72 49 73 42 74 43 75 44 76 45 77 46 78 72 79 73 80
REMARK SMILES IDX 82 81 74 82 75 83 81 84 83 85 76 86 77 87 78 88 79 89 80 90
REMARK SMILES IDX 56 91 57 92 66 93 58 94 59 95 65 96 67 97 60 98 61 99 62 100
REMARK SMILES IDX 63 101 64 102
REMARK H PARENT 19 7 1 12 1 13 6 17 14 27 26 33 88 52 54 63
REMARK Flexibility Score: inf
ROOT
ATOM      1  C   UNL A   1      32.707  30.309  27.450  1.00  0.00     0.002 C 
ENDROOT
BRANCH   1   2
ATOM      2  C   UNL A   1      34.072  29.865  26.912  1.00  0.00     0.021 C 
BRANCH   2   3
ATOM      3  C   UNL A   1      34.048  28.478  26.283  1.00  0.00     0.116 C 
BRANCH   3   4
ATOM      4  N   UNL A   1      34.268  28.578  24.852  1.00  0.00    -0.354 N 
ATOM      5  C   UNL A   1      33.434  28.304  23.815  1.00  0.00     0.243 C 
ATOM      6  O   UNL A   1      33.909  28.321  22.675  1.00  0.00    -0.273 OA
ATOM      7  H   UNL A   1      35.163  28.894  24.592  1.00  0.00     0.163 HD
BRANCH   5   8
ATOM      8  C   UNL A   1      31.986  27.852  24.051  1.00  0.00     0.180 C 
BRANCH   8   9
ATOM      9  C   UNL A   1      31.134  29.098  23.745  1.00  0.00     0.134 C 
BRANCH   9  10
ATOM     10  C   UNL A   1      30.483  29.072  22.392  1.00  0.00     0.220 C 
ATOM     11  N   UNL A   1      30.879  30.062  21.540  1.00  0.00    -0.370 N 
ATOM     12  H   UNL A   1      30.497  30.113  20.634  1.00  0.00     0.159 HD
ATOM     13  H   UNL A   1      31.544  30.725  21.831  1.00  0.00     0.159 HD
ATOM     14  O   UNL A   1      29.648  28.240  22.062  1.00  0.00    -0.275 OA
ENDBRANCH   9  10
ENDBRANCH   8   9
BRANCH   8  15
ATOM     15  N   UNL A   1      31.548  26.646  23.316  1.00  0.00    -0.340 N 
ATOM     16  C   UNL A   1      31.332  25.352  23.748  1.00  0.00     0.251 C 
ATOM     17  H   UNL A   1      31.380  26.791  22.356  1.00  0.00     0.164 HD
ATOM     18  O   UNL A   1      30.604  24.616  23.087  1.00  0.00    -0.269 OA
BRANCH  16  19
ATOM     19  C   UNL A   1      32.109  24.777  24.867  1.00  0.00     0.039 A 
ATOM     20  C   UNL A   1      31.385  24.292  25.964  1.00  0.00     0.014 A 
ATOM     21  C   UNL A   1      33.491  24.618  24.824  1.00  0.00     0.014 A 
ATOM     22  C   UNL A   1      32.018  23.500  26.923  1.00  0.00     0.007 A 
ATOM     23  C   UNL A   1      34.121  23.808  25.777  1.00  0.00     0.007 A 
ATOM     24  C   UNL A   1      33.378  23.194  26.796  1.00  0.00    -0.023 A 
BRANCH  24  25
ATOM     25  C   UNL A   1      34.006  22.164  27.702  1.00  0.00     0.191 C 
BRANCH  25  26
ATOM     26  O   UNL A   1      33.652  20.845  27.318  1.00  0.00    -0.392 OA
ATOM     27  H   UNL A   1      34.404  20.425  26.872  1.00  0.00     0.211 HD
ENDBRANCH  25  26
ENDBRANCH  24  25
ENDBRANCH  16  19
ENDBRANCH   8  15
ENDBRANCH   5   8
ENDBRANCH   3   4
ENDBRANCH   2   3
ENDBRANCH   1   2
BRANCH   1  28
ATOM     28  C   UNL A   1      31.878  31.150  26.475  1.00  0.00     0.002 C 
BRANCH  28  29
ATOM     29  C   UNL A   1      31.703  32.616  26.873  1.00  0.00     0.021 C 
BRANCH  29  30
ATOM     30  C   UNL A   1      32.877  33.194  27.649  1.00  0.00     0.116 C 
BRANCH  30  31
ATOM     31  N   UNL A   1      32.661  34.586  28.010  1.00  0.00    -0.352 N 
ATOM     32  C   UNL A   1      33.237  35.305  29.025  1.00  0.00     0.251 C 
ATOM     33  H   UNL A   1      32.015  35.076  27.451  1.00  0.00     0.163 HD
ATOM     34  O   UNL A   1      32.815  36.421  29.311  1.00  0.00    -0.269 OA
BRANCH  32  35
ATOM     35  C   UNL A   1      34.354  34.707  29.781  1.00  0.00     0.039 A 
ATOM     36  C   UNL A   1      34.102  34.160  31.040  1.00  0.00     0.014 A 
ATOM     37  C   UNL A   1      35.639  34.663  29.231  1.00  0.00     0.014 A 
ATOM     38  C   UNL A   1      35.133  33.518  31.727  1.00  0.00     0.010 A 
ATOM     39  C   UNL A   1      36.643  33.955  29.881  1.00  0.00     0.010 A 
ATOM     40  C   UNL A   1      36.403  33.384  31.140  1.00  0.00    -0.014 A 
BRANCH  40  41
ATOM     41  C   UNL A   1      37.494  32.655  31.831  1.00  0.00     0.031 A 
ATOM     42  C   UNL A   1      38.012  33.155  33.153  1.00  0.00     0.074 A 
ATOM     43  C   UNL A   1      38.062  31.586  31.238  1.00  0.00     0.049 A 
ATOM     44  N   UNL A   1      38.999  32.696  33.878  1.00  0.00    -0.248 NA
ATOM     45  C   UNL A   1      37.356  34.345  33.719  1.00  0.00     0.031 C 
ATOM     46  C   UNL A   1      37.685  31.047  29.928  1.00  0.00     0.029 A 
ATOM     47  N   UNL A   1      39.084  30.768  31.649  1.00  0.00    -0.354 N 
ATOM     48  C   UNL A   1      39.093  33.549  34.971  1.00  0.00     0.074 A 
ATOM     49  C   UNL A   1      38.099  34.584  34.790  1.00  0.00     0.031 C 
ATOM     50  C   UNL A   1      38.453  29.980  29.653  1.00  0.00     0.029 A 
ATOM     51  C   UNL A   1      39.400  29.780  30.747  1.00  0.00     0.049 A 
ATOM     52  H   UNL A   1      39.548  30.880  32.510  1.00  0.00     0.167 HD
ATOM     53  C   UNL A   1      39.920  33.465  36.040  1.00  0.00     0.037 A 
ATOM     54  C   UNL A   1      40.351  28.828  30.791  1.00  0.00     0.037 A 
ATOM     55  C   UNL A   1      40.880  32.410  36.230  1.00  0.00     0.049 A 
ATOM     56  C   UNL A   1      41.240  28.739  32.001  1.00  0.00     0.074 A 
ATOM     57  C   UNL A   1      41.707  32.187  37.316  1.00  0.00     0.029 A 
ATOM     58  N   UNL A   1      41.143  31.402  35.313  1.00  0.00    -0.354 N 
ATOM     59  N   UNL A   1      41.261  29.507  33.065  1.00  0.00    -0.248 NA
ATOM     60  C   UNL A   1      42.228  27.653  32.025  1.00  0.00     0.031 C 
ATOM     61  C   UNL A   1      42.506  31.075  37.035  1.00  0.00     0.029 A 
ATOM     62  C   UNL A   1      42.138  30.571  35.798  1.00  0.00     0.049 A 
ATOM     63  H   UNL A   1      40.689  31.295  34.446  1.00  0.00     0.167 HD
ATOM     64  C   UNL A   1      42.243  28.979  33.897  1.00  0.00     0.074 A 
ATOM     65  C   UNL A   1      42.784  27.821  33.218  1.00  0.00     0.031 C 
ATOM     66  C   UNL A   1      42.659  29.414  35.112  1.00  0.00     0.037 A 
BRANCH  53  67
ATOM     67  C   UNL A   1      39.824  34.537  37.091  1.00  0.00     0.058 A 
ATOM     68  C   UNL A   1      40.652  35.670  37.071  1.00  0.00     0.135 A 
ATOM     69  C   UNL A   1      38.853  34.454  38.104  1.00  0.00     0.135 A 
ATOM     70  F   UNL A   1      41.608  35.792  36.136  1.00  0.00    -0.206 F 
ATOM     71  C   UNL A   1      40.536  36.673  38.028  1.00  0.00     0.059 A 
ATOM     72  C   UNL A   1      38.700  35.459  39.054  1.00  0.00     0.059 A 
ATOM     73  F   UNL A   1      38.037  33.391  38.173  1.00  0.00    -0.206 F 
ATOM     74  C   UNL A   1      39.555  36.560  39.014  1.00  0.00     0.060 A 
BRANCH  74  75
ATOM     75  S   UNL A   1      39.403  37.881  40.233  1.00  0.00     0.124 S 
ATOM     76  O   UNL A   1      39.478  37.132  41.484  1.00  0.00    -0.237 OA
ATOM     77  O   UNL A   1      40.557  38.721  39.929  1.00  0.00    -0.237 OA
ATOM     78  O   UNL A   1      38.104  38.475  39.934  1.00  0.00    -0.744 OA
ENDBRANCH  74  75
ENDBRANCH  53  67
BRANCH  54  79
ATOM     79  C   UNL A   1      40.502  27.874  29.659  1.00  0.00     0.058 A 
ATOM     80  C   UNL A   1      39.655  26.764  29.527  1.00  0.00     0.135 A 
ATOM     81  C   UNL A   1      41.494  28.056  28.683  1.00  0.00     0.135 A 
ATOM     82  F   UNL A   1      38.692  26.543  30.437  1.00  0.00    -0.206 F 
ATOM     83  C   UNL A   1      39.798  25.857  28.482  1.00  0.00     0.059 A 
ATOM     84  C   UNL A   1      41.640  27.179  27.613  1.00  0.00     0.059 A 
ATOM     85  F   UNL A   1      42.319  29.114  28.751  1.00  0.00    -0.206 F 
ATOM     86  C   UNL A   1      40.794  26.073  27.530  1.00  0.00     0.060 A 
BRANCH  86  87
ATOM     87  S   UNL A   1      40.949  24.911  26.156  1.00  0.00     0.124 S 
ATOM     88  O   UNL A   1      39.599  24.366  26.081  1.00  0.00    -0.237 OA
ATOM     89  O   UNL A   1      41.348  25.786  25.058  1.00  0.00    -0.237 OA
ATOM     90  O   UNL A   1      41.980  23.985  26.615  1.00  0.00    -0.744 OA
ENDBRANCH  86  87
ENDBRANCH  54  79
BRANCH  66  91
ATOM     91  C   UNL A   1      43.726  28.615  35.806  1.00  0.00     0.058 A 
ATOM     92  C   UNL A   1      45.084  28.956  35.712  1.00  0.00     0.135 A 
ATOM     93  C   UNL A   1      43.377  27.529  36.626  1.00  0.00     0.135 A 
ATOM     94  F   UNL A   1      45.471  29.982  34.938  1.00  0.00    -0.206 F 
ATOM     95  C   UNL A   1      46.062  28.233  36.387  1.00  0.00     0.059 A 
ATOM     96  C   UNL A   1      44.335  26.811  37.334  1.00  0.00     0.059 A 
ATOM     97  F   UNL A   1      42.090  27.169  36.760  1.00  0.00    -0.206 F 
ATOM     98  C   UNL A   1      45.677  27.163  37.197  1.00  0.00     0.060 A 
BRANCH  98  99
ATOM     99  S   UNL A   1      46.953  26.256  38.096  1.00  0.00     0.124 S 
ATOM    100  O   UNL A   1      46.506  24.878  37.927  1.00  0.00    -0.237 OA
ATOM    101  O   UNL A   1      48.166  26.623  37.373  1.00  0.00    -0.237 OA
ATOM    102  O   UNL A   1      46.855  26.786  39.453  1.00  0.00    -0.744 OA
ENDBRANCH  98  99
ENDBRANCH  66  91
ENDBRANCH  40  41
ENDBRANCH  32  35
ENDBRANCH  30  31
ENDBRANCH  29  30
ENDBRANCH  28  29
ENDBRANCH   1  28
TORSDOF 22
ENDMDL
MODEL 2
REMARK VINA RESULT:     -10.6      6.314      8.866
REMARK SMILES NC(=O)C[C@@H](NC(=O)c1ccc(CO)cc1)C(=O)NCCCCCCNC(=O)c1ccc(-c2c3nc(c(-c4c(F)cc(S(=O)(=O)[O-])cc4F)c4ccc([nH]4)c(-c4c(F)cc(S(=O)(=O)[O-])cc4F)c4nc(c(-c5c(F)cc(S(=O)(=O)[O-])cc5F)c5ccc2[nH]5)C=C4)C=C3)cc1
REMARK SMILES IDX 22 1 21 2 20 3 19 4 17 5 18 6 5 8 4 9 2 10 1 11 3 14 6 15
REMARK SMILES IDX 7 16 8 18 9 19 10 20 16 21 11 22 15 23 12 24 13 25 14 26
REMARK SMILES IDX 23 28 24 29 25 30 26 31 27 32 28 34 29 35 30 36 94 37 31 38
REMARK SMILES IDX 93 39 32 40 33 41 34 42 87 43 35 44 92 45 86 46 88 47 36 48
REMARK SMILES IDX 91 49 85 50 84 51 37 53 71 54 50 55 70 56 51 57 54 58 69 59
REMARK SMILES IDX 89 60 52 61 53 62 68 64 90 65 55 66 38 67 39 68 48 69 40 70
REMARK SMILES IDX 41 71 47 72 49 73 42 74 43 75 44 76 45 77 46 78 72 79 73 80
REMARK SMILES IDX 82 81 74 82 75 83 81 84 83 85 76 86 77 87 78 88 79 89 80 90
REMARK SMILES IDX 56 91 57 92 66 93 58 94 59 95 65 96 67 97 60 98 61 99 62 100
REMARK SMILES IDX 63 101 64 102
REMARK H PARENT 19 7 1 12 1 13 6 17 14 27 26 33 88 52 54 63
REMARK Flexibility Score: inf
ROOT
ATOM      1  C   UNL A   1      32.541  29.081  26.771  1.00  0.00     0.002 C 
ENDROOT
BRANCH   1   2
ATOM      2  C   UNL A   1      31.856  27.810  27.288  1.00  0.00     0.021 C 
BRANCH   2   3
ATOM      3  C   UNL A   1      31.780  26.702  26.246  1.00  0.00     0.116 C 
BRANCH   3   4
ATOM      4  N   UNL A   1      31.229  25.499  26.840  1.00  0.00    -0.354 N 
ATOM      5  C   UNL A   1      31.662  24.212  26.777  1.00  0.00     0.243 C 
ATOM      6  O   UNL A   1      30.928  23.335  27.244  1.00  0.00    -0.273 OA
ATOM      7  H   UNL A   1      30.414  25.636  27.373  1.00  0.00     0.163 HD
BRANCH   5   8
ATOM      8  C   UNL A   1      32.950  23.837  26.030  1.00  0.00     0.180 C 
BRANCH   8   9
ATOM      9  C   UNL A   1      33.797  23.080  27.070  1.00  0.00     0.134 C 
BRANCH   9  10
ATOM     10  C   UNL A   1      34.166  21.685  26.655  1.00  0.00     0.220 C 
ATOM     11  N   UNL A   1      35.502  21.464  26.491  1.00  0.00    -0.370 N 
ATOM     12  H   UNL A   1      35.825  20.574  26.220  1.00  0.00     0.159 HD
ATOM     13  H   UNL A   1      36.144  22.194  26.642  1.00  0.00     0.159 HD
ATOM     14  O   UNL A   1      33.343  20.800  26.464  1.00  0.00    -0.275 OA
ENDBRANCH   9  10
ENDBRANCH   8   9
BRANCH   8  15
ATOM     15  N   UNL A   1      32.779  23.097  24.761  1.00  0.00    -0.340 N 
ATOM     16  C   UNL A   1      32.939  23.500  23.451  1.00  0.00     0.251 C 
ATOM     17  H   UNL A   1      32.506  22.156  24.870  1.00  0.00     0.164 HD
ATOM     18  O   UNL A   1      33.138  22.651  22.585  1.00  0.00    -0.269 OA
BRANCH  16  19
ATOM     19  C   UNL A   1      32.682  24.897  23.040  1.00  0.00     0.039 A 
ATOM     20  C   UNL A   1      31.354  25.247  22.764  1.00  0.00     0.014 A 
ATOM     21  C   UNL A   1      33.675  25.871  23.015  1.00  0.00     0.014 A 
ATOM     22  C   UNL A   1      30.998  26.590  22.637  1.00  0.00     0.007 A 
ATOM     23  C   UNL A   1      33.313  27.220  22.906  1.00  0.00     0.007 A 
ATOM     24  C   UNL A   1      31.967  27.592  22.779  1.00  0.00    -0.023 A 
BRANCH  24  25
ATOM     25  C   UNL A   1      31.548  29.038  22.864  1.00  0.00     0.191 C 
BRANCH  25  26
ATOM     26  O   UNL A   1      30.847  29.450  21.702  1.00  0.00    -0.392 OA
ATOM     27  H   UNL A   1      30.473  28.672  21.257  1.00  0.00     0.211 HD
ENDBRANCH  25  26
ENDBRANCH  24  25
ENDBRANCH  16  19
ENDBRANCH   8  15
ENDBRANCH   5   8
ENDBRANCH   3   4
ENDBRANCH   2   3
ENDBRANCH   1   2
BRANCH   1  28
ATOM     28  C   UNL A   1      33.994  28.889  26.327  1.00  0.00     0.002 C 
BRANCH  28  29
ATOM     29  C   UNL A   1      35.005  29.811  27.008  1.00  0.00     0.021 C 
BRANCH  29  30
ATOM     30  C   UNL A   1      35.540  29.280  28.330  1.00  0.00     0.116 C 
BRANCH  30  31
ATOM     31  N   UNL A   1      35.476  30.278  29.385  1.00  0.00    -0.352 N 
ATOM     32  C   UNL A   1      36.501  30.803  30.128  1.00  0.00     0.251 C 
ATOM     33  H   UNL A   1      34.577  30.622  29.594  1.00  0.00     0.163 HD
ATOM     34  O   UNL A   1      36.262  31.506  31.105  1.00  0.00    -0.269 OA
BRANCH  32  35
ATOM     35  C   UNL A   1      37.893  30.491  29.749  1.00  0.00     0.039 A 
ATOM     36  C   UNL A   1      38.828  30.238  30.755  1.00  0.00     0.014 A 
ATOM     37  C   UNL A   1      38.262  30.419  28.402  1.00  0.00     0.014 A 
ATOM     38  C   UNL A   1      40.124  29.860  30.406  1.00  0.00     0.010 A 
ATOM     39  C   UNL A   1      39.529  29.966  28.058  1.00  0.00     0.010 A 
ATOM     40  C   UNL A   1      40.476  29.692  29.056  1.00  0.00    -0.014 A 
BRANCH  40  41
ATOM     41  C   UNL A   1      41.834  29.234  28.669  1.00  0.00     0.031 A 
ATOM     42  C   UNL A   1      42.962  30.226  28.575  1.00  0.00     0.074 A 
ATOM     43  C   UNL A   1      42.032  27.943  28.337  1.00  0.00     0.049 A 
ATOM     44  N   UNL A   1      44.198  30.034  28.194  1.00  0.00    -0.248 NA
ATOM     45  C   UNL A   1      42.654  31.621  28.928  1.00  0.00     0.031 C 
ATOM     46  C   UNL A   1      40.999  26.903  28.330  1.00  0.00     0.029 A 
ATOM     47  N   UNL A   1      43.165  27.285  27.929  1.00  0.00    -0.354 N 
ATOM     48  C   UNL A   1      44.806  31.283  28.241  1.00  0.00     0.074 A 
ATOM     49  C   UNL A   1      43.792  32.234  28.639  1.00  0.00     0.031 C 
ATOM     50  C   UNL A   1      41.551  25.738  27.954  1.00  0.00     0.029 A 
ATOM     51  C   UNL A   1      42.965  25.952  27.659  1.00  0.00     0.049 A 
ATOM     52  H   UNL A   1      44.040  27.727  27.838  1.00  0.00     0.167 HD
ATOM     53  C   UNL A   1      46.099  31.602  27.996  1.00  0.00     0.037 A 
ATOM     54  C   UNL A   1      43.820  25.012  27.214  1.00  0.00     0.037 A 
ATOM     55  C   UNL A   1      47.109  30.642  27.639  1.00  0.00     0.049 A 
ATOM     56  C   UNL A   1      45.257  25.387  26.974  1.00  0.00     0.074 A 
ATOM     57  C   UNL A   1      48.464  30.850  27.449  1.00  0.00     0.029 A 
ATOM     58  N   UNL A   1      46.876  29.293  27.414  1.00  0.00    -0.354 N 
ATOM     59  N   UNL A   1      45.834  26.558  27.103  1.00  0.00    -0.248 NA
ATOM     60  C   UNL A   1      46.162  24.316  26.538  1.00  0.00     0.031 C 
ATOM     61  C   UNL A   1      49.041  29.638  27.061  1.00  0.00     0.029 A 
ATOM     62  C   UNL A   1      48.058  28.662  27.063  1.00  0.00     0.049 A 
ATOM     63  H   UNL A   1      46.000  28.850  27.492  1.00  0.00     0.167 HD
ATOM     64  C   UNL A   1      47.175  26.359  26.791  1.00  0.00     0.074 A 
ATOM     65  C   UNL A   1      47.324  24.952  26.480  1.00  0.00     0.031 C 
ATOM     66  C   UNL A   1      48.190  27.257  26.765  1.00  0.00     0.037 A 
BRANCH  53  67
ATOM     67  C   UNL A   1      46.500  33.048  28.110  1.00  0.00     0.058 A 
ATOM     68  C   UNL A   1      46.415  33.928  27.019  1.00  0.00     0.135 A 
ATOM     69  C   UNL A   1      46.926  33.572  29.342  1.00  0.00     0.135 A 
ATOM     70  F   UNL A   1      46.032  33.476  25.814  1.00  0.00    -0.206 F 
ATOM     71  C   UNL A   1      46.758  35.270  27.139  1.00  0.00     0.059 A 
ATOM     72  C   UNL A   1      47.246  34.919  29.492  1.00  0.00     0.059 A 
ATOM     73  F   UNL A   1      47.029  32.775  30.416  1.00  0.00    -0.206 F 
ATOM     74  C   UNL A   1      47.169  35.758  28.381  1.00  0.00     0.060 A 
BRANCH  74  75
ATOM     75  S   UNL A   1      47.588  37.507  28.525  1.00  0.00     0.124 S 
ATOM     76  O   UNL A   1      46.268  38.128  28.453  1.00  0.00    -0.237 OA
ATOM     77  O   UNL A   1      48.245  37.565  29.826  1.00  0.00    -0.237 OA
ATOM     78  O   UNL A   1      48.456  37.746  27.376  1.00  0.00    -0.744 OA
ENDBRANCH  74  75
ENDBRANCH  53  67
BRANCH  54  79
ATOM     79  C   UNL A   1      43.343  23.622  26.980  1.00  0.00     0.058 A 
ATOM     80  C   UNL A   1      43.103  22.747  28.050  1.00  0.00     0.135 A 
ATOM     81  C   UNL A   1      43.111  23.143  25.681  1.00  0.00     0.135 A 
ATOM     82  F   UNL A   1      43.313  23.156  29.311  1.00  0.00    -0.206 F 
ATOM     83  C   UNL A   1      42.673  21.441  27.841  1.00  0.00     0.059 A 
ATOM     84  C   UNL A   1      42.653  21.851  25.447  1.00  0.00     0.059 A 
ATOM     85  F   UNL A   1      43.305  23.947  24.623  1.00  0.00    -0.206 F 
ATOM     86  C   UNL A   1      42.451  21.002  26.535  1.00  0.00     0.060 A 
BRANCH  86  87
ATOM     87  S   UNL A   1      41.856  19.316  26.276  1.00  0.00     0.124 S 
ATOM     88  O   UNL A   1      40.421  19.530  26.134  1.00  0.00    -0.237 OA
ATOM     89  O   UNL A   1      42.568  18.924  25.063  1.00  0.00    -0.237 OA
ATOM     90  O   UNL A   1      42.275  18.622  27.490  1.00  0.00    -0.744 OA
ENDBRANCH  86  87
ENDBRANCH  54  79
BRANCH  66  91
ATOM     91  C   UNL A   1      49.561  26.744  26.426  1.00  0.00     0.058 A 
ATOM     92  C   UNL A   1      50.089  26.848  25.129  1.00  0.00     0.135 A 
ATOM     93  C   UNL A   1      50.381  26.197  27.426  1.00  0.00     0.135 A 
ATOM     94  F   UNL A   1      49.345  27.358  24.135  1.00  0.00    -0.206 F 
ATOM     95  C   UNL A   1      51.373  26.404  24.831  1.00  0.00     0.059 A 
ATOM     96  C   UNL A   1      51.679  25.774  27.157  1.00  0.00     0.059 A 
ATOM     97  F   UNL A   1      49.929  26.086  28.685  1.00  0.00    -0.206 F 
ATOM     98  C   UNL A   1      52.161  25.870  25.852  1.00  0.00     0.060 A 
BRANCH  98  99
ATOM     99  S   UNL A   1      53.838  25.331  25.459  1.00  0.00     0.124 S 
ATOM    100  O   UNL A   1      54.426  25.209  26.789  1.00  0.00    -0.237 OA
ATOM    101  O   UNL A   1      53.605  24.076  24.751  1.00  0.00    -0.237 OA
ATOM    102  O   UNL A   1      54.362  26.418  24.638  1.00  0.00    -0.744 OA
ENDBRANCH  98  99
ENDBRANCH  66  91
ENDBRANCH  40  41
ENDBRANCH  32  35
ENDBRANCH  30  31
ENDBRANCH  29  30
ENDBRANCH  28  29
ENDBRANCH   1  28
TORSDOF 22
ENDMDL
MODEL 3
REMARK VINA RESULT:     -10.6      2.327      8.613
REMARK SMILES NC(=O)C[C@@H](NC(=O)c1ccc(CO)cc1)C(=O)NCCCCCCNC(=O)c1ccc(-c2c3nc(c(-c4c(F)cc(S(=O)(=O)[O-])cc4F)c4ccc([nH]4)c(-c4c(F)cc(S(=O)(=O)[O-])cc4F)c4nc(c(-c5c(F)cc(S(=O)(=O)[O-])cc5F)c5ccc2[nH]5)C=C4)C=C3)cc1
REMARK SMILES IDX 22 1 21 2 20 3 19 4 17 5 18 6 5 8 4 9 2 10 1 11 3 14 6 15
REMARK SMILES IDX 7 16 8 18 9 19 10 20 16 21 11 22 15 23 12 24 13 25 14 26
REMARK SMILES IDX 23 28 24 29 25 30 26 31 27 32 28 34 29 35 30 36 94 37 31 38
REMARK SMILES IDX 93 39 32 40 33 41 34 42 87 43 35 44 92 45 86 46 88 47 36 48
REMARK SMILES IDX 91 49 85 50 84 51 37 53 71 54 50 55 70 56 51 57 54 58 69 59
REMARK SMILES IDX 89 60 52 61 53 62 68 64 90 65 55 66 38 67 39 68 48 69 40 70
REMARK SMILES IDX 41 71 47 72 49 73 42 74 43 75 44 76 45 77 46 78 72 79 73 80
REMARK SMILES IDX 82 81 74 82 75 83 81 84 83 85 76 86 77 87 78 88 79 89 80 90
REMARK SMILES IDX 56 91 57 92 66 93 58 94 59 95 65 96 67 97 60 98 61 99 62 100
REMARK SMILES IDX 63 101 64 102
REMARK H PARENT 19 7 1 12 1 13 6 17 14 27 26 33 88 52 54 63
REMARK Flexibility Score: inf
ROOT
ATOM      1  C   UNL A   1      35.738  23.402  24.151  1.00  0.00     0.002 C 
ENDROOT
BRANCH   1   2
ATOM      2  C   UNL A   1      34.313  22.841  24.230  1.00  0.00     0.021 C 
BRANCH   2   3
ATOM      3  C   UNL A   1      33.241  23.878  23.922  1.00  0.00     0.116 C 
BRANCH   3   4
ATOM      4  N   UNL A   1      33.561  24.572  22.689  1.00  0.00    -0.354 N 
ATOM      5  C   UNL A   1      33.166  25.794  22.241  1.00  0.00     0.243 C 
ATOM      6  O   UNL A   1      33.452  26.100  21.080  1.00  0.00    -0.273 OA
ATOM      7  H   UNL A   1      34.158  24.082  22.081  1.00  0.00     0.163 HD
BRANCH   5   8
ATOM      8  C   UNL A   1      32.276  26.708  23.094  1.00  0.00     0.180 C 
BRANCH   8   9
ATOM      9  C   UNL A   1      31.061  27.015  22.198  1.00  0.00     0.134 C 
BRANCH   9  10
ATOM     10  C   UNL A   1      30.415  28.341  22.481  1.00  0.00     0.220 C 
ATOM     11  N   UNL A   1      31.087  29.427  22.002  1.00  0.00    -0.370 N 
ATOM     12  H   UNL A   1      30.728  30.332  22.147  1.00  0.00     0.159 HD
ATOM     13  H   UNL A   1      31.932  29.307  21.512  1.00  0.00     0.159 HD
ATOM     14  O   UNL A   1      29.369  28.460  23.104  1.00  0.00    -0.275 OA
ENDBRANCH   9  10
ENDBRANCH   8   9
BRANCH   8  15
ATOM     15  N   UNL A   1      31.904  26.199  24.432  1.00  0.00    -0.340 N 
ATOM     16  C   UNL A   1      31.805  26.842  25.649  1.00  0.00     0.251 C 
ATOM     17  H   UNL A   1      31.689  25.238  24.458  1.00  0.00     0.164 HD
ATOM     18  O   UNL A   1      31.111  26.346  26.532  1.00  0.00    -0.269 OA
BRANCH  16  19
ATOM     19  C   UNL A   1      32.666  27.999  25.978  1.00  0.00     0.039 A 
ATOM     20  C   UNL A   1      32.049  29.255  26.048  1.00  0.00     0.014 A 
ATOM     21  C   UNL A   1      34.013  27.868  26.306  1.00  0.00     0.014 A 
ATOM     22  C   UNL A   1      32.729  30.336  26.612  1.00  0.00     0.007 A 
ATOM     23  C   UNL A   1      34.687  28.950  26.888  1.00  0.00     0.007 A 
ATOM     24  C   UNL A   1      34.031  30.171  27.101  1.00  0.00    -0.023 A 
BRANCH  24  25
ATOM     25  C   UNL A   1      34.677  31.271  27.905  1.00  0.00     0.191 C 
BRANCH  25  26
ATOM     26  O   UNL A   1      33.735  31.944  28.724  1.00  0.00    -0.392 OA
ATOM     27  H   UNL A   1      32.963  32.193  28.192  1.00  0.00     0.211 HD
ENDBRANCH  25  26
ENDBRANCH  24  25
ENDBRANCH  16  19
ENDBRANCH   8  15
ENDBRANCH   5   8
ENDBRANCH   3   4
ENDBRANCH   2   3
ENDBRANCH   1   2
BRANCH   1  28
ATOM     28  C   UNL A   1      36.318  23.865  25.490  1.00  0.00     0.002 C 
BRANCH  28  29
ATOM     29  C   UNL A   1      37.666  23.245  25.859  1.00  0.00     0.021 C 
BRANCH  29  30
ATOM     30  C   UNL A   1      38.567  24.160  26.676  1.00  0.00     0.116 C 
BRANCH  30  31
ATOM     31  N   UNL A   1      39.936  24.160  26.182  1.00  0.00    -0.352 N 
ATOM     32  C   UNL A   1      40.938  25.059  26.443  1.00  0.00     0.251 C 
ATOM     33  H   UNL A   1      40.173  23.417  25.581  1.00  0.00     0.163 HD
ATOM     34  O   UNL A   1      41.986  25.019  25.806  1.00  0.00    -0.269 OA
BRANCH  32  35
ATOM     35  C   UNL A   1      40.727  26.086  27.482  1.00  0.00     0.039 A 
ATOM     36  C   UNL A   1      39.772  25.858  28.474  1.00  0.00     0.014 A 
ATOM     37  C   UNL A   1      41.494  27.255  27.488  1.00  0.00     0.014 A 
ATOM     38  C   UNL A   1      39.623  26.783  29.507  1.00  0.00     0.010 A 
ATOM     39  C   UNL A   1      41.399  28.135  28.560  1.00  0.00     0.010 A 
ATOM     40  C   UNL A   1      40.456  27.913  29.574  1.00  0.00    -0.014 A 
BRANCH  40  41
ATOM     41  C   UNL A   1      40.352  28.877  30.697  1.00  0.00     0.031 A 
ATOM     42  C   UNL A   1      41.203  28.696  31.925  1.00  0.00     0.074 A 
ATOM     43  C   UNL A   1      39.444  29.872  30.639  1.00  0.00     0.049 A 
ATOM     44  N   UNL A   1      41.211  29.391  33.033  1.00  0.00    -0.248 NA
ATOM     45  C   UNL A   1      42.150  27.568  31.919  1.00  0.00     0.031 C 
ATOM     46  C   UNL A   1      38.519  30.109  29.527  1.00  0.00     0.029 A 
ATOM     47  N   UNL A   1      39.138  30.861  31.539  1.00  0.00    -0.354 N 
ATOM     48  C   UNL A   1      42.143  28.774  33.859  1.00  0.00     0.074 A 
ATOM     49  C   UNL A   1      42.644  27.620  33.147  1.00  0.00     0.031 C 
ATOM     50  C   UNL A   1      37.764  31.184  29.804  1.00  0.00     0.029 A 
ATOM     51  C   UNL A   1      38.123  31.691  31.125  1.00  0.00     0.049 A 
ATOM     52  H   UNL A   1      39.602  30.967  32.401  1.00  0.00     0.167 HD
ATOM     53  C   UNL A   1      42.559  29.151  35.092  1.00  0.00     0.037 A 
ATOM     54  C   UNL A   1      37.539  32.735  31.745  1.00  0.00     0.037 A 
ATOM     55  C   UNL A   1      42.082  30.323  35.775  1.00  0.00     0.049 A 
ATOM     56  C   UNL A   1      38.037  33.149  33.103  1.00  0.00     0.074 A 
ATOM     57  C   UNL A   1      42.498  30.838  36.991  1.00  0.00     0.029 A 
ATOM     58  N   UNL A   1      41.081  31.163  35.307  1.00  0.00    -0.354 N 
ATOM     59  N   UNL A   1      38.978  32.603  33.836  1.00  0.00    -0.248 NA
ATOM     60  C   UNL A   1      37.404  34.324  33.715  1.00  0.00     0.031 C 
ATOM     61  C   UNL A   1      41.715  31.959  37.280  1.00  0.00     0.029 A 
ATOM     62  C   UNL A   1      40.850  32.177  36.221  1.00  0.00     0.049 A 
ATOM     63  H   UNL A   1      40.607  31.053  34.451  1.00  0.00     0.167 HD
ATOM     64  C   UNL A   1      39.068  33.384  34.984  1.00  0.00     0.074 A 
ATOM     65  C   UNL A   1      38.096  34.447  34.840  1.00  0.00     0.031 C 
ATOM     66  C   UNL A   1      39.883  33.235  36.057  1.00  0.00     0.037 A 
BRANCH  53  67
ATOM     67  C   UNL A   1      43.583  28.292  35.782  1.00  0.00     0.058 A 
ATOM     68  C   UNL A   1      44.961  28.528  35.645  1.00  0.00     0.135 A 
ATOM     69  C   UNL A   1      43.179  27.251  36.635  1.00  0.00     0.135 A 
ATOM     70  F   UNL A   1      45.402  29.498  34.829  1.00  0.00    -0.206 F 
ATOM     71  C   UNL A   1      45.901  27.750  36.310  1.00  0.00     0.059 A 
ATOM     72  C   UNL A   1      44.103  26.479  37.334  1.00  0.00     0.059 A 
ATOM     73  F   UNL A   1      41.876  26.980  36.800  1.00  0.00    -0.206 F 
ATOM     74  C   UNL A   1      45.463  26.729  37.156  1.00  0.00     0.060 A 
BRANCH  74  75
ATOM     75  S   UNL A   1      46.697  25.745  38.030  1.00  0.00     0.124 S 
ATOM     76  O   UNL A   1      46.204  25.815  39.403  1.00  0.00    -0.237 OA
ATOM     77  O   UNL A   1      46.576  24.444  37.380  1.00  0.00    -0.237 OA
ATOM     78  O   UNL A   1      47.945  26.457  37.775  1.00  0.00    -0.744 OA
ENDBRANCH  74  75
ENDBRANCH  53  67
BRANCH  54  79
ATOM     79  C   UNL A   1      36.429  33.470  31.080  1.00  0.00     0.058 A 
ATOM     80  C   UNL A   1      35.121  33.417  31.583  1.00  0.00     0.135 A 
ATOM     81  C   UNL A   1      36.656  34.243  29.931  1.00  0.00     0.135 A 
ATOM     82  F   UNL A   1      34.852  32.689  32.678  1.00  0.00    -0.206 F 
ATOM     83  C   UNL A   1      34.073  34.087  30.960  1.00  0.00     0.059 A 
ATOM     84  C   UNL A   1      35.630  34.944  29.305  1.00  0.00     0.059 A 
ATOM     85  F   UNL A   1      37.893  34.343  29.420  1.00  0.00    -0.206 F 
ATOM     86  C   UNL A   1      34.338  34.848  29.820  1.00  0.00     0.060 A 
BRANCH  86  87
ATOM     87  S   UNL A   1      32.977  35.743  29.039  1.00  0.00     0.124 S 
ATOM     88  O   UNL A   1      32.426  34.724  28.154  1.00  0.00    -0.237 OA
ATOM     89  O   UNL A   1      32.153  36.109  30.187  1.00  0.00    -0.237 OA
ATOM     90  O   UNL A   1      33.647  36.859  28.377  1.00  0.00    -0.744 OA
ENDBRANCH  86  87
ENDBRANCH  54  79
BRANCH  66  91
ATOM     91  C   UNL A   1      39.788  34.265  37.148  1.00  0.00     0.058 A 
ATOM     92  C   UNL A   1      38.950  34.088  38.260  1.00  0.00     0.135 A 
ATOM     93  C   UNL A   1      40.591  35.416  37.107  1.00  0.00     0.135 A 
ATOM     94  F   UNL A   1      38.157  33.008  38.345  1.00  0.00    -0.206 F 
ATOM     95  C   UNL A   1      38.895  35.029  39.283  1.00  0.00     0.059 A 
ATOM     96  C   UNL A   1      40.574  36.355  38.133  1.00  0.00     0.059 A 
ATOM     97  F   UNL A   1      41.419  35.627  36.071  1.00  0.00    -0.206 F 
ATOM     98  C   UNL A   1      39.712  36.158  39.212  1.00  0.00     0.060 A 
BRANCH  98  99
ATOM     99  S   UNL A   1      39.657  37.354  40.563  1.00  0.00     0.124 S 
ATOM    100  O   UNL A   1      38.946  38.466  39.942  1.00  0.00    -0.237 OA
ATOM    101  O   UNL A   1      38.922  36.627  41.593  1.00  0.00    -0.237 OA
ATOM    102  O   UNL A   1      41.065  37.596  40.860  1.00  0.00    -0.744 OA
ENDBRANCH  98  99
ENDBRANCH  66  91
ENDBRANCH  40  41
ENDBRANCH  32  35
ENDBRANCH  30  31
ENDBRANCH  29  30
ENDBRANCH  28  29
ENDBRANCH   1  28
TORSDOF 22
ENDMDL
