MODEL 1
REMARK VINA RESULT:     -13.6      0.000      0.000
REMARK SMILES CC1(C)O[C@@H]2C[C@@H]3[C@H]4CCC5=CC(=O)C=C[C@@]5(C)[C@]4(F)[C@H](O)C[C@]3(C)[C@]2(C(=O)NCCCCCCNC(=O)c2ccc(-c3c4nc(c(-c5c(F)cc(S(=O)(=O)[O-])cc5F)c5ccc([nH]5)c(-c5c(F)cc(S(=O)(=O)[O-])cc5F)c5nc(c(-c6c(F)cc(S(=O)(=O)[O-])cc6F)c6ccc3[nH]6)C=C5)C=C4)cc2)O1
REMARK SMILES IDX 33 1 32 2 31 3 30 4 29 5 27 6 28 7 26 9 1 10 2 11 4 12
REMARK SMILES IDX 105 13 3 14 5 15 6 16 24 17 7 18 23 19 25 20 8 21 21 22 9 23
REMARK SMILES IDX 19 24 10 25 17 26 20 27 11 28 16 29 18 30 12 31 15 32 13 33
REMARK SMILES IDX 14 34 22 35 34 37 35 38 36 39 37 40 38 42 39 43 40 44 104 45
REMARK SMILES IDX 41 46 103 47 42 48 43 49 44 50 97 51 45 52 102 53 96 54
REMARK SMILES IDX 98 55 46 56 101 57 95 58 94 59 47 61 81 62 60 63 80 64 61 65
REMARK SMILES IDX 64 66 79 67 99 68 62 69 63 70 78 72 100 73 65 74 48 75 49 76
REMARK SMILES IDX 58 77 50 78 51 79 57 80 59 81 52 82 53 83 54 84 55 85 56 86
REMARK SMILES IDX 82 87 83 88 92 89 84 90 85 91 91 92 93 93 86 94 87 95 88 96
REMARK SMILES IDX 89 97 90 98 66 99 67 100 76 101 68 102 69 103 75 104 77 105
REMARK SMILES IDX 70 106 71 107 72 108 73 109 74 110
REMARK H PARENT 29 8 22 36 36 41 98 60 64 71
REMARK Flexibility Score: inf
ROOT
ATOM      1  C   UNL A   1      36.701  22.308  25.762  1.00  0.00     0.002 C 
ENDROOT
BRANCH   1   2
ATOM      2  C   UNL A   1      35.971  21.668  24.575  1.00  0.00     0.002 C 
BRANCH   2   3
ATOM      3  C   UNL A   1      35.115  20.453  24.948  1.00  0.00     0.021 C 
BRANCH   3   4
ATOM      4  C   UNL A   1      33.654  20.813  25.174  1.00  0.00     0.116 C 
BRANCH   4   5
ATOM      5  N   UNL A   1      33.098  21.329  23.956  1.00  0.00    -0.353 N 
ATOM      6  C   UNL A   1      32.483  22.492  23.689  1.00  0.00     0.255 C 
ATOM      7  O   UNL A   1      31.817  22.497  22.642  1.00  0.00    -0.272 OA
ATOM      8  H   UNL A   1      33.182  20.726  23.183  1.00  0.00     0.163 HD
BRANCH   6   9
ATOM      9  C   UNL A   1      32.666  23.786  24.490  1.00  0.00     0.181 C 
ATOM     10  C   UNL A   1      30.588  22.556  26.527  1.00  0.00     0.075 C 
ATOM     11  C   UNL A   1      31.080  23.957  26.198  1.00  0.00     0.164 C 
ATOM     12  O   UNL A   1      32.327  24.135  26.867  1.00  0.00    -0.344 OA
ATOM     13  O   UNL A   1      31.266  24.121  24.786  1.00  0.00    -0.331 OA
ATOM     14  C   UNL A   1      30.055  24.980  26.694  1.00  0.00     0.075 C 
ATOM     15  C   UNL A   1      33.370  24.008  25.878  1.00  0.00     0.164 C 
ATOM     16  C   UNL A   1      34.091  25.430  25.786  1.00  0.00     0.040 C 
ATOM     17  C   UNL A   1      33.317  24.910  23.575  1.00  0.00     0.014 C 
ATOM     18  C   UNL A   1      33.282  26.057  24.629  1.00  0.00     0.008 C 
ATOM     19  C   UNL A   1      32.701  25.308  22.217  1.00  0.00     0.046 C 
ATOM     20  C   UNL A   1      34.778  24.481  23.194  1.00  0.00     0.015 C 
ATOM     21  C   UNL A   1      32.261  27.216  24.456  1.00  0.00     0.035 C 
ATOM     22  C   UNL A   1      31.503  26.235  22.236  1.00  0.00     0.154 C 
ATOM     23  C   UNL A   1      32.563  28.433  25.319  1.00  0.00     0.012 C 
ATOM     24  C   UNL A   1      31.792  27.549  23.040  1.00  0.00     0.152 C 
ATOM     25  C   UNL A   1      31.254  29.187  25.544  1.00  0.00     0.032 C 
ATOM     26  C   UNL A   1      30.551  28.554  23.106  1.00  0.00     0.044 C 
ATOM     27  F   UNL A   1      32.843  28.185  22.427  1.00  0.00    -0.239 F 
ATOM     28  C   UNL A   1      30.602  29.581  24.249  1.00  0.00    -0.053 C 
ATOM     29  C   UNL A   1      30.428  29.332  21.801  1.00  0.00    -0.009 C 
ATOM     30  C   UNL A   1      29.193  27.796  23.302  1.00  0.00     0.024 C 
ATOM     31  C   UNL A   1      29.958  30.759  24.136  1.00  0.00     0.052 C 
ATOM     32  C   UNL A   1      29.524  30.314  21.677  1.00  0.00     0.048 C 
ATOM     33  C   UNL A   1      29.185  31.080  22.904  1.00  0.00     0.178 C 
ATOM     34  O   UNL A   1      28.391  32.012  22.877  1.00  0.00    -0.290 OA
BRANCH  22  35
ATOM     35  O   UNL A   1      30.369  25.484  22.657  1.00  0.00    -0.390 OA
ATOM     36  H   UNL A   1      30.636  24.570  22.839  1.00  0.00     0.211 HD
ENDBRANCH  22  35
ENDBRANCH   6   9
ENDBRANCH   4   5
ENDBRANCH   3   4
ENDBRANCH   2   3
ENDBRANCH   1   2
BRANCH   1  37
ATOM     37  C   UNL A   1      37.460  23.592  25.418  1.00  0.00     0.021 C 
BRANCH  37  38
ATOM     38  C   UNL A   1      38.325  24.117  26.554  1.00  0.00     0.116 C 
BRANCH  38  39
ATOM     39  N   UNL A   1      39.736  23.878  26.304  1.00  0.00    -0.352 N 
ATOM     40  C   UNL A   1      40.802  24.649  26.669  1.00  0.00     0.251 C 
ATOM     41  H   UNL A   1      39.951  23.056  25.806  1.00  0.00     0.163 HD
ATOM     42  O   UNL A   1      41.919  24.439  26.185  1.00  0.00    -0.269 OA
BRANCH  40  43
ATOM     43  C   UNL A   1      40.597  25.748  27.630  1.00  0.00     0.039 A 
ATOM     44  C   UNL A   1      39.619  25.615  28.614  1.00  0.00     0.014 A 
ATOM     45  C   UNL A   1      41.408  26.889  27.579  1.00  0.00     0.014 A 
ATOM     46  C   UNL A   1      39.489  26.604  29.588  1.00  0.00     0.010 A 
ATOM     47  C   UNL A   1      41.328  27.833  28.595  1.00  0.00     0.010 A 
ATOM     48  C   UNL A   1      40.368  27.701  29.607  1.00  0.00    -0.014 A 
BRANCH  48  49
ATOM     49  C   UNL A   1      40.306  28.714  30.691  1.00  0.00     0.031 A 
ATOM     50  C   UNL A   1      41.173  28.568  31.910  1.00  0.00     0.074 A 
ATOM     51  C   UNL A   1      39.416  29.723  30.603  1.00  0.00     0.049 A 
ATOM     52  N   UNL A   1      41.208  29.306  32.989  1.00  0.00    -0.248 NA
ATOM     53  C   UNL A   1      42.105  27.429  31.933  1.00  0.00     0.031 C 
ATOM     54  C   UNL A   1      38.486  29.937  29.490  1.00  0.00     0.029 A 
ATOM     55  N   UNL A   1      39.136  30.750  31.469  1.00  0.00    -0.354 N 
ATOM     56  C   UNL A   1      42.150  28.716  33.822  1.00  0.00     0.074 A 
ATOM     57  C   UNL A   1      42.630  27.530  33.146  1.00  0.00     0.031 C 
ATOM     58  C   UNL A   1      37.752  31.034  29.735  1.00  0.00     0.029 A 
ATOM     59  C   UNL A   1      38.123  31.576  31.038  1.00  0.00     0.049 A 
ATOM     60  H   UNL A   1      39.614  30.884  32.319  1.00  0.00     0.167 HD
ATOM     61  C   UNL A   1      42.588  29.136  35.032  1.00  0.00     0.037 A 
ATOM     62  C   UNL A   1      37.545  32.637  31.632  1.00  0.00     0.037 A 
ATOM     63  C   UNL A   1      42.119  30.332  35.684  1.00  0.00     0.049 A 
ATOM     64  C   UNL A   1      38.045  33.080  32.982  1.00  0.00     0.074 A 
ATOM     65  C   UNL A   1      42.555  30.885  36.876  1.00  0.00     0.029 A 
ATOM     66  N   UNL A   1      41.107  31.152  35.208  1.00  0.00    -0.354 N 
ATOM     67  N   UNL A   1      38.996  32.557  33.719  1.00  0.00    -0.248 NA
ATOM     68  C   UNL A   1      37.397  34.254  33.581  1.00  0.00     0.031 C 
ATOM     69  C   UNL A   1      41.764  32.004  37.151  1.00  0.00     0.029 A 
ATOM     70  C   UNL A   1      40.879  32.186  36.101  1.00  0.00     0.049 A 
ATOM     71  H   UNL A   1      40.624  31.019  34.362  1.00  0.00     0.167 HD
ATOM     72  C   UNL A   1      39.077  33.352  34.856  1.00  0.00     0.074 A 
ATOM     73  C   UNL A   1      38.090  34.401  34.701  1.00  0.00     0.031 C 
ATOM     74  C   UNL A   1      39.893  33.226  35.931  1.00  0.00     0.037 A 
BRANCH  61  75
ATOM     75  C   UNL A   1      43.623  28.302  35.738  1.00  0.00     0.058 A 
ATOM     76  C   UNL A   1      43.266  27.289  36.642  1.00  0.00     0.135 A 
ATOM     77  C   UNL A   1      44.988  28.479  35.459  1.00  0.00     0.135 A 
ATOM     78  F   UNL A   1      41.977  27.086  36.957  1.00  0.00    -0.206 F 
ATOM     79  C   UNL A   1      44.227  26.494  37.259  1.00  0.00     0.059 A 
ATOM     80  C   UNL A   1      45.964  27.677  36.042  1.00  0.00     0.059 A 
ATOM     81  F   UNL A   1      45.384  29.435  34.605  1.00  0.00    -0.206 F 
ATOM     82  C   UNL A   1      45.573  26.693  36.949  1.00  0.00     0.060 A 
BRANCH  82  83
ATOM     83  S   UNL A   1      46.803  25.637  37.742  1.00  0.00     0.124 S 
ATOM     84  O   UNL A   1      47.414  26.563  38.690  1.00  0.00    -0.237 OA
ATOM     85  O   UNL A   1      45.978  24.584  38.326  1.00  0.00    -0.237 OA
ATOM     86  O   UNL A   1      47.659  25.219  36.635  1.00  0.00    -0.744 OA
ENDBRANCH  82  83
ENDBRANCH  61  75
BRANCH  62  87
ATOM     87  C   UNL A   1      36.427  33.351  30.958  1.00  0.00     0.058 A 
ATOM     88  C   UNL A   1      36.654  34.172  29.844  1.00  0.00     0.135 A 
ATOM     89  C   UNL A   1      35.105  33.219  31.412  1.00  0.00     0.135 A 
ATOM     90  F   UNL A   1      37.901  34.335  29.376  1.00  0.00    -0.206 F 
ATOM     91  C   UNL A   1      35.618  34.855  29.217  1.00  0.00     0.059 A 
ATOM     92  C   UNL A   1      34.047  33.868  30.784  1.00  0.00     0.059 A 
ATOM     93  F   UNL A   1      34.828  32.431  32.463  1.00  0.00    -0.206 F 
ATOM     94  C   UNL A   1      34.315  34.694  29.693  1.00  0.00     0.060 A 
BRANCH  94  95
ATOM     95  S   UNL A   1      32.970  35.551  28.848  1.00  0.00     0.124 S 
ATOM     96  O   UNL A   1      33.698  36.550  28.074  1.00  0.00    -0.237 OA
ATOM     97  O   UNL A   1      32.354  34.472  28.083  1.00  0.00    -0.237 OA
ATOM     98  O   UNL A   1      32.161  36.071  29.947  1.00  0.00    -0.744 OA
ENDBRANCH  94  95
ENDBRANCH  62  87
BRANCH  74  99
ATOM     99  C   UNL A   1      39.778  34.259  37.019  1.00  0.00     0.058 A 
ATOM    100  C   UNL A   1      38.948  34.067  38.134  1.00  0.00     0.135 A 
ATOM    101  C   UNL A   1      40.561  35.425  36.978  1.00  0.00     0.135 A 
ATOM    102  F   UNL A   1      38.173  32.973  38.219  1.00  0.00    -0.206 F 
ATOM    103  C   UNL A   1      38.884  35.001  39.162  1.00  0.00     0.059 A 
ATOM    104  C   UNL A   1      40.538  36.357  38.010  1.00  0.00     0.059 A 
ATOM    105  F   UNL A   1      41.379  35.654  35.938  1.00  0.00    -0.206 F 
ATOM    106  C   UNL A   1      39.689  36.140  39.094  1.00  0.00     0.060 A 
BRANCH 106 107
ATOM    107  S   UNL A   1      39.633  37.319  40.460  1.00  0.00     0.124 S 
ATOM    108  O   UNL A   1      38.985  36.530  41.502  1.00  0.00    -0.237 OA
ATOM    109  O   UNL A   1      41.047  37.613  40.674  1.00  0.00    -0.237 OA
ATOM    110  O   UNL A   1      38.842  38.422  39.926  1.00  0.00    -0.744 OA
ENDBRANCH 106 107
ENDBRANCH  74  99
ENDBRANCH  48  49
ENDBRANCH  40  43
ENDBRANCH  38  39
ENDBRANCH  37  38
ENDBRANCH   1  37
TORSDOF 17
ENDMDL
MODEL 2
REMARK VINA RESULT:     -13.5      5.981     10.218
REMARK SMILES CC1(C)O[C@@H]2C[C@@H]3[C@H]4CCC5=CC(=O)C=C[C@@]5(C)[C@]4(F)[C@H](O)C[C@]3(C)[C@]2(C(=O)NCCCCCCNC(=O)c2ccc(-c3c4nc(c(-c5c(F)cc(S(=O)(=O)[O-])cc5F)c5ccc([nH]5)c(-c5c(F)cc(S(=O)(=O)[O-])cc5F)c5nc(c(-c6c(F)cc(S(=O)(=O)[O-])cc6F)c6ccc3[nH]6)C=C5)C=C4)cc2)O1
REMARK SMILES IDX 33 1 32 2 31 3 30 4 29 5 27 6 28 7 26 9 1 10 2 11 4 12
REMARK SMILES IDX 105 13 3 14 5 15 6 16 24 17 7 18 23 19 25 20 8 21 21 22 9 23
REMARK SMILES IDX 19 24 10 25 17 26 20 27 11 28 16 29 18 30 12 31 15 32 13 33
REMARK SMILES IDX 14 34 22 35 34 37 35 38 36 39 37 40 38 42 39 43 40 44 104 45
REMARK SMILES IDX 41 46 103 47 42 48 43 49 44 50 97 51 45 52 102 53 96 54
REMARK SMILES IDX 98 55 46 56 101 57 95 58 94 59 47 61 81 62 60 63 80 64 61 65
REMARK SMILES IDX 64 66 79 67 99 68 62 69 63 70 78 72 100 73 65 74 48 75 49 76
REMARK SMILES IDX 58 77 50 78 51 79 57 80 59 81 52 82 53 83 54 84 55 85 56 86
REMARK SMILES IDX 82 87 83 88 92 89 84 90 85 91 91 92 93 93 86 94 87 95 88 96
REMARK SMILES IDX 89 97 90 98 66 99 67 100 76 101 68 102 69 103 75 104 77 105
REMARK SMILES IDX 70 106 71 107 72 108 73 109 74 110
REMARK H PARENT 29 8 22 36 36 41 98 60 64 71
REMARK Flexibility Score: inf
ROOT
ATOM      1  C   UNL A   1      37.345  21.226  24.639  1.00  0.00     0.002 C 
ENDROOT
BRANCH   1   2
ATOM      2  C   UNL A   1      35.989  21.234  25.354  1.00  0.00     0.002 C 
BRANCH   2   3
ATOM      3  C   UNL A   1      35.060  20.085  24.947  1.00  0.00     0.021 C 
BRANCH   3   4
ATOM      4  C   UNL A   1      33.591  20.414  25.168  1.00  0.00     0.116 C 
BRANCH   4   5
ATOM      5  N   UNL A   1      33.043  20.972  23.964  1.00  0.00    -0.353 N 
ATOM      6  C   UNL A   1      32.451  22.153  23.727  1.00  0.00     0.255 C 
ATOM      7  O   UNL A   1      31.784  22.197  22.682  1.00  0.00    -0.272 OA
ATOM      8  H   UNL A   1      33.115  20.387  23.176  1.00  0.00     0.163 HD
BRANCH   6   9
ATOM      9  C   UNL A   1      32.660  23.422  24.561  1.00  0.00     0.181 C 
ATOM     10  C   UNL A   1      30.509  22.213  26.534  1.00  0.00     0.075 C 
ATOM     11  C   UNL A   1      31.051  23.605  26.246  1.00  0.00     0.164 C 
ATOM     12  O   UNL A   1      32.290  23.729  26.939  1.00  0.00    -0.344 OA
ATOM     13  O   UNL A   1      31.266  23.794  24.842  1.00  0.00    -0.331 OA
ATOM     14  C   UNL A   1      30.049  24.648  26.748  1.00  0.00     0.075 C 
ATOM     15  C   UNL A   1      33.347  23.591  25.966  1.00  0.00     0.164 C 
ATOM     16  C   UNL A   1      34.112  24.991  25.919  1.00  0.00     0.040 C 
ATOM     17  C   UNL A   1      33.362  24.546  23.683  1.00  0.00     0.014 C 
ATOM     18  C   UNL A   1      33.344  25.669  24.763  1.00  0.00     0.008 C 
ATOM     19  C   UNL A   1      32.782  24.993  22.325  1.00  0.00     0.046 C 
ATOM     20  C   UNL A   1      34.816  24.080  23.317  1.00  0.00     0.015 C 
ATOM     21  C   UNL A   1      32.363  26.864  24.599  1.00  0.00     0.035 C 
ATOM     22  C   UNL A   1      31.614  25.957  22.345  1.00  0.00     0.154 C 
ATOM     23  C   UNL A   1      32.687  28.050  25.496  1.00  0.00     0.012 C 
ATOM     24  C   UNL A   1      31.929  27.242  23.184  1.00  0.00     0.152 C 
ATOM     25  C   UNL A   1      31.399  28.840  25.715  1.00  0.00     0.032 C 
ATOM     26  C   UNL A   1      30.720  28.284  23.252  1.00  0.00     0.044 C 
ATOM     27  F   UNL A   1      33.010  27.859  22.603  1.00  0.00    -0.239 F 
ATOM     28  C   UNL A   1      30.782  29.283  24.419  1.00  0.00    -0.053 C 
ATOM     29  C   UNL A   1      30.644  29.095  21.963  1.00  0.00    -0.009 C 
ATOM     30  C   UNL A   1      29.335  27.566  23.407  1.00  0.00     0.024 C 
ATOM     31  C   UNL A   1      30.177  30.483  24.323  1.00  0.00     0.052 C 
ATOM     32  C   UNL A   1      29.773  30.108  21.847  1.00  0.00     0.048 C 
ATOM     33  C   UNL A   1      29.436  30.856  23.085  1.00  0.00     0.178 C 
ATOM     34  O   UNL A   1      28.672  31.813  23.066  1.00  0.00    -0.290 OA
BRANCH  22  35
ATOM     35  O   UNL A   1      30.449  25.233  22.729  1.00  0.00    -0.390 OA
ATOM     36  H   UNL A   1      30.145  24.692  21.984  1.00  0.00     0.211 HD
ENDBRANCH  22  35
ENDBRANCH   6   9
ENDBRANCH   4   5
ENDBRANCH   3   4
ENDBRANCH   2   3
ENDBRANCH   1   2
BRANCH   1  37
ATOM     37  C   UNL A   1      38.230  20.024  24.981  1.00  0.00     0.021 C 
BRANCH  37  38
ATOM     38  C   UNL A   1      39.459  20.381  25.806  1.00  0.00     0.116 C 
BRANCH  38  39
ATOM     39  N   UNL A   1      40.348  19.242  25.955  1.00  0.00    -0.352 N 
ATOM     40  C   UNL A   1      41.704  19.244  26.120  1.00  0.00     0.251 C 
ATOM     41  H   UNL A   1      39.919  18.355  25.933  1.00  0.00     0.163 HD
ATOM     42  O   UNL A   1      42.349  18.197  25.999  1.00  0.00    -0.269 OA
BRANCH  40  43
ATOM     43  C   UNL A   1      42.387  20.514  26.423  1.00  0.00     0.039 A 
ATOM     44  C   UNL A   1      42.982  21.228  25.384  1.00  0.00     0.014 A 
ATOM     45  C   UNL A   1      42.396  21.015  27.730  1.00  0.00     0.014 A 
ATOM     46  C   UNL A   1      43.540  22.480  25.646  1.00  0.00     0.010 A 
ATOM     47  C   UNL A   1      42.882  22.295  27.972  1.00  0.00     0.010 A 
ATOM     48  C   UNL A   1      43.460  23.038  26.933  1.00  0.00    -0.014 A 
BRANCH  48  49
ATOM     49  C   UNL A   1      43.963  24.407  27.207  1.00  0.00     0.031 A 
ATOM     50  C   UNL A   1      43.007  25.496  27.607  1.00  0.00     0.074 A 
ATOM     51  C   UNL A   1      45.272  24.679  27.026  1.00  0.00     0.049 A 
ATOM     52  N   UNL A   1      43.246  26.765  27.816  1.00  0.00    -0.248 NA
ATOM     53  C   UNL A   1      41.594  25.117  27.767  1.00  0.00     0.031 C 
ATOM     54  C   UNL A   1      46.285  23.714  26.591  1.00  0.00     0.029 A 
ATOM     55  N   UNL A   1      45.973  25.850  27.172  1.00  0.00    -0.354 N 
ATOM     56  C   UNL A   1      42.016  27.336  28.118  1.00  0.00     0.074 A 
ATOM     57  C   UNL A   1      41.025  26.287  28.016  1.00  0.00     0.031 C 
ATOM     58  C   UNL A   1      47.476  24.328  26.520  1.00  0.00     0.029 A 
ATOM     59  C   UNL A   1      47.308  25.737  26.859  1.00  0.00     0.049 A 
ATOM     60  H   UNL A   1      45.559  26.692  27.471  1.00  0.00     0.167 HD
ATOM     61  C   UNL A   1      41.743  28.615  28.465  1.00  0.00     0.037 A 
ATOM     62  C   UNL A   1      48.282  26.666  26.830  1.00  0.00     0.037 A 
ATOM     63  C   UNL A   1      42.742  29.646  28.586  1.00  0.00     0.049 A 
ATOM     64  C   UNL A   1      47.951  28.084  27.212  1.00  0.00     0.074 A 
ATOM     65  C   UNL A   1      42.577  30.954  29.006  1.00  0.00     0.029 A 
ATOM     66  N   UNL A   1      44.086  29.489  28.279  1.00  0.00    -0.354 N 
ATOM     67  N   UNL A   1      46.795  28.589  27.576  1.00  0.00    -0.248 NA
ATOM     68  C   UNL A   1      49.050  29.057  27.185  1.00  0.00     0.031 C 
ATOM     69  C   UNL A   1      43.809  31.606  28.894  1.00  0.00     0.029 A 
ATOM     70  C   UNL A   1      44.755  30.687  28.465  1.00  0.00     0.049 A 
ATOM     71  H   UNL A   1      44.501  28.651  27.976  1.00  0.00     0.167 HD
ATOM     72  C   UNL A   1      47.035  29.933  27.842  1.00  0.00     0.074 A 
ATOM     73  C   UNL A   1      48.448  30.157  27.615  1.00  0.00     0.031 C 
ATOM     74  C   UNL A   1      46.165  30.894  28.238  1.00  0.00     0.037 A 
BRANCH  61  75
ATOM     75  C   UNL A   1      40.309  28.983  28.737  1.00  0.00     0.058 A 
ATOM     76  C   UNL A   1      39.794  29.040  30.043  1.00  0.00     0.135 A 
ATOM     77  C   UNL A   1      39.454  29.341  27.682  1.00  0.00     0.135 A 
ATOM     78  F   UNL A   1      40.561  28.694  31.089  1.00  0.00    -0.206 F 
ATOM     79  C   UNL A   1      38.479  29.421  30.289  1.00  0.00     0.059 A 
ATOM     80  C   UNL A   1      38.145  29.753  27.907  1.00  0.00     0.059 A 
ATOM     81  F   UNL A   1      39.894  29.300  26.414  1.00  0.00    -0.206 F 
ATOM     82  C   UNL A   1      37.664  29.780  29.215  1.00  0.00     0.060 A 
BRANCH  82  83
ATOM     83  S   UNL A   1      35.967  30.293  29.557  1.00  0.00     0.124 S 
ATOM     84  O   UNL A   1      35.237  29.611  28.493  1.00  0.00    -0.237 OA
ATOM     85  O   UNL A   1      35.752  29.777  30.905  1.00  0.00    -0.237 OA
ATOM     86  O   UNL A   1      36.022  31.748  29.446  1.00  0.00    -0.744 OA
ENDBRANCH  82  83
ENDBRANCH  61  75
BRANCH  62  87
ATOM     87  C   UNL A   1      49.661  26.287  26.418  1.00  0.00     0.058 A 
ATOM     88  C   UNL A   1      50.077  26.398  25.083  1.00  0.00     0.135 A 
ATOM     89  C   UNL A   1      50.593  25.812  27.354  1.00  0.00     0.135 A 
ATOM     90  F   UNL A   1      49.223  26.841  24.149  1.00  0.00    -0.206 F 
ATOM     91  C   UNL A   1      51.359  26.032  24.686  1.00  0.00     0.059 A 
ATOM     92  C   UNL A   1      51.890  25.468  26.987  1.00  0.00     0.059 A 
ATOM     93  F   UNL A   1      50.252  25.704  28.648  1.00  0.00    -0.206 F 
ATOM     94  C   UNL A   1      52.260  25.570  25.648  1.00  0.00     0.060 A 
BRANCH  94  95
ATOM     95  S   UNL A   1      53.934  25.136  25.130  1.00  0.00     0.124 S 
ATOM     96  O   UNL A   1      54.079  25.924  23.911  1.00  0.00    -0.237 OA
ATOM     97  O   UNL A   1      54.729  25.573  26.274  1.00  0.00    -0.237 OA
ATOM     98  O   UNL A   1      53.862  23.689  24.942  1.00  0.00    -0.744 OA
ENDBRANCH  94  95
ENDBRANCH  62  87
BRANCH  74  99
ATOM     99  C   UNL A   1      46.712  32.274  28.479  1.00  0.00     0.058 A 
ATOM    100  C   UNL A   1      46.717  33.252  27.472  1.00  0.00     0.135 A 
ATOM    101  C   UNL A   1      47.175  32.644  29.753  1.00  0.00     0.135 A 
ATOM    102  F   UNL A   1      46.294  32.949  26.234  1.00  0.00    -0.206 F 
ATOM    103  C   UNL A   1      47.177  34.542  27.714  1.00  0.00     0.059 A 
ATOM    104  C   UNL A   1      47.609  33.936  30.026  1.00  0.00     0.059 A 
ATOM    105  F   UNL A   1      47.183  31.749  30.754  1.00  0.00    -0.206 F 
ATOM    106  C   UNL A   1      47.614  34.876  28.998  1.00  0.00     0.060 A 
BRANCH 106 107
ATOM    107  S   UNL A   1      48.160  36.569  29.309  1.00  0.00     0.124 S 
ATOM    108  O   UNL A   1      48.860  36.885  28.068  1.00  0.00    -0.237 OA
ATOM    109  O   UNL A   1      46.897  37.268  29.521  1.00  0.00    -0.237 OA
ATOM    110  O   UNL A   1      49.007  36.441  30.491  1.00  0.00    -0.744 OA
ENDBRANCH 106 107
ENDBRANCH  74  99
ENDBRANCH  48  49
ENDBRANCH  40  43
ENDBRANCH  38  39
ENDBRANCH  37  38
ENDBRANCH   1  37
TORSDOF 17
ENDMDL
MODEL 3
REMARK VINA RESULT:     -13.5      6.337     11.807
REMARK SMILES CC1(C)O[C@@H]2C[C@@H]3[C@H]4CCC5=CC(=O)C=C[C@@]5(C)[C@]4(F)[C@H](O)C[C@]3(C)[C@]2(C(=O)NCCCCCCNC(=O)c2ccc(-c3c4nc(c(-c5c(F)cc(S(=O)(=O)[O-])cc5F)c5ccc([nH]5)c(-c5c(F)cc(S(=O)(=O)[O-])cc5F)c5nc(c(-c6c(F)cc(S(=O)(=O)[O-])cc6F)c6ccc3[nH]6)C=C5)C=C4)cc2)O1
REMARK SMILES IDX 33 1 32 2 31 3 30 4 29 5 27 6 28 7 26 9 1 10 2 11 4 12
REMARK SMILES IDX 105 13 3 14 5 15 6 16 24 17 7 18 23 19 25 20 8 21 21 22 9 23
REMARK SMILES IDX 19 24 10 25 17 26 20 27 11 28 16 29 18 30 12 31 15 32 13 33
REMARK SMILES IDX 14 34 22 35 34 37 35 38 36 39 37 40 38 42 39 43 40 44 104 45
REMARK SMILES IDX 41 46 103 47 42 48 43 49 44 50 97 51 45 52 102 53 96 54
REMARK SMILES IDX 98 55 46 56 101 57 95 58 94 59 47 61 81 62 60 63 80 64 61 65
REMARK SMILES IDX 64 66 79 67 99 68 62 69 63 70 78 72 100 73 65 74 48 75 49 76
REMARK SMILES IDX 58 77 50 78 51 79 57 80 59 81 52 82 53 83 54 84 55 85 56 86
REMARK SMILES IDX 82 87 83 88 92 89 84 90 85 91 91 92 93 93 86 94 87 95 88 96
REMARK SMILES IDX 89 97 90 98 66 99 67 100 76 101 68 102 69 103 75 104 77 105
REMARK SMILES IDX 70 106 71 107 72 108 73 109 74 110
REMARK H PARENT 29 8 22 36 36 41 98 60 64 71
REMARK Flexibility Score: inf
ROOT
ATOM      1  C   UNL A   1      33.242  29.883  26.787  1.00  0.00     0.002 C 
ENDROOT
BRANCH   1   2
ATOM      2  C   UNL A   1      32.825  29.675  25.326  1.00  0.00     0.002 C 
BRANCH   2   3
ATOM      3  C   UNL A   1      31.331  29.390  25.135  1.00  0.00     0.021 C 
BRANCH   3   4
ATOM      4  C   UNL A   1      31.027  28.731  23.798  1.00  0.00     0.116 C 
BRANCH   4   5
ATOM      5  N   UNL A   1      30.242  27.549  24.018  1.00  0.00    -0.353 N 
ATOM      6  C   UNL A   1      30.561  26.249  23.935  1.00  0.00     0.255 C 
ATOM      7  O   UNL A   1      29.590  25.482  23.844  1.00  0.00    -0.272 OA
ATOM      8  H   UNL A   1      29.308  27.724  24.275  1.00  0.00     0.163 HD
BRANCH   6   9
ATOM      9  C   UNL A   1      31.977  25.682  24.080  1.00  0.00     0.181 C 
ATOM     10  C   UNL A   1      32.193  26.015  20.945  1.00  0.00     0.075 C 
ATOM     11  C   UNL A   1      32.908  25.178  21.996  1.00  0.00     0.164 C 
ATOM     12  O   UNL A   1      33.882  26.016  22.614  1.00  0.00    -0.344 OA
ATOM     13  O   UNL A   1      31.989  24.699  22.987  1.00  0.00    -0.331 OA
ATOM     14  C   UNL A   1      33.582  23.984  21.315  1.00  0.00     0.075 C 
ATOM     15  C   UNL A   1      33.364  26.403  23.904  1.00  0.00     0.164 C 
ATOM     16  C   UNL A   1      34.336  25.766  24.999  1.00  0.00     0.040 C 
ATOM     17  C   UNL A   1      32.133  24.946  25.480  1.00  0.00     0.014 C 
ATOM     18  C   UNL A   1      33.591  24.440  25.269  1.00  0.00     0.008 C 
ATOM     19  C   UNL A   1      31.158  23.836  25.925  1.00  0.00     0.046 C 
ATOM     20  C   UNL A   1      32.020  26.005  26.633  1.00  0.00     0.015 C 
ATOM     21  C   UNL A   1      33.840  22.927  25.015  1.00  0.00     0.035 C 
ATOM     22  C   UNL A   1      31.365  22.449  25.349  1.00  0.00     0.154 C 
ATOM     23  C   UNL A   1      35.293  22.508  25.187  1.00  0.00     0.012 C 
ATOM     24  C   UNL A   1      32.826  21.932  25.580  1.00  0.00     0.152 C 
ATOM     25  C   UNL A   1      35.523  21.250  24.351  1.00  0.00     0.032 C 
ATOM     26  C   UNL A   1      33.102  20.480  24.973  1.00  0.00     0.044 C 
ATOM     27  F   UNL A   1      33.041  21.892  26.935  1.00  0.00    -0.239 F 
ATOM     28  C   UNL A   1      34.583  20.142  24.732  1.00  0.00    -0.053 C 
ATOM     29  C   UNL A   1      32.533  19.404  25.891  1.00  0.00    -0.009 C 
ATOM     30  C   UNL A   1      32.411  20.285  23.579  1.00  0.00     0.024 C 
ATOM     31  C   UNL A   1      34.999  18.860  24.733  1.00  0.00     0.052 C 
ATOM     32  C   UNL A   1      32.751  18.106  25.634  1.00  0.00     0.048 C 
ATOM     33  C   UNL A   1      34.028  17.754  24.963  1.00  0.00     0.178 C 
ATOM     34  O   UNL A   1      34.321  16.591  24.717  1.00  0.00    -0.290 OA
BRANCH  22  35
ATOM     35  O   UNL A   1      30.914  22.459  23.999  1.00  0.00    -0.390 OA
ATOM     36  H   UNL A   1      30.333  23.223  23.858  1.00  0.00     0.211 HD
ENDBRANCH  22  35
ENDBRANCH   6   9
ENDBRANCH   4   5
ENDBRANCH   3   4
ENDBRANCH   2   3
ENDBRANCH   1   2
BRANCH   1  37
ATOM     37  C   UNL A   1      34.336  28.929  27.272  1.00  0.00     0.021 C 
BRANCH  37  38
ATOM     38  C   UNL A   1      35.585  29.635  27.781  1.00  0.00     0.116 C 
BRANCH  38  39
ATOM     39  N   UNL A   1      35.392  30.152  29.125  1.00  0.00    -0.352 N 
ATOM     40  C   UNL A   1      36.308  30.244  30.135  1.00  0.00     0.251 C 
ATOM     41  H   UNL A   1      34.486  30.477  29.336  1.00  0.00     0.163 HD
ATOM     42  O   UNL A   1      35.941  30.487  31.289  1.00  0.00    -0.269 OA
BRANCH  40  43
ATOM     43  C   UNL A   1      37.734  30.027  29.832  1.00  0.00     0.039 A 
ATOM     44  C   UNL A   1      38.576  29.550  30.835  1.00  0.00     0.014 A 
ATOM     45  C   UNL A   1      38.221  30.256  28.539  1.00  0.00     0.014 A 
ATOM     46  C   UNL A   1      39.902  29.245  30.528  1.00  0.00     0.010 A 
ATOM     47  C   UNL A   1      39.520  29.877  28.218  1.00  0.00     0.010 A 
ATOM     48  C   UNL A   1      40.372  29.371  29.209  1.00  0.00    -0.014 A 
BRANCH  48  49
ATOM     49  C   UNL A   1      41.752  28.961  28.846  1.00  0.00     0.031 A 
ATOM     50  C   UNL A   1      42.855  29.981  28.801  1.00  0.00     0.074 A 
ATOM     51  C   UNL A   1      41.989  27.682  28.490  1.00  0.00     0.049 A 
ATOM     52  N   UNL A   1      44.102  29.829  28.437  1.00  0.00    -0.248 NA
ATOM     53  C   UNL A   1      42.506  31.358  29.189  1.00  0.00     0.031 C 
ATOM     54  C   UNL A   1      40.985  26.614  28.446  1.00  0.00     0.029 A 
ATOM     55  N   UNL A   1      43.145  27.064  28.083  1.00  0.00    -0.354 N 
ATOM     56  C   UNL A   1      44.681  31.088  28.539  1.00  0.00     0.074 A 
ATOM     57  C   UNL A   1      43.639  32.003  28.951  1.00  0.00     0.031 C 
ATOM     58  C   UNL A   1      41.572  25.474  28.052  1.00  0.00     0.029 A 
ATOM     59  C   UNL A   1      42.980  25.734  27.770  1.00  0.00     0.049 A 
ATOM     60  H   UNL A   1      44.011  27.529  28.020  1.00  0.00     0.167 HD
ATOM     61  C   UNL A   1      45.970  31.443  28.326  1.00  0.00     0.037 A 
ATOM     62  C   UNL A   1      43.858  24.832  27.291  1.00  0.00     0.037 A 
ATOM     63  C   UNL A   1      47.004  30.518  27.939  1.00  0.00     0.049 A 
ATOM     64  C   UNL A   1      45.283  25.254  27.054  1.00  0.00     0.074 A 
ATOM     65  C   UNL A   1      48.356  30.765  27.772  1.00  0.00     0.029 A 
ATOM     66  N   UNL A   1      46.803  29.177  27.649  1.00  0.00    -0.354 N 
ATOM     67  N   UNL A   1      45.833  26.432  27.236  1.00  0.00    -0.248 NA
ATOM     68  C   UNL A   1      46.208  24.230  26.551  1.00  0.00     0.031 C 
ATOM     69  C   UNL A   1      48.961  29.588  27.322  1.00  0.00     0.029 A 
ATOM     70  C   UNL A   1      47.999  28.591  27.269  1.00  0.00     0.049 A 
ATOM     71  H   UNL A   1      45.938  28.711  27.706  1.00  0.00     0.167 HD
ATOM     72  C   UNL A   1      47.172  26.283  26.892  1.00  0.00     0.074 A 
ATOM     73  C   UNL A   1      47.352  24.897  26.508  1.00  0.00     0.031 C 
ATOM     74  C   UNL A   1      48.163  27.208  26.893  1.00  0.00     0.037 A 
BRANCH  61  75
ATOM     75  C   UNL A   1      46.342  32.891  28.501  1.00  0.00     0.058 A 
ATOM     76  C   UNL A   1      46.822  33.390  29.722  1.00  0.00     0.135 A 
ATOM     77  C   UNL A   1      46.273  33.778  27.414  1.00  0.00     0.135 A 
ATOM     78  F   UNL A   1      46.893  32.591  30.799  1.00  0.00    -0.206 F 
ATOM     79  C   UNL A   1      47.203  34.720  29.864  1.00  0.00     0.059 A 
ATOM     80  C   UNL A   1      46.677  35.104  27.525  1.00  0.00     0.059 A 
ATOM     81  F   UNL A   1      45.819  33.354  26.224  1.00  0.00    -0.206 F 
ATOM     82  C   UNL A   1      47.131  35.568  28.758  1.00  0.00     0.060 A 
BRANCH  82  83
ATOM     83  S   UNL A   1      47.652  37.285  28.956  1.00  0.00     0.124 S 
ATOM     84  O   UNL A   1      49.018  37.236  28.443  1.00  0.00    -0.237 OA
ATOM     85  O   UNL A   1      46.689  38.000  28.125  1.00  0.00    -0.237 OA
ATOM     86  O   UNL A   1      47.531  37.516  30.392  1.00  0.00    -0.744 OA
ENDBRANCH  82  83
ENDBRANCH  61  75
BRANCH  62  87
ATOM     87  C   UNL A   1      43.412  23.443  26.999  1.00  0.00     0.058 A 
ATOM     88  C   UNL A   1      43.202  23.008  25.682  1.00  0.00     0.135 A 
ATOM     89  C   UNL A   1      43.194  22.518  28.033  1.00  0.00     0.135 A 
ATOM     90  F   UNL A   1      43.391  23.855  24.659  1.00  0.00    -0.206 F 
ATOM     91  C   UNL A   1      42.772  21.716  25.399  1.00  0.00     0.059 A 
ATOM     92  C   UNL A   1      42.792  21.212  27.774  1.00  0.00     0.059 A 
ATOM     93  F   UNL A   1      43.398  22.876  29.310  1.00  0.00    -0.206 F 
ATOM     94  C   UNL A   1      42.572  20.823  26.454  1.00  0.00     0.060 A 
BRANCH  94  95
ATOM     95  S   UNL A   1      42.053  19.136  26.076  1.00  0.00     0.124 S 
ATOM     96  O   UNL A   1      40.618  19.307  25.879  1.00  0.00    -0.237 OA
ATOM     97  O   UNL A   1      42.833  18.838  24.879  1.00  0.00    -0.237 OA
ATOM     98  O   UNL A   1      42.442  18.390  27.270  1.00  0.00    -0.744 OA
ENDBRANCH  94  95
ENDBRANCH  62  87
BRANCH  74  99
ATOM     99  C   UNL A   1      49.540  26.756  26.492  1.00  0.00     0.058 A 
ATOM    100  C   UNL A   1      50.392  26.098  27.393  1.00  0.00     0.135 A 
ATOM    101  C   UNL A   1      49.987  26.921  25.170  1.00  0.00     0.135 A 
ATOM    102  F   UNL A   1      50.017  25.921  28.670  1.00  0.00    -0.206 F 
ATOM    103  C   UNL A   1      51.644  25.635  27.003  1.00  0.00     0.059 A 
ATOM    104  C   UNL A   1      51.221  26.438  24.750  1.00  0.00     0.059 A 
ATOM    105  F   UNL A   1      49.208  27.536  24.265  1.00  0.00    -0.206 F 
ATOM    106  C   UNL A   1      52.047  25.804  25.676  1.00  0.00     0.060 A 
BRANCH 106 107
ATOM    107  S   UNL A   1      53.654  25.153  25.173  1.00  0.00     0.124 S 
ATOM    108  O   UNL A   1      54.539  25.759  26.163  1.00  0.00    -0.237 OA
ATOM    109  O   UNL A   1      53.457  23.712  25.295  1.00  0.00    -0.237 OA
ATOM    110  O   UNL A   1      53.809  25.646  23.809  1.00  0.00    -0.744 OA
ENDBRANCH 106 107
ENDBRANCH  74  99
ENDBRANCH  48  49
ENDBRANCH  40  43
ENDBRANCH  38  39
ENDBRANCH  37  38
ENDBRANCH   1  37
TORSDOF 17
ENDMDL
