MODEL 1
REMARK VINA RESULT:     -11.2      0.000      0.000
REMARK SMILES CC(C)Nc1cc2ccccc2cc1C(=O)NCCCCCCNC(=O)c1ccc(-c2c3nc(c(-c4c(F)cc(S(=O)(=O)[O-])cc4F)c4ccc([nH]4)c(-c4c(F)cc(S(=O)(=O)[O-])cc4F)c4nc(c(-c5c(F)cc(S(=O)(=O)[O-])cc5F)c5ccc2[nH]5)C=C4)C=C3)cc1
REMARK SMILES IDX 21 1 20 2 19 3 18 4 17 5 15 6 16 7 14 9 5 10 6 11 7 12 13 13
REMARK SMILES IDX 8 14 12 15 9 16 11 17 10 18 4 19 2 21 1 22 3 23 22 24 23 25
REMARK SMILES IDX 24 26 25 27 26 29 27 30 28 31 92 32 29 33 91 34 30 35 31 36
REMARK SMILES IDX 32 37 85 38 33 39 90 40 84 41 86 42 34 43 89 44 83 45 82 46
REMARK SMILES IDX 35 48 69 49 48 50 68 51 49 52 52 53 67 54 87 55 50 56 51 57
REMARK SMILES IDX 66 59 88 60 53 61 36 62 37 63 46 64 38 65 39 66 45 67 47 68
REMARK SMILES IDX 40 69 41 70 42 71 43 72 44 73 70 74 71 75 80 76 72 77 73 78
REMARK SMILES IDX 79 79 81 80 74 81 75 82 76 83 77 84 78 85 54 86 55 87 64 88
REMARK SMILES IDX 56 89 57 90 63 91 65 92 58 93 59 94 60 95 61 96 62 97
REMARK H PARENT 17 8 4 20 24 28 86 47 52 58
REMARK Flexibility Score: inf
ROOT
ATOM      1  C   UNL A   1      32.272  27.077  25.120  1.00  0.00     0.002 C 
ENDROOT
BRANCH   1   2
ATOM      2  C   UNL A   1      32.220  26.110  23.935  1.00  0.00     0.002 C 
BRANCH   2   3
ATOM      3  C   UNL A   1      30.930  25.319  23.671  1.00  0.00     0.021 C 
BRANCH   3   4
ATOM      4  C   UNL A   1      30.907  23.837  24.047  1.00  0.00     0.116 C 
BRANCH   4   5
ATOM      5  N   UNL A   1      30.722  23.559  25.459  1.00  0.00    -0.352 N 
ATOM      6  C   UNL A   1      31.634  23.083  26.379  1.00  0.00     0.253 C 
ATOM      7  O   UNL A   1      31.277  22.981  27.555  1.00  0.00    -0.269 OA
ATOM      8  H   UNL A   1      29.819  23.737  25.810  1.00  0.00     0.163 HD
BRANCH   6   9
ATOM      9  C   UNL A   1      32.984  22.581  25.991  1.00  0.00     0.063 A 
ATOM     10  C   UNL A   1      33.314  21.250  25.692  1.00  0.00     0.048 A 
ATOM     11  C   UNL A   1      34.685  20.921  25.610  1.00  0.00     0.035 A 
ATOM     12  C   UNL A   1      35.706  21.885  25.712  1.00  0.00    -0.016 A 
ATOM     13  C   UNL A   1      33.997  23.567  26.006  1.00  0.00     0.024 A 
ATOM     14  C   UNL A   1      37.066  21.531  25.656  1.00  0.00     0.009 A 
ATOM     15  C   UNL A   1      35.353  23.239  25.850  1.00  0.00    -0.017 A 
ATOM     16  C   UNL A   1      38.062  22.508  25.689  1.00  0.00     0.001 A 
ATOM     17  C   UNL A   1      36.366  24.216  25.849  1.00  0.00     0.009 A 
ATOM     18  C   UNL A   1      37.712  23.852  25.762  1.00  0.00     0.001 A 
BRANCH  10  19
ATOM     19  N   UNL A   1      32.410  20.238  25.363  1.00  0.00    -0.382 N 
ATOM     20  H   UNL A   1      31.495  20.270  25.726  1.00  0.00     0.160 HD
BRANCH  19  21
ATOM     21  C   UNL A   1      32.800  19.126  24.484  1.00  0.00     0.073 C 
ATOM     22  C   UNL A   1      32.310  17.822  25.126  1.00  0.00     0.030 C 
ATOM     23  C   UNL A   1      32.141  19.230  23.116  1.00  0.00     0.030 C 
ENDBRANCH  19  21
ENDBRANCH  10  19
ENDBRANCH   6   9
ENDBRANCH   4   5
ENDBRANCH   3   4
ENDBRANCH   2   3
ENDBRANCH   1   2
BRANCH   1  24
ATOM     24  C   UNL A   1      33.647  27.576  25.566  1.00  0.00     0.021 C 
BRANCH  24  25
ATOM     25  C   UNL A   1      33.760  27.971  27.033  1.00  0.00     0.116 C 
BRANCH  25  26
ATOM     26  N   UNL A   1      33.474  29.377  27.271  1.00  0.00    -0.352 N 
ATOM     27  C   UNL A   1      34.273  30.348  27.829  1.00  0.00     0.251 C 
ATOM     28  H   UNL A   1      32.579  29.677  26.990  1.00  0.00     0.163 HD
ATOM     29  O   UNL A   1      33.810  31.456  28.071  1.00  0.00    -0.269 OA
BRANCH  27  30
ATOM     30  C   UNL A   1      35.684  30.043  28.163  1.00  0.00     0.039 A 
ATOM     31  C   UNL A   1      36.004  29.636  29.461  1.00  0.00     0.014 A 
ATOM     32  C   UNL A   1      36.689  30.163  27.201  1.00  0.00     0.014 A 
ATOM     33  C   UNL A   1      37.322  29.285  29.775  1.00  0.00     0.010 A 
ATOM     34  C   UNL A   1      37.981  29.734  27.491  1.00  0.00     0.010 A 
ATOM     35  C   UNL A   1      38.315  29.300  28.782  1.00  0.00    -0.014 A 
BRANCH  35  36
ATOM     36  C   UNL A   1      39.720  28.908  29.067  1.00  0.00     0.031 A 
ATOM     37  C   UNL A   1      40.666  29.926  29.650  1.00  0.00     0.074 A 
ATOM     38  C   UNL A   1      40.164  27.679  28.735  1.00  0.00     0.049 A 
ATOM     39  N   UNL A   1      41.959  29.847  29.829  1.00  0.00    -0.248 NA
ATOM     40  C   UNL A   1      40.083  31.216  30.057  1.00  0.00     0.031 C 
ATOM     41  C   UNL A   1      39.351  26.614  28.142  1.00  0.00     0.029 A 
ATOM     42  N   UNL A   1      41.414  27.120  28.832  1.00  0.00    -0.354 N 
ATOM     43  C   UNL A   1      42.343  31.076  30.356  1.00  0.00     0.074 A 
ATOM     44  C   UNL A   1      41.159  31.904  30.407  1.00  0.00     0.031 C 
ATOM     45  C   UNL A   1      40.119  25.530  27.944  1.00  0.00     0.029 A 
ATOM     46  C   UNL A   1      41.487  25.834  28.348  1.00  0.00     0.049 A 
ATOM     47  H   UNL A   1      42.187  27.596  29.215  1.00  0.00     0.167 HD
ATOM     48  C   UNL A   1      43.563  31.467  30.789  1.00  0.00     0.037 A 
ATOM     49  C   UNL A   1      42.543  25.004  28.228  1.00  0.00     0.037 A 
ATOM     50  C   UNL A   1      44.731  30.626  30.763  1.00  0.00     0.049 A 
ATOM     51  C   UNL A   1      43.900  25.478  28.685  1.00  0.00     0.074 A 
ATOM     52  C   UNL A   1      46.012  30.919  31.196  1.00  0.00     0.029 A 
ATOM     53  N   UNL A   1      44.756  29.322  30.291  1.00  0.00    -0.354 N 
ATOM     54  N   UNL A   1      44.238  26.634  29.206  1.00  0.00    -0.248 NA
ATOM     55  C   UNL A   1      45.019  24.536  28.544  1.00  0.00     0.031 C 
ATOM     56  C   UNL A   1      46.820  29.805  30.952  1.00  0.00     0.029 A 
ATOM     57  C   UNL A   1      46.030  28.799  30.418  1.00  0.00     0.049 A 
ATOM     58  H   UNL A   1      43.982  28.841  29.920  1.00  0.00     0.167 HD
ATOM     59  C   UNL A   1      45.594  26.537  29.500  1.00  0.00     0.074 A 
ATOM     60  C   UNL A   1      46.014  25.210  29.101  1.00  0.00     0.031 C 
ATOM     61  C   UNL A   1      46.418  27.460  30.055  1.00  0.00     0.037 A 
BRANCH  48  62
ATOM     62  C   UNL A   1      43.699  32.853  31.356  1.00  0.00     0.058 A 
ATOM     63  C   UNL A   1      43.896  33.968  30.524  1.00  0.00     0.135 A 
ATOM     64  C   UNL A   1      43.569  33.083  32.736  1.00  0.00     0.135 A 
ATOM     65  F   UNL A   1      44.047  33.804  29.200  1.00  0.00    -0.206 F 
ATOM     66  C   UNL A   1      43.973  35.256  31.040  1.00  0.00     0.059 A 
ATOM     67  C   UNL A   1      43.612  34.368  33.270  1.00  0.00     0.059 A 
ATOM     68  F   UNL A   1      43.383  32.055  33.578  1.00  0.00    -0.206 F 
ATOM     69  C   UNL A   1      43.823  35.447  32.413  1.00  0.00     0.060 A 
BRANCH  69  70
ATOM     70  S   UNL A   1      43.886  37.133  33.057  1.00  0.00     0.124 S 
ATOM     71  O   UNL A   1      45.177  37.135  33.739  1.00  0.00    -0.237 OA
ATOM     72  O   UNL A   1      43.812  37.933  31.839  1.00  0.00    -0.237 OA
ATOM     73  O   UNL A   1      42.718  37.210  33.927  1.00  0.00    -0.744 OA
ENDBRANCH  69  70
ENDBRANCH  48  62
BRANCH  49  74
ATOM     74  C   UNL A   1      42.376  23.637  27.661  1.00  0.00     0.058 A 
ATOM     75  C   UNL A   1      42.285  22.514  28.499  1.00  0.00     0.135 A 
ATOM     76  C   UNL A   1      42.350  23.417  26.275  1.00  0.00     0.135 A 
ATOM     77  F   UNL A   1      42.308  22.669  29.831  1.00  0.00    -0.206 F 
ATOM     78  C   UNL A   1      42.224  21.222  27.986  1.00  0.00     0.059 A 
ATOM     79  C   UNL A   1      42.256  22.136  25.738  1.00  0.00     0.059 A 
ATOM     80  F   UNL A   1      42.411  24.454  25.426  1.00  0.00    -0.206 F 
ATOM     81  C   UNL A   1      42.219  21.043  26.602  1.00  0.00     0.060 A 
BRANCH  81  82
ATOM     82  S   UNL A   1      42.154  19.363  25.946  1.00  0.00     0.124 S 
ATOM     83  O   UNL A   1      42.679  18.591  27.067  1.00  0.00    -0.237 OA
ATOM     84  O   UNL A   1      40.731  19.196  25.666  1.00  0.00    -0.237 OA
ATOM     85  O   UNL A   1      43.014  19.429  24.767  1.00  0.00    -0.744 OA
ENDBRANCH  81  82
ENDBRANCH  49  74
BRANCH  61  86
ATOM     86  C   UNL A   1      47.836  27.051  30.342  1.00  0.00     0.058 A 
ATOM     87  C   UNL A   1      48.884  27.317  29.449  1.00  0.00     0.135 A 
ATOM     88  C   UNL A   1      48.158  26.452  31.573  1.00  0.00     0.135 A 
ATOM     89  F   UNL A   1      48.629  27.881  28.257  1.00  0.00    -0.206 F 
ATOM     90  C   UNL A   1      50.200  26.990  29.757  1.00  0.00     0.059 A 
ATOM     91  C   UNL A   1      49.470  26.145  31.915  1.00  0.00     0.059 A 
ATOM     92  F   UNL A   1      47.192  26.185  32.467  1.00  0.00    -0.206 F 
ATOM     93  C   UNL A   1      50.483  26.411  30.997  1.00  0.00     0.060 A 
BRANCH  93  94
ATOM     94  S   UNL A   1      52.203  26.046  31.406  1.00  0.00     0.124 S 
ATOM     95  O   UNL A   1      52.093  24.708  31.976  1.00  0.00    -0.237 OA
ATOM     96  O   UNL A   1      52.856  26.129  30.103  1.00  0.00    -0.237 OA
ATOM     97  O   UNL A   1      52.561  27.102  32.349  1.00  0.00    -0.744 OA
ENDBRANCH  93  94
ENDBRANCH  61  86
ENDBRANCH  35  36
ENDBRANCH  27  30
ENDBRANCH  25  26
ENDBRANCH  24  25
ENDBRANCH   1  24
TORSDOF 18
ENDMDL
MODEL 2
REMARK VINA RESULT:     -10.6      2.883      3.893
REMARK SMILES CC(C)Nc1cc2ccccc2cc1C(=O)NCCCCCCNC(=O)c1ccc(-c2c3nc(c(-c4c(F)cc(S(=O)(=O)[O-])cc4F)c4ccc([nH]4)c(-c4c(F)cc(S(=O)(=O)[O-])cc4F)c4nc(c(-c5c(F)cc(S(=O)(=O)[O-])cc5F)c5ccc2[nH]5)C=C4)C=C3)cc1
REMARK SMILES IDX 21 1 20 2 19 3 18 4 17 5 15 6 16 7 14 9 5 10 6 11 7 12 13 13
REMARK SMILES IDX 8 14 12 15 9 16 11 17 10 18 4 19 2 21 1 22 3 23 22 24 23 25
REMARK SMILES IDX 24 26 25 27 26 29 27 30 28 31 92 32 29 33 91 34 30 35 31 36
REMARK SMILES IDX 32 37 85 38 33 39 90 40 84 41 86 42 34 43 89 44 83 45 82 46
REMARK SMILES IDX 35 48 69 49 48 50 68 51 49 52 52 53 67 54 87 55 50 56 51 57
REMARK SMILES IDX 66 59 88 60 53 61 36 62 37 63 46 64 38 65 39 66 45 67 47 68
REMARK SMILES IDX 40 69 41 70 42 71 43 72 44 73 70 74 71 75 80 76 72 77 73 78
REMARK SMILES IDX 79 79 81 80 74 81 75 82 76 83 77 84 78 85 54 86 55 87 64 88
REMARK SMILES IDX 56 89 57 90 63 91 65 92 58 93 59 94 60 95 61 96 62 97
REMARK H PARENT 17 8 4 20 24 28 86 47 52 58
REMARK Flexibility Score: inf
ROOT
ATOM      1  C   UNL A   1      33.244  30.574  26.782  1.00  0.00     0.002 C 
ENDROOT
BRANCH   1   2
ATOM      2  C   UNL A   1      31.875  29.894  26.864  1.00  0.00     0.002 C 
BRANCH   2   3
ATOM      3  C   UNL A   1      31.767  28.508  27.515  1.00  0.00     0.021 C 
BRANCH   3   4
ATOM      4  C   UNL A   1      32.139  27.287  26.672  1.00  0.00     0.116 C 
BRANCH   4   5
ATOM      5  N   UNL A   1      31.403  26.075  26.979  1.00  0.00    -0.352 N 
ATOM      6  C   UNL A   1      31.674  24.774  26.605  1.00  0.00     0.253 C 
ATOM      7  O   UNL A   1      30.944  23.879  27.036  1.00  0.00    -0.269 OA
ATOM      8  H   UNL A   1      30.597  26.198  27.531  1.00  0.00     0.163 HD
BRANCH   6   9
ATOM      9  C   UNL A   1      32.735  24.423  25.617  1.00  0.00     0.063 A 
ATOM     10  C   UNL A   1      32.560  24.295  24.230  1.00  0.00     0.048 A 
ATOM     11  C   UNL A   1      33.607  23.698  23.495  1.00  0.00     0.035 A 
ATOM     12  C   UNL A   1      34.835  23.331  24.078  1.00  0.00    -0.016 A 
ATOM     13  C   UNL A   1      33.995  24.141  26.194  1.00  0.00     0.024 A 
ATOM     14  C   UNL A   1      35.853  22.712  23.331  1.00  0.00     0.009 A 
ATOM     15  C   UNL A   1      35.055  23.615  25.437  1.00  0.00    -0.017 A 
ATOM     16  C   UNL A   1      37.089  22.419  23.911  1.00  0.00     0.001 A 
ATOM     17  C   UNL A   1      36.316  23.345  26.000  1.00  0.00     0.009 A 
ATOM     18  C   UNL A   1      37.329  22.757  25.238  1.00  0.00     0.001 A 
BRANCH  10  19
ATOM     19  N   UNL A   1      31.488  24.800  23.491  1.00  0.00    -0.382 N 
ATOM     20  H   UNL A   1      30.733  24.209  23.269  1.00  0.00     0.160 HD
BRANCH  19  21
ATOM     21  C   UNL A   1      31.468  26.199  23.040  1.00  0.00     0.073 C 
ATOM     22  C   UNL A   1      31.544  26.203  21.509  1.00  0.00     0.030 C 
ATOM     23  C   UNL A   1      30.173  26.899  23.429  1.00  0.00     0.030 C 
ENDBRANCH  19  21
ENDBRANCH  10  19
ENDBRANCH   6   9
ENDBRANCH   4   5
ENDBRANCH   3   4
ENDBRANCH   2   3
ENDBRANCH   1   2
BRANCH   1  24
ATOM     24  C   UNL A   1      34.401  29.930  27.548  1.00  0.00     0.021 C 
BRANCH  24  25
ATOM     25  C   UNL A   1      35.466  30.890  28.061  1.00  0.00     0.116 C 
BRANCH  25  26
ATOM     26  N   UNL A   1      35.423  31.073  29.504  1.00  0.00    -0.352 N 
ATOM     27  C   UNL A   1      36.352  30.722  30.456  1.00  0.00     0.251 C 
ATOM     28  H   UNL A   1      34.612  31.514  29.848  1.00  0.00     0.163 HD
ATOM     29  O   UNL A   1      36.081  30.839  31.645  1.00  0.00    -0.269 OA
BRANCH  27  30
ATOM     30  C   UNL A   1      37.666  30.177  30.042  1.00  0.00     0.039 A 
ATOM     31  C   UNL A   1      38.002  30.164  28.686  1.00  0.00     0.014 A 
ATOM     32  C   UNL A   1      38.562  29.675  30.989  1.00  0.00     0.014 A 
ATOM     33  C   UNL A   1      39.263  29.709  28.286  1.00  0.00     0.010 A 
ATOM     34  C   UNL A   1      39.845  29.303  30.599  1.00  0.00     0.010 A 
ATOM     35  C   UNL A   1      40.207  29.306  29.244  1.00  0.00    -0.014 A 
BRANCH  35  36
ATOM     36  C   UNL A   1      41.568  28.844  28.863  1.00  0.00     0.031 A 
ATOM     37  C   UNL A   1      42.694  29.843  28.793  1.00  0.00     0.074 A 
ATOM     38  C   UNL A   1      41.776  27.559  28.510  1.00  0.00     0.049 A 
ATOM     39  N   UNL A   1      43.910  29.689  28.336  1.00  0.00    -0.248 NA
ATOM     40  C   UNL A   1      42.402  31.205  29.271  1.00  0.00     0.031 C 
ATOM     41  C   UNL A   1      40.760  26.503  28.514  1.00  0.00     0.029 A 
ATOM     42  N   UNL A   1      42.907  26.924  28.061  1.00  0.00    -0.354 N 
ATOM     43  C   UNL A   1      44.520  30.933  28.462  1.00  0.00     0.074 A 
ATOM     44  C   UNL A   1      43.523  31.845  28.975  1.00  0.00     0.031 C 
ATOM     45  C   UNL A   1      41.318  25.352  28.103  1.00  0.00     0.029 A 
ATOM     46  C   UNL A   1      42.715  25.595  27.760  1.00  0.00     0.049 A 
ATOM     47  H   UNL A   1      43.776  27.378  27.965  1.00  0.00     0.167 HD
ATOM     48  C   UNL A   1      45.803  31.275  28.204  1.00  0.00     0.037 A 
ATOM     49  C   UNL A   1      43.567  24.683  27.250  1.00  0.00     0.037 A 
ATOM     50  C   UNL A   1      46.799  30.354  27.723  1.00  0.00     0.049 A 
ATOM     51  C   UNL A   1      44.982  25.101  26.938  1.00  0.00     0.074 A 
ATOM     52  C   UNL A   1      48.133  30.594  27.448  1.00  0.00     0.029 A 
ATOM     53  N   UNL A   1      46.571  29.011  27.458  1.00  0.00    -0.354 N 
ATOM     54  N   UNL A   1      45.549  26.275  27.089  1.00  0.00    -0.248 NA
ATOM     55  C   UNL A   1      45.877  24.070  26.391  1.00  0.00     0.031 C 
ATOM     56  C   UNL A   1      48.704  29.407  26.982  1.00  0.00     0.029 A 
ATOM     57  C   UNL A   1      47.738  28.413  27.019  1.00  0.00     0.049 A 
ATOM     58  H   UNL A   1      45.706  28.553  27.566  1.00  0.00     0.167 HD
ATOM     59  C   UNL A   1      46.876  26.108  26.704  1.00  0.00     0.074 A 
ATOM     60  C   UNL A   1      47.028  24.723  26.316  1.00  0.00     0.031 C 
ATOM     61  C   UNL A   1      47.880  27.020  26.679  1.00  0.00     0.037 A 
BRANCH  48  62
ATOM     62  C   UNL A   1      46.219  32.697  28.464  1.00  0.00     0.058 A 
ATOM     63  C   UNL A   1      46.735  33.093  29.709  1.00  0.00     0.135 A 
ATOM     64  C   UNL A   1      46.163  33.661  27.444  1.00  0.00     0.135 A 
ATOM     65  F   UNL A   1      46.792  32.217  30.726  1.00  0.00    -0.206 F 
ATOM     66  C   UNL A   1      47.165  34.394  29.939  1.00  0.00     0.059 A 
ATOM     67  C   UNL A   1      46.618  34.962  27.643  1.00  0.00     0.059 A 
ATOM     68  F   UNL A   1      45.677  33.340  26.235  1.00  0.00    -0.206 F 
ATOM     69  C   UNL A   1      47.110  35.320  28.897  1.00  0.00     0.060 A 
BRANCH  69  70
ATOM     70  S   UNL A   1      47.713  36.994  29.205  1.00  0.00     0.124 S 
ATOM     71  O   UNL A   1      47.319  37.675  27.974  1.00  0.00    -0.237 OA
ATOM     72  O   UNL A   1      46.975  37.374  30.403  1.00  0.00    -0.237 OA
ATOM     73  O   UNL A   1      49.149  36.811  29.386  1.00  0.00    -0.744 OA
ENDBRANCH  69  70
ENDBRANCH  48  62
BRANCH  49  74
ATOM     74  C   UNL A   1      43.124  23.282  27.002  1.00  0.00     0.058 A 
ATOM     75  C   UNL A   1      42.952  22.381  28.065  1.00  0.00     0.135 A 
ATOM     76  C   UNL A   1      42.909  22.801  25.701  1.00  0.00     0.135 A 
ATOM     77  F   UNL A   1      43.147  22.790  29.328  1.00  0.00    -0.206 F 
ATOM     78  C   UNL A   1      42.631  21.045  27.846  1.00  0.00     0.059 A 
ATOM     79  C   UNL A   1      42.555  21.477  25.459  1.00  0.00     0.059 A 
ATOM     80  F   UNL A   1      43.038  23.623  24.648  1.00  0.00    -0.206 F 
ATOM     81  C   UNL A   1      42.443  20.601  26.536  1.00  0.00     0.060 A 
BRANCH  81  82
ATOM     82  S   UNL A   1      42.041  18.862  26.261  1.00  0.00     0.124 S 
ATOM     83  O   UNL A   1      42.248  18.300  27.591  1.00  0.00    -0.237 OA
ATOM     84  O   UNL A   1      40.655  18.935  25.807  1.00  0.00    -0.237 OA
ATOM     85  O   UNL A   1      43.006  18.452  25.245  1.00  0.00    -0.744 OA
ENDBRANCH  81  82
ENDBRANCH  49  74
BRANCH  61  86
ATOM     86  C   UNL A   1      49.252  26.539  26.296  1.00  0.00     0.058 A 
ATOM     87  C   UNL A   1      49.765  26.704  25.002  1.00  0.00     0.135 A 
ATOM     88  C   UNL A   1      50.095  25.977  27.271  1.00  0.00     0.135 A 
ATOM     89  F   UNL A   1      48.999  27.229  24.033  1.00  0.00    -0.206 F 
ATOM     90  C   UNL A   1      51.060  26.312  24.680  1.00  0.00     0.059 A 
ATOM     91  C   UNL A   1      51.403  25.606  26.980  1.00  0.00     0.059 A 
ATOM     92  F   UNL A   1      49.655  25.807  28.528  1.00  0.00    -0.206 F 
ATOM     93  C   UNL A   1      51.874  25.772  25.679  1.00  0.00     0.060 A 
BRANCH  93  94
ATOM     94  S   UNL A   1      53.572  25.322  25.260  1.00  0.00     0.124 S 
ATOM     95  O   UNL A   1      53.530  23.869  25.382  1.00  0.00    -0.237 OA
ATOM     96  O   UNL A   1      53.705  25.843  23.903  1.00  0.00    -0.237 OA
ATOM     97  O   UNL A   1      54.366  26.014  26.271  1.00  0.00    -0.744 OA
ENDBRANCH  93  94
ENDBRANCH  61  86
ENDBRANCH  35  36
ENDBRANCH  27  30
ENDBRANCH  25  26
ENDBRANCH  24  25
ENDBRANCH   1  24
TORSDOF 18
ENDMDL
MODEL 3
REMARK VINA RESULT:     -10.5      4.082     10.942
REMARK SMILES CC(C)Nc1cc2ccccc2cc1C(=O)NCCCCCCNC(=O)c1ccc(-c2c3nc(c(-c4c(F)cc(S(=O)(=O)[O-])cc4F)c4ccc([nH]4)c(-c4c(F)cc(S(=O)(=O)[O-])cc4F)c4nc(c(-c5c(F)cc(S(=O)(=O)[O-])cc5F)c5ccc2[nH]5)C=C4)C=C3)cc1
REMARK SMILES IDX 21 1 20 2 19 3 18 4 17 5 15 6 16 7 14 9 5 10 6 11 7 12 13 13
REMARK SMILES IDX 8 14 12 15 9 16 11 17 10 18 4 19 2 21 1 22 3 23 22 24 23 25
REMARK SMILES IDX 24 26 25 27 26 29 27 30 28 31 92 32 29 33 91 34 30 35 31 36
REMARK SMILES IDX 32 37 85 38 33 39 90 40 84 41 86 42 34 43 89 44 83 45 82 46
REMARK SMILES IDX 35 48 69 49 48 50 68 51 49 52 52 53 67 54 87 55 50 56 51 57
REMARK SMILES IDX 66 59 88 60 53 61 36 62 37 63 46 64 38 65 39 66 45 67 47 68
REMARK SMILES IDX 40 69 41 70 42 71 43 72 44 73 70 74 71 75 80 76 72 77 73 78
REMARK SMILES IDX 79 79 81 80 74 81 75 82 76 83 77 84 78 85 54 86 55 87 64 88
REMARK SMILES IDX 56 89 57 90 63 91 65 92 58 93 59 94 60 95 61 96 62 97
REMARK H PARENT 17 8 4 20 24 28 86 47 52 58
REMARK Flexibility Score: inf
ROOT
ATOM      1  C   UNL A   1      41.973  22.901  28.675  1.00  0.00     0.002 C 
ENDROOT
BRANCH   1   2
ATOM      2  C   UNL A   1      43.477  22.741  28.911  1.00  0.00     0.002 C 
BRANCH   2   3
ATOM      3  C   UNL A   1      44.439  23.791  28.337  1.00  0.00     0.021 C 
BRANCH   3   4
ATOM      4  C   UNL A   1      45.716  23.297  27.654  1.00  0.00     0.116 C 
BRANCH   4   5
ATOM      5  N   UNL A   1      45.663  23.248  26.205  1.00  0.00    -0.352 N 
ATOM      6  C   UNL A   1      45.687  24.287  25.297  1.00  0.00     0.253 C 
ATOM      7  O   UNL A   1      45.698  24.013  24.096  1.00  0.00    -0.269 OA
ATOM      8  H   UNL A   1      45.601  22.346  25.815  1.00  0.00     0.163 HD
BRANCH   6   9
ATOM      9  C   UNL A   1      45.585  25.718  25.707  1.00  0.00     0.063 A 
ATOM     10  C   UNL A   1      46.592  26.471  26.331  1.00  0.00     0.048 A 
ATOM     11  C   UNL A   1      46.226  27.717  26.884  1.00  0.00     0.035 A 
ATOM     12  C   UNL A   1      44.937  28.264  26.741  1.00  0.00    -0.016 A 
ATOM     13  C   UNL A   1      44.315  26.298  25.482  1.00  0.00     0.024 A 
ATOM     14  C   UNL A   1      44.586  29.494  27.325  1.00  0.00     0.009 A 
ATOM     15  C   UNL A   1      43.984  27.571  25.974  1.00  0.00    -0.017 A 
ATOM     16  C   UNL A   1      43.324  30.054  27.113  1.00  0.00     0.001 A 
ATOM     17  C   UNL A   1      42.728  28.161  25.741  1.00  0.00     0.009 A 
ATOM     18  C   UNL A   1      42.403  29.398  26.302  1.00  0.00     0.001 A 
BRANCH  10  19
ATOM     19  N   UNL A   1      47.951  26.149  26.365  1.00  0.00    -0.382 N 
ATOM     20  H   UNL A   1      48.278  25.502  27.031  1.00  0.00     0.160 HD
BRANCH  19  21
ATOM     21  C   UNL A   1      48.901  26.760  25.424  1.00  0.00     0.073 C 
ATOM     22  C   UNL A   1      50.176  25.909  25.421  1.00  0.00     0.030 C 
ATOM     23  C   UNL A   1      48.360  26.767  24.001  1.00  0.00     0.030 C 
ENDBRANCH  19  21
ENDBRANCH  10  19
ENDBRANCH   6   9
ENDBRANCH   4   5
ENDBRANCH   3   4
ENDBRANCH   2   3
ENDBRANCH   1   2
BRANCH   1  24
ATOM     24  C   UNL A   1      41.267  21.825  27.850  1.00  0.00     0.021 C 
BRANCH  24  25
ATOM     25  C   UNL A   1      41.138  22.116  26.361  1.00  0.00     0.116 C 
BRANCH  25  26
ATOM     26  N   UNL A   1      39.757  22.197  25.911  1.00  0.00    -0.352 N 
ATOM     27  C   UNL A   1      38.816  23.172  26.152  1.00  0.00     0.251 C 
ATOM     28  H   UNL A   1      39.451  21.446  25.353  1.00  0.00     0.163 HD
ATOM     29  O   UNL A   1      37.656  23.003  25.797  1.00  0.00    -0.269 OA
BRANCH  27  30
ATOM     30  C   UNL A   1      39.203  24.413  26.864  1.00  0.00     0.039 A 
ATOM     31  C   UNL A   1      38.779  24.602  28.183  1.00  0.00     0.014 A 
ATOM     32  C   UNL A   1      39.977  25.389  26.233  1.00  0.00     0.014 A 
ATOM     33  C   UNL A   1      39.187  25.738  28.889  1.00  0.00     0.010 A 
ATOM     34  C   UNL A   1      40.450  26.476  26.961  1.00  0.00     0.010 A 
ATOM     35  C   UNL A   1      40.054  26.669  28.293  1.00  0.00    -0.014 A 
BRANCH  35  36
ATOM     36  C   UNL A   1      40.534  27.875  29.018  1.00  0.00     0.031 A 
ATOM     37  C   UNL A   1      41.898  27.856  29.659  1.00  0.00     0.074 A 
ATOM     38  C   UNL A   1      39.728  28.946  29.165  1.00  0.00     0.049 A 
ATOM     39  N   UNL A   1      42.446  28.729  30.463  1.00  0.00    -0.248 NA
ATOM     40  C   UNL A   1      42.745  26.682  29.382  1.00  0.00     0.031 C 
ATOM     41  C   UNL A   1      38.378  29.074  28.612  1.00  0.00     0.029 A 
ATOM     42  N   UNL A   1      39.918  30.125  29.841  1.00  0.00    -0.354 N 
ATOM     43  C   UNL A   1      43.692  28.206  30.796  1.00  0.00     0.074 A 
ATOM     44  C   UNL A   1      43.791  26.911  30.161  1.00  0.00     0.031 C 
ATOM     45  C   UNL A   1      37.870  30.268  28.958  1.00  0.00     0.029 A 
ATOM     46  C   UNL A   1      38.835  30.972  29.796  1.00  0.00     0.049 A 
ATOM     47  H   UNL A   1      40.754  30.345  30.314  1.00  0.00     0.167 HD
ATOM     48  C   UNL A   1      44.675  28.767  31.536  1.00  0.00     0.037 A 
ATOM     49  C   UNL A   1      38.638  32.171  30.381  1.00  0.00     0.037 A 
ATOM     50  C   UNL A   1      44.580  30.070  32.141  1.00  0.00     0.049 A 
ATOM     51  C   UNL A   1      39.737  32.758  31.231  1.00  0.00     0.074 A 
ATOM     52  C   UNL A   1      45.527  30.740  32.895  1.00  0.00     0.029 A 
ATOM     53  N   UNL A   1      43.477  30.906  32.048  1.00  0.00    -0.354 N 
ATOM     54  N   UNL A   1      40.919  32.260  31.511  1.00  0.00    -0.248 NA
ATOM     55  C   UNL A   1      39.481  34.071  31.840  1.00  0.00     0.031 C 
ATOM     56  C   UNL A   1      44.984  31.966  33.289  1.00  0.00     0.029 A 
ATOM     57  C   UNL A   1      43.719  32.083  32.734  1.00  0.00     0.049 A 
ATOM     58  H   UNL A   1      42.646  30.693  31.566  1.00  0.00     0.167 HD
ATOM     59  C   UNL A   1      41.561  33.221  32.285  1.00  0.00     0.074 A 
ATOM     60  C   UNL A   1      40.641  34.329  32.427  1.00  0.00     0.031 C 
ATOM     61  C   UNL A   1      42.804  33.193  32.826  1.00  0.00     0.037 A 
BRANCH  48  62
ATOM     62  C   UNL A   1      45.953  27.994  31.713  1.00  0.00     0.058 A 
ATOM     63  C   UNL A   1      47.056  28.200  30.869  1.00  0.00     0.135 A 
ATOM     64  C   UNL A   1      46.103  27.084  32.773  1.00  0.00     0.135 A 
ATOM     65  F   UNL A   1      46.961  29.044  29.828  1.00  0.00    -0.206 F 
ATOM     66  C   UNL A   1      48.255  27.524  31.059  1.00  0.00     0.059 A 
ATOM     67  C   UNL A   1      47.305  26.418  33.001  1.00  0.00     0.059 A 
ATOM     68  F   UNL A   1      45.080  26.845  33.609  1.00  0.00    -0.206 F 
ATOM     69  C   UNL A   1      48.372  26.640  32.132  1.00  0.00     0.060 A 
BRANCH  69  70
ATOM     70  S   UNL A   1      49.951  25.803  32.384  1.00  0.00     0.124 S 
ATOM     71  O   UNL A   1      50.573  26.653  33.396  1.00  0.00    -0.237 OA
ATOM     72  O   UNL A   1      49.533  24.481  32.839  1.00  0.00    -0.237 OA
ATOM     73  O   UNL A   1      50.574  25.843  31.066  1.00  0.00    -0.744 OA
ENDBRANCH  69  70
ENDBRANCH  48  62
BRANCH  49  74
ATOM     74  C   UNL A   1      37.359  32.912  30.187  1.00  0.00     0.058 A 
ATOM     75  C   UNL A   1      36.284  32.737  31.073  1.00  0.00     0.135 A 
ATOM     76  C   UNL A   1      37.169  33.770  29.094  1.00  0.00     0.135 A 
ATOM     77  F   UNL A   1      36.414  31.926  32.133  1.00  0.00    -0.206 F 
ATOM     78  C   UNL A   1      35.052  33.347  30.856  1.00  0.00     0.059 A 
ATOM     79  C   UNL A   1      35.956  34.418  28.874  1.00  0.00     0.059 A 
ATOM     80  F   UNL A   1      38.169  33.992  28.227  1.00  0.00    -0.206 F 
ATOM     81  C   UNL A   1      34.896  34.180  29.747  1.00  0.00     0.060 A 
BRANCH  81  82
ATOM     82  S   UNL A   1      33.290  34.956  29.466  1.00  0.00     0.124 S 
ATOM     83  O   UNL A   1      33.683  36.281  28.999  1.00  0.00    -0.237 OA
ATOM     84  O   UNL A   1      32.695  34.076  28.464  1.00  0.00    -0.237 OA
ATOM     85  O   UNL A   1      32.661  34.911  30.783  1.00  0.00    -0.744 OA
ENDBRANCH  81  82
ENDBRANCH  49  74
BRANCH  61  86
ATOM     86  C   UNL A   1      43.280  34.419  33.553  1.00  0.00     0.058 A 
ATOM     87  C   UNL A   1      43.743  35.556  32.874  1.00  0.00     0.135 A 
ATOM     88  C   UNL A   1      43.193  34.481  34.955  1.00  0.00     0.135 A 
ATOM     89  F   UNL A   1      43.852  35.546  31.536  1.00  0.00    -0.206 F 
ATOM     90  C   UNL A   1      44.119  36.706  33.559  1.00  0.00     0.059 A 
ATOM     91  C   UNL A   1      43.534  35.631  35.658  1.00  0.00     0.059 A 
ATOM     92  F   UNL A   1      42.747  33.424  35.652  1.00  0.00    -0.206 F 
ATOM     93  C   UNL A   1      44.003  36.737  34.951  1.00  0.00     0.060 A 
BRANCH  93  94
ATOM     94  S   UNL A   1      44.440  38.257  35.821  1.00  0.00     0.124 S 
ATOM     95  O   UNL A   1      44.058  39.274  34.848  1.00  0.00    -0.237 OA
ATOM     96  O   UNL A   1      43.608  38.179  37.018  1.00  0.00    -0.237 OA
ATOM     97  O   UNL A   1      45.875  38.117  36.052  1.00  0.00    -0.744 OA
ENDBRANCH  93  94
ENDBRANCH  61  86
ENDBRANCH  35  36
ENDBRANCH  27  30
ENDBRANCH  25  26
ENDBRANCH  24  25
ENDBRANCH   1  24
TORSDOF 18
ENDMDL
