MODEL 1
REMARK VINA RESULT:     -10.1      0.000      0.000
REMARK SMILES CCN1C(=O)/C(=C/c2cc([N+](=O)[O-])ccc2O)S/C1=[NH+]\c1ccc(C(=O)NCCCCCCNC(=O)c2ccc(-c3c4nc(c(-c5c(F)cc(S(=O)(=O)[O-])cc5F)c5ccc([nH]5)c(-c5c(F)cc(S(=O)(=O)[O-])cc5F)c5nc(c(-c6c(F)cc(S(=O)(=O)[O-])cc6F)c6ccc3[nH]6)C=C5)C=C4)cc2)cc1
REMARK SMILES IDX 30 1 29 2 28 3 27 4 25 5 26 6 24 8 21 9 22 10 104 11 23 12
REMARK SMILES IDX 103 13 20 14 3 15 4 16 19 17 5 18 6 19 18 20 7 21 2 23 1 24
REMARK SMILES IDX 8 25 9 26 16 27 10 28 15 29 14 30 17 31 11 33 12 34 13 35
REMARK SMILES IDX 31 36 32 37 33 38 34 39 35 40 36 42 37 43 38 44 102 45 39 46
REMARK SMILES IDX 101 47 40 48 41 49 42 50 95 51 43 52 100 53 94 54 96 55
REMARK SMILES IDX 44 56 99 57 93 58 92 59 45 61 79 62 58 63 78 64 59 65 62 66
REMARK SMILES IDX 77 67 97 68 60 69 61 70 76 72 98 73 63 74 46 75 47 76 56 77
REMARK SMILES IDX 48 78 49 79 55 80 57 81 50 82 51 83 52 84 53 85 54 86 80 87
REMARK SMILES IDX 81 88 90 89 82 90 83 91 89 92 91 93 84 94 85 95 86 96 87 97
REMARK SMILES IDX 88 98 64 99 65 100 74 101 66 102 67 103 73 104 75 105 68 106
REMARK SMILES IDX 69 107 70 108 71 109 72 110
REMARK H PARENT 27 7 20 22 17 32 34 41 96 60 62 71
REMARK Flexibility Score: inf
ROOT
ATOM      1  C   UNL A   1      41.159  20.259  27.560  1.00  0.00     0.002 C 
ENDROOT
BRANCH   1   2
ATOM      2  C   UNL A   1      42.584  19.929  27.097  1.00  0.00     0.021 C 
BRANCH   2   3
ATOM      3  C   UNL A   1      42.973  20.654  25.806  1.00  0.00     0.116 C 
BRANCH   3   4
ATOM      4  N   UNL A   1      44.356  20.359  25.478  1.00  0.00    -0.352 N 
ATOM      5  C   UNL A   1      45.479  21.144  25.449  1.00  0.00     0.251 C 
ATOM      6  O   UNL A   1      46.544  20.630  25.109  1.00  0.00    -0.269 OA
ATOM      7  H   UNL A   1      44.518  19.419  25.231  1.00  0.00     0.163 HD
BRANCH   5   8
ATOM      8  C   UNL A   1      45.466  22.561  25.894  1.00  0.00     0.040 A 
ATOM      9  C   UNL A   1      45.660  25.289  26.527  1.00  0.00     0.125 A 
ATOM     10  C   UNL A   1      45.372  24.896  25.222  1.00  0.00     0.052 A 
ATOM     11  C   UNL A   1      45.731  24.319  27.531  1.00  0.00     0.052 A 
ATOM     12  C   UNL A   1      45.282  23.538  24.905  1.00  0.00     0.018 A 
ATOM     13  C   UNL A   1      45.617  22.963  27.222  1.00  0.00     0.018 A 
BRANCH   9  14
ATOM     14  N   UNL A   1      45.788  26.644  26.842  1.00  0.00    -0.234 N 
ATOM     15  N   UNL A   1      45.877  28.358  28.422  1.00  0.00    -0.186 N 
ATOM     16  C   UNL A   1      45.990  28.637  29.771  1.00  0.00     0.348 C 
ATOM     17  C   UNL A   1      45.898  27.032  28.070  1.00  0.00     0.324 C 
ATOM     18  O   UNL A   1      45.987  29.751  30.284  1.00  0.00    -0.240 OA
ATOM     19  C   UNL A   1      46.159  27.378  30.547  1.00  0.00     0.110 C 
ATOM     20  S   UNL A   1      46.063  26.025  29.494  1.00  0.00     0.007 SA
ATOM     21  C   UNL A   1      46.391  27.379  31.869  1.00  0.00     0.036 C 
ATOM     22  H   UNL A   1      45.794  27.312  26.120  1.00  0.00     0.313 HD
BRANCH  15  23
ATOM     23  C   UNL A   1      45.820  29.444  27.448  1.00  0.00     0.244 C 
ATOM     24  C   UNL A   1      44.523  30.244  27.444  1.00  0.00     0.055 C 
ENDBRANCH  15  23
BRANCH  21  25
ATOM     25  C   UNL A   1      46.695  26.195  32.688  1.00  0.00     0.024 A 
ATOM     26  C   UNL A   1      45.642  25.422  33.193  1.00  0.00     0.097 A 
ATOM     27  C   UNL A   1      48.017  25.835  33.005  1.00  0.00     0.123 A 
ATOM     28  C   UNL A   1      45.923  24.293  33.980  1.00  0.00     0.270 A 
ATOM     29  C   UNL A   1      48.295  24.711  33.785  1.00  0.00     0.054 A 
ATOM     30  C   UNL A   1      47.246  23.933  34.274  1.00  0.00     0.089 A 
BRANCH  27  31
ATOM     31  O   UNL A   1      49.050  26.611  32.554  1.00  0.00    -0.507 OA
ATOM     32  H   UNL A   1      48.956  27.101  31.760  1.00  0.00     0.293 HD
ENDBRANCH  27  31
BRANCH  28  33
ATOM     33  N   UNL A   1      44.821  23.470  34.496  1.00  0.00     0.062 N 
ATOM     34  O   UNL A   1      44.199  22.773  33.683  1.00  0.00    -0.258 OA
ATOM     35  O   UNL A   1      44.601  23.515  35.714  1.00  0.00    -0.258 OA
ENDBRANCH  28  33
ENDBRANCH  21  25
ENDBRANCH   9  14
ENDBRANCH   5   8
ENDBRANCH   3   4
ENDBRANCH   2   3
ENDBRANCH   1   2
BRANCH   1  36
ATOM     36  C   UNL A   1      40.254  20.838  26.466  1.00  0.00     0.002 C 
BRANCH  36  37
ATOM     37  C   UNL A   1      39.680  22.223  26.778  1.00  0.00     0.021 C 
BRANCH  37  38
ATOM     38  C   UNL A   1      40.708  23.214  27.312  1.00  0.00     0.116 C 
BRANCH  38  39
ATOM     39  N   UNL A   1      41.412  23.885  26.230  1.00  0.00    -0.352 N 
ATOM     40  C   UNL A   1      41.608  25.228  26.027  1.00  0.00     0.251 C 
ATOM     41  H   UNL A   1      41.802  23.293  25.547  1.00  0.00     0.163 HD
ATOM     42  O   UNL A   1      41.993  25.633  24.935  1.00  0.00    -0.269 OA
BRANCH  40  43
ATOM     43  C   UNL A   1      41.345  26.180  27.126  1.00  0.00     0.039 A 
ATOM     44  C   UNL A   1      40.278  25.938  27.994  1.00  0.00     0.014 A 
ATOM     45  C   UNL A   1      42.144  27.316  27.292  1.00  0.00     0.014 A 
ATOM     46  C   UNL A   1      40.042  26.811  29.057  1.00  0.00     0.010 A 
ATOM     47  C   UNL A   1      41.957  28.140  28.398  1.00  0.00     0.010 A 
ATOM     48  C   UNL A   1      40.899  27.902  29.286  1.00  0.00    -0.014 A 
BRANCH  48  49
ATOM     49  C   UNL A   1      40.695  28.805  30.448  1.00  0.00     0.031 A 
ATOM     50  C   UNL A   1      41.541  28.648  31.684  1.00  0.00     0.074 A 
ATOM     51  C   UNL A   1      39.720  29.734  30.404  1.00  0.00     0.049 A 
ATOM     52  N   UNL A   1      41.481  29.307  32.813  1.00  0.00    -0.248 NA
ATOM     53  C   UNL A   1      42.574  27.600  31.657  1.00  0.00     0.031 C 
ATOM     54  C   UNL A   1      38.809  29.952  29.278  1.00  0.00     0.029 A 
ATOM     55  N   UNL A   1      39.327  30.669  31.330  1.00  0.00    -0.354 N 
ATOM     56  C   UNL A   1      42.463  28.754  33.627  1.00  0.00     0.074 A 
ATOM     57  C   UNL A   1      43.060  27.663  32.888  1.00  0.00     0.031 C 
ATOM     58  C   UNL A   1      37.986  30.974  29.567  1.00  0.00     0.029 A 
ATOM     59  C   UNL A   1      38.280  31.456  30.912  1.00  0.00     0.049 A 
ATOM     60  H   UNL A   1      39.757  30.766  32.211  1.00  0.00     0.167 HD
ATOM     61  C   UNL A   1      42.853  29.140  34.866  1.00  0.00     0.037 A 
ATOM     62  C   UNL A   1      37.626  32.450  31.545  1.00  0.00     0.037 A 
ATOM     63  C   UNL A   1      42.264  30.238  35.588  1.00  0.00     0.049 A 
ATOM     64  C   UNL A   1      38.060  32.838  32.935  1.00  0.00     0.074 A 
ATOM     65  C   UNL A   1      42.609  30.731  36.833  1.00  0.00     0.029 A 
ATOM     66  N   UNL A   1      41.208  31.013  35.131  1.00  0.00    -0.354 N 
ATOM     67  N   UNL A   1      39.030  32.341  33.667  1.00  0.00    -0.248 NA
ATOM     68  C   UNL A   1      37.318  33.927  33.582  1.00  0.00     0.031 C 
ATOM     69  C   UNL A   1      41.732  31.772  37.151  1.00  0.00     0.029 A 
ATOM     70  C   UNL A   1      40.878  31.968  36.078  1.00  0.00     0.049 A 
ATOM     71  H   UNL A   1      40.760  30.901  34.261  1.00  0.00     0.167 HD
ATOM     72  C   UNL A   1      39.035  33.080  34.844  1.00  0.00     0.074 A 
ATOM     73  C   UNL A   1      37.983  34.068  34.721  1.00  0.00     0.031 C 
ATOM     74  C   UNL A   1      39.837  32.956  35.931  1.00  0.00     0.037 A 
BRANCH  61  75
ATOM     75  C   UNL A   1      43.980  28.381  35.515  1.00  0.00     0.058 A 
ATOM     76  C   UNL A   1      45.324  28.679  35.237  1.00  0.00     0.135 A 
ATOM     77  C   UNL A   1      43.718  27.382  36.467  1.00  0.00     0.135 A 
ATOM     78  F   UNL A   1      45.633  29.613  34.323  1.00  0.00    -0.206 F 
ATOM     79  C   UNL A   1      46.365  28.001  35.860  1.00  0.00     0.059 A 
ATOM     80  C   UNL A   1      44.744  26.711  37.126  1.00  0.00     0.059 A 
ATOM     81  F   UNL A   1      42.452  27.053  36.771  1.00  0.00    -0.206 F 
ATOM     82  C   UNL A   1      46.066  27.021  36.808  1.00  0.00     0.060 A 
BRANCH  82  83
ATOM     83  S   UNL A   1      47.431  26.169  37.623  1.00  0.00     0.124 S 
ATOM     84  O   UNL A   1      48.548  26.497  36.743  1.00  0.00    -0.237 OA
ATOM     85  O   UNL A   1      47.453  26.804  38.937  1.00  0.00    -0.237 OA
ATOM     86  O   UNL A   1      47.016  24.770  37.612  1.00  0.00    -0.744 OA
ENDBRANCH  82  83
ENDBRANCH  61  75
BRANCH  62  87
ATOM     87  C   UNL A   1      36.506  33.164  30.872  1.00  0.00     0.058 A 
ATOM     88  C   UNL A   1      36.753  34.060  29.820  1.00  0.00     0.135 A 
ATOM     89  C   UNL A   1      35.174  32.985  31.277  1.00  0.00     0.135 A 
ATOM     90  F   UNL A   1      38.009  34.268  29.397  1.00  0.00    -0.206 F 
ATOM     91  C   UNL A   1      35.726  34.779  29.218  1.00  0.00     0.059 A 
ATOM     92  C   UNL A   1      34.125  33.669  30.668  1.00  0.00     0.059 A 
ATOM     93  F   UNL A   1      34.881  32.126  32.265  1.00  0.00    -0.206 F 
ATOM     94  C   UNL A   1      34.414  34.580  29.651  1.00  0.00     0.060 A 
BRANCH  94  95
ATOM     95  S   UNL A   1      33.092  35.517  28.856  1.00  0.00     0.124 S 
ATOM     96  O   UNL A   1      32.290  35.924  30.003  1.00  0.00    -0.237 OA
ATOM     97  O   UNL A   1      33.833  36.581  28.186  1.00  0.00    -0.237 OA
ATOM     98  O   UNL A   1      32.470  34.539  27.968  1.00  0.00    -0.744 OA
ENDBRANCH  94  95
ENDBRANCH  62  87
BRANCH  74  99
ATOM     99  C   UNL A   1      39.644  33.940  37.053  1.00  0.00     0.058 A 
ATOM    100  C   UNL A   1      38.879  33.629  38.189  1.00  0.00     0.135 A 
ATOM    101  C   UNL A   1      40.271  35.196  37.009  1.00  0.00     0.135 A 
ATOM    102  F   UNL A   1      38.254  32.446  38.279  1.00  0.00    -0.206 F 
ATOM    103  C   UNL A   1      38.720  34.541  39.228  1.00  0.00     0.059 A 
ATOM    104  C   UNL A   1      40.152  36.110  38.052  1.00  0.00     0.059 A 
ATOM    105  F   UNL A   1      41.023  35.540  35.952  1.00  0.00    -0.206 F 
ATOM    106  C   UNL A   1      39.363  35.778  39.151  1.00  0.00     0.060 A 
BRANCH 106 107
ATOM    107  S   UNL A   1      39.171  36.938  40.520  1.00  0.00     0.124 S 
ATOM    108  O   UNL A   1      38.510  36.107  41.521  1.00  0.00    -0.237 OA
ATOM    109  O   UNL A   1      40.554  37.304  40.814  1.00  0.00    -0.237 OA
ATOM    110  O   UNL A   1      38.354  38.005  39.951  1.00  0.00    -0.744 OA
ENDBRANCH 106 107
ENDBRANCH  74  99
ENDBRANCH  48  49
ENDBRANCH  40  43
ENDBRANCH  38  39
ENDBRANCH  37  38
ENDBRANCH  36  37
ENDBRANCH   1  36
TORSDOF 21
ENDMDL
MODEL 2
REMARK VINA RESULT:      -9.8      4.186      7.921
REMARK SMILES CCN1C(=O)/C(=C/c2cc([N+](=O)[O-])ccc2O)S/C1=[NH+]\c1ccc(C(=O)NCCCCCCNC(=O)c2ccc(-c3c4nc(c(-c5c(F)cc(S(=O)(=O)[O-])cc5F)c5ccc([nH]5)c(-c5c(F)cc(S(=O)(=O)[O-])cc5F)c5nc(c(-c6c(F)cc(S(=O)(=O)[O-])cc6F)c6ccc3[nH]6)C=C5)C=C4)cc2)cc1
REMARK SMILES IDX 30 1 29 2 28 3 27 4 25 5 26 6 24 8 21 9 22 10 104 11 23 12
REMARK SMILES IDX 103 13 20 14 3 15 4 16 19 17 5 18 6 19 18 20 7 21 2 23 1 24
REMARK SMILES IDX 8 25 9 26 16 27 10 28 15 29 14 30 17 31 11 33 12 34 13 35
REMARK SMILES IDX 31 36 32 37 33 38 34 39 35 40 36 42 37 43 38 44 102 45 39 46
REMARK SMILES IDX 101 47 40 48 41 49 42 50 95 51 43 52 100 53 94 54 96 55
REMARK SMILES IDX 44 56 99 57 93 58 92 59 45 61 79 62 58 63 78 64 59 65 62 66
REMARK SMILES IDX 77 67 97 68 60 69 61 70 76 72 98 73 63 74 46 75 47 76 56 77
REMARK SMILES IDX 48 78 49 79 55 80 57 81 50 82 51 83 52 84 53 85 54 86 80 87
REMARK SMILES IDX 81 88 90 89 82 90 83 91 89 92 91 93 84 94 85 95 86 96 87 97
REMARK SMILES IDX 88 98 64 99 65 100 74 101 66 102 67 103 73 104 75 105 68 106
REMARK SMILES IDX 69 107 70 108 71 109 72 110
REMARK H PARENT 27 7 20 22 17 32 34 41 96 60 62 71
REMARK Flexibility Score: inf
ROOT
ATOM      1  C   UNL A   1      40.613  26.162  27.712  1.00  0.00     0.002 C 
ENDROOT
BRANCH   1   2
ATOM      2  C   UNL A   1      39.170  25.655  27.835  1.00  0.00     0.021 C 
BRANCH   2   3
ATOM      3  C   UNL A   1      39.032  24.168  27.499  1.00  0.00     0.116 C 
BRANCH   3   4
ATOM      4  N   UNL A   1      40.336  23.618  27.172  1.00  0.00    -0.352 N 
ATOM      5  C   UNL A   1      40.711  22.441  26.579  1.00  0.00     0.251 C 
ATOM      6  O   UNL A   1      41.912  22.215  26.438  1.00  0.00    -0.269 OA
ATOM      7  H   UNL A   1      41.090  24.199  27.423  1.00  0.00     0.163 HD
BRANCH   5   8
ATOM      8  C   UNL A   1      39.722  21.480  26.029  1.00  0.00     0.040 A 
ATOM      9  C   UNL A   1      37.647  19.792  25.177  1.00  0.00     0.125 A 
ATOM     10  C   UNL A   1      37.498  21.175  25.092  1.00  0.00     0.052 A 
ATOM     11  C   UNL A   1      38.877  19.262  25.574  1.00  0.00     0.052 A 
ATOM     12  C   UNL A   1      38.528  22.015  25.522  1.00  0.00     0.018 A 
ATOM     13  C   UNL A   1      39.916  20.100  25.982  1.00  0.00     0.018 A 
BRANCH   9  14
ATOM     14  N   UNL A   1      36.606  18.947  24.782  1.00  0.00    -0.234 N 
ATOM     15  N   UNL A   1      34.326  18.497  24.581  1.00  0.00    -0.186 N 
ATOM     16  C   UNL A   1      33.061  19.047  24.665  1.00  0.00     0.348 C 
ATOM     17  C   UNL A   1      35.377  19.346  24.820  1.00  0.00     0.324 C 
ATOM     18  O   UNL A   1      32.001  18.457  24.493  1.00  0.00    -0.240 OA
ATOM     19  C   UNL A   1      33.149  20.503  24.964  1.00  0.00     0.110 C 
ATOM     20  S   UNL A   1      34.791  20.956  25.185  1.00  0.00     0.007 SA
ATOM     21  C   UNL A   1      32.065  21.293  24.998  1.00  0.00     0.036 C 
ATOM     22  H   UNL A   1      36.811  18.036  24.473  1.00  0.00     0.313 HD
BRANCH  15  23
ATOM     23  C   UNL A   1      34.497  17.104  24.179  1.00  0.00     0.244 C 
ATOM     24  C   UNL A   1      34.470  16.093  25.319  1.00  0.00     0.055 C 
ENDBRANCH  15  23
BRANCH  21  25
ATOM     25  C   UNL A   1      32.072  22.755  25.159  1.00  0.00     0.024 A 
ATOM     26  C   UNL A   1      32.587  23.556  24.132  1.00  0.00     0.097 A 
ATOM     27  C   UNL A   1      31.606  23.372  26.335  1.00  0.00     0.123 A 
ATOM     28  C   UNL A   1      32.602  24.952  24.280  1.00  0.00     0.270 A 
ATOM     29  C   UNL A   1      31.619  24.760  26.480  1.00  0.00     0.054 A 
ATOM     30  C   UNL A   1      32.117  25.557  25.449  1.00  0.00     0.089 A 
BRANCH  27  31
ATOM     31  O   UNL A   1      31.144  22.594  27.362  1.00  0.00    -0.507 OA
ATOM     32  H   UNL A   1      30.929  22.985  28.186  1.00  0.00     0.293 HD
ENDBRANCH  27  31
BRANCH  28  33
ATOM     33  N   UNL A   1      33.124  25.796  23.197  1.00  0.00     0.062 N 
ATOM     34  O   UNL A   1      33.122  27.022  23.376  1.00  0.00    -0.258 OA
ATOM     35  O   UNL A   1      33.547  25.224  22.184  1.00  0.00    -0.258 OA
ENDBRANCH  28  33
ENDBRANCH  21  25
ENDBRANCH   9  14
ENDBRANCH   5   8
ENDBRANCH   3   4
ENDBRANCH   2   3
ENDBRANCH   1   2
BRANCH   1  36
ATOM     36  C   UNL A   1      40.889  26.994  26.455  1.00  0.00     0.002 C 
BRANCH  36  37
ATOM     37  C   UNL A   1      41.645  26.252  25.349  1.00  0.00     0.021 C 
BRANCH  37  38
ATOM     38  C   UNL A   1      43.093  26.701  25.179  1.00  0.00     0.116 C 
BRANCH  38  39
ATOM     39  N   UNL A   1      44.023  25.690  25.656  1.00  0.00    -0.352 N 
ATOM     40  C   UNL A   1      44.714  25.639  26.841  1.00  0.00     0.251 C 
ATOM     41  H   UNL A   1      44.180  24.936  25.043  1.00  0.00     0.163 HD
ATOM     42  O   UNL A   1      45.650  24.856  26.971  1.00  0.00    -0.269 OA
BRANCH  40  43
ATOM     43  C   UNL A   1      44.330  26.536  27.950  1.00  0.00     0.039 A 
ATOM     44  C   UNL A   1      44.604  27.901  27.847  1.00  0.00     0.014 A 
ATOM     45  C   UNL A   1      43.709  26.027  29.096  1.00  0.00     0.014 A 
ATOM     46  C   UNL A   1      44.213  28.763  28.873  1.00  0.00     0.010 A 
ATOM     47  C   UNL A   1      43.249  26.897  30.080  1.00  0.00     0.010 A 
ATOM     48  C   UNL A   1      43.505  28.272  29.983  1.00  0.00    -0.014 A 
BRANCH  48  49
ATOM     49  C   UNL A   1      43.031  29.185  31.055  1.00  0.00     0.031 A 
ATOM     50  C   UNL A   1      43.816  29.322  32.332  1.00  0.00     0.074 A 
ATOM     51  C   UNL A   1      41.872  29.854  30.893  1.00  0.00     0.049 A 
ATOM     52  N   UNL A   1      43.539  30.030  33.398  1.00  0.00    -0.248 NA
ATOM     53  C   UNL A   1      45.062  28.546  32.436  1.00  0.00     0.031 C 
ATOM     54  C   UNL A   1      41.003  29.769  29.717  1.00  0.00     0.029 A 
ATOM     55  N   UNL A   1      41.220  30.735  31.719  1.00  0.00    -0.354 N 
ATOM     56  C   UNL A   1      44.573  29.784  34.295  1.00  0.00     0.074 A 
ATOM     57  C   UNL A   1      45.447  28.812  33.676  1.00  0.00     0.031 C 
ATOM     58  C   UNL A   1      39.951  30.587  29.885  1.00  0.00     0.029 A 
ATOM     59  C   UNL A   1      40.046  31.222  31.195  1.00  0.00     0.049 A 
ATOM     60  H   UNL A   1      41.563  30.995  32.606  1.00  0.00     0.167 HD
ATOM     61  C   UNL A   1      44.790  30.340  35.511  1.00  0.00     0.037 A 
ATOM     62  C   UNL A   1      39.145  32.078  31.714  1.00  0.00     0.037 A 
ATOM     63  C   UNL A   1      43.922  31.320  36.113  1.00  0.00     0.049 A 
ATOM     64  C   UNL A   1      39.395  32.659  33.082  1.00  0.00     0.074 A 
ATOM     65  C   UNL A   1      44.070  31.970  37.325  1.00  0.00     0.029 A 
ATOM     66  N   UNL A   1      42.744  31.789  35.549  1.00  0.00    -0.354 N 
ATOM     67  N   UNL A   1      40.408  32.458  33.891  1.00  0.00    -0.248 NA
ATOM     68  C   UNL A   1      38.384  33.588  33.604  1.00  0.00     0.031 C 
ATOM     69  C   UNL A   1      42.959  32.797  37.517  1.00  0.00     0.029 A 
ATOM     70  C   UNL A   1      42.147  32.708  36.397  1.00  0.00     0.049 A 
ATOM     71  H   UNL A   1      42.386  31.512  34.675  1.00  0.00     0.167 HD
ATOM     72  C   UNL A   1      40.174  33.263  35.001  1.00  0.00     0.074 A 
ATOM     73  C   UNL A   1      38.931  33.964  34.752  1.00  0.00     0.031 C 
ATOM     74  C   UNL A   1      40.917  33.410  36.126  1.00  0.00     0.037 A 
BRANCH  61  75
ATOM     75  C   UNL A   1      46.021  29.917  36.267  1.00  0.00     0.058 A 
ATOM     76  C   UNL A   1      47.242  30.594  36.120  1.00  0.00     0.135 A 
ATOM     77  C   UNL A   1      45.968  28.859  37.189  1.00  0.00     0.135 A 
ATOM     78  F   UNL A   1      47.355  31.602  35.241  1.00  0.00    -0.206 F 
ATOM     79  C   UNL A   1      48.372  30.224  36.843  1.00  0.00     0.059 A 
ATOM     80  C   UNL A   1      47.078  28.491  37.945  1.00  0.00     0.059 A 
ATOM     81  F   UNL A   1      44.827  28.175  37.369  1.00  0.00    -0.206 F 
ATOM     82  C   UNL A   1      48.279  29.174  37.757  1.00  0.00     0.060 A 
BRANCH  82  83
ATOM     83  S   UNL A   1      49.749  28.725  38.702  1.00  0.00     0.124 S 
ATOM     84  O   UNL A   1      50.635  28.238  37.650  1.00  0.00    -0.237 OA
ATOM     85  O   UNL A   1      50.127  29.996  39.311  1.00  0.00    -0.237 OA
ATOM     86  O   UNL A   1      49.261  27.708  39.630  1.00  0.00    -0.744 OA
ENDBRANCH  82  83
ENDBRANCH  61  75
BRANCH  62  87
ATOM     87  C   UNL A   1      37.932  32.459  30.938  1.00  0.00     0.058 A 
ATOM     88  C   UNL A   1      37.999  33.429  29.926  1.00  0.00     0.135 A 
ATOM     89  C   UNL A   1      36.680  31.880  31.204  1.00  0.00     0.135 A 
ATOM     90  F   UNL A   1      39.172  34.014  29.634  1.00  0.00    -0.206 F 
ATOM     91  C   UNL A   1      36.867  33.838  29.230  1.00  0.00     0.059 A 
ATOM     92  C   UNL A   1      35.538  32.250  30.499  1.00  0.00     0.059 A 
ATOM     93  F   UNL A   1      36.563  30.935  32.148  1.00  0.00    -0.206 F 
ATOM     94  C   UNL A   1      35.638  33.245  29.526  1.00  0.00     0.060 A 
BRANCH  94  95
ATOM     95  S   UNL A   1      34.179  33.784  28.611  1.00  0.00     0.124 S 
ATOM     96  O   UNL A   1      34.739  34.815  27.746  1.00  0.00    -0.237 OA
ATOM     97  O   UNL A   1      33.762  32.552  27.948  1.00  0.00    -0.237 OA
ATOM     98  O   UNL A   1      33.279  34.261  29.657  1.00  0.00    -0.744 OA
ENDBRANCH  94  95
ENDBRANCH  62  87
BRANCH  74  99
ATOM     99  C   UNL A   1      40.436  34.401  37.151  1.00  0.00     0.058 A 
ATOM    100  C   UNL A   1      39.576  34.029  38.196  1.00  0.00     0.135 A 
ATOM    101  C   UNL A   1      40.881  35.733  37.112  1.00  0.00     0.135 A 
ATOM    102  F   UNL A   1      39.116  32.771  38.277  1.00  0.00    -0.206 F 
ATOM    103  C   UNL A   1      39.150  34.950  39.148  1.00  0.00     0.059 A 
ATOM    104  C   UNL A   1      40.494  36.662  38.072  1.00  0.00     0.059 A 
ATOM    105  F   UNL A   1      41.714  36.139  36.141  1.00  0.00    -0.206 F 
ATOM    106  C   UNL A   1      39.617  36.264  39.079  1.00  0.00     0.060 A 
BRANCH 106 107
ATOM    107  S   UNL A   1      39.080  37.439  40.338  1.00  0.00     0.124 S 
ATOM    108  O   UNL A   1      38.351  36.572  41.260  1.00  0.00    -0.237 OA
ATOM    109  O   UNL A   1      40.348  37.967  40.834  1.00  0.00    -0.237 OA
ATOM    110  O   UNL A   1      38.261  38.390  39.592  1.00  0.00    -0.744 OA
ENDBRANCH 106 107
ENDBRANCH  74  99
ENDBRANCH  48  49
ENDBRANCH  40  43
ENDBRANCH  38  39
ENDBRANCH  37  38
ENDBRANCH  36  37
ENDBRANCH   1  36
TORSDOF 21
ENDMDL
MODEL 3
REMARK VINA RESULT:      -9.8      2.532      4.037
REMARK SMILES CCN1C(=O)/C(=C/c2cc([N+](=O)[O-])ccc2O)S/C1=[NH+]\c1ccc(C(=O)NCCCCCCNC(=O)c2ccc(-c3c4nc(c(-c5c(F)cc(S(=O)(=O)[O-])cc5F)c5ccc([nH]5)c(-c5c(F)cc(S(=O)(=O)[O-])cc5F)c5nc(c(-c6c(F)cc(S(=O)(=O)[O-])cc6F)c6ccc3[nH]6)C=C5)C=C4)cc2)cc1
REMARK SMILES IDX 30 1 29 2 28 3 27 4 25 5 26 6 24 8 21 9 22 10 104 11 23 12
REMARK SMILES IDX 103 13 20 14 3 15 4 16 19 17 5 18 6 19 18 20 7 21 2 23 1 24
REMARK SMILES IDX 8 25 9 26 16 27 10 28 15 29 14 30 17 31 11 33 12 34 13 35
REMARK SMILES IDX 31 36 32 37 33 38 34 39 35 40 36 42 37 43 38 44 102 45 39 46
REMARK SMILES IDX 101 47 40 48 41 49 42 50 95 51 43 52 100 53 94 54 96 55
REMARK SMILES IDX 44 56 99 57 93 58 92 59 45 61 79 62 58 63 78 64 59 65 62 66
REMARK SMILES IDX 77 67 97 68 60 69 61 70 76 72 98 73 63 74 46 75 47 76 56 77
REMARK SMILES IDX 48 78 49 79 55 80 57 81 50 82 51 83 52 84 53 85 54 86 80 87
REMARK SMILES IDX 81 88 90 89 82 90 83 91 89 92 91 93 84 94 85 95 86 96 87 97
REMARK SMILES IDX 88 98 64 99 65 100 74 101 66 102 67 103 73 104 75 105 68 106
REMARK SMILES IDX 69 107 70 108 71 109 72 110
REMARK H PARENT 27 7 20 22 17 32 34 41 96 60 62 71
REMARK Flexibility Score: inf
ROOT
ATOM      1  C   UNL A   1      41.130  20.353  27.652  1.00  0.00     0.002 C 
ENDROOT
BRANCH   1   2
ATOM      2  C   UNL A   1      42.552  19.911  27.286  1.00  0.00     0.021 C 
BRANCH   2   3
ATOM      3  C   UNL A   1      42.847  20.033  25.790  1.00  0.00     0.116 C 
BRANCH   3   4
ATOM      4  N   UNL A   1      44.254  19.771  25.546  1.00  0.00    -0.352 N 
ATOM      5  C   UNL A   1      45.335  20.606  25.431  1.00  0.00     0.251 C 
ATOM      6  O   UNL A   1      46.436  20.109  25.200  1.00  0.00    -0.269 OA
ATOM      7  H   UNL A   1      44.473  18.817  25.445  1.00  0.00     0.163 HD
BRANCH   5   8
ATOM      8  C   UNL A   1      45.234  22.070  25.663  1.00  0.00     0.040 A 
ATOM      9  C   UNL A   1      45.301  24.862  25.940  1.00  0.00     0.125 A 
ATOM     10  C   UNL A   1      45.310  24.288  24.671  1.00  0.00     0.052 A 
ATOM     11  C   UNL A   1      45.137  24.040  27.059  1.00  0.00     0.052 A 
ATOM     12  C   UNL A   1      45.283  22.899  24.533  1.00  0.00     0.018 A 
ATOM     13  C   UNL A   1      45.086  22.652  26.922  1.00  0.00     0.018 A 
BRANCH   9  14
ATOM     14  N   UNL A   1      45.365  26.251  26.086  1.00  0.00    -0.234 N 
ATOM     15  N   UNL A   1      46.601  28.197  26.441  1.00  0.00    -0.186 N 
ATOM     16  C   UNL A   1      47.879  28.722  26.494  1.00  0.00     0.348 C 
ATOM     17  C   UNL A   1      46.504  26.859  26.152  1.00  0.00     0.324 C 
ATOM     18  O   UNL A   1      48.175  29.885  26.741  1.00  0.00    -0.240 OA
ATOM     19  C   UNL A   1      48.883  27.672  26.167  1.00  0.00     0.110 C 
ATOM     20  S   UNL A   1      48.096  26.164  25.929  1.00  0.00     0.007 SA
ATOM     21  C   UNL A   1      50.192  27.947  26.052  1.00  0.00     0.036 C 
ATOM     22  H   UNL A   1      44.532  26.772  26.139  1.00  0.00     0.313 HD
BRANCH  15  23
ATOM     23  C   UNL A   1      45.441  29.067  26.609  1.00  0.00     0.244 C 
ATOM     24  C   UNL A   1      45.208  29.568  28.029  1.00  0.00     0.055 C 
ENDBRANCH  15  23
BRANCH  21  25
ATOM     25  C   UNL A   1      51.231  27.003  25.610  1.00  0.00     0.024 A 
ATOM     26  C   UNL A   1      51.744  27.106  24.311  1.00  0.00     0.097 A 
ATOM     27  C   UNL A   1      51.701  25.976  26.449  1.00  0.00     0.123 A 
ATOM     28  C   UNL A   1      52.732  26.207  23.880  1.00  0.00     0.270 A 
ATOM     29  C   UNL A   1      52.686  25.084  26.020  1.00  0.00     0.054 A 
ATOM     30  C   UNL A   1      53.207  25.199  24.732  1.00  0.00     0.089 A 
BRANCH  27  31
ATOM     31  O   UNL A   1      51.172  25.840  27.703  1.00  0.00    -0.507 OA
ATOM     32  H   UNL A   1      50.892  24.998  28.006  1.00  0.00     0.293 HD
ENDBRANCH  27  31
BRANCH  28  33
ATOM     33  N   UNL A   1      53.286  26.323  22.525  1.00  0.00     0.062 N 
ATOM     34  O   UNL A   1      52.531  26.075  21.575  1.00  0.00    -0.258 OA
ATOM     35  O   UNL A   1      54.467  26.680  22.422  1.00  0.00    -0.258 OA
ENDBRANCH  28  33
ENDBRANCH  21  25
ENDBRANCH   9  14
ENDBRANCH   5   8
ENDBRANCH   3   4
ENDBRANCH   2   3
ENDBRANCH   1   2
BRANCH   1  36
ATOM     36  C   UNL A   1      40.295  20.852  26.467  1.00  0.00     0.002 C 
BRANCH  36  37
ATOM     37  C   UNL A   1      39.675  22.239  26.660  1.00  0.00     0.021 C 
BRANCH  37  38
ATOM     38  C   UNL A   1      40.631  23.267  27.255  1.00  0.00     0.116 C 
BRANCH  38  39
ATOM     39  N   UNL A   1      41.415  23.924  26.222  1.00  0.00    -0.352 N 
ATOM     40  C   UNL A   1      41.684  25.260  26.056  1.00  0.00     0.251 C 
ATOM     41  H   UNL A   1      41.809  23.328  25.545  1.00  0.00     0.163 HD
ATOM     42  O   UNL A   1      42.139  25.667  24.992  1.00  0.00    -0.269 OA
BRANCH  40  43
ATOM     43  C   UNL A   1      41.414  26.202  27.162  1.00  0.00     0.039 A 
ATOM     44  C   UNL A   1      40.390  25.913  28.066  1.00  0.00     0.014 A 
ATOM     45  C   UNL A   1      42.164  27.376  27.298  1.00  0.00     0.014 A 
ATOM     46  C   UNL A   1      40.150  26.778  29.136  1.00  0.00     0.010 A 
ATOM     47  C   UNL A   1      41.976  28.193  28.408  1.00  0.00     0.010 A 
ATOM     48  C   UNL A   1      40.961  27.909  29.333  1.00  0.00    -0.014 A 
BRANCH  48  49
ATOM     49  C   UNL A   1      40.755  28.806  30.499  1.00  0.00     0.031 A 
ATOM     50  C   UNL A   1      41.586  28.630  31.743  1.00  0.00     0.074 A 
ATOM     51  C   UNL A   1      39.791  29.746  30.452  1.00  0.00     0.049 A 
ATOM     52  N   UNL A   1      41.521  29.281  32.876  1.00  0.00    -0.248 NA
ATOM     53  C   UNL A   1      42.607  27.570  31.719  1.00  0.00     0.031 C 
ATOM     54  C   UNL A   1      38.895  29.983  29.317  1.00  0.00     0.029 A 
ATOM     55  N   UNL A   1      39.399  30.678  31.380  1.00  0.00    -0.354 N 
ATOM     56  C   UNL A   1      42.488  28.711  33.696  1.00  0.00     0.074 A 
ATOM     57  C   UNL A   1      43.080  27.619  32.955  1.00  0.00     0.031 C 
ATOM     58  C   UNL A   1      38.080  31.011  29.606  1.00  0.00     0.029 A 
ATOM     59  C   UNL A   1      38.365  31.480  30.957  1.00  0.00     0.049 A 
ATOM     60  H   UNL A   1      39.820  30.764  32.267  1.00  0.00     0.167 HD
ATOM     61  C   UNL A   1      42.869  29.083  34.942  1.00  0.00     0.037 A 
ATOM     62  C   UNL A   1      37.716  32.476  31.591  1.00  0.00     0.037 A 
ATOM     63  C   UNL A   1      42.285  30.182  35.667  1.00  0.00     0.049 A 
ATOM     64  C   UNL A   1      38.139  32.849  32.988  1.00  0.00     0.074 A 
ATOM     65  C   UNL A   1      42.621  30.662  36.919  1.00  0.00     0.029 A 
ATOM     66  N   UNL A   1      41.242  30.972  35.204  1.00  0.00    -0.354 N 
ATOM     67  N   UNL A   1      39.095  32.336  33.726  1.00  0.00    -0.248 NA
ATOM     68  C   UNL A   1      37.402  33.942  33.636  1.00  0.00     0.031 C 
ATOM     69  C   UNL A   1      41.752  31.711  37.235  1.00  0.00     0.029 A 
ATOM     70  C   UNL A   1      40.912  31.924  36.154  1.00  0.00     0.049 A 
ATOM     71  H   UNL A   1      40.803  30.872  34.328  1.00  0.00     0.167 HD
ATOM     72  C   UNL A   1      39.096  33.066  34.909  1.00  0.00     0.074 A 
ATOM     73  C   UNL A   1      38.056  34.067  34.782  1.00  0.00     0.031 C 
ATOM     74  C   UNL A   1      39.885  32.925  36.004  1.00  0.00     0.037 A 
BRANCH  61  75
ATOM     75  C   UNL A   1      43.980  28.306  35.598  1.00  0.00     0.058 A 
ATOM     76  C   UNL A   1      43.715  27.208  36.432  1.00  0.00     0.135 A 
ATOM     77  C   UNL A   1      45.324  28.627  35.349  1.00  0.00     0.135 A 
ATOM     78  F   UNL A   1      42.449  26.866  36.719  1.00  0.00    -0.206 F 
ATOM     79  C   UNL A   1      44.741  26.470  37.013  1.00  0.00     0.059 A 
ATOM     80  C   UNL A   1      46.367  27.884  35.894  1.00  0.00     0.059 A 
ATOM     81  F   UNL A   1      45.636  29.668  34.561  1.00  0.00    -0.206 F 
ATOM     82  C   UNL A   1      46.065  26.813  36.734  1.00  0.00     0.060 A 
BRANCH  82  83
ATOM     83  S   UNL A   1      47.382  25.829  37.478  1.00  0.00     0.124 S 
ATOM     84  O   UNL A   1      47.298  24.595  36.703  1.00  0.00    -0.237 OA
ATOM     85  O   UNL A   1      48.561  26.652  37.232  1.00  0.00    -0.237 OA
ATOM     86  O   UNL A   1      46.978  25.718  38.876  1.00  0.00    -0.744 OA
ENDBRANCH  82  83
ENDBRANCH  61  75
BRANCH  62  87
ATOM     87  C   UNL A   1      36.612  33.209  30.911  1.00  0.00     0.058 A 
ATOM     88  C   UNL A   1      35.269  32.918  31.201  1.00  0.00     0.135 A 
ATOM     89  C   UNL A   1      36.871  34.195  29.946  1.00  0.00     0.135 A 
ATOM     90  F   UNL A   1      34.968  31.981  32.114  1.00  0.00    -0.206 F 
ATOM     91  C   UNL A   1      34.225  33.550  30.535  1.00  0.00     0.059 A 
ATOM     92  C   UNL A   1      35.843  34.865  29.289  1.00  0.00     0.059 A 
ATOM     93  F   UNL A   1      38.136  34.525  29.644  1.00  0.00    -0.206 F 
ATOM     94  C   UNL A   1      34.521  34.521  29.577  1.00  0.00     0.060 A 
BRANCH  94  95
ATOM     95  S   UNL A   1      33.154  35.336  28.725  1.00  0.00     0.124 S 
ATOM     96  O   UNL A   1      32.509  34.210  28.062  1.00  0.00    -0.237 OA
ATOM     97  O   UNL A   1      32.416  35.932  29.833  1.00  0.00    -0.237 OA
ATOM     98  O   UNL A   1      33.824  36.287  27.842  1.00  0.00    -0.744 OA
ENDBRANCH  94  95
ENDBRANCH  62  87
BRANCH  74  99
ATOM     99  C   UNL A   1      39.690  33.902  37.131  1.00  0.00     0.058 A 
ATOM    100  C   UNL A   1      38.855  33.619  38.223  1.00  0.00     0.135 A 
ATOM    101  C   UNL A   1      40.387  35.122  37.139  1.00  0.00     0.135 A 
ATOM    102  F   UNL A   1      38.161  32.472  38.263  1.00  0.00    -0.206 F 
ATOM    103  C   UNL A   1      38.694  34.524  39.268  1.00  0.00     0.059 A 
ATOM    104  C   UNL A   1      40.267  36.027  38.189  1.00  0.00     0.059 A 
ATOM    105  F   UNL A   1      41.208  35.438  36.125  1.00  0.00    -0.206 F 
ATOM    106  C   UNL A   1      39.407  35.724  39.243  1.00  0.00     0.060 A 
BRANCH 106 107
ATOM    107  S   UNL A   1      39.212  36.875  40.619  1.00  0.00     0.124 S 
ATOM    108  O   UNL A   1      38.375  37.911  40.022  1.00  0.00    -0.237 OA
ATOM    109  O   UNL A   1      38.565  36.043  41.631  1.00  0.00    -0.237 OA
ATOM    110  O   UNL A   1      40.581  37.274  40.927  1.00  0.00    -0.744 OA
ENDBRANCH 106 107
ENDBRANCH  74  99
ENDBRANCH  48  49
ENDBRANCH  40  43
ENDBRANCH  38  39
ENDBRANCH  37  38
ENDBRANCH  36  37
ENDBRANCH   1  36
TORSDOF 21
ENDMDL
