MODEL 1
REMARK VINA RESULT:     -11.5      0.000      0.000
REMARK SMILES Cc1c(Cl)cc2c(c1C)O[C@H](C(F)(F)F)C(C(=O)NCCCCCCNC(=O)c1ccc(-c3c4nc(c(-c5c(F)cc(S(=O)(=O)[O-])cc5F)c5ccc([nH]5)c(-c5c(F)cc(S(=O)(=O)[O-])cc5F)c5nc(c(-c6c(F)cc(S(=O)(=O)[O-])cc6F)c6ccc3[nH]6)C=C5)C=C4)cc1)=C2
REMARK SMILES IDX 23 1 22 2 21 3 20 4 19 5 17 6 18 7 16 9 1 10 2 11 3 12 8 13
REMARK SMILES IDX 4 14 5 15 7 16 9 17 6 18 10 19 95 20 11 21 12 22 13 23 14 24
REMARK SMILES IDX 15 25 24 26 25 27 26 28 27 29 28 31 29 32 30 33 94 34 31 35
REMARK SMILES IDX 93 36 32 37 33 38 34 39 87 40 35 41 92 42 86 43 88 44 36 45
REMARK SMILES IDX 91 46 85 47 84 48 37 50 71 51 50 52 70 53 51 54 54 55 69 56
REMARK SMILES IDX 89 57 52 58 53 59 68 61 90 62 55 63 38 64 39 65 48 66 40 67
REMARK SMILES IDX 41 68 47 69 49 70 42 71 43 72 44 73 45 74 46 75 72 76 73 77
REMARK SMILES IDX 82 78 74 79 75 80 81 81 83 82 76 83 77 84 78 85 79 86 80 87
REMARK SMILES IDX 56 88 57 89 66 90 58 91 59 92 65 93 67 94 60 95 61 96 62 97
REMARK SMILES IDX 63 98 64 99
REMARK H PARENT 19 8 26 30 88 49 54 60
REMARK Flexibility Score: inf
ROOT
ATOM      1  C   UNL A   1      33.111  29.183  24.607  1.00  0.00     0.002 C 
ENDROOT
BRANCH   1   2
ATOM      2  C   UNL A   1      32.427  28.836  23.277  1.00  0.00     0.002 C 
BRANCH   2   3
ATOM      3  C   UNL A   1      30.978  28.365  23.401  1.00  0.00     0.021 C 
BRANCH   3   4
ATOM      4  C   UNL A   1      30.838  26.847  23.445  1.00  0.00     0.116 C 
BRANCH   4   5
ATOM      5  N   UNL A   1      30.428  26.380  24.759  1.00  0.00    -0.352 N 
ATOM      6  C   UNL A   1      30.796  25.407  25.625  1.00  0.00     0.251 C 
ATOM      7  O   UNL A   1      30.177  25.385  26.694  1.00  0.00    -0.270 OA
ATOM      8  H   UNL A   1      29.684  26.917  25.116  1.00  0.00     0.163 HD
BRANCH   6   9
ATOM      9  C   UNL A   1      31.860  24.390  25.369  1.00  0.00     0.067 C 
ATOM     10  C   UNL A   1      37.322  20.800  25.109  1.00  0.00     0.046 C 
ATOM     11  C   UNL A   1      36.250  21.850  25.231  1.00  0.00    -0.026 A 
ATOM     12  C   UNL A   1      36.539  23.180  25.599  1.00  0.00     0.045 A 
ATOM     13  C   UNL A   1      34.902  21.499  24.989  1.00  0.00    -0.004 A 
ATOM     14  Cl  UNL A   1      38.153  23.722  25.916  1.00  0.00    -0.084 Cl
ATOM     15  C   UNL A   1      35.522  24.134  25.740  1.00  0.00     0.032 A 
ATOM     16  C   UNL A   1      33.899  22.476  25.134  1.00  0.00     0.131 A 
ATOM     17  C   UNL A   1      34.471  20.108  24.581  1.00  0.00     0.049 C 
ATOM     18  C   UNL A   1      34.194  23.783  25.516  1.00  0.00     0.019 A 
ATOM     19  O   UNL A   1      32.617  22.052  24.937  1.00  0.00    -0.475 OA
ATOM     20  C   UNL A   1      33.110  24.736  25.727  1.00  0.00     0.025 C 
ATOM     21  C   UNL A   1      31.602  23.059  24.730  1.00  0.00     0.314 C 
BRANCH  21  22
ATOM     22  C   UNL A   1      31.304  23.172  23.223  1.00  0.00     0.429 C 
ATOM     23  F   UNL A   1      32.180  24.017  22.627  1.00  0.00    -0.167 F 
ATOM     24  F   UNL A   1      31.417  21.986  22.580  1.00  0.00    -0.167 F 
ATOM     25  F   UNL A   1      30.057  23.635  22.977  1.00  0.00    -0.167 F 
ENDBRANCH  21  22
ENDBRANCH   6   9
ENDBRANCH   4   5
ENDBRANCH   3   4
ENDBRANCH   2   3
ENDBRANCH   1   2
BRANCH   1  26
ATOM     26  C   UNL A   1      33.925  28.046  25.235  1.00  0.00     0.021 C 
BRANCH  26  27
ATOM     27  C   UNL A   1      34.167  28.202  26.732  1.00  0.00     0.116 C 
BRANCH  27  28
ATOM     28  N   UNL A   1      33.847  29.545  27.188  1.00  0.00    -0.352 N 
ATOM     29  C   UNL A   1      34.576  30.378  27.996  1.00  0.00     0.251 C 
ATOM     30  H   UNL A   1      32.988  29.906  26.871  1.00  0.00     0.163 HD
ATOM     31  O   UNL A   1      34.052  31.382  28.477  1.00  0.00    -0.269 OA
BRANCH  29  32
ATOM     32  C   UNL A   1      35.985  30.057  28.291  1.00  0.00     0.039 A 
ATOM     33  C   UNL A   1      36.323  29.578  29.558  1.00  0.00     0.014 A 
ATOM     34  C   UNL A   1      36.970  30.236  27.314  1.00  0.00     0.014 A 
ATOM     35  C   UNL A   1      37.646  29.233  29.831  1.00  0.00     0.010 A 
ATOM     36  C   UNL A   1      38.274  29.823  27.564  1.00  0.00     0.010 A 
ATOM     37  C   UNL A   1      38.627  29.330  28.830  1.00  0.00    -0.014 A 
BRANCH  37  38
ATOM     38  C   UNL A   1      40.034  28.944  29.097  1.00  0.00     0.031 A 
ATOM     39  C   UNL A   1      40.973  29.933  29.731  1.00  0.00     0.074 A 
ATOM     40  C   UNL A   1      40.469  27.720  28.740  1.00  0.00     0.049 A 
ATOM     41  N   UNL A   1      42.244  29.802  30.007  1.00  0.00    -0.248 NA
ATOM     42  C   UNL A   1      40.416  31.250  30.080  1.00  0.00     0.031 C 
ATOM     43  C   UNL A   1      39.655  26.689  28.092  1.00  0.00     0.029 A 
ATOM     44  N   UNL A   1      41.702  27.134  28.871  1.00  0.00    -0.354 N 
ATOM     45  C   UNL A   1      42.637  31.014  30.562  1.00  0.00     0.074 A 
ATOM     46  C   UNL A   1      41.488  31.890  30.524  1.00  0.00     0.031 C 
ATOM     47  C   UNL A   1      40.400  25.587  27.915  1.00  0.00     0.029 A 
ATOM     48  C   UNL A   1      41.755  25.844  28.396  1.00  0.00     0.049 A 
ATOM     49  H   UNL A   1      42.477  27.594  29.268  1.00  0.00     0.167 HD
ATOM     50  C   UNL A   1      43.839  31.352  31.086  1.00  0.00     0.037 A 
ATOM     51  C   UNL A   1      42.779  24.971  28.354  1.00  0.00     0.037 A 
ATOM     52  C   UNL A   1      44.971  30.467  31.136  1.00  0.00     0.049 A 
ATOM     53  C   UNL A   1      44.115  25.384  28.907  1.00  0.00     0.074 A 
ATOM     54  C   UNL A   1      46.223  30.702  31.676  1.00  0.00     0.029 A 
ATOM     55  N   UNL A   1      44.990  29.174  30.629  1.00  0.00    -0.354 N 
ATOM     56  N   UNL A   1      44.458  26.520  29.468  1.00  0.00    -0.248 NA
ATOM     57  C   UNL A   1      45.204  24.401  28.825  1.00  0.00     0.031 C 
ATOM     58  C   UNL A   1      47.014  29.571  31.453  1.00  0.00     0.029 A 
ATOM     59  C   UNL A   1      46.240  28.609  30.823  1.00  0.00     0.049 A 
ATOM     60  H   UNL A   1      44.228  28.726  30.196  1.00  0.00     0.167 HD
ATOM     61  C   UNL A   1      45.795  26.380  29.826  1.00  0.00     0.074 A 
ATOM     62  C   UNL A   1      46.193  25.043  29.432  1.00  0.00     0.031 C 
ATOM     63  C   UNL A   1      46.618  27.276  30.425  1.00  0.00     0.037 A 
BRANCH  50  64
ATOM     64  C   UNL A   1      43.986  32.734  31.662  1.00  0.00     0.058 A 
ATOM     65  C   UNL A   1      43.704  32.998  33.013  1.00  0.00     0.135 A 
ATOM     66  C   UNL A   1      44.462  33.793  30.874  1.00  0.00     0.135 A 
ATOM     67  F   UNL A   1      43.229  32.027  33.808  1.00  0.00    -0.206 F 
ATOM     68  C   UNL A   1      43.871  34.268  33.556  1.00  0.00     0.059 A 
ATOM     69  C   UNL A   1      44.663  35.065  31.404  1.00  0.00     0.059 A 
ATOM     70  F   UNL A   1      44.743  33.598  29.577  1.00  0.00    -0.206 F 
ATOM     71  C   UNL A   1      44.356  35.294  32.744  1.00  0.00     0.060 A 
BRANCH  71  72
ATOM     72  S   UNL A   1      44.584  36.929  33.474  1.00  0.00     0.124 S 
ATOM     73  O   UNL A   1      43.415  37.640  32.966  1.00  0.00    -0.237 OA
ATOM     74  O   UNL A   1      44.574  36.634  34.903  1.00  0.00    -0.237 OA
ATOM     75  O   UNL A   1      45.867  37.368  32.935  1.00  0.00    -0.744 OA
ENDBRANCH  71  72
ENDBRANCH  50  64
BRANCH  51  76
ATOM     76  C   UNL A   1      42.569  23.608  27.793  1.00  0.00     0.058 A 
ATOM     77  C   UNL A   1      42.544  23.398  26.405  1.00  0.00     0.135 A 
ATOM     78  C   UNL A   1      42.414  22.489  28.625  1.00  0.00     0.135 A 
ATOM     79  F   UNL A   1      42.679  24.438  25.568  1.00  0.00    -0.206 F 
ATOM     80  C   UNL A   1      42.365  22.130  25.863  1.00  0.00     0.059 A 
ATOM     81  C   UNL A   1      42.261  21.207  28.105  1.00  0.00     0.059 A 
ATOM     82  F   UNL A   1      42.445  22.633  29.959  1.00  0.00    -0.206 F 
ATOM     83  C   UNL A   1      42.231  21.038  26.722  1.00  0.00     0.060 A 
BRANCH  83  84
ATOM     84  S   UNL A   1      42.057  19.391  26.003  1.00  0.00     0.124 S 
ATOM     85  O   UNL A   1      42.577  18.547  27.071  1.00  0.00    -0.237 OA
ATOM     86  O   UNL A   1      40.618  19.313  25.769  1.00  0.00    -0.237 OA
ATOM     87  O   UNL A   1      42.877  19.463  24.797  1.00  0.00    -0.744 OA
ENDBRANCH  83  84
ENDBRANCH  51  76
BRANCH  63  88
ATOM     88  C   UNL A   1      48.029  26.843  30.709  1.00  0.00     0.058 A 
ATOM     89  C   UNL A   1      49.094  27.216  29.875  1.00  0.00     0.135 A 
ATOM     90  C   UNL A   1      48.331  26.115  31.873  1.00  0.00     0.135 A 
ATOM     91  F   UNL A   1      48.859  27.907  28.748  1.00  0.00    -0.206 F 
ATOM     92  C   UNL A   1      50.407  26.868  30.174  1.00  0.00     0.059 A 
ATOM     93  C   UNL A   1      49.640  25.782  32.207  1.00  0.00     0.059 A 
ATOM     94  F   UNL A   1      47.351  25.744  32.711  1.00  0.00    -0.206 F 
ATOM     95  C   UNL A   1      50.670  26.157  31.347  1.00  0.00     0.060 A 
BRANCH  95  96
ATOM     96  S   UNL A   1      52.385  25.755  31.742  1.00  0.00     0.124 S 
ATOM     97  O   UNL A   1      53.022  25.860  30.434  1.00  0.00    -0.237 OA
ATOM     98  O   UNL A   1      52.735  26.798  32.702  1.00  0.00    -0.237 OA
ATOM     99  O   UNL A   1      52.301  24.405  32.292  1.00  0.00    -0.744 OA
ENDBRANCH  95  96
ENDBRANCH  63  88
ENDBRANCH  37  38
ENDBRANCH  29  32
ENDBRANCH  27  28
ENDBRANCH  26  27
ENDBRANCH   1  26
TORSDOF 17
ENDMDL
MODEL 2
REMARK VINA RESULT:     -11.3      4.720     10.294
REMARK SMILES Cc1c(Cl)cc2c(c1C)O[C@H](C(F)(F)F)C(C(=O)NCCCCCCNC(=O)c1ccc(-c3c4nc(c(-c5c(F)cc(S(=O)(=O)[O-])cc5F)c5ccc([nH]5)c(-c5c(F)cc(S(=O)(=O)[O-])cc5F)c5nc(c(-c6c(F)cc(S(=O)(=O)[O-])cc6F)c6ccc3[nH]6)C=C5)C=C4)cc1)=C2
REMARK SMILES IDX 23 1 22 2 21 3 20 4 19 5 17 6 18 7 16 9 1 10 2 11 3 12 8 13
REMARK SMILES IDX 4 14 5 15 7 16 9 17 6 18 10 19 95 20 11 21 12 22 13 23 14 24
REMARK SMILES IDX 15 25 24 26 25 27 26 28 27 29 28 31 29 32 30 33 94 34 31 35
REMARK SMILES IDX 93 36 32 37 33 38 34 39 87 40 35 41 92 42 86 43 88 44 36 45
REMARK SMILES IDX 91 46 85 47 84 48 37 50 71 51 50 52 70 53 51 54 54 55 69 56
REMARK SMILES IDX 89 57 52 58 53 59 68 61 90 62 55 63 38 64 39 65 48 66 40 67
REMARK SMILES IDX 41 68 47 69 49 70 42 71 43 72 44 73 45 74 46 75 72 76 73 77
REMARK SMILES IDX 82 78 74 79 75 80 81 81 83 82 76 83 77 84 78 85 79 86 80 87
REMARK SMILES IDX 56 88 57 89 66 90 58 91 59 92 65 93 67 94 60 95 61 96 62 97
REMARK SMILES IDX 63 98 64 99
REMARK H PARENT 19 8 26 30 88 49 54 60
REMARK Flexibility Score: inf
ROOT
ATOM      1  C   UNL A   1      40.775  22.223  27.759  1.00  0.00     0.002 C 
ENDROOT
BRANCH   1   2
ATOM      2  C   UNL A   1      39.977  21.782  26.524  1.00  0.00     0.002 C 
BRANCH   2   3
ATOM      3  C   UNL A   1      38.842  22.724  26.120  1.00  0.00     0.021 C 
BRANCH   3   4
ATOM      4  C   UNL A   1      37.773  22.051  25.266  1.00  0.00     0.116 C 
BRANCH   4   5
ATOM      5  N   UNL A   1      36.598  21.702  26.047  1.00  0.00    -0.352 N 
ATOM      6  C   UNL A   1      35.301  22.083  26.111  1.00  0.00     0.251 C 
ATOM      7  O   UNL A   1      34.609  21.476  26.935  1.00  0.00    -0.270 OA
ATOM      8  H   UNL A   1      36.800  20.999  26.707  1.00  0.00     0.163 HD
BRANCH   6   9
ATOM      9  C   UNL A   1      34.683  23.161  25.282  1.00  0.00     0.067 C 
ATOM     10  C   UNL A   1      32.487  28.757  22.701  1.00  0.00     0.046 C 
ATOM     11  C   UNL A   1      32.983  27.618  23.552  1.00  0.00    -0.026 A 
ATOM     12  C   UNL A   1      33.219  27.760  24.935  1.00  0.00     0.045 A 
ATOM     13  C   UNL A   1      33.242  26.364  22.952  1.00  0.00    -0.004 A 
ATOM     14  Cl  UNL A   1      32.934  29.247  25.774  1.00  0.00    -0.084 Cl
ATOM     15  C   UNL A   1      33.713  26.696  25.702  1.00  0.00     0.032 A 
ATOM     16  C   UNL A   1      33.735  25.310  23.745  1.00  0.00     0.131 A 
ATOM     17  C   UNL A   1      33.020  26.090  21.482  1.00  0.00     0.049 C 
ATOM     18  C   UNL A   1      33.982  25.467  25.108  1.00  0.00     0.019 A 
ATOM     19  O   UNL A   1      34.013  24.146  23.089  1.00  0.00    -0.475 OA
ATOM     20  C   UNL A   1      34.566  24.367  25.867  1.00  0.00     0.025 C 
ATOM     21  C   UNL A   1      34.182  22.952  23.884  1.00  0.00     0.314 C 
BRANCH  21  22
ATOM     22  C   UNL A   1      32.883  22.127  23.836  1.00  0.00     0.429 C 
ATOM     23  F   UNL A   1      32.208  22.369  22.686  1.00  0.00    -0.167 F 
ATOM     24  F   UNL A   1      33.110  20.793  23.873  1.00  0.00    -0.167 F 
ATOM     25  F   UNL A   1      32.052  22.413  24.865  1.00  0.00    -0.167 F 
ENDBRANCH  21  22
ENDBRANCH   6   9
ENDBRANCH   4   5
ENDBRANCH   3   4
ENDBRANCH   2   3
ENDBRANCH   1   2
BRANCH   1  26
ATOM     26  C   UNL A   1      42.298  22.161  27.605  1.00  0.00     0.021 C 
BRANCH  26  27
ATOM     27  C   UNL A   1      42.960  23.515  27.376  1.00  0.00     0.116 C 
BRANCH  27  28
ATOM     28  N   UNL A   1      42.429  24.177  26.197  1.00  0.00    -0.352 N 
ATOM     29  C   UNL A   1      41.657  25.307  26.115  1.00  0.00     0.251 C 
ATOM     30  H   UNL A   1      42.656  23.756  25.337  1.00  0.00     0.163 HD
ATOM     31  O   UNL A   1      41.095  25.593  25.060  1.00  0.00    -0.269 OA
BRANCH  29  32
ATOM     32  C   UNL A   1      41.498  26.167  27.303  1.00  0.00     0.039 A 
ATOM     33  C   UNL A   1      42.387  27.225  27.500  1.00  0.00     0.014 A 
ATOM     34  C   UNL A   1      40.474  25.920  28.223  1.00  0.00     0.014 A 
ATOM     35  C   UNL A   1      42.218  28.067  28.598  1.00  0.00     0.010 A 
ATOM     36  C   UNL A   1      40.264  26.803  29.277  1.00  0.00     0.010 A 
ATOM     37  C   UNL A   1      41.142  27.877  29.482  1.00  0.00    -0.014 A 
BRANCH  37  38
ATOM     38  C   UNL A   1      40.936  28.779  30.641  1.00  0.00     0.031 A 
ATOM     39  C   UNL A   1      41.802  28.637  31.862  1.00  0.00     0.074 A 
ATOM     40  C   UNL A   1      39.950  29.697  30.604  1.00  0.00     0.049 A 
ATOM     41  N   UNL A   1      41.752  29.299  32.989  1.00  0.00    -0.248 NA
ATOM     42  C   UNL A   1      42.848  27.602  31.820  1.00  0.00     0.031 C 
ATOM     43  C   UNL A   1      39.030  29.905  29.484  1.00  0.00     0.029 A 
ATOM     44  N   UNL A   1      39.559  30.628  31.532  1.00  0.00    -0.354 N 
ATOM     45  C   UNL A   1      42.756  28.763  33.786  1.00  0.00     0.074 A 
ATOM     46  C   UNL A   1      43.356  27.679  33.041  1.00  0.00     0.031 C 
ATOM     47  C   UNL A   1      38.205  30.922  29.776  1.00  0.00     0.029 A 
ATOM     48  C   UNL A   1      38.507  31.413  31.118  1.00  0.00     0.049 A 
ATOM     49  H   UNL A   1      39.990  30.727  32.412  1.00  0.00     0.167 HD
ATOM     50  C   UNL A   1      43.162  29.161  35.015  1.00  0.00     0.037 A 
ATOM     51  C   UNL A   1      37.862  32.412  31.750  1.00  0.00     0.037 A 
ATOM     52  C   UNL A   1      42.570  30.253  35.741  1.00  0.00     0.049 A 
ATOM     53  C   UNL A   1      38.307  32.810  33.131  1.00  0.00     0.074 A 
ATOM     54  C   UNL A   1      42.930  30.758  36.978  1.00  0.00     0.029 A 
ATOM     55  N   UNL A   1      41.496  31.012  35.295  1.00  0.00    -0.354 N 
ATOM     56  N   UNL A   1      39.286  32.321  33.854  1.00  0.00    -0.248 NA
ATOM     57  C   UNL A   1      37.562  33.896  33.783  1.00  0.00     0.031 C 
ATOM     58  C   UNL A   1      42.043  31.789  37.302  1.00  0.00     0.029 A 
ATOM     59  C   UNL A   1      41.165  31.965  36.244  1.00  0.00     0.049 A 
ATOM     60  H   UNL A   1      41.038  30.890  34.433  1.00  0.00     0.167 HD
ATOM     61  C   UNL A   1      39.291  33.054  35.036  1.00  0.00     0.074 A 
ATOM     62  C   UNL A   1      38.225  34.030  34.924  1.00  0.00     0.031 C 
ATOM     63  C   UNL A   1      40.101  32.930  36.116  1.00  0.00     0.037 A 
BRANCH  50  64
ATOM     64  C   UNL A   1      44.311  28.423  35.645  1.00  0.00     0.058 A 
ATOM     65  C   UNL A   1      45.641  28.824  35.438  1.00  0.00     0.135 A 
ATOM     66  C   UNL A   1      44.081  27.338  36.506  1.00  0.00     0.135 A 
ATOM     67  F   UNL A   1      45.920  29.844  34.611  1.00  0.00    -0.206 F 
ATOM     68  C   UNL A   1      46.703  28.162  36.047  1.00  0.00     0.059 A 
ATOM     69  C   UNL A   1      45.127  26.680  37.148  1.00  0.00     0.059 A 
ATOM     70  F   UNL A   1      42.830  26.911  36.736  1.00  0.00    -0.206 F 
ATOM     71  C   UNL A   1      46.435  27.095  36.904  1.00  0.00     0.060 A 
BRANCH  71  72
ATOM     72  S   UNL A   1      47.826  26.264  37.699  1.00  0.00     0.124 S 
ATOM     73  O   UNL A   1      47.952  27.026  38.937  1.00  0.00    -0.237 OA
ATOM     74  O   UNL A   1      47.329  24.899  37.843  1.00  0.00    -0.237 OA
ATOM     75  O   UNL A   1      48.917  26.435  36.745  1.00  0.00    -0.744 OA
ENDBRANCH  71  72
ENDBRANCH  50  64
BRANCH  51  76
ATOM     76  C   UNL A   1      36.746  33.122  31.067  1.00  0.00     0.058 A 
ATOM     77  C   UNL A   1      37.005  34.071  30.066  1.00  0.00     0.135 A 
ATOM     78  C   UNL A   1      35.405  32.852  31.379  1.00  0.00     0.135 A 
ATOM     79  F   UNL A   1      38.271  34.370  29.737  1.00  0.00    -0.206 F 
ATOM     80  C   UNL A   1      35.976  34.733  29.405  1.00  0.00     0.059 A 
ATOM     81  C   UNL A   1      34.358  33.482  30.713  1.00  0.00     0.059 A 
ATOM     82  F   UNL A   1      35.103  31.942  32.320  1.00  0.00    -0.206 F 
ATOM     83  C   UNL A   1      34.653  34.426  29.732  1.00  0.00     0.060 A 
BRANCH  83  84
ATOM     84  S   UNL A   1      33.328  35.252  28.826  1.00  0.00     0.124 S 
ATOM     85  O   UNL A   1      34.076  36.197  28.006  1.00  0.00    -0.237 OA
ATOM     86  O   UNL A   1      32.707  34.139  28.114  1.00  0.00    -0.237 OA
ATOM     87  O   UNL A   1      32.514  35.842  29.884  1.00  0.00    -0.744 OA
ENDBRANCH  83  84
ENDBRANCH  51  76
BRANCH  63  88
ATOM     88  C   UNL A   1      39.885  33.878  37.262  1.00  0.00     0.058 A 
ATOM     89  C   UNL A   1      40.458  35.159  37.273  1.00  0.00     0.135 A 
ATOM     90  C   UNL A   1      39.032  33.532  38.323  1.00  0.00     0.135 A 
ATOM     91  F   UNL A   1      41.286  35.538  36.285  1.00  0.00    -0.206 F 
ATOM     92  C   UNL A   1      40.207  36.058  38.304  1.00  0.00     0.059 A 
ATOM     93  C   UNL A   1      38.743  34.426  39.349  1.00  0.00     0.059 A 
ATOM     94  F   UNL A   1      38.449  32.324  38.355  1.00  0.00    -0.206 F 
ATOM     95  C   UNL A   1      39.341  35.684  39.334  1.00  0.00     0.060 A 
BRANCH  95  96
ATOM     96  S   UNL A   1      38.990  36.881  40.639  1.00  0.00     0.124 S 
ATOM     97  O   UNL A   1      38.239  36.069  41.590  1.00  0.00    -0.237 OA
ATOM     98  O   UNL A   1      40.330  37.277  41.064  1.00  0.00    -0.237 OA
ATOM     99  O   UNL A   1      38.223  37.917  39.955  1.00  0.00    -0.744 OA
ENDBRANCH  95  96
ENDBRANCH  63  88
ENDBRANCH  37  38
ENDBRANCH  29  32
ENDBRANCH  27  28
ENDBRANCH  26  27
ENDBRANCH   1  26
TORSDOF 17
ENDMDL
MODEL 3
REMARK VINA RESULT:     -11.3      2.606      3.370
REMARK SMILES Cc1c(Cl)cc2c(c1C)O[C@H](C(F)(F)F)C(C(=O)NCCCCCCNC(=O)c1ccc(-c3c4nc(c(-c5c(F)cc(S(=O)(=O)[O-])cc5F)c5ccc([nH]5)c(-c5c(F)cc(S(=O)(=O)[O-])cc5F)c5nc(c(-c6c(F)cc(S(=O)(=O)[O-])cc6F)c6ccc3[nH]6)C=C5)C=C4)cc1)=C2
REMARK SMILES IDX 23 1 22 2 21 3 20 4 19 5 17 6 18 7 16 9 1 10 2 11 3 12 8 13
REMARK SMILES IDX 4 14 5 15 7 16 9 17 6 18 10 19 95 20 11 21 12 22 13 23 14 24
REMARK SMILES IDX 15 25 24 26 25 27 26 28 27 29 28 31 29 32 30 33 94 34 31 35
REMARK SMILES IDX 93 36 32 37 33 38 34 39 87 40 35 41 92 42 86 43 88 44 36 45
REMARK SMILES IDX 91 46 85 47 84 48 37 50 71 51 50 52 70 53 51 54 54 55 69 56
REMARK SMILES IDX 89 57 52 58 53 59 68 61 90 62 55 63 38 64 39 65 48 66 40 67
REMARK SMILES IDX 41 68 47 69 49 70 42 71 43 72 44 73 45 74 46 75 72 76 73 77
REMARK SMILES IDX 82 78 74 79 75 80 81 81 83 82 76 83 77 84 78 85 79 86 80 87
REMARK SMILES IDX 56 88 57 89 66 90 58 91 59 92 65 93 67 94 60 95 61 96 62 97
REMARK SMILES IDX 63 98 64 99
REMARK H PARENT 19 8 26 30 88 49 54 60
REMARK Flexibility Score: inf
ROOT
ATOM      1  C   UNL A   1      33.523  29.119  26.167  1.00  0.00     0.002 C 
ENDROOT
BRANCH   1   2
ATOM      2  C   UNL A   1      32.138  29.359  25.550  1.00  0.00     0.002 C 
BRANCH   2   3
ATOM      3  C   UNL A   1      31.938  28.753  24.160  1.00  0.00     0.021 C 
BRANCH   3   4
ATOM      4  C   UNL A   1      32.078  27.235  24.137  1.00  0.00     0.116 C 
BRANCH   4   5
ATOM      5  N   UNL A   1      31.339  26.609  25.221  1.00  0.00    -0.352 N 
ATOM      6  C   UNL A   1      31.357  25.427  25.881  1.00  0.00     0.251 C 
ATOM      7  O   UNL A   1      30.539  25.319  26.800  1.00  0.00    -0.270 OA
ATOM      8  H   UNL A   1      30.637  27.205  25.569  1.00  0.00     0.163 HD
BRANCH   6   9
ATOM      9  C   UNL A   1      32.268  24.285  25.568  1.00  0.00     0.067 C 
ATOM     10  C   UNL A   1      37.185  20.000  25.068  1.00  0.00     0.046 C 
ATOM     11  C   UNL A   1      36.268  21.180  25.249  1.00  0.00    -0.026 A 
ATOM     12  C   UNL A   1      36.742  22.444  25.656  1.00  0.00     0.045 A 
ATOM     13  C   UNL A   1      34.881  21.024  25.023  1.00  0.00    -0.004 A 
ATOM     14  Cl  UNL A   1      38.419  22.751  25.958  1.00  0.00    -0.084 Cl
ATOM     15  C   UNL A   1      35.867  23.521  25.852  1.00  0.00     0.032 A 
ATOM     16  C   UNL A   1      34.023  22.123  25.223  1.00  0.00     0.131 A 
ATOM     17  C   UNL A   1      34.258  19.721  24.577  1.00  0.00     0.049 C 
ATOM     18  C   UNL A   1      34.500  23.362  25.644  1.00  0.00     0.019 A 
ATOM     19  O   UNL A   1      32.692  21.884  25.039  1.00  0.00    -0.475 OA
ATOM     20  C   UNL A   1      33.560  24.445  25.910  1.00  0.00     0.025 C 
ATOM     21  C   UNL A   1      31.820  23.026  24.888  1.00  0.00     0.314 C 
BRANCH  21  22
ATOM     22  C   UNL A   1      31.517  23.234  23.393  1.00  0.00     0.429 C 
ATOM     23  F   UNL A   1      30.265  23.726  23.226  1.00  0.00    -0.167 F 
ATOM     24  F   UNL A   1      32.358  24.118  22.808  1.00  0.00    -0.167 F 
ATOM     25  F   UNL A   1      31.602  22.084  22.685  1.00  0.00    -0.167 F 
ENDBRANCH  21  22
ENDBRANCH   6   9
ENDBRANCH   4   5
ENDBRANCH   3   4
ENDBRANCH   2   3
ENDBRANCH   1   2
BRANCH   1  26
ATOM     26  C   UNL A   1      33.969  30.166  27.193  1.00  0.00     0.021 C 
BRANCH  26  27
ATOM     27  C   UNL A   1      35.204  29.772  27.995  1.00  0.00     0.116 C 
BRANCH  27  28
ATOM     28  N   UNL A   1      35.271  30.486  29.259  1.00  0.00    -0.352 N 
ATOM     29  C   UNL A   1      36.308  30.566  30.151  1.00  0.00     0.251 C 
ATOM     30  H   UNL A   1      34.459  30.982  29.508  1.00  0.00     0.163 HD
ATOM     31  O   UNL A   1      36.116  31.012  31.280  1.00  0.00    -0.269 OA
BRANCH  29  32
ATOM     32  C   UNL A   1      37.650  30.103  29.749  1.00  0.00     0.039 A 
ATOM     33  C   UNL A   1      37.992  30.100  28.396  1.00  0.00     0.014 A 
ATOM     34  C   UNL A   1      38.566  29.667  30.714  1.00  0.00     0.014 A 
ATOM     35  C   UNL A   1      39.273  29.704  28.013  1.00  0.00     0.010 A 
ATOM     36  C   UNL A   1      39.864  29.341  30.336  1.00  0.00     0.010 A 
ATOM     37  C   UNL A   1      40.225  29.344  28.981  1.00  0.00    -0.014 A 
BRANCH  37  38
ATOM     38  C   UNL A   1      41.599  28.943  28.590  1.00  0.00     0.031 A 
ATOM     39  C   UNL A   1      42.702  29.965  28.578  1.00  0.00     0.074 A 
ATOM     40  C   UNL A   1      41.841  27.671  28.217  1.00  0.00     0.049 A 
ATOM     41  N   UNL A   1      43.954  29.822  28.230  1.00  0.00    -0.248 NA
ATOM     42  C   UNL A   1      42.346  31.333  28.992  1.00  0.00     0.031 C 
ATOM     43  C   UNL A   1      40.843  26.601  28.163  1.00  0.00     0.029 A 
ATOM     44  N   UNL A   1      43.002  27.061  27.815  1.00  0.00    -0.354 N 
ATOM     45  C   UNL A   1      44.534  31.075  28.383  1.00  0.00     0.074 A 
ATOM     46  C   UNL A   1      43.484  31.981  28.792  1.00  0.00     0.031 C 
ATOM     47  C   UNL A   1      41.440  25.460  27.784  1.00  0.00     0.029 A 
ATOM     48  C   UNL A   1      42.854  25.724  27.529  1.00  0.00     0.049 A 
ATOM     49  H   UNL A   1      43.861  27.536  27.738  1.00  0.00     0.167 HD
ATOM     50  C   UNL A   1      45.831  31.430  28.228  1.00  0.00     0.037 A 
ATOM     51  C   UNL A   1      43.755  24.816  27.109  1.00  0.00     0.037 A 
ATOM     52  C   UNL A   1      46.872  30.517  27.838  1.00  0.00     0.049 A 
ATOM     53  C   UNL A   1      45.183  25.244  26.907  1.00  0.00     0.074 A 
ATOM     54  C   UNL A   1      48.224  30.769  27.685  1.00  0.00     0.029 A 
ATOM     55  N   UNL A   1      46.679  29.175  27.541  1.00  0.00    -0.354 N 
ATOM     56  N   UNL A   1      45.724  26.424  27.097  1.00  0.00    -0.248 NA
ATOM     57  C   UNL A   1      46.125  24.220  26.434  1.00  0.00     0.031 C 
ATOM     58  C   UNL A   1      48.840  29.593  27.249  1.00  0.00     0.029 A 
ATOM     59  C   UNL A   1      47.884  28.592  27.183  1.00  0.00     0.049 A 
ATOM     60  H   UNL A   1      45.814  28.707  27.580  1.00  0.00     0.167 HD
ATOM     61  C   UNL A   1      47.073  26.280  26.791  1.00  0.00     0.074 A 
ATOM     62  C   UNL A   1      47.268  24.893  26.416  1.00  0.00     0.031 C 
ATOM     63  C   UNL A   1      48.059  27.209  26.814  1.00  0.00     0.037 A 
BRANCH  50  64
ATOM     64  C   UNL A   1      46.201  32.863  28.496  1.00  0.00     0.058 A 
ATOM     65  C   UNL A   1      46.171  33.830  27.478  1.00  0.00     0.135 A 
ATOM     66  C   UNL A   1      46.540  33.287  29.791  1.00  0.00     0.135 A 
ATOM     67  F   UNL A   1      45.872  33.478  26.218  1.00  0.00    -0.206 F 
ATOM     68  C   UNL A   1      46.481  35.163  27.731  1.00  0.00     0.059 A 
ATOM     69  C   UNL A   1      46.826  34.620  30.072  1.00  0.00     0.059 A 
ATOM     70  F   UNL A   1      46.588  32.404  30.801  1.00  0.00    -0.206 F 
ATOM     71  C   UNL A   1      46.802  35.549  29.032  1.00  0.00     0.060 A 
BRANCH  71  72
ATOM     72  S   UNL A   1      47.182  37.286  29.342  1.00  0.00     0.124 S 
ATOM     73  O   UNL A   1      46.155  37.640  30.317  1.00  0.00    -0.237 OA
ATOM     74  O   UNL A   1      48.546  37.217  29.857  1.00  0.00    -0.237 OA
ATOM     75  O   UNL A   1      47.040  37.907  28.029  1.00  0.00    -0.744 OA
ENDBRANCH  71  72
ENDBRANCH  50  64
BRANCH  51  76
ATOM     76  C   UNL A   1      43.337  23.406  26.882  1.00  0.00     0.058 A 
ATOM     77  C   UNL A   1      43.198  22.898  25.581  1.00  0.00     0.135 A 
ATOM     78  C   UNL A   1      43.092  22.532  27.953  1.00  0.00     0.135 A 
ATOM     79  F   UNL A   1      43.414  23.695  24.524  1.00  0.00    -0.206 F 
ATOM     80  C   UNL A   1      42.825  21.578  25.350  1.00  0.00     0.059 A 
ATOM     81  C   UNL A   1      42.743  21.201  27.746  1.00  0.00     0.059 A 
ATOM     82  F   UNL A   1      43.224  22.964  29.217  1.00  0.00    -0.206 F 
ATOM     83  C   UNL A   1      42.605  20.735  26.440  1.00  0.00     0.060 A 
BRANCH  83  84
ATOM     84  S   UNL A   1      42.175  19.010  26.123  1.00  0.00     0.124 S 
ATOM     85  O   UNL A   1      42.458  18.394  27.414  1.00  0.00    -0.237 OA
ATOM     86  O   UNL A   1      40.766  19.111  25.757  1.00  0.00    -0.237 OA
ATOM     87  O   UNL A   1      43.072  18.635  25.034  1.00  0.00    -0.744 OA
ENDBRANCH  83  84
ENDBRANCH  51  76
BRANCH  63  88
ATOM     88  C   UNL A   1      49.446  26.763  26.442  1.00  0.00     0.058 A 
ATOM     89  C   UNL A   1      50.283  26.120  27.366  1.00  0.00     0.135 A 
ATOM     90  C   UNL A   1      49.914  26.911  25.125  1.00  0.00     0.135 A 
ATOM     91  F   UNL A   1      49.887  25.959  28.640  1.00  0.00    -0.206 F 
ATOM     92  C   UNL A   1      51.542  25.653  27.003  1.00  0.00     0.059 A 
ATOM     93  C   UNL A   1      51.156  26.424  24.733  1.00  0.00     0.059 A 
ATOM     94  F   UNL A   1      49.148  27.508  24.199  1.00  0.00    -0.206 F 
ATOM     95  C   UNL A   1      51.966  25.803  25.682  1.00  0.00     0.060 A 
BRANCH  95  96
ATOM     96  S   UNL A   1      53.584  25.148  25.218  1.00  0.00     0.124 S 
ATOM     97  O   UNL A   1      53.727  25.654  23.857  1.00  0.00    -0.237 OA
ATOM     98  O   UNL A   1      54.461  25.756  26.214  1.00  0.00    -0.237 OA
ATOM     99  O   UNL A   1      53.414  23.704  25.336  1.00  0.00    -0.744 OA
ENDBRANCH  95  96
ENDBRANCH  63  88
ENDBRANCH  37  38
ENDBRANCH  29  32
ENDBRANCH  27  28
ENDBRANCH  26  27
ENDBRANCH   1  26
TORSDOF 17
ENDMDL
