MODEL 1
REMARK VINA RESULT:     -10.8      0.000      0.000
REMARK SMILES CC[C@H]1SC[C@H](C(=O)NCCCCCCNC(=O)c2ccc(-c3c4nc(c(-c5c(F)cc(S(=O)(=O)[O-])cc5F)c5ccc([nH]5)c(-c5c(F)cc(S(=O)(=O)[O-])cc5F)c5nc(c(-c6c(F)cc(S(=O)(=O)[O-])cc6F)c6ccc3[nH]6)C=C5)C=C4)cc2)N1C(=O)Cc1ccc(F)c(F)c1
REMARK SMILES IDX 12 1 11 2 10 3 9 4 7 5 8 6 6 8 3 9 4 10 85 11 5 12 2 13 1 14
REMARK SMILES IDX 86 15 87 16 88 17 89 18 90 19 96 20 91 21 94 22 92 23 95 24
REMARK SMILES IDX 93 25 13 26 14 27 15 28 16 29 17 30 18 32 19 33 20 34 84 35
REMARK SMILES IDX 21 36 83 37 22 38 23 39 24 40 77 41 25 42 82 43 76 44 78 45
REMARK SMILES IDX 26 46 81 47 75 48 74 49 27 51 61 52 40 53 60 54 41 55 44 56
REMARK SMILES IDX 59 57 79 58 42 59 43 60 58 62 80 63 45 64 28 65 29 66 38 67
REMARK SMILES IDX 30 68 31 69 37 70 39 71 32 72 33 73 34 74 35 75 36 76 62 77
REMARK SMILES IDX 63 78 72 79 64 80 65 81 71 82 73 83 66 84 67 85 68 86 69 87
REMARK SMILES IDX 70 88 46 89 47 90 56 91 48 92 49 93 55 94 57 95 50 96 51 97
REMARK SMILES IDX 52 98 53 99 54 100
REMARK H PARENT 9 7 16 31 78 50 44 61
REMARK Flexibility Score: inf
ROOT
ATOM      1  C   UNL A   1      32.176  25.676  26.532  1.00  0.00     0.002 C 
ENDROOT
BRANCH   1   2
ATOM      2  C   UNL A   1      31.155  24.545  26.706  1.00  0.00     0.021 C 
BRANCH   2   3
ATOM      3  C   UNL A   1      31.770  23.160  26.897  1.00  0.00     0.116 C 
BRANCH   3   4
ATOM      4  N   UNL A   1      31.635  22.360  25.701  1.00  0.00    -0.354 N 
ATOM      5  C   UNL A   1      32.551  22.034  24.748  1.00  0.00     0.243 C 
ATOM      6  O   UNL A   1      32.175  21.246  23.873  1.00  0.00    -0.273 OA
ATOM      7  H   UNL A   1      30.735  21.989  25.552  1.00  0.00     0.163 HD
BRANCH   5   8
ATOM      8  C   UNL A   1      34.044  22.416  24.898  1.00  0.00     0.185 C 
ATOM      9  C   UNL A   1      36.103  23.588  24.517  1.00  0.00     0.143 C 
ATOM     10  S   UNL A   1      36.576  21.845  24.189  1.00  0.00    -0.134 SA
ATOM     11  N   UNL A   1      34.668  23.602  24.265  1.00  0.00    -0.318 N 
ATOM     12  C   UNL A   1      34.940  21.196  24.647  1.00  0.00     0.107 C 
BRANCH   9  13
ATOM     13  C   UNL A   1      36.531  23.893  25.961  1.00  0.00     0.033 C 
ATOM     14  C   UNL A   1      38.029  23.986  26.173  1.00  0.00     0.007 C 
ENDBRANCH   9  13
BRANCH  11  15
ATOM     15  C   UNL A   1      34.196  24.029  23.032  1.00  0.00     0.228 C 
ATOM     16  O   UNL A   1      34.064  23.215  22.109  1.00  0.00    -0.274 OA
BRANCH  15  17
ATOM     17  C   UNL A   1      33.735  25.468  22.764  1.00  0.00     0.135 C 
BRANCH  17  18
ATOM     18  C   UNL A   1      32.311  25.926  22.975  1.00  0.00    -0.036 A 
ATOM     19  C   UNL A   1      31.286  24.979  23.166  1.00  0.00     0.007 A 
ATOM     20  C   UNL A   1      31.985  27.289  23.066  1.00  0.00     0.046 A 
ATOM     21  C   UNL A   1      29.960  25.378  23.348  1.00  0.00     0.043 A 
ATOM     22  C   UNL A   1      30.662  27.681  23.285  1.00  0.00     0.159 A 
ATOM     23  C   UNL A   1      29.654  26.732  23.402  1.00  0.00     0.158 A 
ATOM     24  F   UNL A   1      30.366  28.986  23.344  1.00  0.00    -0.204 F 
ATOM     25  F   UNL A   1      28.376  27.108  23.548  1.00  0.00    -0.204 F 
ENDBRANCH  17  18
ENDBRANCH  15  17
ENDBRANCH  11  15
ENDBRANCH   5   8
ENDBRANCH   3   4
ENDBRANCH   2   3
ENDBRANCH   1   2
BRANCH   1  26
ATOM     26  C   UNL A   1      31.647  27.080  26.837  1.00  0.00     0.002 C 
BRANCH  26  27
ATOM     27  C   UNL A   1      32.528  28.225  26.335  1.00  0.00     0.021 C 
BRANCH  27  28
ATOM     28  C   UNL A   1      33.670  28.612  27.271  1.00  0.00     0.116 C 
BRANCH  28  29
ATOM     29  N   UNL A   1      33.594  30.003  27.686  1.00  0.00    -0.352 N 
ATOM     30  C   UNL A   1      34.534  30.761  28.343  1.00  0.00     0.251 C 
ATOM     31  H   UNL A   1      32.754  30.467  27.467  1.00  0.00     0.163 HD
ATOM     32  O   UNL A   1      34.242  31.863  28.788  1.00  0.00    -0.269 OA
BRANCH  30  33
ATOM     33  C   UNL A   1      35.897  30.217  28.526  1.00  0.00     0.039 A 
ATOM     34  C   UNL A   1      36.774  30.213  27.440  1.00  0.00     0.014 A 
ATOM     35  C   UNL A   1      36.310  29.742  29.774  1.00  0.00     0.014 A 
ATOM     36  C   UNL A   1      38.094  29.797  27.625  1.00  0.00     0.010 A 
ATOM     37  C   UNL A   1      37.643  29.392  29.972  1.00  0.00     0.010 A 
ATOM     38  C   UNL A   1      38.550  29.422  28.901  1.00  0.00    -0.014 A 
BRANCH  38  39
ATOM     39  C   UNL A   1      39.978  29.089  29.139  1.00  0.00     0.031 A 
ATOM     40  C   UNL A   1      40.923  30.132  29.667  1.00  0.00     0.074 A 
ATOM     41  C   UNL A   1      40.434  27.863  28.812  1.00  0.00     0.049 A 
ATOM     42  N   UNL A   1      42.211  30.049  29.873  1.00  0.00    -0.248 NA
ATOM     43  C   UNL A   1      40.348  31.450  29.982  1.00  0.00     0.031 C 
ATOM     44  C   UNL A   1      39.624  26.783  28.244  1.00  0.00     0.029 A 
ATOM     45  N   UNL A   1      41.693  27.323  28.895  1.00  0.00    -0.354 N 
ATOM     46  C   UNL A   1      42.604  31.300  30.334  1.00  0.00     0.074 A 
ATOM     47  C   UNL A   1      41.426  32.140  30.327  1.00  0.00     0.031 C 
ATOM     48  C   UNL A   1      40.401  25.707  28.046  1.00  0.00     0.029 A 
ATOM     49  C   UNL A   1      41.771  26.029  28.433  1.00  0.00     0.049 A 
ATOM     50  H   UNL A   1      42.468  27.814  29.252  1.00  0.00     0.167 HD
ATOM     51  C   UNL A   1      43.830  31.703  30.744  1.00  0.00     0.037 A 
ATOM     52  C   UNL A   1      42.828  25.202  28.319  1.00  0.00     0.037 A 
ATOM     53  C   UNL A   1      44.994  30.855  30.762  1.00  0.00     0.049 A 
ATOM     54  C   UNL A   1      44.182  25.678  28.766  1.00  0.00     0.074 A 
ATOM     55  C   UNL A   1      46.266  31.150  31.219  1.00  0.00     0.029 A 
ATOM     56  N   UNL A   1      45.031  29.548  30.295  1.00  0.00    -0.354 N 
ATOM     57  N   UNL A   1      44.521  26.841  29.269  1.00  0.00    -0.248 NA
ATOM     58  C   UNL A   1      45.298  24.732  28.633  1.00  0.00     0.031 C 
ATOM     59  C   UNL A   1      47.085  30.041  30.983  1.00  0.00     0.029 A 
ATOM     60  C   UNL A   1      46.311  29.035  30.426  1.00  0.00     0.049 A 
ATOM     61  H   UNL A   1      44.261  29.059  29.926  1.00  0.00     0.167 HD
ATOM     62  C   UNL A   1      45.885  26.762  29.529  1.00  0.00     0.074 A 
ATOM     63  C   UNL A   1      46.304  25.429  29.145  1.00  0.00     0.031 C 
ATOM     64  C   UNL A   1      46.714  27.707  30.036  1.00  0.00     0.037 A 
BRANCH  51  65
ATOM     65  C   UNL A   1      43.977  33.126  31.211  1.00  0.00     0.058 A 
ATOM     66  C   UNL A   1      44.281  34.167  30.317  1.00  0.00     0.135 A 
ATOM     67  C   UNL A   1      43.771  33.462  32.559  1.00  0.00     0.135 A 
ATOM     68  F   UNL A   1      44.502  33.901  29.021  1.00  0.00    -0.206 F 
ATOM     69  C   UNL A   1      44.404  35.483  30.748  1.00  0.00     0.059 A 
ATOM     70  C   UNL A   1      43.861  34.777  33.007  1.00  0.00     0.059 A 
ATOM     71  F   UNL A   1      43.477  32.508  33.456  1.00  0.00    -0.206 F 
ATOM     72  C   UNL A   1      44.193  35.779  32.096  1.00  0.00     0.060 A 
BRANCH  72  73
ATOM     73  S   UNL A   1      44.352  37.494  32.636  1.00  0.00     0.124 S 
ATOM     74  O   UNL A   1      45.679  37.486  33.241  1.00  0.00    -0.237 OA
ATOM     75  O   UNL A   1      44.233  38.228  31.380  1.00  0.00    -0.237 OA
ATOM     76  O   UNL A   1      43.239  37.664  33.565  1.00  0.00    -0.744 OA
ENDBRANCH  72  73
ENDBRANCH  51  65
BRANCH  52  77
ATOM     77  C   UNL A   1      42.642  23.835  27.763  1.00  0.00     0.058 A 
ATOM     78  C   UNL A   1      42.617  23.615  26.378  1.00  0.00     0.135 A 
ATOM     79  C   UNL A   1      42.506  22.718  28.605  1.00  0.00     0.135 A 
ATOM     80  F   UNL A   1      42.736  24.650  25.532  1.00  0.00    -0.206 F 
ATOM     81  C   UNL A   1      42.449  22.340  25.845  1.00  0.00     0.059 A 
ATOM     82  C   UNL A   1      42.362  21.432  28.095  1.00  0.00     0.059 A 
ATOM     83  F   UNL A   1      42.541  22.872  29.938  1.00  0.00    -0.206 F 
ATOM     84  C   UNL A   1      42.326  21.254  26.713  1.00  0.00     0.060 A 
BRANCH  84  85
ATOM     85  S   UNL A   1      42.164  19.598  26.011  1.00  0.00     0.124 S 
ATOM     86  O   UNL A   1      40.746  19.559  25.675  1.00  0.00    -0.237 OA
ATOM     87  O   UNL A   1      43.089  19.651  24.883  1.00  0.00    -0.237 OA
ATOM     88  O   UNL A   1      42.578  18.728  27.108  1.00  0.00    -0.744 OA
ENDBRANCH  84  85
ENDBRANCH  52  77
BRANCH  64  89
ATOM     89  C   UNL A   1      48.160  27.332  30.220  1.00  0.00     0.058 A 
ATOM     90  C   UNL A   1      49.137  27.694  29.279  1.00  0.00     0.135 A 
ATOM     91  C   UNL A   1      48.580  26.656  31.375  1.00  0.00     0.135 A 
ATOM     92  F   UNL A   1      48.787  28.334  28.153  1.00  0.00    -0.206 F 
ATOM     93  C   UNL A   1      50.480  27.382  29.470  1.00  0.00     0.059 A 
ATOM     94  C   UNL A   1      49.920  26.358  31.601  1.00  0.00     0.059 A 
ATOM     95  F   UNL A   1      47.687  26.295  32.310  1.00  0.00    -0.206 F 
ATOM     96  C   UNL A   1      50.862  26.718  30.637  1.00  0.00     0.060 A 
BRANCH  96  97
ATOM     97  S   UNL A   1      52.612  26.357  30.892  1.00  0.00     0.124 S 
ATOM     98  O   UNL A   1      52.549  25.173  31.743  1.00  0.00    -0.237 OA
ATOM     99  O   UNL A   1      53.086  26.134  29.530  1.00  0.00    -0.237 OA
ATOM    100  O   UNL A   1      53.119  27.565  31.535  1.00  0.00    -0.744 OA
ENDBRANCH  96  97
ENDBRANCH  64  89
ENDBRANCH  38  39
ENDBRANCH  30  33
ENDBRANCH  28  29
ENDBRANCH  27  28
ENDBRANCH  26  27
ENDBRANCH   1  26
TORSDOF 20
ENDMDL
MODEL 2
REMARK VINA RESULT:     -10.7      3.199      4.415
REMARK SMILES CC[C@H]1SC[C@H](C(=O)NCCCCCCNC(=O)c2ccc(-c3c4nc(c(-c5c(F)cc(S(=O)(=O)[O-])cc5F)c5ccc([nH]5)c(-c5c(F)cc(S(=O)(=O)[O-])cc5F)c5nc(c(-c6c(F)cc(S(=O)(=O)[O-])cc6F)c6ccc3[nH]6)C=C5)C=C4)cc2)N1C(=O)Cc1ccc(F)c(F)c1
REMARK SMILES IDX 12 1 11 2 10 3 9 4 7 5 8 6 6 8 3 9 4 10 85 11 5 12 2 13 1 14
REMARK SMILES IDX 86 15 87 16 88 17 89 18 90 19 96 20 91 21 94 22 92 23 95 24
REMARK SMILES IDX 93 25 13 26 14 27 15 28 16 29 17 30 18 32 19 33 20 34 84 35
REMARK SMILES IDX 21 36 83 37 22 38 23 39 24 40 77 41 25 42 82 43 76 44 78 45
REMARK SMILES IDX 26 46 81 47 75 48 74 49 27 51 61 52 40 53 60 54 41 55 44 56
REMARK SMILES IDX 59 57 79 58 42 59 43 60 58 62 80 63 45 64 28 65 29 66 38 67
REMARK SMILES IDX 30 68 31 69 37 70 39 71 32 72 33 73 34 74 35 75 36 76 62 77
REMARK SMILES IDX 63 78 72 79 64 80 65 81 71 82 73 83 66 84 67 85 68 86 69 87
REMARK SMILES IDX 70 88 46 89 47 90 56 91 48 92 49 93 55 94 57 95 50 96 51 97
REMARK SMILES IDX 52 98 53 99 54 100
REMARK H PARENT 9 7 16 31 78 50 44 61
REMARK Flexibility Score: inf
ROOT
ATOM      1  C   UNL A   1      32.318  29.309  26.359  1.00  0.00     0.002 C 
ENDROOT
BRANCH   1   2
ATOM      2  C   UNL A   1      31.547  28.020  26.047  1.00  0.00     0.021 C 
BRANCH   2   3
ATOM      3  C   UNL A   1      32.400  26.753  26.059  1.00  0.00     0.116 C 
BRANCH   3   4
ATOM      4  N   UNL A   1      31.678  25.643  26.640  1.00  0.00    -0.354 N 
ATOM      5  C   UNL A   1      31.976  24.315  26.671  1.00  0.00     0.243 C 
ATOM      6  O   UNL A   1      31.213  23.599  27.329  1.00  0.00    -0.273 OA
ATOM      7  H   UNL A   1      30.836  25.888  27.087  1.00  0.00     0.163 HD
BRANCH   5   8
ATOM      8  C   UNL A   1      33.327  23.778  26.140  1.00  0.00     0.185 C 
ATOM      9  C   UNL A   1      34.864  22.590  24.730  1.00  0.00     0.143 C 
ATOM     10  S   UNL A   1      35.232  21.893  26.388  1.00  0.00    -0.134 SA
ATOM     11  N   UNL A   1      33.488  23.054  24.856  1.00  0.00    -0.318 N 
ATOM     12  C   UNL A   1      34.067  23.002  27.238  1.00  0.00     0.107 C 
BRANCH   9  13
ATOM     13  C   UNL A   1      35.916  23.680  24.471  1.00  0.00     0.033 C 
ATOM     14  C   UNL A   1      37.029  23.745  25.498  1.00  0.00     0.007 C 
ENDBRANCH   9  13
BRANCH  11  15
ATOM     15  C   UNL A   1      32.453  22.246  24.408  1.00  0.00     0.228 C 
ATOM     16  O   UNL A   1      31.751  22.616  23.457  1.00  0.00    -0.274 OA
BRANCH  15  17
ATOM     17  C   UNL A   1      32.175  20.848  24.977  1.00  0.00     0.135 C 
BRANCH  17  18
ATOM     18  C   UNL A   1      32.743  19.587  24.369  1.00  0.00    -0.036 A 
ATOM     19  C   UNL A   1      32.141  19.020  23.229  1.00  0.00     0.007 A 
ATOM     20  C   UNL A   1      33.917  18.998  24.866  1.00  0.00     0.046 A 
ATOM     21  C   UNL A   1      32.638  17.846  22.659  1.00  0.00     0.043 A 
ATOM     22  C   UNL A   1      34.430  17.844  24.268  1.00  0.00     0.159 A 
ATOM     23  C   UNL A   1      33.782  17.261  23.186  1.00  0.00     0.158 A 
ATOM     24  F   UNL A   1      35.537  17.282  24.770  1.00  0.00    -0.204 F 
ATOM     25  F   UNL A   1      34.238  16.119  22.652  1.00  0.00    -0.204 F 
ENDBRANCH  17  18
ENDBRANCH  15  17
ENDBRANCH  11  15
ENDBRANCH   5   8
ENDBRANCH   3   4
ENDBRANCH   2   3
ENDBRANCH   1   2
BRANCH   1  26
ATOM     26  C   UNL A   1      33.825  29.241  26.100  1.00  0.00     0.002 C 
BRANCH  26  27
ATOM     27  C   UNL A   1      34.680  28.963  27.337  1.00  0.00     0.021 C 
BRANCH  27  28
ATOM     28  C   UNL A   1      35.508  30.149  27.824  1.00  0.00     0.116 C 
BRANCH  28  29
ATOM     29  N   UNL A   1      35.376  30.362  29.256  1.00  0.00    -0.352 N 
ATOM     30  C   UNL A   1      36.330  30.238  30.238  1.00  0.00     0.251 C 
ATOM     31  H   UNL A   1      34.482  30.632  29.566  1.00  0.00     0.163 HD
ATOM     32  O   UNL A   1      36.011  30.269  31.420  1.00  0.00    -0.269 OA
BRANCH  30  33
ATOM     33  C   UNL A   1      37.743  30.043  29.850  1.00  0.00     0.039 A 
ATOM     34  C   UNL A   1      38.704  29.893  30.850  1.00  0.00     0.014 A 
ATOM     35  C   UNL A   1      38.106  29.979  28.502  1.00  0.00     0.014 A 
ATOM     36  C   UNL A   1      40.025  29.607  30.497  1.00  0.00     0.010 A 
ATOM     37  C   UNL A   1      39.407  29.628  28.154  1.00  0.00     0.010 A 
ATOM     38  C   UNL A   1      40.378  29.433  29.148  1.00  0.00    -0.014 A 
BRANCH  38  39
ATOM     39  C   UNL A   1      41.750  29.014  28.762  1.00  0.00     0.031 A 
ATOM     40  C   UNL A   1      42.858  30.027  28.678  1.00  0.00     0.074 A 
ATOM     41  C   UNL A   1      41.977  27.729  28.420  1.00  0.00     0.049 A 
ATOM     42  N   UNL A   1      44.097  29.863  28.294  1.00  0.00    -0.248 NA
ATOM     43  C   UNL A   1      42.522  31.410  29.050  1.00  0.00     0.031 C 
ATOM     44  C   UNL A   1      40.970  26.666  28.414  1.00  0.00     0.029 A 
ATOM     45  N   UNL A   1      43.122  27.103  27.998  1.00  0.00    -0.354 N 
ATOM     46  C   UNL A   1      44.688  31.118  28.371  1.00  0.00     0.074 A 
ATOM     47  C   UNL A   1      43.657  32.044  28.788  1.00  0.00     0.031 C 
ATOM     48  C   UNL A   1      41.545  25.517  28.025  1.00  0.00     0.029 A 
ATOM     49  C   UNL A   1      42.949  25.767  27.715  1.00  0.00     0.049 A 
ATOM     50  H   UNL A   1      43.987  27.564  27.907  1.00  0.00     0.167 HD
ATOM     51  C   UNL A   1      45.977  31.463  28.135  1.00  0.00     0.037 A 
ATOM     52  C   UNL A   1      43.818  24.852  27.244  1.00  0.00     0.037 A 
ATOM     53  C   UNL A   1      46.999  30.531  27.736  1.00  0.00     0.049 A 
ATOM     54  C   UNL A   1      45.240  25.262  26.974  1.00  0.00     0.074 A 
ATOM     55  C   UNL A   1      48.348  30.769  27.534  1.00  0.00     0.029 A 
ATOM     56  N   UNL A   1      46.787  29.186  27.468  1.00  0.00    -0.354 N 
ATOM     57  N   UNL A   1      45.800  26.439  27.124  1.00  0.00    -0.248 NA
ATOM     58  C   UNL A   1      46.149  24.222  26.475  1.00  0.00     0.031 C 
ATOM     59  C   UNL A   1      48.942  29.581  27.097  1.00  0.00     0.029 A 
ATOM     60  C   UNL A   1      47.974  28.588  27.075  1.00  0.00     0.049 A 
ATOM     61  H   UNL A   1      45.922  28.724  27.546  1.00  0.00     0.167 HD
ATOM     62  C   UNL A   1      47.130  26.278  26.754  1.00  0.00     0.074 A 
ATOM     63  C   UNL A   1      47.296  24.885  26.392  1.00  0.00     0.031 C 
ATOM     64  C   UNL A   1      48.123  27.200  26.714  1.00  0.00     0.037 A 
BRANCH  51  65
ATOM     65  C   UNL A   1      46.355  32.908  28.306  1.00  0.00     0.058 A 
ATOM     66  C   UNL A   1      46.240  33.830  27.251  1.00  0.00     0.135 A 
ATOM     67  C   UNL A   1      46.799  33.390  29.548  1.00  0.00     0.135 A 
ATOM     68  F   UNL A   1      45.835  33.421  26.039  1.00  0.00    -0.206 F 
ATOM     69  C   UNL A   1      46.579  35.169  27.414  1.00  0.00     0.059 A 
ATOM     70  C   UNL A   1      47.116  34.732  29.742  1.00  0.00     0.059 A 
ATOM     71  F   UNL A   1      46.926  32.555  30.591  1.00  0.00    -0.206 F 
ATOM     72  C   UNL A   1      47.016  35.611  28.664  1.00  0.00     0.060 A 
BRANCH  72  73
ATOM     73  S   UNL A   1      47.446  37.353  28.858  1.00  0.00     0.124 S 
ATOM     74  O   UNL A   1      48.807  37.377  28.331  1.00  0.00    -0.237 OA
ATOM     75  O   UNL A   1      46.438  38.017  28.038  1.00  0.00    -0.237 OA
ATOM     76  O   UNL A   1      47.326  37.576  30.295  1.00  0.00    -0.744 OA
ENDBRANCH  72  73
ENDBRANCH  51  65
BRANCH  52  77
ATOM     77  C   UNL A   1      43.366  23.455  27.004  1.00  0.00     0.058 A 
ATOM     78  C   UNL A   1      43.271  22.535  28.057  1.00  0.00     0.135 A 
ATOM     79  C   UNL A   1      43.001  23.018  25.719  1.00  0.00     0.135 A 
ATOM     80  F   UNL A   1      43.615  22.901  29.302  1.00  0.00    -0.206 F 
ATOM     81  C   UNL A   1      42.845  21.227  27.847  1.00  0.00     0.059 A 
ATOM     82  C   UNL A   1      42.548  21.724  25.488  1.00  0.00     0.059 A 
ATOM     83  F   UNL A   1      43.058  23.865  24.680  1.00  0.00    -0.206 F 
ATOM     84  C   UNL A   1      42.482  20.832  26.558  1.00  0.00     0.060 A 
BRANCH  84  85
ATOM     85  S   UNL A   1      41.878  19.149  26.305  1.00  0.00     0.124 S 
ATOM     86  O   UNL A   1      42.830  18.639  25.326  1.00  0.00    -0.237 OA
ATOM     87  O   UNL A   1      41.973  18.583  27.647  1.00  0.00    -0.237 OA
ATOM     88  O   UNL A   1      40.517  19.352  25.816  1.00  0.00    -0.744 OA
ENDBRANCH  84  85
ENDBRANCH  52  77
BRANCH  64  89
ATOM     89  C   UNL A   1      49.484  26.733  26.277  1.00  0.00     0.058 A 
ATOM     90  C   UNL A   1      49.932  26.907  24.958  1.00  0.00     0.135 A 
ATOM     91  C   UNL A   1      50.372  26.158  27.200  1.00  0.00     0.135 A 
ATOM     92  F   UNL A   1      49.120  27.443  24.034  1.00  0.00    -0.206 F 
ATOM     93  C   UNL A   1      51.206  26.511  24.565  1.00  0.00     0.059 A 
ATOM     94  C   UNL A   1      51.661  25.780  26.836  1.00  0.00     0.059 A 
ATOM     95  F   UNL A   1      49.997  25.977  28.476  1.00  0.00    -0.206 F 
ATOM     96  C   UNL A   1      52.066  25.953  25.513  1.00  0.00     0.060 A 
BRANCH  96  97
ATOM     97  S   UNL A   1      53.731  25.483  24.999  1.00  0.00     0.124 S 
ATOM     98  O   UNL A   1      53.757  25.951  23.618  1.00  0.00    -0.237 OA
ATOM     99  O   UNL A   1      54.567  26.227  25.937  1.00  0.00    -0.237 OA
ATOM    100  O   UNL A   1      53.745  24.034  25.171  1.00  0.00    -0.744 OA
ENDBRANCH  96  97
ENDBRANCH  64  89
ENDBRANCH  38  39
ENDBRANCH  30  33
ENDBRANCH  28  29
ENDBRANCH  27  28
ENDBRANCH  26  27
ENDBRANCH   1  26
TORSDOF 20
ENDMDL
MODEL 3
REMARK VINA RESULT:     -10.6      3.307      4.586
REMARK SMILES CC[C@H]1SC[C@H](C(=O)NCCCCCCNC(=O)c2ccc(-c3c4nc(c(-c5c(F)cc(S(=O)(=O)[O-])cc5F)c5ccc([nH]5)c(-c5c(F)cc(S(=O)(=O)[O-])cc5F)c5nc(c(-c6c(F)cc(S(=O)(=O)[O-])cc6F)c6ccc3[nH]6)C=C5)C=C4)cc2)N1C(=O)Cc1ccc(F)c(F)c1
REMARK SMILES IDX 12 1 11 2 10 3 9 4 7 5 8 6 6 8 3 9 4 10 85 11 5 12 2 13 1 14
REMARK SMILES IDX 86 15 87 16 88 17 89 18 90 19 96 20 91 21 94 22 92 23 95 24
REMARK SMILES IDX 93 25 13 26 14 27 15 28 16 29 17 30 18 32 19 33 20 34 84 35
REMARK SMILES IDX 21 36 83 37 22 38 23 39 24 40 77 41 25 42 82 43 76 44 78 45
REMARK SMILES IDX 26 46 81 47 75 48 74 49 27 51 61 52 40 53 60 54 41 55 44 56
REMARK SMILES IDX 59 57 79 58 42 59 43 60 58 62 80 63 45 64 28 65 29 66 38 67
REMARK SMILES IDX 30 68 31 69 37 70 39 71 32 72 33 73 34 74 35 75 36 76 62 77
REMARK SMILES IDX 63 78 72 79 64 80 65 81 71 82 73 83 66 84 67 85 68 86 69 87
REMARK SMILES IDX 70 88 46 89 47 90 56 91 48 92 49 93 55 94 57 95 50 96 51 97
REMARK SMILES IDX 52 98 53 99 54 100
REMARK H PARENT 9 7 16 31 78 50 44 61
REMARK Flexibility Score: inf
ROOT
ATOM      1  C   UNL A   1      31.683  27.472  24.873  1.00  0.00     0.002 C 
ENDROOT
BRANCH   1   2
ATOM      2  C   UNL A   1      30.426  27.455  23.994  1.00  0.00     0.021 C 
BRANCH   2   3
ATOM      3  C   UNL A   1      30.276  26.206  23.128  1.00  0.00     0.116 C 
BRANCH   3   4
ATOM      4  N   UNL A   1      31.476  25.955  22.362  1.00  0.00    -0.354 N 
ATOM      5  C   UNL A   1      32.401  24.961  22.468  1.00  0.00     0.243 C 
ATOM      6  O   UNL A   1      33.286  24.943  21.606  1.00  0.00    -0.273 OA
ATOM      7  H   UNL A   1      31.652  26.608  21.647  1.00  0.00     0.163 HD
BRANCH   5   8
ATOM      8  C   UNL A   1      32.204  23.777  23.445  1.00  0.00     0.185 C 
ATOM      9  C   UNL A   1      32.485  22.424  25.408  1.00  0.00     0.143 C 
ATOM     10  S   UNL A   1      32.901  21.251  24.059  1.00  0.00    -0.134 SA
ATOM     11  N   UNL A   1      32.760  23.729  24.818  1.00  0.00    -0.318 N 
ATOM     12  C   UNL A   1      32.508  22.445  22.745  1.00  0.00     0.107 C 
BRANCH   9  13
ATOM     13  C   UNL A   1      31.020  22.156  25.784  1.00  0.00     0.033 C 
ATOM     14  C   UNL A   1      30.399  23.193  26.699  1.00  0.00     0.007 C 
ENDBRANCH   9  13
BRANCH  11  15
ATOM     15  C   UNL A   1      33.976  24.348  25.071  1.00  0.00     0.228 C 
ATOM     16  O   UNL A   1      34.086  25.117  26.034  1.00  0.00    -0.274 OA
BRANCH  15  17
ATOM     17  C   UNL A   1      35.246  24.061  24.259  1.00  0.00     0.135 C 
BRANCH  17  18
ATOM     18  C   UNL A   1      36.400  23.248  24.799  1.00  0.00    -0.036 A 
ATOM     19  C   UNL A   1      36.619  21.937  24.332  1.00  0.00     0.007 A 
ATOM     20  C   UNL A   1      37.320  23.795  25.708  1.00  0.00     0.046 A 
ATOM     21  C   UNL A   1      37.669  21.161  24.828  1.00  0.00     0.043 A 
ATOM     22  C   UNL A   1      38.390  23.025  26.172  1.00  0.00     0.159 A 
ATOM     23  C   UNL A   1      38.549  21.710  25.751  1.00  0.00     0.158 A 
ATOM     24  F   UNL A   1      39.243  23.555  27.057  1.00  0.00    -0.204 F 
ATOM     25  F   UNL A   1      39.537  20.952  26.244  1.00  0.00    -0.204 F 
ENDBRANCH  17  18
ENDBRANCH  15  17
ENDBRANCH  11  15
ENDBRANCH   5   8
ENDBRANCH   3   4
ENDBRANCH   2   3
ENDBRANCH   1   2
BRANCH   1  26
ATOM     26  C   UNL A   1      31.421  27.518  26.380  1.00  0.00     0.002 C 
BRANCH  26  27
ATOM     27  C   UNL A   1      32.597  28.009  27.226  1.00  0.00     0.021 C 
BRANCH  27  28
ATOM     28  C   UNL A   1      33.727  28.661  26.434  1.00  0.00     0.116 C 
BRANCH  28  29
ATOM     29  N   UNL A   1      33.723  30.110  26.562  1.00  0.00    -0.352 N 
ATOM     30  C   UNL A   1      34.561  30.913  27.299  1.00  0.00     0.251 C 
ATOM     31  H   UNL A   1      33.026  30.580  26.052  1.00  0.00     0.163 HD
ATOM     32  O   UNL A   1      34.307  32.101  27.449  1.00  0.00    -0.269 OA
BRANCH  30  33
ATOM     33  C   UNL A   1      35.761  30.318  27.926  1.00  0.00     0.039 A 
ATOM     34  C   UNL A   1      36.983  30.400  27.258  1.00  0.00     0.014 A 
ATOM     35  C   UNL A   1      35.678  29.711  29.182  1.00  0.00     0.014 A 
ATOM     36  C   UNL A   1      38.141  29.934  27.884  1.00  0.00     0.010 A 
ATOM     37  C   UNL A   1      36.841  29.309  29.832  1.00  0.00     0.010 A 
ATOM     38  C   UNL A   1      38.086  29.422  29.192  1.00  0.00    -0.014 A 
BRANCH  38  39
ATOM     39  C   UNL A   1      39.322  29.030  29.916  1.00  0.00     0.031 A 
ATOM     40  C   UNL A   1      39.751  29.782  31.146  1.00  0.00     0.074 A 
ATOM     41  C   UNL A   1      40.092  28.040  29.423  1.00  0.00     0.049 A 
ATOM     42  N   UNL A   1      40.830  29.631  31.869  1.00  0.00    -0.248 NA
ATOM     43  C   UNL A   1      38.864  30.861  31.609  1.00  0.00     0.031 C 
ATOM     44  C   UNL A   1      39.805  27.271  28.209  1.00  0.00     0.029 A 
ATOM     45  N   UNL A   1      41.280  27.519  29.870  1.00  0.00    -0.354 N 
ATOM     46  C   UNL A   1      40.757  30.596  32.866  1.00  0.00     0.074 A 
ATOM     47  C   UNL A   1      39.554  31.362  32.623  1.00  0.00     0.031 C 
ATOM     48  C   UNL A   1      40.779  26.369  28.019  1.00  0.00     0.029 A 
ATOM     49  C   UNL A   1      41.780  26.518  29.070  1.00  0.00     0.049 A 
ATOM     50  H   UNL A   1      41.731  27.831  30.687  1.00  0.00     0.167 HD
ATOM     51  C   UNL A   1      41.606  30.810  33.900  1.00  0.00     0.037 A 
ATOM     52  C   UNL A   1      42.923  25.811  29.164  1.00  0.00     0.037 A 
ATOM     53  C   UNL A   1      42.793  30.032  34.142  1.00  0.00     0.049 A 
ATOM     54  C   UNL A   1      43.857  26.078  30.312  1.00  0.00     0.074 A 
ATOM     55  C   UNL A   1      43.684  30.128  35.197  1.00  0.00     0.029 A 
ATOM     56  N   UNL A   1      43.262  29.021  33.315  1.00  0.00    -0.354 N 
ATOM     57  N   UNL A   1      43.735  26.945  31.289  1.00  0.00    -0.248 NA
ATOM     58  C   UNL A   1      45.083  25.270  30.374  1.00  0.00     0.031 C 
ATOM     59  C   UNL A   1      44.717  29.210  34.983  1.00  0.00     0.029 A 
ATOM     60  C   UNL A   1      44.445  28.505  33.821  1.00  0.00     0.049 A 
ATOM     61  H   UNL A   1      42.820  28.715  32.491  1.00  0.00     0.167 HD
ATOM     62  C   UNL A   1      44.858  26.777  32.091  1.00  0.00     0.074 A 
ATOM     63  C   UNL A   1      45.639  25.710  31.496  1.00  0.00     0.031 C 
ATOM     64  C   UNL A   1      45.212  27.446  33.215  1.00  0.00     0.037 A 
BRANCH  51  65
ATOM     65  C   UNL A   1      41.279  31.929  34.851  1.00  0.00     0.058 A 
ATOM     66  C   UNL A   1      41.799  33.222  34.673  1.00  0.00     0.135 A 
ATOM     67  C   UNL A   1      40.405  31.719  35.930  1.00  0.00     0.135 A 
ATOM     68  F   UNL A   1      42.650  33.476  33.667  1.00  0.00    -0.206 F 
ATOM     69  C   UNL A   1      41.486  34.259  35.546  1.00  0.00     0.059 A 
ATOM     70  C   UNL A   1      40.055  32.749  36.799  1.00  0.00     0.059 A 
ATOM     71  F   UNL A   1      39.878  30.504  36.146  1.00  0.00    -0.206 F 
ATOM     72  C   UNL A   1      40.613  34.013  36.607  1.00  0.00     0.060 A 
BRANCH  72  73
ATOM     73  S   UNL A   1      40.214  35.370  37.727  1.00  0.00     0.124 S 
ATOM     74  O   UNL A   1      39.963  36.458  36.787  1.00  0.00    -0.237 OA
ATOM     75  O   UNL A   1      39.043  34.860  38.431  1.00  0.00    -0.237 OA
ATOM     76  O   UNL A   1      41.419  35.509  38.539  1.00  0.00    -0.744 OA
ENDBRANCH  72  73
ENDBRANCH  51  65
BRANCH  52  77
ATOM     77  C   UNL A   1      43.242  24.778  28.142  1.00  0.00     0.058 A 
ATOM     78  C   UNL A   1      43.910  25.117  26.956  1.00  0.00     0.135 A 
ATOM     79  C   UNL A   1      42.903  23.429  28.339  1.00  0.00     0.135 A 
ATOM     80  F   UNL A   1      44.249  26.393  26.718  1.00  0.00    -0.206 F 
ATOM     81  C   UNL A   1      44.218  24.160  25.994  1.00  0.00     0.059 A 
ATOM     82  C   UNL A   1      43.223  22.451  27.403  1.00  0.00     0.059 A 
ATOM     83  F   UNL A   1      42.279  23.050  29.465  1.00  0.00    -0.206 F 
ATOM     84  C   UNL A   1      43.874  22.828  26.229  1.00  0.00     0.060 A 
BRANCH  84  85
ATOM     85  S   UNL A   1      44.328  21.585  24.999  1.00  0.00     0.124 S 
ATOM     86  O   UNL A   1      44.159  22.328  23.756  1.00  0.00    -0.237 OA
ATOM     87  O   UNL A   1      45.702  21.269  25.375  1.00  0.00    -0.237 OA
ATOM     88  O   UNL A   1      43.361  20.516  25.232  1.00  0.00    -0.744 OA
ENDBRANCH  84  85
ENDBRANCH  52  77
BRANCH  64  89
ATOM     89  C   UNL A   1      46.494  27.038  33.889  1.00  0.00     0.058 A 
ATOM     90  C   UNL A   1      46.535  25.979  34.809  1.00  0.00     0.135 A 
ATOM     91  C   UNL A   1      47.703  27.674  33.567  1.00  0.00     0.135 A 
ATOM     92  F   UNL A   1      45.407  25.343  35.159  1.00  0.00    -0.206 F 
ATOM     93  C   UNL A   1      47.729  25.577  35.401  1.00  0.00     0.059 A 
ATOM     94  C   UNL A   1      48.912  27.270  34.125  1.00  0.00     0.059 A 
ATOM     95  F   UNL A   1      47.721  28.686  32.685  1.00  0.00    -0.206 F 
ATOM     96  C   UNL A   1      48.913  26.226  35.048  1.00  0.00     0.060 A 
BRANCH  96  97
ATOM     97  S   UNL A   1      50.460  25.666  35.791  1.00  0.00     0.124 S 
ATOM     98  O   UNL A   1      50.779  24.503  34.968  1.00  0.00    -0.237 OA
ATOM     99  O   UNL A   1      51.329  26.825  35.614  1.00  0.00    -0.237 OA
ATOM    100  O   UNL A   1      50.090  25.374  37.172  1.00  0.00    -0.744 OA
ENDBRANCH  96  97
ENDBRANCH  64  89
ENDBRANCH  38  39
ENDBRANCH  30  33
ENDBRANCH  28  29
ENDBRANCH  27  28
ENDBRANCH  26  27
ENDBRANCH   1  26
TORSDOF 20
ENDMDL
