MODEL 1
REMARK VINA RESULT:     -10.6      0.000      0.000
REMARK SMILES C[NH+](C)[C@H]1COC[C@]1(C)C(=O)NCCCCCCNC(=O)c1ccc(-c2c3nc(c(-c4c(F)cc(S(=O)(=O)[O-])cc4F)c4ccc([nH]4)c(-c4c(F)cc(S(=O)(=O)[O-])cc4F)c4nc(c(-c5c(F)cc(S(=O)(=O)[O-])cc5F)c5ccc2[nH]5)C=C4)C=C3)cc1
REMARK SMILES IDX 16 1 15 2 14 3 13 4 12 5 10 6 11 7 8 9 4 10 5 11 6 12 7 13
REMARK SMILES IDX 9 14 2 15 1 16 3 17 17 19 18 20 19 21 20 22 21 24 22 25
REMARK SMILES IDX 23 26 87 27 24 28 86 29 25 30 26 31 27 32 80 33 28 34 85 35
REMARK SMILES IDX 79 36 81 37 29 38 84 39 78 40 77 41 30 43 64 44 43 45 63 46
REMARK SMILES IDX 44 47 47 48 62 49 82 50 45 51 46 52 61 54 83 55 48 56 31 57
REMARK SMILES IDX 32 58 41 59 33 60 34 61 40 62 42 63 35 64 36 65 37 66 38 67
REMARK SMILES IDX 39 68 65 69 66 70 75 71 67 72 68 73 74 74 76 75 69 76 70 77
REMARK SMILES IDX 71 78 72 79 73 80 49 81 50 82 59 83 51 84 52 85 58 86 60 87
REMARK SMILES IDX 53 88 54 89 55 90 56 91 57 92
REMARK H PARENT 12 8 2 18 19 23 81 42 47 53
REMARK Flexibility Score: inf
ROOT
ATOM      1  C   UNL A   1      38.031  23.838  26.145  1.00  0.00     0.002 C 
ENDROOT
BRANCH   1   2
ATOM      2  C   UNL A   1      36.811  23.392  25.334  1.00  0.00     0.002 C 
BRANCH   2   3
ATOM      3  C   UNL A   1      35.566  23.067  26.169  1.00  0.00     0.021 C 
BRANCH   3   4
ATOM      4  C   UNL A   1      34.258  23.541  25.539  1.00  0.00     0.116 C 
BRANCH   4   5
ATOM      5  N   UNL A   1      33.135  23.272  26.417  1.00  0.00    -0.355 N 
ATOM      6  C   UNL A   1      31.887  23.809  26.490  1.00  0.00     0.234 C 
ATOM      7  O   UNL A   1      31.176  23.382  27.403  1.00  0.00    -0.274 OA
ATOM      8  H   UNL A   1      33.308  22.570  27.086  1.00  0.00     0.163 HD
BRANCH   6   9
ATOM      9  C   UNL A   1      31.374  24.829  25.447  1.00  0.00     0.123 C 
ATOM     10  C   UNL A   1      32.394  25.975  25.247  1.00  0.00     0.227 C 
ATOM     11  C   UNL A   1      32.078  26.831  26.493  1.00  0.00     0.226 C 
ATOM     12  O   UNL A   1      30.665  26.753  26.718  1.00  0.00    -0.374 OA
ATOM     13  C   UNL A   1      30.174  25.580  26.048  1.00  0.00     0.183 C 
ATOM     14  C   UNL A   1      30.912  24.015  24.234  1.00  0.00     0.031 C 
BRANCH  10  15
ATOM     15  N   UNL A   1      32.418  26.797  24.013  1.00  0.00    -0.334 N 
ATOM     16  C   UNL A   1      33.355  26.412  22.966  1.00  0.00     0.332 C 
ATOM     17  C   UNL A   1      32.428  28.239  24.227  1.00  0.00     0.332 C 
ATOM     18  H   UNL A   1      31.503  26.551  23.636  1.00  0.00     0.347 HD
ENDBRANCH  10  15
ENDBRANCH   6   9
ENDBRANCH   4   5
ENDBRANCH   3   4
ENDBRANCH   2   3
ENDBRANCH   1   2
BRANCH   1  19
ATOM     19  C   UNL A   1      39.015  22.718  26.494  1.00  0.00     0.021 C 
BRANCH  19  20
ATOM     20  C   UNL A   1      40.343  23.202  27.064  1.00  0.00     0.116 C 
BRANCH  20  21
ATOM     21  N   UNL A   1      41.160  23.858  26.056  1.00  0.00    -0.352 N 
ATOM     22  C   UNL A   1      41.637  25.147  26.034  1.00  0.00     0.251 C 
ATOM     23  H   UNL A   1      41.405  23.302  25.282  1.00  0.00     0.163 HD
ATOM     24  O   UNL A   1      42.136  25.599  25.010  1.00  0.00    -0.269 OA
BRANCH  22  25
ATOM     25  C   UNL A   1      41.523  25.985  27.245  1.00  0.00     0.039 A 
ATOM     26  C   UNL A   1      42.501  26.950  27.496  1.00  0.00     0.014 A 
ATOM     27  C   UNL A   1      40.449  25.823  28.126  1.00  0.00     0.014 A 
ATOM     28  C   UNL A   1      42.369  27.793  28.601  1.00  0.00     0.010 A 
ATOM     29  C   UNL A   1      40.280  26.715  29.181  1.00  0.00     0.010 A 
ATOM     30  C   UNL A   1      41.240  27.706  29.433  1.00  0.00    -0.014 A 
BRANCH  30  31
ATOM     31  C   UNL A   1      41.046  28.641  30.571  1.00  0.00     0.031 A 
ATOM     32  C   UNL A   1      41.880  28.500  31.815  1.00  0.00     0.074 A 
ATOM     33  C   UNL A   1      40.073  29.572  30.508  1.00  0.00     0.049 A 
ATOM     34  N   UNL A   1      41.806  29.166  32.939  1.00  0.00    -0.248 NA
ATOM     35  C   UNL A   1      42.915  27.453  31.806  1.00  0.00     0.031 C 
ATOM     36  C   UNL A   1      39.170  29.778  29.373  1.00  0.00     0.029 A 
ATOM     37  N   UNL A   1      39.672  30.514  31.423  1.00  0.00    -0.354 N 
ATOM     38  C   UNL A   1      42.773  28.614  33.771  1.00  0.00     0.074 A 
ATOM     39  C   UNL A   1      43.381  27.521  33.045  1.00  0.00     0.031 C 
ATOM     40  C   UNL A   1      38.338  30.794  29.651  1.00  0.00     0.029 A 
ATOM     41  C   UNL A   1      38.616  31.284  30.997  1.00  0.00     0.049 A 
ATOM     42  H   UNL A   1      40.102  30.627  32.302  1.00  0.00     0.167 HD
ATOM     43  C   UNL A   1      43.135  28.999  35.018  1.00  0.00     0.037 A 
ATOM     44  C   UNL A   1      37.938  32.266  31.626  1.00  0.00     0.037 A 
ATOM     45  C   UNL A   1      42.537  30.101  35.726  1.00  0.00     0.049 A 
ATOM     46  C   UNL A   1      38.351  32.666  33.017  1.00  0.00     0.074 A 
ATOM     47  C   UNL A   1      42.870  30.605  36.971  1.00  0.00     0.029 A 
ATOM     48  N   UNL A   1      41.480  30.867  35.255  1.00  0.00    -0.354 N 
ATOM     49  N   UNL A   1      39.308  32.174  33.765  1.00  0.00    -0.248 NA
ATOM     50  C   UNL A   1      37.595  33.757  33.646  1.00  0.00     0.031 C 
ATOM     51  C   UNL A   1      41.980  31.639  37.277  1.00  0.00     0.029 A 
ATOM     52  C   UNL A   1      41.132  31.823  36.196  1.00  0.00     0.049 A 
ATOM     53  H   UNL A   1      41.042  30.749  34.382  1.00  0.00     0.167 HD
ATOM     54  C   UNL A   1      39.293  32.917  34.941  1.00  0.00     0.074 A 
ATOM     55  C   UNL A   1      38.237  33.898  34.799  1.00  0.00     0.031 C 
ATOM     56  C   UNL A   1      40.083  32.801  36.037  1.00  0.00     0.037 A 
BRANCH  43  57
ATOM     57  C   UNL A   1      44.232  28.223  35.699  1.00  0.00     0.058 A 
ATOM     58  C   UNL A   1      45.586  28.558  35.537  1.00  0.00     0.135 A 
ATOM     59  C   UNL A   1      43.923  27.154  36.557  1.00  0.00     0.135 A 
ATOM     60  F   UNL A   1      45.942  29.560  34.718  1.00  0.00    -0.206 F 
ATOM     61  C   UNL A   1      46.595  27.843  36.175  1.00  0.00     0.059 A 
ATOM     62  C   UNL A   1      44.914  26.446  37.231  1.00  0.00     0.059 A 
ATOM     63  F   UNL A   1      42.645  26.789  36.750  1.00  0.00    -0.206 F 
ATOM     64  C   UNL A   1      46.248  26.789  37.022  1.00  0.00     0.060 A 
BRANCH  64  65
ATOM     65  S   UNL A   1      47.569  25.879  37.848  1.00  0.00     0.124 S 
ATOM     66  O   UNL A   1      47.678  24.693  37.002  1.00  0.00    -0.237 OA
ATOM     67  O   UNL A   1      48.687  26.814  37.771  1.00  0.00    -0.237 OA
ATOM     68  O   UNL A   1      47.039  25.647  39.187  1.00  0.00    -0.744 OA
ENDBRANCH  64  65
ENDBRANCH  43  57
BRANCH  44  69
ATOM     69  C   UNL A   1      36.808  32.948  30.937  1.00  0.00     0.058 A 
ATOM     70  C   UNL A   1      37.042  33.935  29.969  1.00  0.00     0.135 A 
ATOM     71  C   UNL A   1      35.474  32.619  31.224  1.00  0.00     0.135 A 
ATOM     72  F   UNL A   1      38.301  34.291  29.664  1.00  0.00    -0.206 F 
ATOM     73  C   UNL A   1      35.997  34.587  29.323  1.00  0.00     0.059 A 
ATOM     74  C   UNL A   1      34.412  33.235  30.570  1.00  0.00     0.059 A 
ATOM     75  F   UNL A   1      35.194  31.667  32.127  1.00  0.00    -0.206 F 
ATOM     76  C   UNL A   1      34.684  34.227  29.629  1.00  0.00     0.060 A 
BRANCH  76  77
ATOM     77  S   UNL A   1      33.334  35.046  28.750  1.00  0.00     0.124 S 
ATOM     78  O   UNL A   1      34.059  36.012  27.933  1.00  0.00    -0.237 OA
ATOM     79  O   UNL A   1      32.719  33.935  28.033  1.00  0.00    -0.237 OA
ATOM     80  O   UNL A   1      32.527  35.610  29.829  1.00  0.00    -0.744 OA
ENDBRANCH  76  77
ENDBRANCH  44  69
BRANCH  56  81
ATOM     81  C   UNL A   1      39.870  33.783  37.157  1.00  0.00     0.058 A 
ATOM     82  C   UNL A   1      40.481  35.046  37.164  1.00  0.00     0.135 A 
ATOM     83  C   UNL A   1      38.992  33.473  38.210  1.00  0.00     0.135 A 
ATOM     84  F   UNL A   1      41.333  35.390  36.186  1.00  0.00    -0.206 F 
ATOM     85  C   UNL A   1      40.249  35.959  38.188  1.00  0.00     0.059 A 
ATOM     86  C   UNL A   1      38.721  34.383  39.227  1.00  0.00     0.059 A 
ATOM     87  F   UNL A   1      38.373  32.282  38.247  1.00  0.00    -0.206 F 
ATOM     88  C   UNL A   1      39.364  35.619  39.214  1.00  0.00     0.060 A 
BRANCH  88  89
ATOM     89  S   UNL A   1      39.044  36.827  40.515  1.00  0.00     0.124 S 
ATOM     90  O   UNL A   1      40.398  37.161  40.947  1.00  0.00    -0.237 OA
ATOM     91  O   UNL A   1      38.331  37.879  39.796  1.00  0.00    -0.237 OA
ATOM     92  O   UNL A   1      38.242  36.083  41.482  1.00  0.00    -0.744 OA
ENDBRANCH  88  89
ENDBRANCH  56  81
ENDBRANCH  30  31
ENDBRANCH  22  25
ENDBRANCH  20  21
ENDBRANCH  19  20
ENDBRANCH   1  19
TORSDOF 17
ENDMDL
MODEL 2
REMARK VINA RESULT:     -10.5      1.014      8.594
REMARK SMILES C[NH+](C)[C@H]1COC[C@]1(C)C(=O)NCCCCCCNC(=O)c1ccc(-c2c3nc(c(-c4c(F)cc(S(=O)(=O)[O-])cc4F)c4ccc([nH]4)c(-c4c(F)cc(S(=O)(=O)[O-])cc4F)c4nc(c(-c5c(F)cc(S(=O)(=O)[O-])cc5F)c5ccc2[nH]5)C=C4)C=C3)cc1
REMARK SMILES IDX 16 1 15 2 14 3 13 4 12 5 10 6 11 7 8 9 4 10 5 11 6 12 7 13
REMARK SMILES IDX 9 14 2 15 1 16 3 17 17 19 18 20 19 21 20 22 21 24 22 25
REMARK SMILES IDX 23 26 87 27 24 28 86 29 25 30 26 31 27 32 80 33 28 34 85 35
REMARK SMILES IDX 79 36 81 37 29 38 84 39 78 40 77 41 30 43 64 44 43 45 63 46
REMARK SMILES IDX 44 47 47 48 62 49 82 50 45 51 46 52 61 54 83 55 48 56 31 57
REMARK SMILES IDX 32 58 41 59 33 60 34 61 40 62 42 63 35 64 36 65 37 66 38 67
REMARK SMILES IDX 39 68 65 69 66 70 75 71 67 72 68 73 74 74 76 75 69 76 70 77
REMARK SMILES IDX 71 78 72 79 73 80 49 81 50 82 59 83 51 84 52 85 58 86 60 87
REMARK SMILES IDX 53 88 54 89 55 90 56 91 57 92
REMARK H PARENT 12 8 2 18 19 23 81 42 47 53
REMARK Flexibility Score: inf
ROOT
ATOM      1  C   UNL A   1      38.116  23.900  26.319  1.00  0.00     0.002 C 
ENDROOT
BRANCH   1   2
ATOM      2  C   UNL A   1      36.834  23.332  25.702  1.00  0.00     0.002 C 
BRANCH   2   3
ATOM      3  C   UNL A   1      36.932  21.871  25.247  1.00  0.00     0.021 C 
BRANCH   3   4
ATOM      4  C   UNL A   1      35.594  21.133  25.242  1.00  0.00     0.116 C 
BRANCH   4   5
ATOM      5  N   UNL A   1      34.915  21.291  26.514  1.00  0.00    -0.355 N 
ATOM      6  C   UNL A   1      33.690  21.787  26.836  1.00  0.00     0.234 C 
ATOM      7  O   UNL A   1      33.431  21.826  28.041  1.00  0.00    -0.274 OA
ATOM      8  H   UNL A   1      35.438  20.983  27.289  1.00  0.00     0.163 HD
BRANCH   6   9
ATOM      9  C   UNL A   1      32.664  22.199  25.754  1.00  0.00     0.123 C 
ATOM     10  C   UNL A   1      33.213  23.355  24.885  1.00  0.00     0.227 C 
ATOM     11  C   UNL A   1      32.951  24.546  25.832  1.00  0.00     0.226 C 
ATOM     12  O   UNL A   1      31.720  24.284  26.518  1.00  0.00    -0.374 OA
ATOM     13  C   UNL A   1      31.467  22.871  26.447  1.00  0.00     0.183 C 
ATOM     14  C   UNL A   1      32.203  20.905  25.076  1.00  0.00     0.031 C 
BRANCH  10  15
ATOM     15  N   UNL A   1      32.701  23.622  23.519  1.00  0.00    -0.334 N 
ATOM     16  C   UNL A   1      33.477  23.109  22.397  1.00  0.00     0.332 C 
ATOM     17  C   UNL A   1      32.262  24.990  23.276  1.00  0.00     0.332 C 
ATOM     18  H   UNL A   1      31.868  23.033  23.540  1.00  0.00     0.347 HD
ENDBRANCH  10  15
ENDBRANCH   6   9
ENDBRANCH   4   5
ENDBRANCH   3   4
ENDBRANCH   2   3
ENDBRANCH   1   2
BRANCH   1  19
ATOM     19  C   UNL A   1      39.217  22.868  26.578  1.00  0.00     0.021 C 
BRANCH  19  20
ATOM     20  C   UNL A   1      40.554  23.467  27.000  1.00  0.00     0.116 C 
BRANCH  20  21
ATOM     21  N   UNL A   1      41.129  24.301  25.958  1.00  0.00    -0.352 N 
ATOM     22  C   UNL A   1      41.386  25.651  25.974  1.00  0.00     0.251 C 
ATOM     23  H   UNL A   1      41.368  23.834  25.125  1.00  0.00     0.163 HD
ATOM     24  O   UNL A   1      41.682  26.231  24.936  1.00  0.00    -0.269 OA
BRANCH  22  25
ATOM     25  C   UNL A   1      41.283  26.396  27.245  1.00  0.00     0.039 A 
ATOM     26  C   UNL A   1      42.219  27.393  27.525  1.00  0.00     0.014 A 
ATOM     27  C   UNL A   1      40.259  26.114  28.156  1.00  0.00     0.014 A 
ATOM     28  C   UNL A   1      42.093  28.150  28.692  1.00  0.00     0.010 A 
ATOM     29  C   UNL A   1      40.090  26.920  29.277  1.00  0.00     0.010 A 
ATOM     30  C   UNL A   1      41.008  27.943  29.560  1.00  0.00    -0.014 A 
BRANCH  30  31
ATOM     31  C   UNL A   1      40.815  28.785  30.769  1.00  0.00     0.031 A 
ATOM     32  C   UNL A   1      39.750  29.847  30.788  1.00  0.00     0.074 A 
ATOM     33  C   UNL A   1      41.644  28.637  31.822  1.00  0.00     0.049 A 
ATOM     34  N   UNL A   1      39.479  30.729  31.714  1.00  0.00    -0.248 NA
ATOM     35  C   UNL A   1      38.892  29.949  29.595  1.00  0.00     0.031 C 
ATOM     36  C   UNL A   1      42.744  27.672  31.905  1.00  0.00     0.029 A 
ATOM     37  N   UNL A   1      41.700  29.304  33.021  1.00  0.00    -0.354 N 
ATOM     38  C   UNL A   1      38.433  31.496  31.215  1.00  0.00     0.074 A 
ATOM     39  C   UNL A   1      38.155  31.012  29.881  1.00  0.00     0.031 C 
ATOM     40  C   UNL A   1      43.348  27.796  33.097  1.00  0.00     0.029 A 
ATOM     41  C   UNL A   1      42.712  28.875  33.846  1.00  0.00     0.049 A 
ATOM     42  H   UNL A   1      41.072  30.022  33.266  1.00  0.00     0.167 HD
ATOM     43  C   UNL A   1      37.751  32.496  31.823  1.00  0.00     0.037 A 
ATOM     44  C   UNL A   1      43.094  29.311  35.063  1.00  0.00     0.037 A 
ATOM     45  C   UNL A   1      38.022  32.958  33.160  1.00  0.00     0.049 A 
ATOM     46  C   UNL A   1      42.330  30.433  35.712  1.00  0.00     0.074 A 
ATOM     47  C   UNL A   1      37.354  33.928  33.886  1.00  0.00     0.029 A 
ATOM     48  N   UNL A   1      39.046  32.488  33.970  1.00  0.00    -0.354 N 
ATOM     49  N   UNL A   1      41.303  31.105  35.250  1.00  0.00    -0.248 NA
ATOM     50  C   UNL A   1      42.772  30.852  37.049  1.00  0.00     0.031 C 
ATOM     51  C   UNL A   1      38.006  34.083  35.113  1.00  0.00     0.029 A 
ATOM     52  C   UNL A   1      39.043  33.165  35.179  1.00  0.00     0.049 A 
ATOM     53  H   UNL A   1      39.682  31.778  33.723  1.00  0.00     0.167 HD
ATOM     54  C   UNL A   1      40.955  32.004  36.252  1.00  0.00     0.074 A 
ATOM     55  C   UNL A   1      41.875  31.782  37.349  1.00  0.00     0.031 C 
ATOM     56  C   UNL A   1      39.961  32.927  36.266  1.00  0.00     0.037 A 
BRANCH  43  57
ATOM     57  C   UNL A   1      36.643  33.160  31.048  1.00  0.00     0.058 A 
ATOM     58  C   UNL A   1      35.291  32.921  31.340  1.00  0.00     0.135 A 
ATOM     59  C   UNL A   1      36.938  34.077  30.026  1.00  0.00     0.135 A 
ATOM     60  F   UNL A   1      34.949  32.043  32.297  1.00  0.00    -0.206 F 
ATOM     61  C   UNL A   1      34.270  33.544  30.628  1.00  0.00     0.059 A 
ATOM     62  C   UNL A   1      35.934  34.736  29.322  1.00  0.00     0.059 A 
ATOM     63  F   UNL A   1      38.214  34.345  29.704  1.00  0.00    -0.206 F 
ATOM     64  C   UNL A   1      34.603  34.452  29.620  1.00  0.00     0.060 A 
BRANCH  64  65
ATOM     65  S   UNL A   1      33.267  35.255  28.712  1.00  0.00     0.124 S 
ATOM     66  O   UNL A   1      34.007  36.208  27.889  1.00  0.00    -0.237 OA
ATOM     67  O   UNL A   1      32.661  34.138  27.995  1.00  0.00    -0.237 OA
ATOM     68  O   UNL A   1      32.444  35.843  29.764  1.00  0.00    -0.744 OA
ENDBRANCH  64  65
ENDBRANCH  43  57
BRANCH  44  69
ATOM     69  C   UNL A   1      44.248  28.672  35.753  1.00  0.00     0.058 A 
ATOM     70  C   UNL A   1      44.059  27.601  36.639  1.00  0.00     0.135 A 
ATOM     71  C   UNL A   1      45.563  29.111  35.533  1.00  0.00     0.135 A 
ATOM     72  F   UNL A   1      42.820  27.148  36.888  1.00  0.00    -0.206 F 
ATOM     73  C   UNL A   1      45.127  27.000  37.297  1.00  0.00     0.059 A 
ATOM     74  C   UNL A   1      46.651  28.507  36.155  1.00  0.00     0.059 A 
ATOM     75  F   UNL A   1      45.803  30.119  34.680  1.00  0.00    -0.206 F 
ATOM     76  C   UNL A   1      46.421  27.458  37.045  1.00  0.00     0.060 A 
BRANCH  76  77
ATOM     77  S   UNL A   1      47.805  26.640  37.869  1.00  0.00     0.124 S 
ATOM     78  O   UNL A   1      48.044  25.506  36.985  1.00  0.00    -0.237 OA
ATOM     79  O   UNL A   1      48.824  27.683  37.862  1.00  0.00    -0.237 OA
ATOM     80  O   UNL A   1      47.263  26.311  39.185  1.00  0.00    -0.744 OA
ENDBRANCH  76  77
ENDBRANCH  44  69
BRANCH  56  81
ATOM     81  C   UNL A   1      39.784  33.742  37.519  1.00  0.00     0.058 A 
ATOM     82  C   UNL A   1      40.438  34.969  37.705  1.00  0.00     0.135 A 
ATOM     83  C   UNL A   1      38.900  33.311  38.523  1.00  0.00     0.135 A 
ATOM     84  F   UNL A   1      41.298  35.424  36.780  1.00  0.00    -0.206 F 
ATOM     85  C   UNL A   1      40.240  35.730  38.853  1.00  0.00     0.059 A 
ATOM     86  C   UNL A   1      38.663  34.071  39.664  1.00  0.00     0.059 A 
ATOM     87  F   UNL A   1      38.241  32.149  38.391  1.00  0.00    -0.206 F 
ATOM     88  C   UNL A   1      39.348  35.275  39.825  1.00  0.00     0.060 A 
BRANCH  88  89
ATOM     89  S   UNL A   1      39.074  36.290  41.292  1.00  0.00     0.124 S 
ATOM     90  O   UNL A   1      38.882  37.611  40.703  1.00  0.00    -0.237 OA
ATOM     91  O   UNL A   1      37.884  35.678  41.876  1.00  0.00    -0.237 OA
ATOM     92  O   UNL A   1      40.302  36.118  42.061  1.00  0.00    -0.744 OA
ENDBRANCH  88  89
ENDBRANCH  56  81
ENDBRANCH  30  31
ENDBRANCH  22  25
ENDBRANCH  20  21
ENDBRANCH  19  20
ENDBRANCH   1  19
TORSDOF 17
ENDMDL
MODEL 3
REMARK VINA RESULT:     -10.5      0.994      1.946
REMARK SMILES C[NH+](C)[C@H]1COC[C@]1(C)C(=O)NCCCCCCNC(=O)c1ccc(-c2c3nc(c(-c4c(F)cc(S(=O)(=O)[O-])cc4F)c4ccc([nH]4)c(-c4c(F)cc(S(=O)(=O)[O-])cc4F)c4nc(c(-c5c(F)cc(S(=O)(=O)[O-])cc5F)c5ccc2[nH]5)C=C4)C=C3)cc1
REMARK SMILES IDX 16 1 15 2 14 3 13 4 12 5 10 6 11 7 8 9 4 10 5 11 6 12 7 13
REMARK SMILES IDX 9 14 2 15 1 16 3 17 17 19 18 20 19 21 20 22 21 24 22 25
REMARK SMILES IDX 23 26 87 27 24 28 86 29 25 30 26 31 27 32 80 33 28 34 85 35
REMARK SMILES IDX 79 36 81 37 29 38 84 39 78 40 77 41 30 43 64 44 43 45 63 46
REMARK SMILES IDX 44 47 47 48 62 49 82 50 45 51 46 52 61 54 83 55 48 56 31 57
REMARK SMILES IDX 32 58 41 59 33 60 34 61 40 62 42 63 35 64 36 65 37 66 38 67
REMARK SMILES IDX 39 68 65 69 66 70 75 71 67 72 68 73 74 74 76 75 69 76 70 77
REMARK SMILES IDX 71 78 72 79 73 80 49 81 50 82 59 83 51 84 52 85 58 86 60 87
REMARK SMILES IDX 53 88 54 89 55 90 56 91 57 92
REMARK H PARENT 12 8 2 18 19 23 81 42 47 53
REMARK Flexibility Score: inf
ROOT
ATOM      1  C   UNL A   1      37.780  23.368  25.194  1.00  0.00     0.002 C 
ENDROOT
BRANCH   1   2
ATOM      2  C   UNL A   1      36.908  22.399  24.390  1.00  0.00     0.002 C 
BRANCH   2   3
ATOM      3  C   UNL A   1      36.434  21.164  25.168  1.00  0.00     0.021 C 
BRANCH   3   4
ATOM      4  C   UNL A   1      35.292  21.448  26.143  1.00  0.00     0.116 C 
BRANCH   4   5
ATOM      5  N   UNL A   1      34.147  20.607  25.854  1.00  0.00    -0.355 N 
ATOM      6  C   UNL A   1      32.915  20.889  25.349  1.00  0.00     0.234 C 
ATOM      7  O   UNL A   1      32.139  19.933  25.272  1.00  0.00    -0.274 OA
ATOM      8  H   UNL A   1      34.285  19.655  26.062  1.00  0.00     0.163 HD
BRANCH   6   9
ATOM      9  C   UNL A   1      32.546  22.301  24.835  1.00  0.00     0.123 C 
ATOM     10  C   UNL A   1      32.926  23.383  25.873  1.00  0.00     0.227 C 
ATOM     11  C   UNL A   1      31.740  23.241  26.851  1.00  0.00     0.226 C 
ATOM     12  O   UNL A   1      30.576  22.943  26.070  1.00  0.00    -0.374 OA
ATOM     13  C   UNL A   1      31.013  22.423  24.804  1.00  0.00     0.183 C 
ATOM     14  C   UNL A   1      33.096  22.402  23.409  1.00  0.00     0.031 C 
BRANCH  10  15
ATOM     15  N   UNL A   1      33.148  24.797  25.486  1.00  0.00    -0.334 N 
ATOM     16  C   UNL A   1      34.524  25.235  25.293  1.00  0.00     0.332 C 
ATOM     17  C   UNL A   1      32.384  25.777  26.249  1.00  0.00     0.332 C 
ATOM     18  H   UNL A   1      32.756  24.771  24.544  1.00  0.00     0.347 HD
ENDBRANCH  10  15
ENDBRANCH   6   9
ENDBRANCH   4   5
ENDBRANCH   3   4
ENDBRANCH   2   3
ENDBRANCH   1   2
BRANCH   1  19
ATOM     19  C   UNL A   1      38.592  22.720  26.319  1.00  0.00     0.021 C 
BRANCH  19  20
ATOM     20  C   UNL A   1      39.610  23.647  26.974  1.00  0.00     0.116 C 
BRANCH  20  21
ATOM     21  N   UNL A   1      40.543  24.201  26.007  1.00  0.00    -0.352 N 
ATOM     22  C   UNL A   1      41.169  25.424  26.011  1.00  0.00     0.251 C 
ATOM     23  H   UNL A   1      40.755  23.620  25.242  1.00  0.00     0.163 HD
ATOM     24  O   UNL A   1      41.764  25.813  25.014  1.00  0.00    -0.269 OA
BRANCH  22  25
ATOM     25  C   UNL A   1      41.101  26.271  27.220  1.00  0.00     0.039 A 
ATOM     26  C   UNL A   1      41.967  27.361  27.334  1.00  0.00     0.014 A 
ATOM     27  C   UNL A   1      40.179  25.993  28.235  1.00  0.00     0.014 A 
ATOM     28  C   UNL A   1      41.867  28.208  28.440  1.00  0.00     0.010 A 
ATOM     29  C   UNL A   1      40.030  26.882  29.295  1.00  0.00     0.010 A 
ATOM     30  C   UNL A   1      40.875  27.996  29.412  1.00  0.00    -0.014 A 
BRANCH  30  31
ATOM     31  C   UNL A   1      40.706  28.926  30.558  1.00  0.00     0.031 A 
ATOM     32  C   UNL A   1      41.549  28.764  31.793  1.00  0.00     0.074 A 
ATOM     33  C   UNL A   1      39.746  29.872  30.511  1.00  0.00     0.049 A 
ATOM     34  N   UNL A   1      41.497  29.423  32.922  1.00  0.00    -0.248 NA
ATOM     35  C   UNL A   1      42.568  27.702  31.767  1.00  0.00     0.031 C 
ATOM     36  C   UNL A   1      38.835  30.099  29.386  1.00  0.00     0.029 A 
ATOM     37  N   UNL A   1      39.369  30.814  31.435  1.00  0.00    -0.354 N 
ATOM     38  C   UNL A   1      42.462  28.851  33.741  1.00  0.00     0.074 A 
ATOM     39  C   UNL A   1      43.047  27.754  33.002  1.00  0.00     0.031 C 
ATOM     40  C   UNL A   1      38.022  31.125  29.678  1.00  0.00     0.029 A 
ATOM     41  C   UNL A   1      38.320  31.603  31.025  1.00  0.00     0.049 A 
ATOM     42  H   UNL A   1      39.808  30.915  32.311  1.00  0.00     0.167 HD
ATOM     43  C   UNL A   1      42.843  29.223  34.987  1.00  0.00     0.037 A 
ATOM     44  C   UNL A   1      37.663  32.590  31.666  1.00  0.00     0.037 A 
ATOM     45  C   UNL A   1      42.268  30.329  35.707  1.00  0.00     0.049 A 
ATOM     46  C   UNL A   1      38.095  32.974  33.056  1.00  0.00     0.074 A 
ATOM     47  C   UNL A   1      42.621  30.820  36.953  1.00  0.00     0.029 A 
ATOM     48  N   UNL A   1      41.218  31.114  35.252  1.00  0.00    -0.354 N 
ATOM     49  N   UNL A   1      39.052  32.463  33.792  1.00  0.00    -0.248 NA
ATOM     50  C   UNL A   1      37.362  34.073  33.700  1.00  0.00     0.031 C 
ATOM     51  C   UNL A   1      41.749  31.865  37.274  1.00  0.00     0.029 A 
ATOM     52  C   UNL A   1      40.894  32.069  36.202  1.00  0.00     0.049 A 
ATOM     53  H   UNL A   1      40.770  31.008  34.382  1.00  0.00     0.167 HD
ATOM     54  C   UNL A   1      39.059  33.198  34.972  1.00  0.00     0.074 A 
ATOM     55  C   UNL A   1      38.017  34.196  34.847  1.00  0.00     0.031 C 
ATOM     56  C   UNL A   1      39.858  33.063  36.060  1.00  0.00     0.037 A 
BRANCH  43  57
ATOM     57  C   UNL A   1      43.934  28.426  35.652  1.00  0.00     0.058 A 
ATOM     58  C   UNL A   1      43.652  27.294  36.434  1.00  0.00     0.135 A 
ATOM     59  C   UNL A   1      45.283  28.776  35.474  1.00  0.00     0.135 A 
ATOM     60  F   UNL A   1      42.381  26.921  36.651  1.00  0.00    -0.206 F 
ATOM     61  C   UNL A   1      44.664  26.555  37.039  1.00  0.00     0.059 A 
ATOM     62  C   UNL A   1      46.313  28.033  36.043  1.00  0.00     0.059 A 
ATOM     63  F   UNL A   1      45.612  29.848  34.737  1.00  0.00    -0.206 F 
ATOM     64  C   UNL A   1      45.993  26.933  36.837  1.00  0.00     0.060 A 
BRANCH  64  65
ATOM     65  S   UNL A   1      47.292  25.959  37.623  1.00  0.00     0.124 S 
ATOM     66  O   UNL A   1      47.009  26.184  39.038  1.00  0.00    -0.237 OA
ATOM     67  O   UNL A   1      47.017  24.613  37.129  1.00  0.00    -0.237 OA
ATOM     68  O   UNL A   1      48.523  26.567  37.126  1.00  0.00    -0.744 OA
ENDBRANCH  64  65
ENDBRANCH  43  57
BRANCH  44  69
ATOM     69  C   UNL A   1      36.537  33.293  30.993  1.00  0.00     0.058 A 
ATOM     70  C   UNL A   1      36.773  34.202  29.950  1.00  0.00     0.135 A 
ATOM     71  C   UNL A   1      35.205  33.064  31.369  1.00  0.00     0.135 A 
ATOM     72  F   UNL A   1      38.030  34.461  29.558  1.00  0.00    -0.206 F 
ATOM     73  C   UNL A   1      35.731  34.873  29.318  1.00  0.00     0.059 A 
ATOM     74  C   UNL A   1      34.144  33.699  30.732  1.00  0.00     0.059 A 
ATOM     75  F   UNL A   1      34.922  32.190  32.348  1.00  0.00    -0.206 F 
ATOM     76  C   UNL A   1      34.419  34.612  29.714  1.00  0.00     0.060 A 
BRANCH  76  77
ATOM     77  S   UNL A   1      33.071  35.453  28.854  1.00  0.00     0.124 S 
ATOM     78  O   UNL A   1      33.798  36.433  28.056  1.00  0.00    -0.237 OA
ATOM     79  O   UNL A   1      32.451  34.359  28.115  1.00  0.00    -0.237 OA
ATOM     80  O   UNL A   1      32.267  35.998  29.945  1.00  0.00    -0.744 OA
ENDBRANCH  76  77
ENDBRANCH  44  69
BRANCH  56  81
ATOM     81  C   UNL A   1      39.670  34.041  37.188  1.00  0.00     0.058 A 
ATOM     82  C   UNL A   1      38.874  33.743  38.304  1.00  0.00     0.135 A 
ATOM     83  C   UNL A   1      40.346  35.274  37.175  1.00  0.00     0.135 A 
ATOM     84  F   UNL A   1      38.202  32.583  38.365  1.00  0.00    -0.206 F 
ATOM     85  C   UNL A   1      38.735  34.642  39.358  1.00  0.00     0.059 A 
ATOM     86  C   UNL A   1      40.247  36.173  38.231  1.00  0.00     0.059 A 
ATOM     87  F   UNL A   1      41.129  35.605  36.135  1.00  0.00    -0.206 F 
ATOM     88  C   UNL A   1      39.429  35.853  39.313  1.00  0.00     0.060 A 
BRANCH  88  89
ATOM     89  S   UNL A   1      39.268  36.992  40.703  1.00  0.00     0.124 S 
ATOM     90  O   UNL A   1      38.561  36.169  41.679  1.00  0.00    -0.237 OA
ATOM     91  O   UNL A   1      40.661  37.295  41.020  1.00  0.00    -0.237 OA
ATOM     92  O   UNL A   1      38.502  38.104  40.147  1.00  0.00    -0.744 OA
ENDBRANCH  88  89
ENDBRANCH  56  81
ENDBRANCH  30  31
ENDBRANCH  22  25
ENDBRANCH  20  21
ENDBRANCH  19  20
ENDBRANCH   1  19
TORSDOF 17
ENDMDL
