MODEL 1
REMARK VINA RESULT:     -12.1      0.000      0.000
REMARK SMILES COc1cccc(CC2(CO)CCN(c3nc(C)ccc3C(=O)NCCCCCCNC(=O)c3ccc(-c4c5nc(c(-c6c(F)cc(S(=O)(=O)[O-])cc6F)c6ccc([nH]6)c(-c6c(F)cc(S(=O)(=O)[O-])cc6F)c6nc(c(-c7c(F)cc(S(=O)(=O)[O-])cc7F)c7ccc4[nH]7)C=C6)C=C5)cc3)CC2)c1
REMARK SMILES IDX 27 1 26 2 25 3 24 4 22 5 23 6 21 8 15 9 16 10 17 11 20 12
REMARK SMILES IDX 18 13 19 14 14 15 9 16 12 17 101 18 13 19 100 20 8 21 7 22
REMARK SMILES IDX 3 23 4 24 102 25 5 26 6 27 2 28 1 29 10 30 11 31 28 33 29 34
REMARK SMILES IDX 30 35 31 36 32 37 33 39 34 40 35 41 99 42 36 43 98 44 37 45
REMARK SMILES IDX 38 46 39 47 92 48 40 49 97 50 91 51 93 52 41 53 96 54 90 55
REMARK SMILES IDX 89 56 42 58 76 59 55 60 75 61 56 62 59 63 74 64 94 65 57 66
REMARK SMILES IDX 58 67 73 69 95 70 60 71 43 72 44 73 53 74 45 75 46 76 52 77
REMARK SMILES IDX 54 78 47 79 48 80 49 81 50 82 51 83 77 84 78 85 87 86 79 87
REMARK SMILES IDX 80 88 86 89 88 90 81 91 82 92 83 93 84 94 85 95 61 96 62 97
REMARK SMILES IDX 71 98 63 99 64 100 70 101 72 102 65 103 66 104 67 105 68 106
REMARK SMILES IDX 69 107
REMARK H PARENT 24 7 11 32 31 38 93 57 59 68
REMARK Flexibility Score: inf
ROOT
ATOM      1  C   UNL A   1      35.342  31.354  27.642  1.00  0.00     0.002 C 
ENDROOT
BRANCH   1   2
ATOM      2  C   UNL A   1      34.581  30.025  27.510  1.00  0.00     0.021 C 
BRANCH   2   3
ATOM      3  C   UNL A   1      33.339  30.119  26.626  1.00  0.00     0.116 C 
BRANCH   3   4
ATOM      4  N   UNL A   1      33.574  29.490  25.344  1.00  0.00    -0.352 N 
ATOM      5  C   UNL A   1      32.826  29.082  24.269  1.00  0.00     0.255 C 
ATOM      6  O   UNL A   1      33.535  28.751  23.320  1.00  0.00    -0.269 OA
ATOM      7  H   UNL A   1      34.531  29.305  25.206  1.00  0.00     0.163 HD
BRANCH   5   8
ATOM      8  C   UNL A   1      31.329  29.105  24.152  1.00  0.00     0.082 A 
ATOM      9  C   UNL A   1      30.572  27.913  24.068  1.00  0.00     0.141 A 
ATOM     10  N   UNL A   1      29.292  27.928  23.593  1.00  0.00    -0.235 NA
ATOM     11  C   UNL A   1      28.691  29.095  23.290  1.00  0.00     0.040 A 
ATOM     12  C   UNL A   1      30.622  30.302  23.981  1.00  0.00     0.019 A 
ATOM     13  C   UNL A   1      27.315  29.010  22.708  1.00  0.00     0.067 C 
ATOM     14  C   UNL A   1      29.303  30.305  23.530  1.00  0.00     0.024 A 
BRANCH   9  15
ATOM     15  N   UNL A   1      30.950  26.654  24.487  1.00  0.00    -0.356 N 
ATOM     16  C   UNL A   1      31.306  23.934  25.510  1.00  0.00     0.001 C 
ATOM     17  C   UNL A   1      30.339  24.285  24.346  1.00  0.00     0.031 C 
ATOM     18  C   UNL A   1      31.638  25.210  26.328  1.00  0.00     0.031 C 
ATOM     19  C   UNL A   1      30.644  25.570  23.575  1.00  0.00     0.119 C 
ATOM     20  C   UNL A   1      31.977  26.442  25.490  1.00  0.00     0.119 C 
BRANCH  16  21
ATOM     21  C   UNL A   1      32.574  23.139  25.035  1.00  0.00     0.045 C 
BRANCH  21  22
ATOM     22  C   UNL A   1      32.421  21.831  24.297  1.00  0.00    -0.044 A 
ATOM     23  C   UNL A   1      32.518  19.404  24.254  1.00  0.00     0.119 A 
ATOM     24  C   UNL A   1      32.300  19.409  22.879  1.00  0.00     0.046 A 
ATOM     25  C   UNL A   1      32.590  20.606  24.962  1.00  0.00     0.050 A 
ATOM     26  C   UNL A   1      32.072  20.615  22.220  1.00  0.00     0.004 A 
ATOM     27  C   UNL A   1      32.105  21.816  22.931  1.00  0.00     0.004 A 
BRANCH  23  28
ATOM     28  O   UNL A   1      32.746  18.188  24.842  1.00  0.00    -0.497 OA
ATOM     29  C   UNL A   1      34.045  17.686  24.539  1.00  0.00     0.278 C 
ENDBRANCH  23  28
ENDBRANCH  21  22
ENDBRANCH  16  21
BRANCH  16  30
ATOM     30  C   UNL A   1      30.550  22.982  26.490  1.00  0.00     0.163 C 
BRANCH  30  31
ATOM     31  O   UNL A   1      29.535  23.656  27.227  1.00  0.00    -0.396 OA
ATOM     32  H   UNL A   1      29.870  23.878  28.109  1.00  0.00     0.210 HD
ENDBRANCH  30  31
ENDBRANCH  16  30
ENDBRANCH   9  15
ENDBRANCH   5   8
ENDBRANCH   3   4
ENDBRANCH   2   3
ENDBRANCH   1   2
BRANCH   1  33
ATOM     33  C   UNL A   1      34.625  32.446  28.448  1.00  0.00     0.002 C 
BRANCH  33  34
ATOM     34  C   UNL A   1      35.528  33.552  29.003  1.00  0.00     0.021 C 
BRANCH  34  35
ATOM     35  C   UNL A   1      36.659  33.059  29.900  1.00  0.00     0.116 C 
BRANCH  35  36
ATOM     36  N   UNL A   1      36.190  32.090  30.874  1.00  0.00    -0.352 N 
ATOM     37  C   UNL A   1      36.668  30.835  31.148  1.00  0.00     0.251 C 
ATOM     38  H   UNL A   1      35.418  32.373  31.414  1.00  0.00     0.163 HD
ATOM     39  O   UNL A   1      36.007  30.076  31.857  1.00  0.00    -0.269 OA
BRANCH  37  40
ATOM     40  C   UNL A   1      37.965  30.386  30.594  1.00  0.00     0.039 A 
ATOM     41  C   UNL A   1      39.010  30.103  31.477  1.00  0.00     0.014 A 
ATOM     42  C   UNL A   1      38.172  30.293  29.214  1.00  0.00     0.014 A 
ATOM     43  C   UNL A   1      40.253  29.706  30.979  1.00  0.00     0.010 A 
ATOM     44  C   UNL A   1      39.391  29.833  28.720  1.00  0.00     0.010 A 
ATOM     45  C   UNL A   1      40.451  29.557  29.597  1.00  0.00    -0.014 A 
BRANCH  45  46
ATOM     46  C   UNL A   1      41.774  29.147  29.059  1.00  0.00     0.031 A 
ATOM     47  C   UNL A   1      42.888  30.153  28.945  1.00  0.00     0.074 A 
ATOM     48  C   UNL A   1      41.959  27.882  28.637  1.00  0.00     0.049 A 
ATOM     49  N   UNL A   1      44.104  29.991  28.491  1.00  0.00    -0.248 NA
ATOM     50  C   UNL A   1      42.586  31.531  29.366  1.00  0.00     0.031 C 
ATOM     51  C   UNL A   1      40.938  26.833  28.636  1.00  0.00     0.029 A 
ATOM     52  N   UNL A   1      43.070  27.265  28.119  1.00  0.00    -0.354 N 
ATOM     53  C   UNL A   1      44.705  31.243  28.555  1.00  0.00     0.074 A 
ATOM     54  C   UNL A   1      43.704  32.166  29.043  1.00  0.00     0.031 C 
ATOM     55  C   UNL A   1      41.474  25.699  28.158  1.00  0.00     0.029 A 
ATOM     56  C   UNL A   1      42.868  25.943  27.801  1.00  0.00     0.049 A 
ATOM     57  H   UNL A   1      43.930  27.725  27.990  1.00  0.00     0.167 HD
ATOM     58  C   UNL A   1      45.980  31.589  28.253  1.00  0.00     0.037 A 
ATOM     59  C   UNL A   1      43.711  25.031  27.282  1.00  0.00     0.037 A 
ATOM     60  C   UNL A   1      46.982  30.658  27.804  1.00  0.00     0.049 A 
ATOM     61  C   UNL A   1      45.138  25.421  27.010  1.00  0.00     0.074 A 
ATOM     62  C   UNL A   1      48.322  30.891  27.550  1.00  0.00     0.029 A 
ATOM     63  N   UNL A   1      46.752  29.315  27.541  1.00  0.00    -0.354 N 
ATOM     64  N   UNL A   1      45.712  26.592  27.154  1.00  0.00    -0.248 NA
ATOM     65  C   UNL A   1      46.035  24.364  26.524  1.00  0.00     0.031 C 
ATOM     66  C   UNL A   1      48.896  29.695  27.099  1.00  0.00     0.029 A 
ATOM     67  C   UNL A   1      47.922  28.709  27.112  1.00  0.00     0.049 A 
ATOM     68  H   UNL A   1      45.885  28.860  27.644  1.00  0.00     0.167 HD
ATOM     69  C   UNL A   1      47.043  26.409  26.796  1.00  0.00     0.074 A 
ATOM     70  C   UNL A   1      47.191  25.011  26.443  1.00  0.00     0.031 C 
ATOM     71  C   UNL A   1      48.051  27.316  26.763  1.00  0.00     0.037 A 
BRANCH  58  72
ATOM     72  C   UNL A   1      46.360  33.037  28.403  1.00  0.00     0.058 A 
ATOM     73  C   UNL A   1      46.932  33.533  29.585  1.00  0.00     0.135 A 
ATOM     74  C   UNL A   1      46.162  33.938  27.345  1.00  0.00     0.135 A 
ATOM     75  F   UNL A   1      47.130  32.718  30.634  1.00  0.00    -0.206 F 
ATOM     76  C   UNL A   1      47.258  34.878  29.729  1.00  0.00     0.059 A 
ATOM     77  C   UNL A   1      46.507  35.284  27.456  1.00  0.00     0.059 A 
ATOM     78  F   UNL A   1      45.621  33.520  26.190  1.00  0.00    -0.206 F 
ATOM     79  C   UNL A   1      47.036  35.747  28.660  1.00  0.00     0.060 A 
BRANCH  79  80
ATOM     80  S   UNL A   1      47.451  37.492  28.863  1.00  0.00     0.124 S 
ATOM     81  O   UNL A   1      48.690  37.587  28.096  1.00  0.00    -0.237 OA
ATOM     82  O   UNL A   1      46.293  38.161  28.279  1.00  0.00    -0.237 OA
ATOM     83  O   UNL A   1      47.594  37.641  30.307  1.00  0.00    -0.744 OA
ENDBRANCH  79  80
ENDBRANCH  58  72
BRANCH  59  84
ATOM     84  C   UNL A   1      43.229  23.649  27.024  1.00  0.00     0.058 A 
ATOM     85  C   UNL A   1      42.972  23.203  25.720  1.00  0.00     0.135 A 
ATOM     86  C   UNL A   1      43.056  22.735  28.074  1.00  0.00     0.135 A 
ATOM     87  F   UNL A   1      43.118  24.044  24.683  1.00  0.00    -0.206 F 
ATOM     88  C   UNL A   1      42.553  21.902  25.464  1.00  0.00     0.059 A 
ATOM     89  C   UNL A   1      42.660  21.421  27.843  1.00  0.00     0.059 A 
ATOM     90  F   UNL A   1      43.307  23.107  29.339  1.00  0.00    -0.206 F 
ATOM     91  C   UNL A   1      42.405  21.016  26.532  1.00  0.00     0.060 A 
BRANCH  91  92
ATOM     92  S   UNL A   1      41.932  19.308  26.184  1.00  0.00     0.124 S 
ATOM     93  O   UNL A   1      42.765  19.002  25.027  1.00  0.00    -0.237 OA
ATOM     94  O   UNL A   1      42.290  18.630  27.427  1.00  0.00    -0.237 OA
ATOM     95  O   UNL A   1      40.498  19.404  25.925  1.00  0.00    -0.744 OA
ENDBRANCH  91  92
ENDBRANCH  59  84
BRANCH  71  96
ATOM     96  C   UNL A   1      49.409  26.819  26.354  1.00  0.00     0.058 A 
ATOM     97  C   UNL A   1      49.848  26.891  25.023  1.00  0.00     0.135 A 
ATOM     98  C   UNL A   1      50.295  26.300  27.311  1.00  0.00     0.135 A 
ATOM     99  F   UNL A   1      49.037  27.374  24.069  1.00  0.00    -0.206 F 
ATOM    100  C   UNL A   1      51.110  26.438  24.649  1.00  0.00     0.059 A 
ATOM    101  C   UNL A   1      51.570  25.865  26.965  1.00  0.00     0.059 A 
ATOM    102  F   UNL A   1      49.928  26.222  28.600  1.00  0.00    -0.206 F 
ATOM    103  C   UNL A   1      51.963  25.924  25.628  1.00  0.00     0.060 A 
BRANCH 103 104
ATOM    104  S   UNL A   1      53.604  25.354  25.137  1.00  0.00     0.124 S 
ATOM    105  O   UNL A   1      54.465  26.205  25.950  1.00  0.00    -0.237 OA
ATOM    106  O   UNL A   1      53.572  23.943  25.509  1.00  0.00    -0.237 OA
ATOM    107  O   UNL A   1      53.636  25.615  23.700  1.00  0.00    -0.744 OA
ENDBRANCH 103 104
ENDBRANCH  71  96
ENDBRANCH  45  46
ENDBRANCH  37  40
ENDBRANCH  35  36
ENDBRANCH  34  35
ENDBRANCH  33  34
ENDBRANCH   1  33
TORSDOF 22
ENDMDL
MODEL 2
REMARK VINA RESULT:     -11.5      5.925     10.322
REMARK SMILES COc1cccc(CC2(CO)CCN(c3nc(C)ccc3C(=O)NCCCCCCNC(=O)c3ccc(-c4c5nc(c(-c6c(F)cc(S(=O)(=O)[O-])cc6F)c6ccc([nH]6)c(-c6c(F)cc(S(=O)(=O)[O-])cc6F)c6nc(c(-c7c(F)cc(S(=O)(=O)[O-])cc7F)c7ccc4[nH]7)C=C6)C=C5)cc3)CC2)c1
REMARK SMILES IDX 27 1 26 2 25 3 24 4 22 5 23 6 21 8 15 9 16 10 17 11 20 12
REMARK SMILES IDX 18 13 19 14 14 15 9 16 12 17 101 18 13 19 100 20 8 21 7 22
REMARK SMILES IDX 3 23 4 24 102 25 5 26 6 27 2 28 1 29 10 30 11 31 28 33 29 34
REMARK SMILES IDX 30 35 31 36 32 37 33 39 34 40 35 41 99 42 36 43 98 44 37 45
REMARK SMILES IDX 38 46 39 47 92 48 40 49 97 50 91 51 93 52 41 53 96 54 90 55
REMARK SMILES IDX 89 56 42 58 76 59 55 60 75 61 56 62 59 63 74 64 94 65 57 66
REMARK SMILES IDX 58 67 73 69 95 70 60 71 43 72 44 73 53 74 45 75 46 76 52 77
REMARK SMILES IDX 54 78 47 79 48 80 49 81 50 82 51 83 77 84 78 85 87 86 79 87
REMARK SMILES IDX 80 88 86 89 88 90 81 91 82 92 83 93 84 94 85 95 61 96 62 97
REMARK SMILES IDX 71 98 63 99 64 100 70 101 72 102 65 103 66 104 67 105 68 106
REMARK SMILES IDX 69 107
REMARK H PARENT 24 7 11 32 31 38 93 57 59 68
REMARK Flexibility Score: inf
ROOT
ATOM      1  C   UNL A   1      34.920  30.439  27.952  1.00  0.00     0.002 C 
ENDROOT
BRANCH   1   2
ATOM      2  C   UNL A   1      33.773  29.902  27.079  1.00  0.00     0.021 C 
BRANCH   2   3
ATOM      3  C   UNL A   1      34.021  28.492  26.547  1.00  0.00     0.116 C 
BRANCH   3   4
ATOM      4  N   UNL A   1      34.225  28.512  25.115  1.00  0.00    -0.352 N 
ATOM      5  C   UNL A   1      33.449  28.604  23.988  1.00  0.00     0.255 C 
ATOM      6  O   UNL A   1      34.132  28.756  22.975  1.00  0.00    -0.269 OA
ATOM      7  H   UNL A   1      35.180  28.441  24.888  1.00  0.00     0.163 HD
BRANCH   5   8
ATOM      8  C   UNL A   1      31.948  28.625  23.925  1.00  0.00     0.082 A 
ATOM      9  C   UNL A   1      31.209  27.520  23.445  1.00  0.00     0.141 A 
ATOM     10  N   UNL A   1      29.913  27.667  23.039  1.00  0.00    -0.235 NA
ATOM     11  C   UNL A   1      29.284  28.849  23.184  1.00  0.00     0.040 A 
ATOM     12  C   UNL A   1      31.217  29.786  24.207  1.00  0.00     0.019 A 
ATOM     13  C   UNL A   1      27.890  28.938  22.646  1.00  0.00     0.067 C 
ATOM     14  C   UNL A   1      29.884  29.913  23.820  1.00  0.00     0.024 A 
BRANCH   9  15
ATOM     15  N   UNL A   1      31.621  26.205  23.381  1.00  0.00    -0.356 N 
ATOM     16  C   UNL A   1      32.890  23.567  23.447  1.00  0.00     0.001 C 
ATOM     17  C   UNL A   1      32.568  24.388  24.726  1.00  0.00     0.031 C 
ATOM     18  C   UNL A   1      32.913  24.501  22.208  1.00  0.00     0.031 C 
ATOM     19  C   UNL A   1      31.460  25.435  24.598  1.00  0.00     0.119 C 
ATOM     20  C   UNL A   1      31.752  25.490  22.124  1.00  0.00     0.119 C 
BRANCH  16  21
ATOM     21  C   UNL A   1      31.965  22.311  23.275  1.00  0.00     0.045 C 
BRANCH  21  22
ATOM     22  C   UNL A   1      32.367  20.981  23.865  1.00  0.00    -0.044 A 
ATOM     23  C   UNL A   1      32.834  18.610  23.613  1.00  0.00     0.119 A 
ATOM     24  C   UNL A   1      32.952  18.476  24.993  1.00  0.00     0.046 A 
ATOM     25  C   UNL A   1      32.532  19.852  23.047  1.00  0.00     0.050 A 
ATOM     26  C   UNL A   1      32.849  19.601  25.808  1.00  0.00     0.004 A 
ATOM     27  C   UNL A   1      32.586  20.850  25.244  1.00  0.00     0.004 A 
BRANCH  23  28
ATOM     28  O   UNL A   1      32.934  17.466  22.866  1.00  0.00    -0.497 OA
ATOM     29  C   UNL A   1      33.316  16.346  23.659  1.00  0.00     0.278 C 
ENDBRANCH  23  28
ENDBRANCH  21  22
ENDBRANCH  16  21
BRANCH  16  30
ATOM     30  C   UNL A   1      34.342  23.009  23.590  1.00  0.00     0.163 C 
BRANCH  30  31
ATOM     31  O   UNL A   1      35.202  23.465  22.551  1.00  0.00    -0.396 OA
ATOM     32  H   UNL A   1      35.947  22.850  22.456  1.00  0.00     0.210 HD
ENDBRANCH  30  31
ENDBRANCH  16  30
ENDBRANCH   9  15
ENDBRANCH   5   8
ENDBRANCH   3   4
ENDBRANCH   2   3
ENDBRANCH   1   2
BRANCH   1  33
ATOM     33  C   UNL A   1      35.013  31.967  28.049  1.00  0.00     0.002 C 
BRANCH  33  34
ATOM     34  C   UNL A   1      33.682  32.715  27.929  1.00  0.00     0.021 C 
BRANCH  34  35
ATOM     35  C   UNL A   1      33.815  34.211  27.665  1.00  0.00     0.116 C 
BRANCH  35  36
ATOM     36  N   UNL A   1      33.054  34.997  28.620  1.00  0.00    -0.352 N 
ATOM     37  C   UNL A   1      33.152  35.034  29.986  1.00  0.00     0.251 C 
ATOM     38  H   UNL A   1      32.368  35.586  28.231  1.00  0.00     0.163 HD
ATOM     39  O   UNL A   1      32.277  35.599  30.642  1.00  0.00    -0.269 OA
BRANCH  37  40
ATOM     40  C   UNL A   1      34.295  34.396  30.676  1.00  0.00     0.039 A 
ATOM     41  C   UNL A   1      35.589  34.828  30.372  1.00  0.00     0.014 A 
ATOM     42  C   UNL A   1      34.105  33.344  31.578  1.00  0.00     0.014 A 
ATOM     43  C   UNL A   1      36.688  34.223  30.987  1.00  0.00     0.010 A 
ATOM     44  C   UNL A   1      35.196  32.786  32.240  1.00  0.00     0.010 A 
ATOM     45  C   UNL A   1      36.500  33.204  31.934  1.00  0.00    -0.014 A 
BRANCH  45  46
ATOM     46  C   UNL A   1      37.664  32.547  32.583  1.00  0.00     0.031 A 
ATOM     47  C   UNL A   1      38.384  31.425  31.884  1.00  0.00     0.074 A 
ATOM     48  C   UNL A   1      38.045  32.932  33.815  1.00  0.00     0.049 A 
ATOM     49  N   UNL A   1      39.410  30.722  32.291  1.00  0.00    -0.248 NA
ATOM     50  C   UNL A   1      37.867  31.020  30.567  1.00  0.00     0.031 C 
ATOM     51  C   UNL A   1      37.386  33.961  34.621  1.00  0.00     0.029 A 
ATOM     52  N   UNL A   1      39.076  32.496  34.610  1.00  0.00    -0.354 N 
ATOM     53  C   UNL A   1      39.647  29.782  31.294  1.00  0.00     0.074 A 
ATOM     54  C   UNL A   1      38.628  29.972  30.286  1.00  0.00     0.031 C 
ATOM     55  C   UNL A   1      38.038  34.090  35.788  1.00  0.00     0.029 A 
ATOM     56  C   UNL A   1      39.147  33.141  35.822  1.00  0.00     0.049 A 
ATOM     57  H   UNL A   1      39.704  31.790  34.337  1.00  0.00     0.167 HD
ATOM     58  C   UNL A   1      40.636  28.859  31.216  1.00  0.00     0.037 A 
ATOM     59  C   UNL A   1      40.010  32.986  36.844  1.00  0.00     0.037 A 
ATOM     60  C   UNL A   1      41.670  28.701  32.205  1.00  0.00     0.049 A 
ATOM     61  C   UNL A   1      41.135  31.998  36.712  1.00  0.00     0.074 A 
ATOM     62  C   UNL A   1      42.763  27.853  32.181  1.00  0.00     0.029 A 
ATOM     63  N   UNL A   1      41.739  29.409  33.397  1.00  0.00    -0.354 N 
ATOM     64  N   UNL A   1      41.393  31.173  35.724  1.00  0.00    -0.248 NA
ATOM     65  C   UNL A   1      42.095  31.931  37.821  1.00  0.00     0.031 C 
ATOM     66  C   UNL A   1      43.474  28.022  33.376  1.00  0.00     0.029 A 
ATOM     67  C   UNL A   1      42.846  29.005  34.125  1.00  0.00     0.049 A 
ATOM     68  H   UNL A   1      41.094  30.096  33.684  1.00  0.00     0.167 HD
ATOM     69  C   UNL A   1      42.557  30.502  36.084  1.00  0.00     0.074 A 
ATOM     70  C   UNL A   1      42.960  31.029  37.372  1.00  0.00     0.031 C 
ATOM     71  C   UNL A   1      43.232  29.539  35.407  1.00  0.00     0.037 A 
BRANCH  58  72
ATOM     72  C   UNL A   1      40.644  27.951  30.017  1.00  0.00     0.058 A 
ATOM     73  C   UNL A   1      39.689  26.935  29.852  1.00  0.00     0.135 A 
ATOM     74  C   UNL A   1      41.612  28.106  29.012  1.00  0.00     0.135 A 
ATOM     75  F   UNL A   1      38.749  26.732  30.790  1.00  0.00    -0.206 F 
ATOM     76  C   UNL A   1      39.716  26.081  28.754  1.00  0.00     0.059 A 
ATOM     77  C   UNL A   1      41.641  27.281  27.890  1.00  0.00     0.059 A 
ATOM     78  F   UNL A   1      42.549  29.062  29.115  1.00  0.00    -0.206 F 
ATOM     79  C   UNL A   1      40.699  26.258  27.780  1.00  0.00     0.060 A 
BRANCH  79  80
ATOM     80  S   UNL A   1      40.732  25.136  26.368  1.00  0.00     0.124 S 
ATOM     81  O   UNL A   1      39.351  24.659  26.345  1.00  0.00    -0.237 OA
ATOM     82  O   UNL A   1      41.114  26.019  25.271  1.00  0.00    -0.237 OA
ATOM     83  O   UNL A   1      41.732  24.143  26.746  1.00  0.00    -0.744 OA
ENDBRANCH  79  80
ENDBRANCH  58  72
BRANCH  59  84
ATOM     84  C   UNL A   1      39.859  33.821  38.064  1.00  0.00     0.058 A 
ATOM     85  C   UNL A   1      39.020  33.422  39.115  1.00  0.00     0.135 A 
ATOM     86  C   UNL A   1      40.581  35.014  38.221  1.00  0.00     0.135 A 
ATOM     87  F   UNL A   1      38.305  32.291  39.009  1.00  0.00    -0.206 F 
ATOM     88  C   UNL A   1      38.897  34.178  40.276  1.00  0.00     0.059 A 
ATOM     89  C   UNL A   1      40.492  35.776  39.381  1.00  0.00     0.059 A 
ATOM     90  F   UNL A   1      41.411  35.429  37.251  1.00  0.00    -0.206 F 
ATOM     91  C   UNL A   1      39.641  35.351  40.402  1.00  0.00     0.060 A 
BRANCH  91  92
ATOM     92  S   UNL A   1      39.532  36.288  41.943  1.00  0.00     0.124 S 
ATOM     93  O   UNL A   1      38.391  35.653  42.592  1.00  0.00    -0.237 OA
ATOM     94  O   UNL A   1      40.835  36.036  42.550  1.00  0.00    -0.237 OA
ATOM     95  O   UNL A   1      39.318  37.658  41.486  1.00  0.00    -0.744 OA
ENDBRANCH  91  92
ENDBRANCH  59  84
BRANCH  71  96
ATOM     96  C   UNL A   1      44.488  29.010  36.038  1.00  0.00     0.058 A 
ATOM     97  C   UNL A   1      44.476  27.874  36.862  1.00  0.00     0.135 A 
ATOM     98  C   UNL A   1      45.725  29.624  35.785  1.00  0.00     0.135 A 
ATOM     99  F   UNL A   1      43.319  27.253  37.139  1.00  0.00    -0.206 F 
ATOM    100  C   UNL A   1      45.644  27.381  37.437  1.00  0.00     0.059 A 
ATOM    101  C   UNL A   1      46.908  29.135  36.329  1.00  0.00     0.059 A 
ATOM    102  F   UNL A   1      45.792  30.707  34.993  1.00  0.00    -0.206 F 
ATOM    103  C   UNL A   1      46.855  28.021  37.166  1.00  0.00     0.060 A 
BRANCH 103 104
ATOM    104  S   UNL A   1      48.367  27.365  37.903  1.00  0.00     0.124 S 
ATOM    105  O   UNL A   1      48.203  27.750  39.300  1.00  0.00    -0.237 OA
ATOM    106  O   UNL A   1      48.260  25.937  37.621  1.00  0.00    -0.237 OA
ATOM    107  O   UNL A   1      49.426  28.062  37.178  1.00  0.00    -0.744 OA
ENDBRANCH 103 104
ENDBRANCH  71  96
ENDBRANCH  45  46
ENDBRANCH  37  40
ENDBRANCH  35  36
ENDBRANCH  34  35
ENDBRANCH  33  34
ENDBRANCH   1  33
TORSDOF 22
ENDMDL
MODEL 3
REMARK VINA RESULT:     -11.4      5.898      8.033
REMARK SMILES COc1cccc(CC2(CO)CCN(c3nc(C)ccc3C(=O)NCCCCCCNC(=O)c3ccc(-c4c5nc(c(-c6c(F)cc(S(=O)(=O)[O-])cc6F)c6ccc([nH]6)c(-c6c(F)cc(S(=O)(=O)[O-])cc6F)c6nc(c(-c7c(F)cc(S(=O)(=O)[O-])cc7F)c7ccc4[nH]7)C=C6)C=C5)cc3)CC2)c1
REMARK SMILES IDX 27 1 26 2 25 3 24 4 22 5 23 6 21 8 15 9 16 10 17 11 20 12
REMARK SMILES IDX 18 13 19 14 14 15 9 16 12 17 101 18 13 19 100 20 8 21 7 22
REMARK SMILES IDX 3 23 4 24 102 25 5 26 6 27 2 28 1 29 10 30 11 31 28 33 29 34
REMARK SMILES IDX 30 35 31 36 32 37 33 39 34 40 35 41 99 42 36 43 98 44 37 45
REMARK SMILES IDX 38 46 39 47 92 48 40 49 97 50 91 51 93 52 41 53 96 54 90 55
REMARK SMILES IDX 89 56 42 58 76 59 55 60 75 61 56 62 59 63 74 64 94 65 57 66
REMARK SMILES IDX 58 67 73 69 95 70 60 71 43 72 44 73 53 74 45 75 46 76 52 77
REMARK SMILES IDX 54 78 47 79 48 80 49 81 50 82 51 83 77 84 78 85 87 86 79 87
REMARK SMILES IDX 80 88 86 89 88 90 81 91 82 92 83 93 84 94 85 95 61 96 62 97
REMARK SMILES IDX 71 98 63 99 64 100 70 101 72 102 65 103 66 104 67 105 68 106
REMARK SMILES IDX 69 107
REMARK H PARENT 24 7 11 32 31 38 93 57 59 68
REMARK Flexibility Score: inf
ROOT
ATOM      1  C   UNL A   1      34.865  30.911  27.875  1.00  0.00     0.002 C 
ENDROOT
BRANCH   1   2
ATOM      2  C   UNL A   1      33.584  30.351  27.233  1.00  0.00     0.021 C 
BRANCH   2   3
ATOM      3  C   UNL A   1      33.743  28.930  26.697  1.00  0.00     0.116 C 
BRANCH   3   4
ATOM      4  N   UNL A   1      33.926  28.940  25.262  1.00  0.00    -0.352 N 
ATOM      5  C   UNL A   1      33.132  28.988  24.145  1.00  0.00     0.255 C 
ATOM      6  O   UNL A   1      33.794  29.154  23.121  1.00  0.00    -0.269 OA
ATOM      7  H   UNL A   1      34.880  28.903  25.022  1.00  0.00     0.163 HD
BRANCH   5   8
ATOM      8  C   UNL A   1      31.630  28.951  24.104  1.00  0.00     0.082 A 
ATOM      9  C   UNL A   1      30.916  27.732  24.147  1.00  0.00     0.141 A 
ATOM     10  N   UNL A   1      29.614  27.668  23.739  1.00  0.00    -0.235 NA
ATOM     11  C   UNL A   1      28.956  28.788  23.381  1.00  0.00     0.040 A 
ATOM     12  C   UNL A   1      30.872  30.107  23.881  1.00  0.00     0.019 A 
ATOM     13  C   UNL A   1      27.557  28.613  22.879  1.00  0.00     0.067 C 
ATOM     14  C   UNL A   1      29.533  30.032  23.499  1.00  0.00     0.024 A 
BRANCH   9  15
ATOM     15  N   UNL A   1      31.360  26.522  24.637  1.00  0.00    -0.356 N 
ATOM     16  C   UNL A   1      32.061  23.763  25.324  1.00  0.00     0.001 C 
ATOM     17  C   UNL A   1      32.446  24.426  23.974  1.00  0.00     0.031 C 
ATOM     18  C   UNL A   1      30.895  24.545  25.987  1.00  0.00     0.031 C 
ATOM     19  C   UNL A   1      32.512  25.954  23.964  1.00  0.00     0.119 C 
ATOM     20  C   UNL A   1      31.052  26.064  25.980  1.00  0.00     0.119 C 
BRANCH  16  21
ATOM     21  C   UNL A   1      33.293  23.540  26.272  1.00  0.00     0.045 C 
BRANCH  21  22
ATOM     22  C   UNL A   1      34.615  23.078  25.708  1.00  0.00    -0.044 A 
ATOM     23  C   UNL A   1      36.141  21.293  25.090  1.00  0.00     0.119 A 
ATOM     24  C   UNL A   1      37.137  22.225  24.815  1.00  0.00     0.046 A 
ATOM     25  C   UNL A   1      34.888  21.711  25.545  1.00  0.00     0.050 A 
ATOM     26  C   UNL A   1      36.857  23.586  24.916  1.00  0.00     0.004 A 
ATOM     27  C   UNL A   1      35.594  24.009  25.333  1.00  0.00     0.004 A 
BRANCH  23  28
ATOM     28  O   UNL A   1      36.482  19.970  24.982  1.00  0.00    -0.497 OA
ATOM     29  C   UNL A   1      37.894  19.787  24.931  1.00  0.00     0.278 C 
ENDBRANCH  23  28
ENDBRANCH  21  22
ENDBRANCH  16  21
BRANCH  16  30
ATOM     30  C   UNL A   1      31.499  22.339  25.016  1.00  0.00     0.163 C 
BRANCH  30  31
ATOM     31  O   UNL A   1      30.864  21.750  26.145  1.00  0.00    -0.396 OA
ATOM     32  H   UNL A   1      31.471  21.121  26.565  1.00  0.00     0.210 HD
ENDBRANCH  30  31
ENDBRANCH  16  30
ENDBRANCH   9  15
ENDBRANCH   5   8
ENDBRANCH   3   4
ENDBRANCH   2   3
ENDBRANCH   1   2
BRANCH   1  33
ATOM     33  C   UNL A   1      34.940  32.440  27.969  1.00  0.00     0.002 C 
BRANCH  33  34
ATOM     34  C   UNL A   1      33.596  33.170  27.887  1.00  0.00     0.021 C 
BRANCH  34  35
ATOM     35  C   UNL A   1      33.695  34.691  27.912  1.00  0.00     0.116 C 
BRANCH  35  36
ATOM     36  N   UNL A   1      32.952  35.262  29.021  1.00  0.00    -0.352 N 
ATOM     37  C   UNL A   1      33.117  35.068  30.368  1.00  0.00     0.251 C 
ATOM     38  H   UNL A   1      32.223  35.875  28.771  1.00  0.00     0.163 HD
ATOM     39  O   UNL A   1      32.253  35.467  31.148  1.00  0.00    -0.269 OA
BRANCH  37  40
ATOM     40  C   UNL A   1      34.319  34.378  30.886  1.00  0.00     0.039 A 
ATOM     41  C   UNL A   1      34.151  33.223  31.655  1.00  0.00     0.014 A 
ATOM     42  C   UNL A   1      35.602  34.889  30.667  1.00  0.00     0.014 A 
ATOM     43  C   UNL A   1      35.267  32.569  32.182  1.00  0.00     0.010 A 
ATOM     44  C   UNL A   1      36.718  34.200  31.136  1.00  0.00     0.010 A 
ATOM     45  C   UNL A   1      36.561  33.046  31.917  1.00  0.00    -0.014 A 
BRANCH  45  46
ATOM     46  C   UNL A   1      37.752  32.363  32.485  1.00  0.00     0.031 A 
ATOM     47  C   UNL A   1      38.314  32.802  33.811  1.00  0.00     0.074 A 
ATOM     48  C   UNL A   1      38.350  31.378  31.789  1.00  0.00     0.049 A 
ATOM     49  N   UNL A   1      39.350  32.338  34.462  1.00  0.00    -0.248 NA
ATOM     50  C   UNL A   1      37.642  33.928  34.479  1.00  0.00     0.031 C 
ATOM     51  C   UNL A   1      37.939  30.909  30.465  1.00  0.00     0.029 A 
ATOM     52  N   UNL A   1      39.438  30.599  32.095  1.00  0.00    -0.354 N 
ATOM     53  C   UNL A   1      39.466  33.126  35.602  1.00  0.00     0.074 A 
ATOM     54  C   UNL A   1      38.425  34.128  35.529  1.00  0.00     0.031 C 
ATOM     55  C   UNL A   1      38.753  29.913  30.079  1.00  0.00     0.029 A 
ATOM     56  C   UNL A   1      39.754  29.685  31.118  1.00  0.00     0.049 A 
ATOM     57  H   UNL A   1      39.943  30.686  32.935  1.00  0.00     0.167 HD
ATOM     58  C   UNL A   1      40.346  33.011  36.627  1.00  0.00     0.037 A 
ATOM     59  C   UNL A   1      40.737  28.767  31.065  1.00  0.00     0.037 A 
ATOM     60  C   UNL A   1      41.354  31.988  36.711  1.00  0.00     0.049 A 
ATOM     61  C   UNL A   1      41.665  28.618  32.238  1.00  0.00     0.074 A 
ATOM     62  C   UNL A   1      42.241  31.735  37.743  1.00  0.00     0.029 A 
ATOM     63  N   UNL A   1      41.611  31.047  35.724  1.00  0.00    -0.354 N 
ATOM     64  N   UNL A   1      41.708  29.318  33.347  1.00  0.00    -0.248 NA
ATOM     65  C   UNL A   1      42.665  27.545  32.164  1.00  0.00     0.031 C 
ATOM     66  C   UNL A   1      43.058  30.663  37.365  1.00  0.00     0.029 A 
ATOM     67  C   UNL A   1      42.653  30.222  36.115  1.00  0.00     0.049 A 
ATOM     68  H   UNL A   1      41.124  30.977  34.871  1.00  0.00     0.167 HD
ATOM     69  C   UNL A   1      42.726  28.758  34.112  1.00  0.00     0.074 A 
ATOM     70  C   UNL A   1      43.262  27.652  33.344  1.00  0.00     0.031 C 
ATOM     71  C   UNL A   1      43.175  29.126  35.338  1.00  0.00     0.037 A 
BRANCH  58  72
ATOM     72  C   UNL A   1      40.251  34.021  37.738  1.00  0.00     0.058 A 
ATOM     73  C   UNL A   1      39.505  33.773  38.901  1.00  0.00     0.135 A 
ATOM     74  C   UNL A   1      40.927  35.249  37.645  1.00  0.00     0.135 A 
ATOM     75  F   UNL A   1      38.827  32.622  39.037  1.00  0.00    -0.206 F 
ATOM     76  C   UNL A   1      39.399  34.720  39.915  1.00  0.00     0.059 A 
ATOM     77  C   UNL A   1      40.858  36.200  38.661  1.00  0.00     0.059 A 
ATOM     78  F   UNL A   1      41.657  35.539  36.557  1.00  0.00    -0.206 F 
ATOM     79  C   UNL A   1      40.076  35.934  39.783  1.00  0.00     0.060 A 
BRANCH  79  80
ATOM     80  S   UNL A   1      39.920  37.159  41.099  1.00  0.00     0.124 S 
ATOM     81  O   UNL A   1      39.463  38.329  40.353  1.00  0.00    -0.237 OA
ATOM     82  O   UNL A   1      38.933  36.548  41.984  1.00  0.00    -0.237 OA
ATOM     83  O   UNL A   1      41.272  37.249  41.641  1.00  0.00    -0.744 OA
ENDBRANCH  79  80
ENDBRANCH  58  72
BRANCH  59  84
ATOM     84  C   UNL A   1      40.861  27.893  29.870  1.00  0.00     0.058 A 
ATOM     85  C   UNL A   1      41.934  28.036  28.978  1.00  0.00     0.135 A 
ATOM     86  C   UNL A   1      39.933  26.871  29.619  1.00  0.00     0.135 A 
ATOM     87  F   UNL A   1      42.844  29.002  29.173  1.00  0.00    -0.206 F 
ATOM     88  C   UNL A   1      42.079  27.202  27.874  1.00  0.00     0.059 A 
ATOM     89  C   UNL A   1      40.068  26.009  28.535  1.00  0.00     0.059 A 
ATOM     90  F   UNL A   1      38.899  26.682  30.454  1.00  0.00    -0.206 F 
ATOM     91  C   UNL A   1      41.144  26.187  27.664  1.00  0.00     0.060 A 
BRANCH  91  92
ATOM     92  S   UNL A   1      41.381  25.062  26.271  1.00  0.00     0.124 S 
ATOM     93  O   UNL A   1      40.343  24.067  26.517  1.00  0.00    -0.237 OA
ATOM     94  O   UNL A   1      41.165  25.941  25.126  1.00  0.00    -0.237 OA
ATOM     95  O   UNL A   1      42.755  24.600  26.445  1.00  0.00    -0.744 OA
ENDBRANCH  91  92
ENDBRANCH  59  84
BRANCH  71  96
ATOM     96  C   UNL A   1      44.286  28.310  35.935  1.00  0.00     0.058 A 
ATOM     97  C   UNL A   1      45.635  28.635  35.724  1.00  0.00     0.135 A 
ATOM     98  C   UNL A   1      43.997  27.210  36.760  1.00  0.00     0.135 A 
ATOM     99  F   UNL A   1      45.964  29.673  34.940  1.00  0.00    -0.206 F 
ATOM    100  C   UNL A   1      46.660  27.882  36.287  1.00  0.00     0.059 A 
ATOM    101  C   UNL A   1      45.005  26.458  37.353  1.00  0.00     0.059 A 
ATOM    102  F   UNL A   1      42.722  26.865  37.003  1.00  0.00    -0.206 F 
ATOM    103  C   UNL A   1      46.335  26.793  37.098  1.00  0.00     0.060 A 
BRANCH 103 104
ATOM    104  S   UNL A   1      47.672  25.831  37.837  1.00  0.00     0.124 S 
ATOM    105  O   UNL A   1      47.121  24.481  37.793  1.00  0.00    -0.237 OA
ATOM    106  O   UNL A   1      48.786  26.093  36.931  1.00  0.00    -0.237 OA
ATOM    107  O   UNL A   1      47.808  26.411  39.171  1.00  0.00    -0.744 OA
ENDBRANCH 103 104
ENDBRANCH  71  96
ENDBRANCH  45  46
ENDBRANCH  37  40
ENDBRANCH  35  36
ENDBRANCH  34  35
ENDBRANCH  33  34
ENDBRANCH   1  33
TORSDOF 22
ENDMDL
