MODEL 1
REMARK VINA RESULT:     -11.8      0.000      0.000
REMARK SMILES O=C(CSc1nnc(Cc2ccncc2)n1-c1ccccc1Cl)NCCCCCCNC(=O)c1ccc(-c2c3nc(c(-c4c(F)cc(S(=O)(=O)[O-])cc4F)c4ccc([nH]4)c(-c4c(F)cc(S(=O)(=O)[O-])cc4F)c4nc(c(-c5c(F)cc(S(=O)(=O)[O-])cc5F)c5ccc2[nH]5)C=C4)C=C3)cc1
REMARK SMILES IDX 27 1 26 2 25 3 24 4 1 5 2 6 3 8 4 9 5 10 6 11 16 12 7 13
REMARK SMILES IDX 8 14 17 15 18 16 22 17 19 18 21 19 23 20 20 21 9 22 10 23
REMARK SMILES IDX 11 24 15 25 12 26 14 27 13 28 28 29 29 30 30 31 31 32 32 33
REMARK SMILES IDX 33 35 34 36 35 37 99 38 36 39 98 40 37 41 38 42 39 43 92 44
REMARK SMILES IDX 40 45 97 46 91 47 93 48 41 49 96 50 90 51 89 52 42 54 76 55
REMARK SMILES IDX 55 56 75 57 56 58 59 59 74 60 94 61 57 62 58 63 73 65 95 66
REMARK SMILES IDX 60 67 43 68 44 69 53 70 45 71 46 72 52 73 54 74 47 75 48 76
REMARK SMILES IDX 49 77 50 78 51 79 77 80 78 81 87 82 79 83 80 84 86 85 88 86
REMARK SMILES IDX 81 87 82 88 83 89 84 90 85 91 61 92 62 93 71 94 63 95 64 96
REMARK SMILES IDX 70 97 72 98 65 99 66 100 67 101 68 102 69 103
REMARK H PARENT 24 7 31 34 93 53 59 64
REMARK Flexibility Score: inf
ROOT
ATOM      1  C   UNL A   1      40.458  22.205  26.742  1.00  0.00     0.002 C 
ENDROOT
BRANCH   1   2
ATOM      2  C   UNL A   1      39.229  21.501  26.150  1.00  0.00     0.021 C 
BRANCH   2   3
ATOM      3  C   UNL A   1      38.083  22.430  25.749  1.00  0.00     0.116 C 
BRANCH   3   4
ATOM      4  N   UNL A   1      36.794  21.845  26.053  1.00  0.00    -0.355 N 
ATOM      5  O   UNL A   1      35.837  22.226  23.997  1.00  0.00    -0.274 OA
ATOM      6  C   UNL A   1      35.760  21.803  25.147  1.00  0.00     0.230 C 
ATOM      7  H   UNL A   1      36.651  21.461  26.948  1.00  0.00     0.163 HD
BRANCH   6   8
ATOM      8  C   UNL A   1      34.454  21.298  25.720  1.00  0.00     0.178 C 
BRANCH   8   9
ATOM      9  S   UNL A   1      33.029  21.579  24.642  1.00  0.00    -0.076 SA
BRANCH   9  10
ATOM     10  C   UNL A   1      32.116  22.756  25.534  1.00  0.00     0.196 A 
ATOM     11  N   UNL A   1      31.680  22.577  26.759  1.00  0.00    -0.123 NA
ATOM     12  N   UNL A   1      32.030  24.094  25.195  1.00  0.00    -0.272 N 
ATOM     13  N   UNL A   1      31.308  23.800  27.257  1.00  0.00    -0.134 NA
ATOM     14  C   UNL A   1      31.529  24.712  26.328  1.00  0.00     0.142 A 
BRANCH  12  15
ATOM     15  C   UNL A   1      32.529  24.716  24.033  1.00  0.00     0.068 A 
ATOM     16  C   UNL A   1      31.741  24.696  22.873  1.00  0.00     0.028 A 
ATOM     17  C   UNL A   1      33.761  25.380  24.042  1.00  0.00     0.065 A 
ATOM     18  C   UNL A   1      32.178  25.371  21.733  1.00  0.00     0.002 A 
ATOM     19  C   UNL A   1      34.176  26.071  22.902  1.00  0.00     0.023 A 
ATOM     20  Cl  UNL A   1      34.874  25.268  25.354  1.00  0.00    -0.082 Cl
ATOM     21  C   UNL A   1      33.384  26.070  21.752  1.00  0.00     0.002 A 
ENDBRANCH  12  15
BRANCH  14  22
ATOM     22  C   UNL A   1      31.267  26.174  26.471  1.00  0.00     0.113 C 
BRANCH  22  23
ATOM     23  C   UNL A   1      30.523  26.773  25.301  1.00  0.00    -0.037 A 
ATOM     24  C   UNL A   1      31.034  27.888  24.629  1.00  0.00     0.024 A 
ATOM     25  C   UNL A   1      29.317  26.226  24.854  1.00  0.00     0.024 A 
ATOM     26  C   UNL A   1      30.338  28.389  23.540  1.00  0.00     0.111 A 
ATOM     27  C   UNL A   1      28.696  26.797  23.752  1.00  0.00     0.111 A 
ATOM     28  N   UNL A   1      29.187  27.856  23.076  1.00  0.00    -0.265 NA
ENDBRANCH  22  23
ENDBRANCH  14  22
ENDBRANCH   9  10
ENDBRANCH   8   9
ENDBRANCH   6   8
ENDBRANCH   3   4
ENDBRANCH   2   3
ENDBRANCH   1   2
BRANCH   1  29
ATOM     29  C   UNL A   1      41.274  21.407  27.769  1.00  0.00     0.002 C 
BRANCH  29  30
ATOM     30  C   UNL A   1      41.910  20.097  27.282  1.00  0.00     0.021 C 
BRANCH  30  31
ATOM     31  C   UNL A   1      41.992  19.970  25.770  1.00  0.00     0.116 C 
BRANCH  31  32
ATOM     32  N   UNL A   1      43.351  19.707  25.282  1.00  0.00    -0.352 N 
ATOM     33  C   UNL A   1      44.300  20.631  24.860  1.00  0.00     0.251 C 
ATOM     34  H   UNL A   1      43.624  18.762  25.249  1.00  0.00     0.163 HD
ATOM     35  O   UNL A   1      45.222  20.305  24.132  1.00  0.00    -0.269 OA
BRANCH  33  36
ATOM     36  C   UNL A   1      44.170  22.018  25.343  1.00  0.00     0.039 A 
ATOM     37  C   UNL A   1      43.370  22.979  24.715  1.00  0.00     0.014 A 
ATOM     38  C   UNL A   1      44.860  22.323  26.507  1.00  0.00     0.014 A 
ATOM     39  C   UNL A   1      43.236  24.228  25.322  1.00  0.00     0.010 A 
ATOM     40  C   UNL A   1      44.513  23.426  27.223  1.00  0.00     0.010 A 
ATOM     41  C   UNL A   1      43.810  24.434  26.584  1.00  0.00    -0.014 A 
BRANCH  41  42
ATOM     42  C   UNL A   1      43.657  25.671  27.333  1.00  0.00     0.031 A 
ATOM     43  C   UNL A   1      44.640  26.722  26.975  1.00  0.00     0.074 A 
ATOM     44  C   UNL A   1      42.546  25.919  28.064  1.00  0.00     0.049 A 
ATOM     45  N   UNL A   1      45.617  27.161  27.694  1.00  0.00    -0.248 NA
ATOM     46  C   UNL A   1      44.658  27.217  25.588  1.00  0.00     0.031 C 
ATOM     47  C   UNL A   1      41.340  25.089  28.220  1.00  0.00     0.029 A 
ATOM     48  N   UNL A   1      42.203  27.050  28.731  1.00  0.00    -0.354 N 
ATOM     49  C   UNL A   1      46.201  28.181  26.951  1.00  0.00     0.074 A 
ATOM     50  C   UNL A   1      45.739  28.001  25.601  1.00  0.00     0.031 C 
ATOM     51  C   UNL A   1      40.330  25.838  28.713  1.00  0.00     0.029 A 
ATOM     52  C   UNL A   1      40.853  27.141  29.069  1.00  0.00     0.049 A 
ATOM     53  H   UNL A   1      42.856  27.750  28.961  1.00  0.00     0.167 HD
ATOM     54  C   UNL A   1      46.789  29.247  27.564  1.00  0.00     0.037 A 
ATOM     55  C   UNL A   1      40.223  28.245  29.549  1.00  0.00     0.037 A 
ATOM     56  C   UNL A   1      47.005  28.978  28.968  1.00  0.00     0.049 A 
ATOM     57  C   UNL A   1      41.292  29.112  30.130  1.00  0.00     0.074 A 
ATOM     58  C   UNL A   1      47.673  27.990  29.667  1.00  0.00     0.029 A 
ATOM     59  N   UNL A   1      46.136  29.546  29.872  1.00  0.00    -0.354 N 
ATOM     60  N   UNL A   1      42.022  28.760  31.159  1.00  0.00    -0.248 NA
ATOM     61  C   UNL A   1      41.897  30.102  29.250  1.00  0.00     0.031 C 
ATOM     62  C   UNL A   1      46.812  27.672  30.759  1.00  0.00     0.029 A 
ATOM     63  C   UNL A   1      45.726  28.548  30.721  1.00  0.00     0.049 A 
ATOM     64  H   UNL A   1      45.861  30.491  29.903  1.00  0.00     0.167 HD
ATOM     65  C   UNL A   1      43.315  29.147  30.832  1.00  0.00     0.074 A 
ATOM     66  C   UNL A   1      43.165  30.015  29.664  1.00  0.00     0.031 C 
ATOM     67  C   UNL A   1      44.412  28.497  31.331  1.00  0.00     0.037 A 
BRANCH  54  68
ATOM     68  C   UNL A   1      46.816  30.650  27.004  1.00  0.00     0.058 A 
ATOM     69  C   UNL A   1      48.033  31.363  27.009  1.00  0.00     0.135 A 
ATOM     70  C   UNL A   1      45.664  31.419  26.720  1.00  0.00     0.135 A 
ATOM     71  F   UNL A   1      49.192  30.737  27.269  1.00  0.00    -0.206 F 
ATOM     72  C   UNL A   1      48.091  32.745  26.827  1.00  0.00     0.059 A 
ATOM     73  C   UNL A   1      45.707  32.787  26.479  1.00  0.00     0.059 A 
ATOM     74  F   UNL A   1      44.429  30.907  26.757  1.00  0.00    -0.206 F 
ATOM     75  C   UNL A   1      46.918  33.449  26.578  1.00  0.00     0.060 A 
BRANCH  75  76
ATOM     76  S   UNL A   1      46.976  35.243  26.443  1.00  0.00     0.124 S 
ATOM     77  O   UNL A   1      48.136  35.431  25.579  1.00  0.00    -0.237 OA
ATOM     78  O   UNL A   1      45.678  35.542  25.847  1.00  0.00    -0.237 OA
ATOM     79  O   UNL A   1      47.140  35.678  27.827  1.00  0.00    -0.744 OA
ENDBRANCH  75  76
ENDBRANCH  54  68
BRANCH  55  80
ATOM     80  C   UNL A   1      38.877  28.748  29.144  1.00  0.00     0.058 A 
ATOM     81  C   UNL A   1      37.828  28.890  30.071  1.00  0.00     0.135 A 
ATOM     82  C   UNL A   1      38.665  29.351  27.885  1.00  0.00     0.135 A 
ATOM     83  F   UNL A   1      37.945  28.372  31.303  1.00  0.00    -0.206 F 
ATOM     84  C   UNL A   1      36.661  29.614  29.781  1.00  0.00     0.059 A 
ATOM     85  C   UNL A   1      37.510  30.067  27.570  1.00  0.00     0.059 A 
ATOM     86  F   UNL A   1      39.615  29.338  26.939  1.00  0.00    -0.206 F 
ATOM     87  C   UNL A   1      36.519  30.216  28.530  1.00  0.00     0.060 A 
BRANCH  87  88
ATOM     88  S   UNL A   1      35.096  31.284  28.195  1.00  0.00     0.124 S 
ATOM     89  O   UNL A   1      34.655  31.633  29.542  1.00  0.00    -0.237 OA
ATOM     90  O   UNL A   1      35.695  32.365  27.420  1.00  0.00    -0.237 OA
ATOM     91  O   UNL A   1      34.189  30.414  27.450  1.00  0.00    -0.744 OA
ENDBRANCH  87  88
ENDBRANCH  55  80
BRANCH  67  92
ATOM     92  C   UNL A   1      44.233  27.488  32.442  1.00  0.00     0.058 A 
ATOM     93  C   UNL A   1      44.138  26.096  32.255  1.00  0.00     0.135 A 
ATOM     94  C   UNL A   1      44.362  27.937  33.765  1.00  0.00     0.135 A 
ATOM     95  F   UNL A   1      44.115  25.566  31.024  1.00  0.00    -0.206 F 
ATOM     96  C   UNL A   1      44.140  25.200  33.328  1.00  0.00     0.059 A 
ATOM     97  C   UNL A   1      44.398  27.063  34.849  1.00  0.00     0.059 A 
ATOM     98  F   UNL A   1      44.521  29.248  34.015  1.00  0.00    -0.206 F 
ATOM     99  C   UNL A   1      44.275  25.694  34.624  1.00  0.00     0.060 A 
BRANCH  99 100
ATOM    100  S   UNL A   1      44.351  24.536  36.009  1.00  0.00     0.124 S 
ATOM    101  O   UNL A   1      45.779  24.247  36.090  1.00  0.00    -0.237 OA
ATOM    102  O   UNL A   1      43.800  25.320  37.110  1.00  0.00    -0.237 OA
ATOM    103  O   UNL A   1      43.515  23.421  35.569  1.00  0.00    -0.744 OA
ENDBRANCH  99 100
ENDBRANCH  67  92
ENDBRANCH  41  42
ENDBRANCH  33  36
ENDBRANCH  31  32
ENDBRANCH  30  31
ENDBRANCH  29  30
ENDBRANCH   1  29
TORSDOF 21
ENDMDL
MODEL 2
REMARK VINA RESULT:     -11.6      2.018      3.572
REMARK SMILES O=C(CSc1nnc(Cc2ccncc2)n1-c1ccccc1Cl)NCCCCCCNC(=O)c1ccc(-c2c3nc(c(-c4c(F)cc(S(=O)(=O)[O-])cc4F)c4ccc([nH]4)c(-c4c(F)cc(S(=O)(=O)[O-])cc4F)c4nc(c(-c5c(F)cc(S(=O)(=O)[O-])cc5F)c5ccc2[nH]5)C=C4)C=C3)cc1
REMARK SMILES IDX 27 1 26 2 25 3 24 4 1 5 2 6 3 8 4 9 5 10 6 11 16 12 7 13
REMARK SMILES IDX 8 14 17 15 18 16 22 17 19 18 21 19 23 20 20 21 9 22 10 23
REMARK SMILES IDX 11 24 15 25 12 26 14 27 13 28 28 29 29 30 30 31 31 32 32 33
REMARK SMILES IDX 33 35 34 36 35 37 99 38 36 39 98 40 37 41 38 42 39 43 92 44
REMARK SMILES IDX 40 45 97 46 91 47 93 48 41 49 96 50 90 51 89 52 42 54 76 55
REMARK SMILES IDX 55 56 75 57 56 58 59 59 74 60 94 61 57 62 58 63 73 65 95 66
REMARK SMILES IDX 60 67 43 68 44 69 53 70 45 71 46 72 52 73 54 74 47 75 48 76
REMARK SMILES IDX 49 77 50 78 51 79 77 80 78 81 87 82 79 83 80 84 86 85 88 86
REMARK SMILES IDX 81 87 82 88 83 89 84 90 85 91 61 92 62 93 71 94 63 95 64 96
REMARK SMILES IDX 70 97 72 98 65 99 66 100 67 101 68 102 69 103
REMARK H PARENT 24 7 31 34 93 53 59 64
REMARK Flexibility Score: inf
ROOT
ATOM      1  C   UNL A   1      42.016  20.619  26.671  1.00  0.00     0.002 C 
ENDROOT
BRANCH   1   2
ATOM      2  C   UNL A   1      41.060  21.687  26.122  1.00  0.00     0.021 C 
BRANCH   2   3
ATOM      3  C   UNL A   1      39.595  21.511  26.521  1.00  0.00     0.116 C 
BRANCH   3   4
ATOM      4  N   UNL A   1      38.714  22.260  25.650  1.00  0.00    -0.355 N 
ATOM      5  O   UNL A   1      38.418  24.057  27.055  1.00  0.00    -0.274 OA
ATOM      6  C   UNL A   1      38.180  23.480  25.999  1.00  0.00     0.230 C 
ATOM      7  H   UNL A   1      38.487  21.881  24.772  1.00  0.00     0.163 HD
BRANCH   6   8
ATOM      8  C   UNL A   1      37.160  24.012  25.016  1.00  0.00     0.178 C 
BRANCH   8   9
ATOM      9  S   UNL A   1      35.452  23.878  25.598  1.00  0.00    -0.076 SA
BRANCH   9  10
ATOM     10  C   UNL A   1      35.001  22.289  25.062  1.00  0.00     0.196 A 
ATOM     11  N   UNL A   1      35.727  21.213  25.255  1.00  0.00    -0.123 NA
ATOM     12  N   UNL A   1      33.722  21.931  24.679  1.00  0.00    -0.272 N 
ATOM     13  N   UNL A   1      34.933  20.121  25.013  1.00  0.00    -0.134 NA
ATOM     14  C   UNL A   1      33.729  20.547  24.682  1.00  0.00     0.142 A 
BRANCH  12  15
ATOM     15  C   UNL A   1      32.607  22.780  24.520  1.00  0.00     0.068 A 
ATOM     16  C   UNL A   1      31.800  23.039  25.637  1.00  0.00     0.028 A 
ATOM     17  C   UNL A   1      32.334  23.389  23.290  1.00  0.00     0.065 A 
ATOM     18  C   UNL A   1      30.737  23.936  25.525  1.00  0.00     0.002 A 
ATOM     19  C   UNL A   1      31.282  24.302  23.196  1.00  0.00     0.023 A 
ATOM     20  Cl  UNL A   1      33.146  22.958  21.832  1.00  0.00    -0.082 Cl
ATOM     21  C   UNL A   1      30.488  24.578  24.312  1.00  0.00     0.002 A 
ENDBRANCH  12  15
BRANCH  14  22
ATOM     22  C   UNL A   1      32.563  19.676  24.348  1.00  0.00     0.113 C 
BRANCH  22  23
ATOM     23  C   UNL A   1      32.858  18.199  24.464  1.00  0.00    -0.037 A 
ATOM     24  C   UNL A   1      33.532  17.526  23.440  1.00  0.00     0.024 A 
ATOM     25  C   UNL A   1      32.478  17.472  25.596  1.00  0.00     0.024 A 
ATOM     26  C   UNL A   1      33.812  16.178  23.598  1.00  0.00     0.111 A 
ATOM     27  C   UNL A   1      32.808  16.126  25.662  1.00  0.00     0.111 A 
ATOM     28  N   UNL A   1      33.479  15.466  24.696  1.00  0.00    -0.265 NA
ENDBRANCH  22  23
ENDBRANCH  14  22
ENDBRANCH   9  10
ENDBRANCH   8   9
ENDBRANCH   6   8
ENDBRANCH   3   4
ENDBRANCH   2   3
ENDBRANCH   1   2
BRANCH   1  29
ATOM     29  C   UNL A   1      41.642  19.156  26.387  1.00  0.00     0.002 C 
BRANCH  29  30
ATOM     30  C   UNL A   1      42.799  18.185  26.115  1.00  0.00     0.021 C 
BRANCH  30  31
ATOM     31  C   UNL A   1      44.167  18.844  26.071  1.00  0.00     0.116 C 
BRANCH  31  32
ATOM     32  N   UNL A   1      44.732  18.919  24.719  1.00  0.00    -0.352 N 
ATOM     33  C   UNL A   1      44.798  20.025  23.880  1.00  0.00     0.251 C 
ATOM     34  H   UNL A   1      45.110  18.083  24.361  1.00  0.00     0.163 HD
ATOM     35  O   UNL A   1      44.926  19.900  22.674  1.00  0.00    -0.269 OA
BRANCH  33  36
ATOM     36  C   UNL A   1      44.734  21.362  24.501  1.00  0.00     0.039 A 
ATOM     37  C   UNL A   1      43.921  22.394  24.022  1.00  0.00     0.014 A 
ATOM     38  C   UNL A   1      45.505  21.539  25.641  1.00  0.00     0.014 A 
ATOM     39  C   UNL A   1      43.857  23.581  24.752  1.00  0.00     0.010 A 
ATOM     40  C   UNL A   1      45.232  22.574  26.480  1.00  0.00     0.010 A 
ATOM     41  C   UNL A   1      44.516  23.653  25.988  1.00  0.00    -0.014 A 
BRANCH  41  42
ATOM     42  C   UNL A   1      44.442  24.813  26.860  1.00  0.00     0.031 A 
ATOM     43  C   UNL A   1      45.465  25.848  26.579  1.00  0.00     0.074 A 
ATOM     44  C   UNL A   1      43.363  25.037  27.645  1.00  0.00     0.049 A 
ATOM     45  N   UNL A   1      46.481  26.167  27.308  1.00  0.00    -0.248 NA
ATOM     46  C   UNL A   1      45.473  26.479  25.247  1.00  0.00     0.031 C 
ATOM     47  C   UNL A   1      42.122  24.253  27.754  1.00  0.00     0.029 A 
ATOM     48  N   UNL A   1      43.093  26.110  28.431  1.00  0.00    -0.354 N 
ATOM     49  C   UNL A   1      47.095  27.229  26.652  1.00  0.00     0.074 A 
ATOM     50  C   UNL A   1      46.591  27.207  25.306  1.00  0.00     0.031 C 
ATOM     51  C   UNL A   1      41.163  24.994  28.349  1.00  0.00     0.029 A 
ATOM     52  C   UNL A   1      41.758  26.229  28.816  1.00  0.00     0.049 A 
ATOM     53  H   UNL A   1      43.785  26.753  28.709  1.00  0.00     0.167 HD
ATOM     54  C   UNL A   1      47.749  28.200  27.350  1.00  0.00     0.037 A 
ATOM     55  C   UNL A   1      41.195  27.306  29.422  1.00  0.00     0.037 A 
ATOM     56  C   UNL A   1      47.987  27.782  28.714  1.00  0.00     0.049 A 
ATOM     57  C   UNL A   1      42.319  28.061  30.054  1.00  0.00     0.074 A 
ATOM     58  C   UNL A   1      48.624  26.699  29.291  1.00  0.00     0.029 A 
ATOM     59  N   UNL A   1      47.170  28.295  29.695  1.00  0.00    -0.354 N 
ATOM     60  N   UNL A   1      43.056  27.575  31.021  1.00  0.00    -0.248 NA
ATOM     61  C   UNL A   1      42.949  29.106  29.258  1.00  0.00     0.031 C 
ATOM     62  C   UNL A   1      47.776  26.313  30.372  1.00  0.00     0.029 A 
ATOM     63  C   UNL A   1      46.734  27.238  30.453  1.00  0.00     0.049 A 
ATOM     64  H   UNL A   1      46.943  29.244  29.828  1.00  0.00     0.167 HD
ATOM     65  C   UNL A   1      44.359  27.932  30.695  1.00  0.00     0.074 A 
ATOM     66  C   UNL A   1      44.221  28.919  29.624  1.00  0.00     0.031 C 
ATOM     67  C   UNL A   1      45.434  27.186  31.094  1.00  0.00     0.037 A 
BRANCH  54  68
ATOM     68  C   UNL A   1      47.831  29.650  26.932  1.00  0.00     0.058 A 
ATOM     69  C   UNL A   1      49.062  30.327  27.055  1.00  0.00     0.135 A 
ATOM     70  C   UNL A   1      46.709  30.472  26.678  1.00  0.00     0.135 A 
ATOM     71  F   UNL A   1      50.195  29.649  27.298  1.00  0.00    -0.206 F 
ATOM     72  C   UNL A   1      49.157  31.718  27.011  1.00  0.00     0.059 A 
ATOM     73  C   UNL A   1      46.791  31.855  26.574  1.00  0.00     0.059 A 
ATOM     74  F   UNL A   1      45.462  29.991  26.615  1.00  0.00    -0.206 F 
ATOM     75  C   UNL A   1      48.011  32.473  26.785  1.00  0.00     0.060 A 
BRANCH  75  76
ATOM     76  S   UNL A   1      48.114  34.269  26.828  1.00  0.00     0.124 S 
ATOM     77  O   UNL A   1      47.568  34.623  25.523  1.00  0.00    -0.237 OA
ATOM     78  O   UNL A   1      47.279  34.591  27.981  1.00  0.00    -0.237 OA
ATOM     79  O   UNL A   1      49.542  34.519  27.007  1.00  0.00    -0.744 OA
ENDBRANCH  75  76
ENDBRANCH  54  68
BRANCH  55  80
ATOM     80  C   UNL A   1      39.865  27.909  29.109  1.00  0.00     0.058 A 
ATOM     81  C   UNL A   1      38.818  27.926  30.049  1.00  0.00     0.135 A 
ATOM     82  C   UNL A   1      39.674  28.720  27.969  1.00  0.00     0.135 A 
ATOM     83  F   UNL A   1      38.916  27.206  31.178  1.00  0.00    -0.206 F 
ATOM     84  C   UNL A   1      37.673  28.722  29.886  1.00  0.00     0.059 A 
ATOM     85  C   UNL A   1      38.541  29.512  27.780  1.00  0.00     0.059 A 
ATOM     86  F   UNL A   1      40.626  28.837  27.032  1.00  0.00    -0.206 F 
ATOM     87  C   UNL A   1      37.553  29.527  28.754  1.00  0.00     0.060 A 
BRANCH  87  88
ATOM     88  S   UNL A   1      36.162  30.677  28.605  1.00  0.00     0.124 S 
ATOM     89  O   UNL A   1      35.942  31.069  29.993  1.00  0.00    -0.237 OA
ATOM     90  O   UNL A   1      36.705  31.709  27.728  1.00  0.00    -0.237 OA
ATOM     91  O   UNL A   1      35.107  29.856  28.016  1.00  0.00    -0.744 OA
ENDBRANCH  87  88
ENDBRANCH  55  80
BRANCH  67  92
ATOM     92  C   UNL A   1      45.234  26.079  32.104  1.00  0.00     0.058 A 
ATOM     93  C   UNL A   1      44.835  24.767  31.789  1.00  0.00     0.135 A 
ATOM     94  C   UNL A   1      45.658  26.309  33.423  1.00  0.00     0.135 A 
ATOM     95  F   UNL A   1      44.513  24.427  30.534  1.00  0.00    -0.206 F 
ATOM     96  C   UNL A   1      44.827  23.744  32.742  1.00  0.00     0.059 A 
ATOM     97  C   UNL A   1      45.688  25.299  34.381  1.00  0.00     0.059 A 
ATOM     98  F   UNL A   1      46.113  27.522  33.779  1.00  0.00    -0.206 F 
ATOM     99  C   UNL A   1      45.260  24.020  34.038  1.00  0.00     0.060 A 
BRANCH  99 100
ATOM    100  S   UNL A   1      45.321  22.684  35.254  1.00  0.00     0.124 S 
ATOM    101  O   UNL A   1      44.842  23.348  36.462  1.00  0.00    -0.237 OA
ATOM    102  O   UNL A   1      44.420  21.690  34.679  1.00  0.00    -0.237 OA
ATOM    103  O   UNL A   1      46.730  22.301  35.271  1.00  0.00    -0.744 OA
ENDBRANCH  99 100
ENDBRANCH  67  92
ENDBRANCH  41  42
ENDBRANCH  33  36
ENDBRANCH  31  32
ENDBRANCH  30  31
ENDBRANCH  29  30
ENDBRANCH   1  29
TORSDOF 21
ENDMDL
MODEL 3
REMARK VINA RESULT:     -11.5      2.846      9.222
REMARK SMILES O=C(CSc1nnc(Cc2ccncc2)n1-c1ccccc1Cl)NCCCCCCNC(=O)c1ccc(-c2c3nc(c(-c4c(F)cc(S(=O)(=O)[O-])cc4F)c4ccc([nH]4)c(-c4c(F)cc(S(=O)(=O)[O-])cc4F)c4nc(c(-c5c(F)cc(S(=O)(=O)[O-])cc5F)c5ccc2[nH]5)C=C4)C=C3)cc1
REMARK SMILES IDX 27 1 26 2 25 3 24 4 1 5 2 6 3 8 4 9 5 10 6 11 16 12 7 13
REMARK SMILES IDX 8 14 17 15 18 16 22 17 19 18 21 19 23 20 20 21 9 22 10 23
REMARK SMILES IDX 11 24 15 25 12 26 14 27 13 28 28 29 29 30 30 31 31 32 32 33
REMARK SMILES IDX 33 35 34 36 35 37 99 38 36 39 98 40 37 41 38 42 39 43 92 44
REMARK SMILES IDX 40 45 97 46 91 47 93 48 41 49 96 50 90 51 89 52 42 54 76 55
REMARK SMILES IDX 55 56 75 57 56 58 59 59 74 60 94 61 57 62 58 63 73 65 95 66
REMARK SMILES IDX 60 67 43 68 44 69 53 70 45 71 46 72 52 73 54 74 47 75 48 76
REMARK SMILES IDX 49 77 50 78 51 79 77 80 78 81 87 82 79 83 80 84 86 85 88 86
REMARK SMILES IDX 81 87 82 88 83 89 84 90 85 91 61 92 62 93 71 94 63 95 64 96
REMARK SMILES IDX 70 97 72 98 65 99 66 100 67 101 68 102 69 103
REMARK H PARENT 24 7 31 34 93 53 59 64
REMARK Flexibility Score: inf
ROOT
ATOM      1  C   UNL A   1      32.480  28.679  27.279  1.00  0.00     0.002 C 
ENDROOT
BRANCH   1   2
ATOM      2  C   UNL A   1      32.472  27.375  26.470  1.00  0.00     0.021 C 
BRANCH   2   3
ATOM      3  C   UNL A   1      33.094  27.474  25.078  1.00  0.00     0.116 C 
BRANCH   3   4
ATOM      4  N   UNL A   1      32.780  26.313  24.273  1.00  0.00    -0.355 N 
ATOM      5  O   UNL A   1      33.570  27.149  22.281  1.00  0.00    -0.274 OA
ATOM      6  C   UNL A   1      33.033  26.251  22.921  1.00  0.00     0.230 C 
ATOM      7  H   UNL A   1      32.367  25.535  24.710  1.00  0.00     0.163 HD
BRANCH   6   8
ATOM      8  C   UNL A   1      32.481  25.015  22.245  1.00  0.00     0.178 C 
BRANCH   8   9
ATOM      9  S   UNL A   1      33.697  23.691  22.043  1.00  0.00    -0.076 SA
BRANCH   9  10
ATOM     10  C   UNL A   1      33.070  22.451  23.084  1.00  0.00     0.196 A 
ATOM     11  N   UNL A   1      32.053  21.679  22.782  1.00  0.00    -0.123 NA
ATOM     12  N   UNL A   1      33.750  21.929  24.169  1.00  0.00    -0.272 N 
ATOM     13  N   UNL A   1      32.050  20.623  23.658  1.00  0.00    -0.134 NA
ATOM     14  C   UNL A   1      33.073  20.763  24.481  1.00  0.00     0.142 A 
BRANCH  12  15
ATOM     15  C   UNL A   1      34.974  22.376  24.708  1.00  0.00     0.068 A 
ATOM     16  C   UNL A   1      36.165  21.846  24.191  1.00  0.00     0.028 A 
ATOM     17  C   UNL A   1      35.008  23.360  25.703  1.00  0.00     0.065 A 
ATOM     18  C   UNL A   1      37.390  22.328  24.652  1.00  0.00     0.002 A 
ATOM     19  C   UNL A   1      36.240  23.851  26.139  1.00  0.00     0.023 A 
ATOM     20  Cl  UNL A   1      33.598  23.903  26.530  1.00  0.00    -0.082 Cl
ATOM     21  C   UNL A   1      37.428  23.339  25.612  1.00  0.00     0.002 A 
ENDBRANCH  12  15
BRANCH  14  22
ATOM     22  C   UNL A   1      33.433  19.822  25.582  1.00  0.00     0.113 C 
BRANCH  22  23
ATOM     23  C   UNL A   1      33.458  18.373  25.156  1.00  0.00    -0.037 A 
ATOM     24  C   UNL A   1      34.377  17.929  24.200  1.00  0.00     0.024 A 
ATOM     25  C   UNL A   1      32.576  17.441  25.710  1.00  0.00     0.024 A 
ATOM     26  C   UNL A   1      34.390  16.586  23.859  1.00  0.00     0.111 A 
ATOM     27  C   UNL A   1      32.669  16.116  25.306  1.00  0.00     0.111 A 
ATOM     28  N   UNL A   1      33.565  15.665  24.405  1.00  0.00    -0.265 NA
ENDBRANCH  22  23
ENDBRANCH  14  22
ENDBRANCH   9  10
ENDBRANCH   8   9
ENDBRANCH   6   8
ENDBRANCH   3   4
ENDBRANCH   2   3
ENDBRANCH   1   2
BRANCH   1  29
ATOM     29  C   UNL A   1      33.756  29.531  27.191  1.00  0.00     0.002 C 
BRANCH  29  30
ATOM     30  C   UNL A   1      33.599  31.040  27.419  1.00  0.00     0.021 C 
BRANCH  30  31
ATOM     31  C   UNL A   1      34.825  31.712  28.014  1.00  0.00     0.116 C 
BRANCH  31  32
ATOM     32  N   UNL A   1      34.546  32.428  29.264  1.00  0.00    -0.352 N 
ATOM     33  C   UNL A   1      34.988  32.117  30.544  1.00  0.00     0.251 C 
ATOM     34  H   UNL A   1      33.976  33.227  29.187  1.00  0.00     0.163 HD
ATOM     35  O   UNL A   1      34.407  32.528  31.534  1.00  0.00    -0.269 OA
BRANCH  33  36
ATOM     36  C   UNL A   1      36.203  31.289  30.668  1.00  0.00     0.039 A 
ATOM     37  C   UNL A   1      36.178  29.893  30.753  1.00  0.00     0.014 A 
ATOM     38  C   UNL A   1      37.409  31.976  30.651  1.00  0.00     0.014 A 
ATOM     39  C   UNL A   1      37.393  29.207  30.757  1.00  0.00     0.010 A 
ATOM     40  C   UNL A   1      38.560  31.302  30.382  1.00  0.00     0.010 A 
ATOM     41  C   UNL A   1      38.579  29.929  30.562  1.00  0.00    -0.014 A 
BRANCH  41  42
ATOM     42  C   UNL A   1      39.885  29.297  30.468  1.00  0.00     0.031 A 
ATOM     43  C   UNL A   1      40.565  29.113  31.773  1.00  0.00     0.074 A 
ATOM     44  C   UNL A   1      40.291  28.683  29.333  1.00  0.00     0.049 A 
ATOM     45  N   UNL A   1      41.609  29.733  32.209  1.00  0.00    -0.248 NA
ATOM     46  C   UNL A   1      39.905  28.277  32.792  1.00  0.00     0.031 C 
ATOM     47  C   UNL A   1      39.557  28.501  28.070  1.00  0.00     0.029 A 
ATOM     48  N   UNL A   1      41.422  27.967  29.113  1.00  0.00    -0.354 N 
ATOM     49  C   UNL A   1      41.894  29.164  33.446  1.00  0.00     0.074 A 
ATOM     50  C   UNL A   1      40.699  28.473  33.848  1.00  0.00     0.031 C 
ATOM     51  C   UNL A   1      40.147  27.535  27.334  1.00  0.00     0.029 A 
ATOM     52  C   UNL A   1      41.385  27.153  27.981  1.00  0.00     0.049 A 
ATOM     53  H   UNL A   1      42.208  28.019  29.703  1.00  0.00     0.167 HD
ATOM     54  C   UNL A   1      43.176  29.077  33.899  1.00  0.00     0.037 A 
ATOM     55  C   UNL A   1      42.294  26.197  27.656  1.00  0.00     0.037 A 
ATOM     56  C   UNL A   1      44.055  29.923  33.122  1.00  0.00     0.049 A 
ATOM     57  C   UNL A   1      43.543  26.542  28.398  1.00  0.00     0.074 A 
ATOM     58  C   UNL A   1      44.072  31.272  32.819  1.00  0.00     0.029 A 
ATOM     59  N   UNL A   1      44.854  29.322  32.176  1.00  0.00    -0.354 N 
ATOM     60  N   UNL A   1      44.228  27.637  28.180  1.00  0.00    -0.248 NA
ATOM     61  C   UNL A   1      43.716  25.955  29.720  1.00  0.00     0.031 C 
ATOM     62  C   UNL A   1      44.427  31.329  31.438  1.00  0.00     0.029 A 
ATOM     63  C   UNL A   1      44.703  30.030  31.010  1.00  0.00     0.049 A 
ATOM     64  H   UNL A   1      45.427  28.533  32.312  1.00  0.00     0.167 HD
ATOM     65  C   UNL A   1      44.572  28.104  29.442  1.00  0.00     0.074 A 
ATOM     66  C   UNL A   1      44.271  26.996  30.349  1.00  0.00     0.031 C 
ATOM     67  C   UNL A   1      44.776  29.435  29.690  1.00  0.00     0.037 A 
BRANCH  54  68
ATOM     68  C   UNL A   1      43.704  27.962  34.771  1.00  0.00     0.058 A 
ATOM     69  C   UNL A   1      44.405  28.291  35.950  1.00  0.00     0.135 A 
ATOM     70  C   UNL A   1      43.794  26.609  34.370  1.00  0.00     0.135 A 
ATOM     71  F   UNL A   1      44.393  29.546  36.426  1.00  0.00    -0.206 F 
ATOM     72  C   UNL A   1      45.198  27.367  36.631  1.00  0.00     0.059 A 
ATOM     73  C   UNL A   1      44.533  25.659  35.066  1.00  0.00     0.059 A 
ATOM     74  F   UNL A   1      43.254  26.157  33.233  1.00  0.00    -0.206 F 
ATOM     75  C   UNL A   1      45.267  26.057  36.169  1.00  0.00     0.060 A 
BRANCH  75  76
ATOM     76  S   UNL A   1      46.367  24.890  36.986  1.00  0.00     0.124 S 
ATOM     77  O   UNL A   1      47.361  24.651  35.945  1.00  0.00    -0.237 OA
ATOM     78  O   UNL A   1      46.819  25.660  38.140  1.00  0.00    -0.237 OA
ATOM     79  O   UNL A   1      45.491  23.763  37.295  1.00  0.00    -0.744 OA
ENDBRANCH  75  76
ENDBRANCH  54  68
BRANCH  55  80
ATOM     80  C   UNL A   1      41.998  24.834  27.120  1.00  0.00     0.058 A 
ATOM     81  C   UNL A   1      42.893  24.163  26.266  1.00  0.00     0.135 A 
ATOM     82  C   UNL A   1      40.949  24.049  27.644  1.00  0.00     0.135 A 
ATOM     83  F   UNL A   1      43.938  24.818  25.737  1.00  0.00    -0.206 F 
ATOM     84  C   UNL A   1      42.775  22.793  25.980  1.00  0.00     0.059 A 
ATOM     85  C   UNL A   1      40.806  22.689  27.367  1.00  0.00     0.059 A 
ATOM     86  F   UNL A   1      40.069  24.559  28.518  1.00  0.00    -0.206 F 
ATOM     87  C   UNL A   1      41.736  22.060  26.552  1.00  0.00     0.060 A 
BRANCH  87  88
ATOM     88  S   UNL A   1      41.661  20.265  26.322  1.00  0.00     0.124 S 
ATOM     89  O   UNL A   1      42.027  19.774  27.647  1.00  0.00    -0.237 OA
ATOM     90  O   UNL A   1      40.272  20.061  25.927  1.00  0.00    -0.237 OA
ATOM     91  O   UNL A   1      42.647  20.018  25.273  1.00  0.00    -0.744 OA
ENDBRANCH  87  88
ENDBRANCH  55  80
BRANCH  67  92
ATOM     92  C   UNL A   1      44.861  30.400  28.529  1.00  0.00     0.058 A 
ATOM     93  C   UNL A   1      43.752  30.957  27.865  1.00  0.00     0.135 A 
ATOM     94  C   UNL A   1      46.120  30.931  28.208  1.00  0.00     0.135 A 
ATOM     95  F   UNL A   1      42.503  30.588  28.180  1.00  0.00    -0.206 F 
ATOM     96  C   UNL A   1      43.890  31.969  26.910  1.00  0.00     0.059 A 
ATOM     97  C   UNL A   1      46.279  31.960  27.283  1.00  0.00     0.059 A 
ATOM     98  F   UNL A   1      47.216  30.492  28.848  1.00  0.00    -0.206 F 
ATOM     99  C   UNL A   1      45.160  32.468  26.628  1.00  0.00     0.060 A 
BRANCH  99 100
ATOM    100  S   UNL A   1      45.336  33.825  25.447  1.00  0.00     0.124 S 
ATOM    101  O   UNL A   1      44.679  33.286  24.261  1.00  0.00    -0.237 OA
ATOM    102  O   UNL A   1      44.639  34.919  26.116  1.00  0.00    -0.237 OA
ATOM    103  O   UNL A   1      46.783  33.994  25.334  1.00  0.00    -0.744 OA
ENDBRANCH  99 100
ENDBRANCH  67  92
ENDBRANCH  41  42
ENDBRANCH  33  36
ENDBRANCH  31  32
ENDBRANCH  30  31
ENDBRANCH  29  30
ENDBRANCH   1  29
TORSDOF 21
ENDMDL
