MODEL 1
REMARK VINA RESULT:     -10.9      0.000      0.000
REMARK SMILES O=C(COc1ccc2c(c1)O/C(=C\c1cccs1)C2=O)NCCCCCCNC(=O)c1ccc(-c2c3nc(c(-c4c(F)cc(S(=O)(=O)[O-])cc4F)c4ccc([nH]4)c(-c4c(F)cc(S(=O)(=O)[O-])cc4F)c4nc(c(-c5c(F)cc(S(=O)(=O)[O-])cc5F)c5ccc2[nH]5)C=C4)C=C3)cc1
REMARK SMILES IDX 24 1 23 2 22 3 21 4 1 5 2 6 3 8 4 9 5 10 6 11 10 12 7 13
REMARK SMILES IDX 9 14 8 15 11 16 19 17 12 18 20 19 13 20 14 21 15 22 18 23
REMARK SMILES IDX 16 24 17 25 25 26 26 27 27 28 28 29 29 30 30 32 31 33 32 34
REMARK SMILES IDX 96 35 33 36 95 37 34 38 35 39 36 40 89 41 37 42 94 43 88 44
REMARK SMILES IDX 90 45 38 46 93 47 87 48 86 49 39 51 73 52 52 53 72 54 53 55
REMARK SMILES IDX 56 56 71 57 91 58 54 59 55 60 70 62 92 63 57 64 40 65 41 66
REMARK SMILES IDX 50 67 42 68 43 69 49 70 51 71 44 72 45 73 46 74 47 75 48 76
REMARK SMILES IDX 74 77 75 78 84 79 76 80 77 81 83 82 85 83 78 84 79 85 80 86
REMARK SMILES IDX 81 87 82 88 58 89 59 90 68 91 60 92 61 93 67 94 69 95 62 96
REMARK SMILES IDX 63 97 64 98 65 99 66 100
REMARK H PARENT 21 7 28 31 90 50 56 61
REMARK Flexibility Score: inf
ROOT
ATOM      1  C   UNL A   1      44.406  23.517  28.017  1.00  0.00     0.002 C 
ENDROOT
BRANCH   1   2
ATOM      2  C   UNL A   1      43.050  22.826  27.831  1.00  0.00     0.021 C 
BRANCH   2   3
ATOM      3  C   UNL A   1      42.933  22.001  26.554  1.00  0.00     0.116 C 
BRANCH   3   4
ATOM      4  N   UNL A   1      41.578  21.980  26.046  1.00  0.00    -0.353 N 
ATOM      5  O   UNL A   1      40.775  20.336  27.447  1.00  0.00    -0.271 OA
ATOM      6  C   UNL A   1      40.586  21.186  26.583  1.00  0.00     0.257 C 
ATOM      7  H   UNL A   1      41.354  22.559  25.283  1.00  0.00     0.163 HD
BRANCH   6   8
ATOM      8  C   UNL A   1      39.203  21.456  25.988  1.00  0.00     0.329 C 
BRANCH   8   9
ATOM      9  O   UNL A   1      38.690  22.765  26.249  1.00  0.00    -0.484 OA
BRANCH   9  10
ATOM     10  C   UNL A   1      37.585  23.061  25.492  1.00  0.00     0.123 A 
ATOM     11  C   UNL A   1      37.241  22.292  24.359  1.00  0.00     0.047 A 
ATOM     12  C   UNL A   1      36.747  24.079  25.954  1.00  0.00     0.094 A 
ATOM     13  C   UNL A   1      36.063  22.540  23.652  1.00  0.00     0.020 A 
ATOM     14  C   UNL A   1      35.590  24.315  25.241  1.00  0.00     0.142 A 
ATOM     15  C   UNL A   1      35.259  23.554  24.122  1.00  0.00     0.069 A 
ATOM     16  O   UNL A   1      34.647  25.269  25.539  1.00  0.00    -0.452 OA
ATOM     17  C   UNL A   1      33.965  24.022  23.643  1.00  0.00     0.232 C 
ATOM     18  C   UNL A   1      33.635  25.109  24.597  1.00  0.00     0.176 C 
ATOM     19  O   UNL A   1      33.329  23.618  22.694  1.00  0.00    -0.285 OA
ATOM     20  C   UNL A   1      32.486  25.796  24.549  1.00  0.00     0.070 C 
BRANCH  20  21
ATOM     21  C   UNL A   1      32.219  26.846  25.465  1.00  0.00     0.031 A 
ATOM     22  C   UNL A   1      31.434  26.835  26.605  1.00  0.00     0.020 A 
ATOM     23  S   UNL A   1      32.928  28.393  25.232  1.00  0.00    -0.144 S 
ATOM     24  C   UNL A   1      31.383  28.098  27.258  1.00  0.00     0.012 A 
ATOM     25  C   UNL A   1      32.138  29.043  26.600  1.00  0.00     0.065 A 
ENDBRANCH  20  21
ENDBRANCH   9  10
ENDBRANCH   8   9
ENDBRANCH   6   8
ENDBRANCH   3   4
ENDBRANCH   2   3
ENDBRANCH   1   2
BRANCH   1  26
ATOM     26  C   UNL A   1      45.442  23.246  26.920  1.00  0.00     0.002 C 
BRANCH  26  27
ATOM     27  C   UNL A   1      45.580  24.346  25.866  1.00  0.00     0.021 C 
BRANCH  27  28
ATOM     28  C   UNL A   1      44.769  25.607  26.144  1.00  0.00     0.116 C 
BRANCH  28  29
ATOM     29  N   UNL A   1      43.542  25.663  25.362  1.00  0.00    -0.352 N 
ATOM     30  C   UNL A   1      42.297  26.107  25.739  1.00  0.00     0.251 C 
ATOM     31  H   UNL A   1      43.614  25.338  24.436  1.00  0.00     0.163 HD
ATOM     32  O   UNL A   1      41.329  25.925  25.007  1.00  0.00    -0.269 OA
BRANCH  30  33
ATOM     33  C   UNL A   1      42.128  26.783  27.044  1.00  0.00     0.039 A 
ATOM     34  C   UNL A   1      42.679  28.053  27.230  1.00  0.00     0.014 A 
ATOM     35  C   UNL A   1      41.406  26.172  28.073  1.00  0.00     0.014 A 
ATOM     36  C   UNL A   1      42.443  28.741  28.425  1.00  0.00     0.010 A 
ATOM     37  C   UNL A   1      41.109  26.888  29.228  1.00  0.00     0.010 A 
ATOM     38  C   UNL A   1      41.623  28.180  29.418  1.00  0.00    -0.014 A 
BRANCH  38  39
ATOM     39  C   UNL A   1      41.284  28.923  30.661  1.00  0.00     0.031 A 
ATOM     40  C   UNL A   1      40.113  29.872  30.672  1.00  0.00     0.074 A 
ATOM     41  C   UNL A   1      42.074  28.810  31.749  1.00  0.00     0.049 A 
ATOM     42  N   UNL A   1      39.724  30.692  31.614  1.00  0.00    -0.248 NA
ATOM     43  C   UNL A   1      39.286  29.926  29.455  1.00  0.00     0.031 C 
ATOM     44  C   UNL A   1      43.259  27.952  31.850  1.00  0.00     0.029 A 
ATOM     45  N   UNL A   1      42.014  29.431  32.973  1.00  0.00    -0.354 N 
ATOM     46  C   UNL A   1      38.630  31.376  31.096  1.00  0.00     0.074 A 
ATOM     47  C   UNL A   1      38.436  30.901  29.744  1.00  0.00     0.031 C 
ATOM     48  C   UNL A   1      43.802  28.091  33.071  1.00  0.00     0.029 A 
ATOM     49  C   UNL A   1      43.038  29.082  33.824  1.00  0.00     0.049 A 
ATOM     50  H   UNL A   1      41.304  30.067  33.218  1.00  0.00     0.167 HD
ATOM     51  C   UNL A   1      37.851  32.302  31.700  1.00  0.00     0.037 A 
ATOM     52  C   UNL A   1      43.341  29.525  35.061  1.00  0.00     0.037 A 
ATOM     53  C   UNL A   1      38.025  32.737  33.061  1.00  0.00     0.049 A 
ATOM     54  C   UNL A   1      42.458  30.567  35.701  1.00  0.00     0.074 A 
ATOM     55  C   UNL A   1      37.234  33.609  33.788  1.00  0.00     0.029 A 
ATOM     56  N   UNL A   1      39.058  32.342  33.898  1.00  0.00    -0.354 N 
ATOM     57  N   UNL A   1      41.380  31.141  35.224  1.00  0.00    -0.248 NA
ATOM     58  C   UNL A   1      42.832  31.021  37.049  1.00  0.00     0.031 C 
ATOM     59  C   UNL A   1      37.823  33.791  35.042  1.00  0.00     0.029 A 
ATOM     60  C   UNL A   1      38.942  32.978  35.121  1.00  0.00     0.049 A 
ATOM     61  H   UNL A   1      39.767  31.703  33.657  1.00  0.00     0.167 HD
ATOM     62  C   UNL A   1      40.923  31.987  36.231  1.00  0.00     0.074 A 
ATOM     63  C   UNL A   1      41.837  31.846  37.343  1.00  0.00     0.031 C 
ATOM     64  C   UNL A   1      39.842  32.805  36.234  1.00  0.00     0.037 A 
BRANCH  51  65
ATOM     65  C   UNL A   1      36.733  32.923  30.909  1.00  0.00     0.058 A 
ATOM     66  C   UNL A   1      35.388  32.609  31.156  1.00  0.00     0.135 A 
ATOM     67  C   UNL A   1      37.009  33.922  29.961  1.00  0.00     0.135 A 
ATOM     68  F   UNL A   1      35.066  31.651  32.038  1.00  0.00    -0.206 F 
ATOM     69  C   UNL A   1      34.356  33.262  30.489  1.00  0.00     0.059 A 
ATOM     70  C   UNL A   1      35.993  34.607  29.304  1.00  0.00     0.059 A 
ATOM     71  F   UNL A   1      38.280  34.257  29.684  1.00  0.00    -0.206 F 
ATOM     72  C   UNL A   1      34.669  34.268  29.572  1.00  0.00     0.060 A 
BRANCH  72  73
ATOM     73  S   UNL A   1      33.315  35.145  28.762  1.00  0.00     0.124 S 
ATOM     74  O   UNL A   1      32.720  34.084  27.957  1.00  0.00    -0.237 OA
ATOM     75  O   UNL A   1      32.519  35.602  29.896  1.00  0.00    -0.237 OA
ATOM     76  O   UNL A   1      33.992  36.198  28.010  1.00  0.00    -0.744 OA
ENDBRANCH  72  73
ENDBRANCH  51  65
BRANCH  52  77
ATOM     77  C   UNL A   1      44.532  29.001  35.787  1.00  0.00     0.058 A 
ATOM     78  C   UNL A   1      44.419  27.920  36.676  1.00  0.00     0.135 A 
ATOM     79  C   UNL A   1      45.795  29.599  35.648  1.00  0.00     0.135 A 
ATOM     80  F   UNL A   1      43.235  27.315  36.849  1.00  0.00    -0.206 F 
ATOM     81  C   UNL A   1      45.499  27.482  37.435  1.00  0.00     0.059 A 
ATOM     82  C   UNL A   1      46.898  29.156  36.371  1.00  0.00     0.059 A 
ATOM     83  F   UNL A   1      45.966  30.624  34.799  1.00  0.00    -0.206 F 
ATOM     84  C   UNL A   1      46.736  28.112  37.280  1.00  0.00     0.060 A 
BRANCH  84  85
ATOM     85  S   UNL A   1      48.129  27.544  38.277  1.00  0.00     0.124 S 
ATOM     86  O   UNL A   1      48.066  28.455  39.414  1.00  0.00    -0.237 OA
ATOM     87  O   UNL A   1      47.765  26.157  38.550  1.00  0.00    -0.237 OA
ATOM     88  O   UNL A   1      49.272  27.722  37.388  1.00  0.00    -0.744 OA
ENDBRANCH  84  85
ENDBRANCH  52  77
BRANCH  64  89
ATOM     89  C   UNL A   1      39.539  33.567  37.495  1.00  0.00     0.058 A 
ATOM     90  C   UNL A   1      38.666  33.070  38.474  1.00  0.00     0.135 A 
ATOM     91  C   UNL A   1      40.198  34.780  37.759  1.00  0.00     0.135 A 
ATOM     92  F   UNL A   1      38.006  31.919  38.270  1.00  0.00    -0.206 F 
ATOM     93  C   UNL A   1      38.442  33.757  39.663  1.00  0.00     0.059 A 
ATOM     94  C   UNL A   1      40.014  35.467  38.954  1.00  0.00     0.059 A 
ATOM     95  F   UNL A   1      41.051  35.296  36.860  1.00  0.00    -0.206 F 
ATOM     96  C   UNL A   1      39.127  34.951  39.897  1.00  0.00     0.060 A 
BRANCH  96  97
ATOM     97  S   UNL A   1      38.869  35.802  41.468  1.00  0.00     0.124 S 
ATOM     98  O   UNL A   1      38.935  37.202  41.059  1.00  0.00    -0.237 OA
ATOM     99  O   UNL A   1      37.553  35.320  41.870  1.00  0.00    -0.237 OA
ATOM    100  O   UNL A   1      39.981  35.338  42.294  1.00  0.00    -0.744 OA
ENDBRANCH  96  97
ENDBRANCH  64  89
ENDBRANCH  38  39
ENDBRANCH  30  33
ENDBRANCH  28  29
ENDBRANCH  27  28
ENDBRANCH  26  27
ENDBRANCH   1  26
TORSDOF 19
ENDMDL
MODEL 2
REMARK VINA RESULT:     -10.6      2.082      3.027
REMARK SMILES O=C(COc1ccc2c(c1)O/C(=C\c1cccs1)C2=O)NCCCCCCNC(=O)c1ccc(-c2c3nc(c(-c4c(F)cc(S(=O)(=O)[O-])cc4F)c4ccc([nH]4)c(-c4c(F)cc(S(=O)(=O)[O-])cc4F)c4nc(c(-c5c(F)cc(S(=O)(=O)[O-])cc5F)c5ccc2[nH]5)C=C4)C=C3)cc1
REMARK SMILES IDX 24 1 23 2 22 3 21 4 1 5 2 6 3 8 4 9 5 10 6 11 10 12 7 13
REMARK SMILES IDX 9 14 8 15 11 16 19 17 12 18 20 19 13 20 14 21 15 22 18 23
REMARK SMILES IDX 16 24 17 25 25 26 26 27 27 28 28 29 29 30 30 32 31 33 32 34
REMARK SMILES IDX 96 35 33 36 95 37 34 38 35 39 36 40 89 41 37 42 94 43 88 44
REMARK SMILES IDX 90 45 38 46 93 47 87 48 86 49 39 51 73 52 52 53 72 54 53 55
REMARK SMILES IDX 56 56 71 57 91 58 54 59 55 60 70 62 92 63 57 64 40 65 41 66
REMARK SMILES IDX 50 67 42 68 43 69 49 70 51 71 44 72 45 73 46 74 47 75 48 76
REMARK SMILES IDX 74 77 75 78 84 79 76 80 77 81 83 82 85 83 78 84 79 85 80 86
REMARK SMILES IDX 81 87 82 88 58 89 59 90 68 91 60 92 61 93 67 94 69 95 62 96
REMARK SMILES IDX 63 97 64 98 65 99 66 100
REMARK H PARENT 21 7 28 31 90 50 56 61
REMARK Flexibility Score: inf
ROOT
ATOM      1  C   UNL A   1      44.519  23.778  28.310  1.00  0.00     0.002 C 
ENDROOT
BRANCH   1   2
ATOM      2  C   UNL A   1      43.145  23.345  27.782  1.00  0.00     0.021 C 
BRANCH   2   3
ATOM      3  C   UNL A   1      43.198  22.453  26.546  1.00  0.00     0.116 C 
BRANCH   3   4
ATOM      4  N   UNL A   1      41.875  22.130  26.057  1.00  0.00    -0.353 N 
ATOM      5  O   UNL A   1      41.327  20.609  27.697  1.00  0.00    -0.271 OA
ATOM      6  C   UNL A   1      41.017  21.274  26.714  1.00  0.00     0.257 C 
ATOM      7  H   UNL A   1      41.573  22.542  25.214  1.00  0.00     0.163 HD
BRANCH   6   8
ATOM      8  C   UNL A   1      39.621  21.217  26.095  1.00  0.00     0.329 C 
BRANCH   8   9
ATOM      9  O   UNL A   1      39.104  22.484  25.679  1.00  0.00    -0.484 OA
BRANCH   9  10
ATOM     10  C   UNL A   1      37.754  22.451  25.435  1.00  0.00     0.123 A 
ATOM     11  C   UNL A   1      37.041  23.617  25.079  1.00  0.00     0.047 A 
ATOM     12  C   UNL A   1      37.134  21.199  25.436  1.00  0.00     0.094 A 
ATOM     13  C   UNL A   1      35.689  23.557  24.739  1.00  0.00     0.020 A 
ATOM     14  C   UNL A   1      35.796  21.159  25.103  1.00  0.00     0.142 A 
ATOM     15  C   UNL A   1      35.099  22.313  24.755  1.00  0.00     0.069 A 
ATOM     16  O   UNL A   1      35.018  20.026  25.049  1.00  0.00    -0.452 OA
ATOM     17  C   UNL A   1      33.740  21.917  24.412  1.00  0.00     0.232 C 
ATOM     18  C   UNL A   1      33.765  20.448  24.616  1.00  0.00     0.176 C 
ATOM     19  O   UNL A   1      32.822  22.624  24.056  1.00  0.00    -0.285 OA
ATOM     20  C   UNL A   1      32.710  19.660  24.367  1.00  0.00     0.070 C 
BRANCH  20  21
ATOM     21  C   UNL A   1      32.767  18.262  24.599  1.00  0.00     0.031 A 
ATOM     22  C   UNL A   1      32.464  17.552  25.748  1.00  0.00     0.020 A 
ATOM     23  S   UNL A   1      33.257  17.200  23.340  1.00  0.00    -0.144 S 
ATOM     24  C   UNL A   1      32.671  16.151  25.607  1.00  0.00     0.012 A 
ATOM     25  C   UNL A   1      33.124  15.827  24.348  1.00  0.00     0.065 A 
ENDBRANCH  20  21
ENDBRANCH   9  10
ENDBRANCH   8   9
ENDBRANCH   6   8
ENDBRANCH   3   4
ENDBRANCH   2   3
ENDBRANCH   1   2
BRANCH   1  26
ATOM     26  C   UNL A   1      45.717  23.376  27.443  1.00  0.00     0.002 C 
BRANCH  26  27
ATOM     27  C   UNL A   1      46.039  24.330  26.291  1.00  0.00     0.021 C 
BRANCH  27  28
ATOM     28  C   UNL A   1      45.493  25.744  26.458  1.00  0.00     0.116 C 
BRANCH  28  29
ATOM     29  N   UNL A   1      44.417  26.039  25.523  1.00  0.00    -0.352 N 
ATOM     30  C   UNL A   1      43.206  26.644  25.762  1.00  0.00     0.251 C 
ATOM     31  H   UNL A   1      44.579  25.768  24.590  1.00  0.00     0.163 HD
ATOM     32  O   UNL A   1      42.342  26.661  24.891  1.00  0.00    -0.269 OA
BRANCH  30  33
ATOM     33  C   UNL A   1      42.943  27.250  27.085  1.00  0.00     0.039 A 
ATOM     34  C   UNL A   1      43.472  28.510  27.375  1.00  0.00     0.014 A 
ATOM     35  C   UNL A   1      42.155  26.585  28.028  1.00  0.00     0.014 A 
ATOM     36  C   UNL A   1      43.150  29.135  28.583  1.00  0.00     0.010 A 
ATOM     37  C   UNL A   1      41.774  27.239  29.196  1.00  0.00     0.010 A 
ATOM     38  C   UNL A   1      42.265  28.522  29.487  1.00  0.00    -0.014 A 
BRANCH  38  39
ATOM     39  C   UNL A   1      41.837  29.198  30.741  1.00  0.00     0.031 A 
ATOM     40  C   UNL A   1      40.593  30.049  30.745  1.00  0.00     0.074 A 
ATOM     41  C   UNL A   1      42.606  29.117  31.846  1.00  0.00     0.049 A 
ATOM     42  N   UNL A   1      40.115  30.807  31.698  1.00  0.00    -0.248 NA
ATOM     43  C   UNL A   1      39.794  30.071  29.508  1.00  0.00     0.031 C 
ATOM     44  C   UNL A   1      43.854  28.355  31.955  1.00  0.00     0.029 A 
ATOM     45  N   UNL A   1      42.465  29.695  33.084  1.00  0.00    -0.354 N 
ATOM     46  C   UNL A   1      38.983  31.415  31.170  1.00  0.00     0.074 A 
ATOM     47  C   UNL A   1      38.861  30.966  29.801  1.00  0.00     0.031 C 
ATOM     48  C   UNL A   1      44.353  28.502  33.195  1.00  0.00     0.029 A 
ATOM     49  C   UNL A   1      43.493  29.405  33.953  1.00  0.00     0.049 A 
ATOM     50  H   UNL A   1      41.700  30.264  33.327  1.00  0.00     0.167 HD
ATOM     51  C   UNL A   1      38.116  32.258  31.777  1.00  0.00     0.037 A 
ATOM     52  C   UNL A   1      43.728  29.835  35.209  1.00  0.00     0.037 A 
ATOM     53  C   UNL A   1      38.220  32.665  33.154  1.00  0.00     0.049 A 
ATOM     54  C   UNL A   1      42.748  30.783  35.853  1.00  0.00     0.074 A 
ATOM     55  C   UNL A   1      37.343  33.449  33.882  1.00  0.00     0.029 A 
ATOM     56  N   UNL A   1      39.260  32.330  34.007  1.00  0.00    -0.354 N 
ATOM     57  N   UNL A   1      41.638  31.282  35.363  1.00  0.00    -0.248 NA
ATOM     58  C   UNL A   1      43.050  31.226  37.222  1.00  0.00     0.031 C 
ATOM     59  C   UNL A   1      37.884  33.641  35.156  1.00  0.00     0.029 A 
ATOM     60  C   UNL A   1      39.063  32.919  35.244  1.00  0.00     0.049 A 
ATOM     61  H   UNL A   1      40.025  31.758  33.768  1.00  0.00     0.167 HD
ATOM     62  C   UNL A   1      41.089  32.058  36.380  1.00  0.00     0.074 A 
ATOM     63  C   UNL A   1      41.984  31.960  37.512  1.00  0.00     0.031 C 
ATOM     64  C   UNL A   1      39.946  32.786  36.375  1.00  0.00     0.037 A 
BRANCH  51  65
ATOM     65  C   UNL A   1      36.971  32.810  30.973  1.00  0.00     0.058 A 
ATOM     66  C   UNL A   1      37.134  33.896  30.100  1.00  0.00     0.135 A 
ATOM     67  C   UNL A   1      35.717  32.177  31.004  1.00  0.00     0.135 A 
ATOM     68  F   UNL A   1      38.305  34.549  30.043  1.00  0.00    -0.206 F 
ATOM     69  C   UNL A   1      36.095  34.336  29.286  1.00  0.00     0.059 A 
ATOM     70  C   UNL A   1      34.673  32.581  30.179  1.00  0.00     0.059 A 
ATOM     71  F   UNL A   1      35.506  31.137  31.826  1.00  0.00    -0.206 F 
ATOM     72  C   UNL A   1      34.871  33.664  29.325  1.00  0.00     0.060 A 
BRANCH  72  73
ATOM     73  S   UNL A   1      33.554  34.211  28.218  1.00  0.00     0.124 S 
ATOM     74  O   UNL A   1      34.300  35.007  27.249  1.00  0.00    -0.237 OA
ATOM     75  O   UNL A   1      33.020  32.947  27.722  1.00  0.00    -0.237 OA
ATOM     76  O   UNL A   1      32.663  34.965  29.095  1.00  0.00    -0.744 OA
ENDBRANCH  72  73
ENDBRANCH  51  65
BRANCH  52  77
ATOM     77  C   UNL A   1      44.939  29.387  35.953  1.00  0.00     0.058 A 
ATOM     78  C   UNL A   1      44.892  28.276  36.810  1.00  0.00     0.135 A 
ATOM     79  C   UNL A   1      46.152  30.088  35.864  1.00  0.00     0.135 A 
ATOM     80  F   UNL A   1      43.756  27.573  36.934  1.00  0.00    -0.206 F 
ATOM     81  C   UNL A   1      45.985  27.904  37.585  1.00  0.00     0.059 A 
ATOM     82  C   UNL A   1      47.270  29.715  36.604  1.00  0.00     0.059 A 
ATOM     83  F   UNL A   1      46.261  31.147  35.047  1.00  0.00    -0.206 F 
ATOM     84  C   UNL A   1      47.170  28.636  37.480  1.00  0.00     0.060 A 
BRANCH  84  85
ATOM     85  S   UNL A   1      48.580  28.152  38.499  1.00  0.00     0.124 S 
ATOM     86  O   UNL A   1      47.939  27.901  39.785  1.00  0.00    -0.237 OA
ATOM     87  O   UNL A   1      49.079  26.976  37.794  1.00  0.00    -0.237 OA
ATOM     88  O   UNL A   1      49.449  29.323  38.445  1.00  0.00    -0.744 OA
ENDBRANCH  84  85
ENDBRANCH  52  77
BRANCH  64  89
ATOM     89  C   UNL A   1      39.551  33.484  37.648  1.00  0.00     0.058 A 
ATOM     90  C   UNL A   1      38.622  32.932  38.543  1.00  0.00     0.135 A 
ATOM     91  C   UNL A   1      40.174  34.691  38.011  1.00  0.00     0.135 A 
ATOM     92  F   UNL A   1      37.992  31.785  38.242  1.00  0.00    -0.206 F 
ATOM     93  C   UNL A   1      38.311  33.559  39.745  1.00  0.00     0.059 A 
ATOM     94  C   UNL A   1      39.904  35.317  39.222  1.00  0.00     0.059 A 
ATOM     95  F   UNL A   1      41.078  35.257  37.195  1.00  0.00    -0.206 F 
ATOM     96  C   UNL A   1      38.964  34.748  40.079  1.00  0.00     0.060 A 
BRANCH  96  97
ATOM     97  S   UNL A   1      38.592  35.521  41.668  1.00  0.00     0.124 S 
ATOM     98  O   UNL A   1      39.605  34.922  42.531  1.00  0.00    -0.237 OA
ATOM     99  O   UNL A   1      38.767  36.938  41.374  1.00  0.00    -0.237 OA
ATOM    100  O   UNL A   1      37.217  35.106  41.935  1.00  0.00    -0.744 OA
ENDBRANCH  96  97
ENDBRANCH  64  89
ENDBRANCH  38  39
ENDBRANCH  30  33
ENDBRANCH  28  29
ENDBRANCH  27  28
ENDBRANCH  26  27
ENDBRANCH   1  26
TORSDOF 19
ENDMDL
MODEL 3
REMARK VINA RESULT:     -10.6      5.617     11.709
REMARK SMILES O=C(COc1ccc2c(c1)O/C(=C\c1cccs1)C2=O)NCCCCCCNC(=O)c1ccc(-c2c3nc(c(-c4c(F)cc(S(=O)(=O)[O-])cc4F)c4ccc([nH]4)c(-c4c(F)cc(S(=O)(=O)[O-])cc4F)c4nc(c(-c5c(F)cc(S(=O)(=O)[O-])cc5F)c5ccc2[nH]5)C=C4)C=C3)cc1
REMARK SMILES IDX 24 1 23 2 22 3 21 4 1 5 2 6 3 8 4 9 5 10 6 11 10 12 7 13
REMARK SMILES IDX 9 14 8 15 11 16 19 17 12 18 20 19 13 20 14 21 15 22 18 23
REMARK SMILES IDX 16 24 17 25 25 26 26 27 27 28 28 29 29 30 30 32 31 33 32 34
REMARK SMILES IDX 96 35 33 36 95 37 34 38 35 39 36 40 89 41 37 42 94 43 88 44
REMARK SMILES IDX 90 45 38 46 93 47 87 48 86 49 39 51 73 52 52 53 72 54 53 55
REMARK SMILES IDX 56 56 71 57 91 58 54 59 55 60 70 62 92 63 57 64 40 65 41 66
REMARK SMILES IDX 50 67 42 68 43 69 49 70 51 71 44 72 45 73 46 74 47 75 48 76
REMARK SMILES IDX 74 77 75 78 84 79 76 80 77 81 83 82 85 83 78 84 79 85 80 86
REMARK SMILES IDX 81 87 82 88 58 89 59 90 68 91 60 92 61 93 67 94 69 95 62 96
REMARK SMILES IDX 63 97 64 98 65 99 66 100
REMARK H PARENT 21 7 28 31 90 50 56 61
REMARK Flexibility Score: inf
ROOT
ATOM      1  C   UNL A   1      37.370  28.949  28.911  1.00  0.00     0.002 C 
ENDROOT
BRANCH   1   2
ATOM      2  C   UNL A   1      37.778  30.166  28.070  1.00  0.00     0.021 C 
BRANCH   2   3
ATOM      3  C   UNL A   1      36.708  31.247  27.965  1.00  0.00     0.116 C 
BRANCH   3   4
ATOM      4  N   UNL A   1      35.459  30.723  27.455  1.00  0.00    -0.353 N 
ATOM      5  O   UNL A   1      34.062  32.165  28.584  1.00  0.00    -0.271 OA
ATOM      6  C   UNL A   1      34.232  31.272  27.761  1.00  0.00     0.257 C 
ATOM      7  H   UNL A   1      35.487  29.938  26.861  1.00  0.00     0.163 HD
BRANCH   6   8
ATOM      8  C   UNL A   1      33.075  30.651  26.976  1.00  0.00     0.329 C 
BRANCH   8   9
ATOM      9  O   UNL A   1      32.896  29.249  27.193  1.00  0.00    -0.484 OA
BRANCH   9  10
ATOM     10  C   UNL A   1      32.987  28.519  26.035  1.00  0.00     0.123 A 
ATOM     11  C   UNL A   1      32.851  29.127  24.768  1.00  0.00     0.047 A 
ATOM     12  C   UNL A   1      33.336  27.171  26.154  1.00  0.00     0.094 A 
ATOM     13  C   UNL A   1      33.041  28.395  23.595  1.00  0.00     0.020 A 
ATOM     14  C   UNL A   1      33.514  26.461  24.985  1.00  0.00     0.142 A 
ATOM     15  C   UNL A   1      33.376  27.067  23.739  1.00  0.00     0.069 A 
ATOM     16  O   UNL A   1      33.857  25.132  24.900  1.00  0.00    -0.452 OA
ATOM     17  C   UNL A   1      33.680  26.063  22.728  1.00  0.00     0.232 C 
ATOM     18  C   UNL A   1      33.984  24.860  23.541  1.00  0.00     0.176 C 
ATOM     19  O   UNL A   1      33.676  26.191  21.523  1.00  0.00    -0.285 OA
ATOM     20  C   UNL A   1      34.363  23.694  23.003  1.00  0.00     0.070 C 
BRANCH  20  21
ATOM     21  C   UNL A   1      34.621  22.559  23.814  1.00  0.00     0.031 A 
ATOM     22  C   UNL A   1      35.820  22.115  24.343  1.00  0.00     0.020 A 
ATOM     23  S   UNL A   1      33.331  21.523  24.279  1.00  0.00    -0.144 S 
ATOM     24  C   UNL A   1      35.686  20.910  25.090  1.00  0.00     0.012 A 
ATOM     25  C   UNL A   1      34.383  20.469  25.116  1.00  0.00     0.065 A 
ENDBRANCH  20  21
ENDBRANCH   9  10
ENDBRANCH   8   9
ENDBRANCH   6   8
ENDBRANCH   3   4
ENDBRANCH   2   3
ENDBRANCH   1   2
BRANCH   1  26
ATOM     26  C   UNL A   1      37.465  29.134  30.430  1.00  0.00     0.002 C 
BRANCH  26  27
ATOM     27  C   UNL A   1      36.417  30.067  31.040  1.00  0.00     0.021 C 
BRANCH  27  28
ATOM     28  C   UNL A   1      36.637  30.405  32.510  1.00  0.00     0.116 C 
BRANCH  28  29
ATOM     29  N   UNL A   1      36.914  31.818  32.721  1.00  0.00    -0.352 N 
ATOM     30  C   UNL A   1      38.082  32.510  32.509  1.00  0.00     0.251 C 
ATOM     31  H   UNL A   1      36.160  32.352  33.062  1.00  0.00     0.163 HD
ATOM     32  O   UNL A   1      38.194  33.668  32.902  1.00  0.00    -0.269 OA
BRANCH  30  33
ATOM     33  C   UNL A   1      39.213  31.842  31.829  1.00  0.00     0.039 A 
ATOM     34  C   UNL A   1      39.497  32.167  30.500  1.00  0.00     0.014 A 
ATOM     35  C   UNL A   1      40.005  30.914  32.510  1.00  0.00     0.014 A 
ATOM     36  C   UNL A   1      40.621  31.614  29.878  1.00  0.00     0.010 A 
ATOM     37  C   UNL A   1      41.163  30.425  31.916  1.00  0.00     0.010 A 
ATOM     38  C   UNL A   1      41.486  30.770  30.594  1.00  0.00    -0.014 A 
BRANCH  38  39
ATOM     39  C   UNL A   1      42.735  30.235  29.986  1.00  0.00     0.031 A 
ATOM     40  C   UNL A   1      42.742  28.855  29.381  1.00  0.00     0.074 A 
ATOM     41  C   UNL A   1      43.876  30.952  30.052  1.00  0.00     0.049 A 
ATOM     42  N   UNL A   1      43.748  28.168  28.906  1.00  0.00    -0.248 NA
ATOM     43  C   UNL A   1      41.454  28.144  29.326  1.00  0.00     0.031 C 
ATOM     44  C   UNL A   1      44.005  32.286  30.647  1.00  0.00     0.029 A 
ATOM     45  N   UNL A   1      45.150  30.654  29.633  1.00  0.00    -0.354 N 
ATOM     46  C   UNL A   1      43.223  26.939  28.524  1.00  0.00     0.074 A 
ATOM     47  C   UNL A   1      41.815  26.959  28.853  1.00  0.00     0.031 C 
ATOM     48  C   UNL A   1      45.281  32.694  30.540  1.00  0.00     0.029 A 
ATOM     49  C   UNL A   1      46.072  31.637  29.917  1.00  0.00     0.049 A 
ATOM     50  H   UNL A   1      45.382  29.817  29.173  1.00  0.00     0.167 HD
ATOM     51  C   UNL A   1      43.855  25.896  27.938  1.00  0.00     0.037 A 
ATOM     52  C   UNL A   1      47.405  31.673  29.719  1.00  0.00     0.037 A 
ATOM     53  C   UNL A   1      45.248  25.901  27.573  1.00  0.00     0.049 A 
ATOM     54  C   UNL A   1      48.081  30.489  29.074  1.00  0.00     0.074 A 
ATOM     55  C   UNL A   1      45.959  24.924  26.899  1.00  0.00     0.029 A 
ATOM     56  N   UNL A   1      46.141  26.923  27.855  1.00  0.00    -0.354 N 
ATOM     57  N   UNL A   1      47.551  29.369  28.645  1.00  0.00    -0.248 NA
ATOM     58  C   UNL A   1      49.536  30.574  28.883  1.00  0.00     0.031 C 
ATOM     59  C   UNL A   1      47.295  25.326  26.829  1.00  0.00     0.029 A 
ATOM     60  C   UNL A   1      47.403  26.585  27.397  1.00  0.00     0.049 A 
ATOM     61  H   UNL A   1      45.911  27.765  28.312  1.00  0.00     0.167 HD
ATOM     62  C   UNL A   1      48.600  28.639  28.093  1.00  0.00     0.074 A 
ATOM     63  C   UNL A   1      49.793  29.445  28.237  1.00  0.00     0.031 C 
ATOM     64  C   UNL A   1      48.577  27.412  27.518  1.00  0.00     0.037 A 
BRANCH  51  65
ATOM     65  C   UNL A   1      43.064  24.651  27.646  1.00  0.00     0.058 A 
ATOM     66  C   UNL A   1      42.422  24.453  26.414  1.00  0.00     0.135 A 
ATOM     67  C   UNL A   1      43.036  23.599  28.576  1.00  0.00     0.135 A 
ATOM     68  F   UNL A   1      42.402  25.430  25.495  1.00  0.00    -0.206 F 
ATOM     69  C   UNL A   1      41.777  23.256  26.116  1.00  0.00     0.059 A 
ATOM     70  C   UNL A   1      42.422  22.384  28.288  1.00  0.00     0.059 A 
ATOM     71  F   UNL A   1      43.631  23.738  29.772  1.00  0.00    -0.206 F 
ATOM     72  C   UNL A   1      41.793  22.223  27.056  1.00  0.00     0.060 A 
BRANCH  72  73
ATOM     73  S   UNL A   1      41.003  20.658  26.626  1.00  0.00     0.124 S 
ATOM     74  O   UNL A   1      41.964  20.096  25.683  1.00  0.00    -0.237 OA
ATOM     75  O   UNL A   1      40.919  19.987  27.919  1.00  0.00    -0.237 OA
ATOM     76  O   UNL A   1      39.725  21.068  26.051  1.00  0.00    -0.744 OA
ENDBRANCH  72  73
ENDBRANCH  51  65
BRANCH  52  77
ATOM     77  C   UNL A   1      48.205  32.860  30.135  1.00  0.00     0.058 A 
ATOM     78  C   UNL A   1      48.465  33.907  29.237  1.00  0.00     0.135 A 
ATOM     79  C   UNL A   1      48.767  32.949  31.418  1.00  0.00     0.135 A 
ATOM     80  F   UNL A   1      47.954  33.869  27.997  1.00  0.00    -0.206 F 
ATOM     81  C   UNL A   1      49.290  34.974  29.578  1.00  0.00     0.059 A 
ATOM     82  C   UNL A   1      49.568  34.023  31.794  1.00  0.00     0.059 A 
ATOM     83  F   UNL A   1      48.537  31.986  32.324  1.00  0.00    -0.206 F 
ATOM     84  C   UNL A   1      49.843  35.019  30.859  1.00  0.00     0.060 A 
BRANCH  84  85
ATOM     85  S   UNL A   1      50.922  36.402  31.288  1.00  0.00     0.124 S 
ATOM     86  O   UNL A   1      50.650  37.334  30.199  1.00  0.00    -0.237 OA
ATOM     87  O   UNL A   1      50.416  36.790  32.601  1.00  0.00    -0.237 OA
ATOM     88  O   UNL A   1      52.252  35.802  31.288  1.00  0.00    -0.744 OA
ENDBRANCH  84  85
ENDBRANCH  52  77
BRANCH  64  89
ATOM     89  C   UNL A   1      49.860  26.883  26.937  1.00  0.00     0.058 A 
ATOM     90  C   UNL A   1      50.784  26.160  27.706  1.00  0.00     0.135 A 
ATOM     91  C   UNL A   1      50.128  27.038  25.566  1.00  0.00     0.135 A 
ATOM     92  F   UNL A   1      50.580  25.988  29.022  1.00  0.00    -0.206 F 
ATOM     93  C   UNL A   1      51.937  25.624  27.142  1.00  0.00     0.059 A 
ATOM     94  C   UNL A   1      51.256  26.483  24.974  1.00  0.00     0.059 A 
ATOM     95  F   UNL A   1      49.272  27.713  24.782  1.00  0.00    -0.206 F 
ATOM     96  C   UNL A   1      52.160  25.785  25.772  1.00  0.00     0.060 A 
BRANCH  96  97
ATOM     97  S   UNL A   1      53.632  25.035  25.044  1.00  0.00     0.124 S 
ATOM     98  O   UNL A   1      53.348  23.612  25.202  1.00  0.00    -0.237 OA
ATOM     99  O   UNL A   1      53.595  25.541  23.676  1.00  0.00    -0.237 OA
ATOM    100  O   UNL A   1      54.721  25.552  25.868  1.00  0.00    -0.744 OA
ENDBRANCH  96  97
ENDBRANCH  64  89
ENDBRANCH  38  39
ENDBRANCH  30  33
ENDBRANCH  28  29
ENDBRANCH  27  28
ENDBRANCH  26  27
ENDBRANCH   1  26
TORSDOF 19
ENDMDL
