MODEL 1
REMARK VINA RESULT:     -10.6      0.000      0.000
REMARK SMILES CCCCCCNC(=O)Oc1cccc(-c2ccc([C@@H](C)C(=O)NCCCCCCNC(=O)c3ccc(-c4c5nc(c(-c6c(F)cc(S(=O)(=O)[O-])cc6F)c6ccc([nH]6)c(-c6c(F)cc(S(=O)(=O)[O-])cc6F)c6nc(c(-c7c(F)cc(S(=O)(=O)[O-])cc7F)c7ccc4[nH]7)C=C6)C=C5)cc3)cc2[N+](=O)[O-])c1
REMARK SMILES IDX 22 1 23 2 24 3 20 5 21 6 19 7 16 8 17 9 101 10 18 11 100 12
REMARK SMILES IDX 15 13 11 14 12 15 105 16 13 17 14 18 10 19 8 20 7 21 9 23
REMARK SMILES IDX 6 24 5 25 4 26 3 27 2 28 1 29 102 30 103 31 104 32 25 33
REMARK SMILES IDX 26 34 27 35 28 36 29 37 30 38 31 39 32 40 33 42 34 43 35 44
REMARK SMILES IDX 99 45 36 46 98 47 37 48 38 49 39 50 92 51 40 52 97 53 91 54
REMARK SMILES IDX 93 55 41 56 96 57 90 58 89 59 42 61 76 62 55 63 75 64 56 65
REMARK SMILES IDX 59 66 74 67 94 68 57 69 58 70 73 72 95 73 60 74 43 75 44 76
REMARK SMILES IDX 53 77 45 78 46 79 52 80 54 81 47 82 48 83 49 84 50 85 51 86
REMARK SMILES IDX 77 87 78 88 87 89 79 90 80 91 86 92 88 93 81 94 82 95 83 96
REMARK SMILES IDX 84 97 85 98 61 99 62 100 71 101 63 102 64 103 70 104 72 105
REMARK SMILES IDX 65 106 66 107 67 108 68 109 69 110
REMARK H PARENT 24 4 7 22 31 41 93 60 59 71
REMARK Flexibility Score: inf
ROOT
ATOM      1  C   UNL A   1      42.170  21.272  26.419  1.00  0.00     0.227 C 
ATOM      2  O   UNL A   1      41.784  20.141  26.740  1.00  0.00    -0.274 OA
ATOM      3  N   UNL A   1      43.082  21.335  25.412  1.00  0.00    -0.356 N 
ATOM      4  H   UNL A   1      43.268  20.468  24.984  1.00  0.00     0.163 HD
ENDROOT
BRANCH   1   5
ATOM      5  C   UNL A   1      41.605  22.505  27.144  1.00  0.00     0.105 C 
ATOM      6  C   UNL A   1      41.906  22.554  28.641  1.00  0.00     0.023 C 
BRANCH   5   7
ATOM      7  C   UNL A   1      40.177  22.854  26.747  1.00  0.00    -0.029 A 
ATOM      8  C   UNL A   1      37.410  23.353  26.153  1.00  0.00     0.060 A 
ATOM      9  C   UNL A   1      38.201  24.283  26.848  1.00  0.00     0.016 A 
ATOM     10  C   UNL A   1      38.076  22.207  25.680  1.00  0.00     0.277 A 
ATOM     11  C   UNL A   1      39.561  24.057  27.100  1.00  0.00     0.005 A 
ATOM     12  C   UNL A   1      39.421  21.936  26.004  1.00  0.00     0.090 A 
BRANCH   8  13
ATOM     13  C   UNL A   1      35.960  23.609  26.017  1.00  0.00    -0.008 A 
ATOM     14  C   UNL A   1      34.115  25.018  25.296  1.00  0.00     0.133 A 
ATOM     15  C   UNL A   1      33.187  24.087  25.749  1.00  0.00     0.047 A 
ATOM     16  C   UNL A   1      35.487  24.787  25.412  1.00  0.00     0.056 A 
ATOM     17  C   UNL A   1      33.637  22.901  26.320  1.00  0.00     0.004 A 
ATOM     18  C   UNL A   1      35.009  22.670  26.459  1.00  0.00     0.009 A 
BRANCH  14  19
ATOM     19  O   UNL A   1      33.615  26.260  24.870  1.00  0.00    -0.410 OA
BRANCH  19  20
ATOM     20  C   UNL A   1      33.255  26.435  23.543  1.00  0.00     0.412 C 
ATOM     21  N   UNL A   1      32.581  27.606  23.327  1.00  0.00    -0.321 N 
ATOM     22  H   UNL A   1      32.242  27.760  22.415  1.00  0.00     0.167 HD
ATOM     23  O   UNL A   1      33.489  25.662  22.624  1.00  0.00    -0.224 OA
BRANCH  21  24
ATOM     24  C   UNL A   1      32.316  28.644  24.304  1.00  0.00     0.119 C 
BRANCH  24  25
ATOM     25  C   UNL A   1      30.891  29.186  24.188  1.00  0.00     0.021 C 
BRANCH  25  26
ATOM     26  C   UNL A   1      30.139  28.757  22.922  1.00  0.00     0.002 C 
BRANCH  26  27
ATOM     27  C   UNL A   1      28.626  28.584  23.081  1.00  0.00    -0.000 C 
BRANCH  27  28
ATOM     28  C   UNL A   1      27.770  29.680  22.443  1.00  0.00    -0.003 C 
ATOM     29  C   UNL A   1      27.627  30.917  23.318  1.00  0.00     0.004 C 
ENDBRANCH  27  28
ENDBRANCH  26  27
ENDBRANCH  25  26
ENDBRANCH  24  25
ENDBRANCH  21  24
ENDBRANCH  19  20
ENDBRANCH  14  19
ENDBRANCH   8  13
BRANCH  10  30
ATOM     30  N   UNL A   1      37.423  21.273  24.766  1.00  0.00     0.063 N 
ATOM     31  O   UNL A   1      37.232  20.118  25.175  1.00  0.00    -0.258 OA
ATOM     32  O   UNL A   1      37.157  21.672  23.623  1.00  0.00    -0.258 OA
ENDBRANCH  10  30
ENDBRANCH   5   7
ENDBRANCH   1   5
BRANCH   3  33
ATOM     33  C   UNL A   1      43.830  22.442  24.856  1.00  0.00     0.116 C 
BRANCH  33  34
ATOM     34  C   UNL A   1      45.284  22.432  25.337  1.00  0.00     0.021 C 
BRANCH  34  35
ATOM     35  C   UNL A   1      45.470  22.982  26.754  1.00  0.00     0.002 C 
BRANCH  35  36
ATOM     36  C   UNL A   1      46.387  24.209  26.855  1.00  0.00     0.002 C 
BRANCH  36  37
ATOM     37  C   UNL A   1      46.406  25.117  25.622  1.00  0.00     0.021 C 
BRANCH  37  38
ATOM     38  C   UNL A   1      45.448  26.301  25.691  1.00  0.00     0.116 C 
BRANCH  38  39
ATOM     39  N   UNL A   1      44.182  26.007  25.036  1.00  0.00    -0.352 N 
ATOM     40  C   UNL A   1      42.903  26.108  25.524  1.00  0.00     0.251 C 
ATOM     41  H   UNL A   1      44.254  25.690  24.108  1.00  0.00     0.163 HD
ATOM     42  O   UNL A   1      41.975  25.578  24.920  1.00  0.00    -0.269 OA
BRANCH  40  43
ATOM     43  C   UNL A   1      42.648  26.849  26.778  1.00  0.00     0.039 A 
ATOM     44  C   UNL A   1      43.042  28.186  26.870  1.00  0.00     0.014 A 
ATOM     45  C   UNL A   1      42.046  26.216  27.868  1.00  0.00     0.014 A 
ATOM     46  C   UNL A   1      42.782  28.904  28.041  1.00  0.00     0.010 A 
ATOM     47  C   UNL A   1      41.723  26.951  29.005  1.00  0.00     0.010 A 
ATOM     48  C   UNL A   1      42.096  28.300  29.106  1.00  0.00    -0.014 A 
BRANCH  48  49
ATOM     49  C   UNL A   1      41.765  29.058  30.339  1.00  0.00     0.031 A 
ATOM     50  C   UNL A   1      42.619  28.912  31.569  1.00  0.00     0.074 A 
ATOM     51  C   UNL A   1      40.663  29.831  30.370  1.00  0.00     0.049 A 
ATOM     52  N   UNL A   1      42.464  29.449  32.752  1.00  0.00    -0.248 NA
ATOM     53  C   UNL A   1      43.784  28.020  31.462  1.00  0.00     0.031 C 
ATOM     54  C   UNL A   1      39.737  30.026  29.251  1.00  0.00     0.029 A 
ATOM     55  N   UNL A   1      40.132  30.595  31.377  1.00  0.00    -0.354 N 
ATOM     56  C   UNL A   1      43.504  28.954  33.532  1.00  0.00     0.074 A 
ATOM     57  C   UNL A   1      44.243  28.025  32.703  1.00  0.00     0.031 C 
ATOM     58  C   UNL A   1      38.774  30.884  29.624  1.00  0.00     0.029 A 
ATOM     59  C   UNL A   1      38.991  31.270  31.015  1.00  0.00     0.049 A 
ATOM     60  H   UNL A   1      40.532  30.655  32.275  1.00  0.00     0.167 HD
ATOM     61  C   UNL A   1      43.827  29.262  34.810  1.00  0.00     0.037 A 
ATOM     62  C   UNL A   1      38.208  32.106  31.724  1.00  0.00     0.037 A 
ATOM     63  C   UNL A   1      43.091  30.194  35.624  1.00  0.00     0.049 A 
ATOM     64  C   UNL A   1      38.569  32.414  33.151  1.00  0.00     0.074 A 
ATOM     65  C   UNL A   1      43.360  30.614  36.915  1.00  0.00     0.029 A 
ATOM     66  N   UNL A   1      41.932  30.848  35.226  1.00  0.00    -0.354 N 
ATOM     67  N   UNL A   1      39.585  31.980  33.857  1.00  0.00    -0.248 NA
ATOM     68  C   UNL A   1      37.674  33.325  33.877  1.00  0.00     0.031 C 
ATOM     69  C   UNL A   1      42.340  31.485  37.313  1.00  0.00     0.029 A 
ATOM     70  C   UNL A   1      41.461  31.648  36.253  1.00  0.00     0.049 A 
ATOM     71  H   UNL A   1      41.509  30.756  34.342  1.00  0.00     0.167 HD
ATOM     72  C   UNL A   1      39.472  32.590  35.101  1.00  0.00     0.074 A 
ATOM     73  C   UNL A   1      38.289  33.426  35.048  1.00  0.00     0.031 C 
ATOM     74  C   UNL A   1      40.278  32.474  36.186  1.00  0.00     0.037 A 
BRANCH  61  75
ATOM     75  C   UNL A   1      45.027  28.567  35.401  1.00  0.00     0.058 A 
ATOM     76  C   UNL A   1      46.321  29.100  35.282  1.00  0.00     0.135 A 
ATOM     77  C   UNL A   1      44.886  27.342  36.071  1.00  0.00     0.135 A 
ATOM     78  F   UNL A   1      46.518  30.264  34.642  1.00  0.00    -0.206 F 
ATOM     79  C   UNL A   1      47.439  28.415  35.751  1.00  0.00     0.059 A 
ATOM     80  C   UNL A   1      45.986  26.654  36.577  1.00  0.00     0.059 A 
ATOM     81  F   UNL A   1      43.673  26.787  36.221  1.00  0.00    -0.206 F 
ATOM     82  C   UNL A   1      47.261  27.186  36.386  1.00  0.00     0.060 A 
BRANCH  82  83
ATOM     83  S   UNL A   1      48.721  26.281  36.940  1.00  0.00     0.124 S 
ATOM     84  O   UNL A   1      48.584  26.370  38.391  1.00  0.00    -0.237 OA
ATOM     85  O   UNL A   1      48.507  24.956  36.364  1.00  0.00    -0.237 OA
ATOM     86  O   UNL A   1      49.828  27.039  36.367  1.00  0.00    -0.744 OA
ENDBRANCH  82  83
ENDBRANCH  61  75
BRANCH  62  87
ATOM     87  C   UNL A   1      37.040  32.751  31.070  1.00  0.00     0.058 A 
ATOM     88  C   UNL A   1      37.209  33.903  30.287  1.00  0.00     0.135 A 
ATOM     89  C   UNL A   1      35.749  32.208  31.168  1.00  0.00     0.135 A 
ATOM     90  F   UNL A   1      38.423  34.461  30.169  1.00  0.00    -0.206 F 
ATOM     91  C   UNL A   1      36.140  34.496  29.624  1.00  0.00     0.059 A 
ATOM     92  C   UNL A   1      34.668  32.771  30.496  1.00  0.00     0.059 A 
ATOM     93  F   UNL A   1      35.539  31.098  31.892  1.00  0.00    -0.206 F 
ATOM     94  C   UNL A   1      34.874  33.918  29.727  1.00  0.00     0.060 A 
BRANCH  94  95
ATOM     95  S   UNL A   1      33.512  34.651  28.796  1.00  0.00     0.124 S 
ATOM     96  O   UNL A   1      32.554  34.943  29.856  1.00  0.00    -0.237 OA
ATOM     97  O   UNL A   1      34.153  35.806  28.177  1.00  0.00    -0.237 OA
ATOM     98  O   UNL A   1      33.128  33.588  27.871  1.00  0.00    -0.744 OA
ENDBRANCH  94  95
ENDBRANCH  62  87
BRANCH  74  99
ATOM     99  C   UNL A   1      39.925  33.291  37.398  1.00  0.00     0.058 A 
ATOM    100  C   UNL A   1      40.605  34.478  37.713  1.00  0.00     0.135 A 
ATOM    101  C   UNL A   1      38.859  32.906  38.228  1.00  0.00     0.135 A 
ATOM    102  F   UNL A   1      41.636  34.887  36.958  1.00  0.00    -0.206 F 
ATOM    103  C   UNL A   1      40.255  35.242  38.822  1.00  0.00     0.059 A 
ATOM    104  C   UNL A   1      38.474  33.669  39.325  1.00  0.00     0.059 A 
ATOM    105  F   UNL A   1      38.169  31.784  37.966  1.00  0.00    -0.206 F 
ATOM    106  C   UNL A   1      39.186  34.831  39.621  1.00  0.00     0.060 A 
BRANCH 106 107
ATOM    107  S   UNL A   1      38.720  35.852  41.035  1.00  0.00     0.124 S 
ATOM    108  O   UNL A   1      37.540  35.149  41.528  1.00  0.00    -0.237 OA
ATOM    109  O   UNL A   1      39.906  35.773  41.882  1.00  0.00    -0.237 OA
ATOM    110  O   UNL A   1      38.469  37.162  40.440  1.00  0.00    -0.744 OA
ENDBRANCH 106 107
ENDBRANCH  74  99
ENDBRANCH  48  49
ENDBRANCH  40  43
ENDBRANCH  38  39
ENDBRANCH  37  38
ENDBRANCH  36  37
ENDBRANCH  35  36
ENDBRANCH  34  35
ENDBRANCH  33  34
ENDBRANCH   3  33
TORSDOF 26
ENDMDL
MODEL 2
REMARK VINA RESULT:     -10.1      0.973      7.837
REMARK SMILES CCCCCCNC(=O)Oc1cccc(-c2ccc([C@@H](C)C(=O)NCCCCCCNC(=O)c3ccc(-c4c5nc(c(-c6c(F)cc(S(=O)(=O)[O-])cc6F)c6ccc([nH]6)c(-c6c(F)cc(S(=O)(=O)[O-])cc6F)c6nc(c(-c7c(F)cc(S(=O)(=O)[O-])cc7F)c7ccc4[nH]7)C=C6)C=C5)cc3)cc2[N+](=O)[O-])c1
REMARK SMILES IDX 22 1 23 2 24 3 20 5 21 6 19 7 16 8 17 9 101 10 18 11 100 12
REMARK SMILES IDX 15 13 11 14 12 15 105 16 13 17 14 18 10 19 8 20 7 21 9 23
REMARK SMILES IDX 6 24 5 25 4 26 3 27 2 28 1 29 102 30 103 31 104 32 25 33
REMARK SMILES IDX 26 34 27 35 28 36 29 37 30 38 31 39 32 40 33 42 34 43 35 44
REMARK SMILES IDX 99 45 36 46 98 47 37 48 38 49 39 50 92 51 40 52 97 53 91 54
REMARK SMILES IDX 93 55 41 56 96 57 90 58 89 59 42 61 76 62 55 63 75 64 56 65
REMARK SMILES IDX 59 66 74 67 94 68 57 69 58 70 73 72 95 73 60 74 43 75 44 76
REMARK SMILES IDX 53 77 45 78 46 79 52 80 54 81 47 82 48 83 49 84 50 85 51 86
REMARK SMILES IDX 77 87 78 88 87 89 79 90 80 91 86 92 88 93 81 94 82 95 83 96
REMARK SMILES IDX 84 97 85 98 61 99 62 100 71 101 63 102 64 103 70 104 72 105
REMARK SMILES IDX 65 106 66 107 67 108 68 109 69 110
REMARK H PARENT 24 4 7 22 31 41 93 60 59 71
REMARK Flexibility Score: inf
ROOT
ATOM      1  C   UNL A   1      42.293  21.044  26.322  1.00  0.00     0.227 C 
ATOM      2  O   UNL A   1      41.966  19.900  26.664  1.00  0.00    -0.274 OA
ATOM      3  N   UNL A   1      43.127  21.139  25.253  1.00  0.00    -0.356 N 
ATOM      4  H   UNL A   1      43.308  20.280  24.807  1.00  0.00     0.163 HD
ENDROOT
BRANCH   1   5
ATOM      5  C   UNL A   1      41.744  22.255  27.094  1.00  0.00     0.105 C 
ATOM      6  C   UNL A   1      42.009  22.223  28.598  1.00  0.00     0.023 C 
BRANCH   5   7
ATOM      7  C   UNL A   1      40.337  22.665  26.682  1.00  0.00    -0.029 A 
ATOM      8  C   UNL A   1      37.599  23.282  26.059  1.00  0.00     0.060 A 
ATOM      9  C   UNL A   1      38.430  24.186  26.743  1.00  0.00     0.016 A 
ATOM     10  C   UNL A   1      38.214  22.098  25.611  1.00  0.00     0.277 A 
ATOM     11  C   UNL A   1      39.775  23.901  27.008  1.00  0.00     0.005 A 
ATOM     12  C   UNL A   1      39.543  21.770  25.949  1.00  0.00     0.090 A 
BRANCH   8  13
ATOM     13  C   UNL A   1      36.164  23.604  25.909  1.00  0.00    -0.008 A 
ATOM     14  C   UNL A   1      34.383  24.939  24.934  1.00  0.00     0.133 A 
ATOM     15  C   UNL A   1      33.418  24.206  25.616  1.00  0.00     0.047 A 
ATOM     16  C   UNL A   1      35.741  24.643  25.062  1.00  0.00     0.056 A 
ATOM     17  C   UNL A   1      33.817  23.153  26.433  1.00  0.00     0.004 A 
ATOM     18  C   UNL A   1      35.176  22.862  26.583  1.00  0.00     0.009 A 
BRANCH  14  19
ATOM     19  O   UNL A   1      33.943  26.083  24.246  1.00  0.00    -0.410 OA
BRANCH  19  20
ATOM     20  C   UNL A   1      33.360  25.950  22.997  1.00  0.00     0.412 C 
ATOM     21  N   UNL A   1      32.156  26.592  22.902  1.00  0.00    -0.321 N 
ATOM     22  H   UNL A   1      31.660  26.482  22.058  1.00  0.00     0.167 HD
ATOM     23  O   UNL A   1      33.826  25.338  22.044  1.00  0.00    -0.224 OA
BRANCH  21  24
ATOM     24  C   UNL A   1      31.535  27.419  23.918  1.00  0.00     0.119 C 
BRANCH  24  25
ATOM     25  C   UNL A   1      30.194  26.847  24.378  1.00  0.00     0.021 C 
BRANCH  25  26
ATOM     26  C   UNL A   1      30.230  26.128  25.733  1.00  0.00     0.002 C 
BRANCH  26  27
ATOM     27  C   UNL A   1      29.811  24.655  25.707  1.00  0.00    -0.000 C 
BRANCH  27  28
ATOM     28  C   UNL A   1      30.294  23.815  26.893  1.00  0.00    -0.003 C 
ATOM     29  C   UNL A   1      29.379  22.643  27.211  1.00  0.00     0.004 C 
ENDBRANCH  27  28
ENDBRANCH  26  27
ENDBRANCH  25  26
ENDBRANCH  24  25
ENDBRANCH  21  24
ENDBRANCH  19  20
ENDBRANCH  14  19
ENDBRANCH   8  13
BRANCH  10  30
ATOM     30  N   UNL A   1      37.523  21.179  24.709  1.00  0.00     0.063 N 
ATOM     31  O   UNL A   1      36.660  21.660  23.961  1.00  0.00    -0.258 OA
ATOM     32  O   UNL A   1      37.796  19.973  24.791  1.00  0.00    -0.258 OA
ENDBRANCH  10  30
ENDBRANCH   5   7
ENDBRANCH   1   5
BRANCH   3  33
ATOM     33  C   UNL A   1      43.798  22.271  24.651  1.00  0.00     0.116 C 
BRANCH  33  34
ATOM     34  C   UNL A   1      45.243  22.392  25.143  1.00  0.00     0.021 C 
BRANCH  34  35
ATOM     35  C   UNL A   1      45.363  22.677  26.643  1.00  0.00     0.002 C 
BRANCH  35  36
ATOM     36  C   UNL A   1      45.300  24.162  27.025  1.00  0.00     0.002 C 
BRANCH  36  37
ATOM     37  C   UNL A   1      45.930  25.126  26.015  1.00  0.00     0.021 C 
BRANCH  37  38
ATOM     38  C   UNL A   1      45.203  26.459  25.872  1.00  0.00     0.116 C 
BRANCH  38  39
ATOM     39  N   UNL A   1      43.949  26.313  25.149  1.00  0.00    -0.352 N 
ATOM     40  C   UNL A   1      42.663  26.517  25.583  1.00  0.00     0.251 C 
ATOM     41  H   UNL A   1      44.036  26.025  24.212  1.00  0.00     0.163 HD
ATOM     42  O   UNL A   1      41.720  26.102  24.916  1.00  0.00    -0.269 OA
BRANCH  40  43
ATOM     43  C   UNL A   1      42.418  27.231  26.854  1.00  0.00     0.039 A 
ATOM     44  C   UNL A   1      42.742  28.587  26.947  1.00  0.00     0.014 A 
ATOM     45  C   UNL A   1      41.894  26.556  27.960  1.00  0.00     0.014 A 
ATOM     46  C   UNL A   1      42.491  29.278  28.135  1.00  0.00     0.010 A 
ATOM     47  C   UNL A   1      41.577  27.262  29.117  1.00  0.00     0.010 A 
ATOM     48  C   UNL A   1      41.881  28.627  29.219  1.00  0.00    -0.014 A 
BRANCH  48  49
ATOM     49  C   UNL A   1      41.558  29.355  30.473  1.00  0.00     0.031 A 
ATOM     50  C   UNL A   1      40.350  30.248  30.540  1.00  0.00     0.074 A 
ATOM     51  C   UNL A   1      42.387  29.258  31.530  1.00  0.00     0.049 A 
ATOM     52  N   UNL A   1      39.932  31.002  31.525  1.00  0.00    -0.248 NA
ATOM     53  C   UNL A   1      39.517  30.325  29.330  1.00  0.00     0.031 C 
ATOM     54  C   UNL A   1      43.609  28.450  31.574  1.00  0.00     0.029 A 
ATOM     55  N   UNL A   1      42.330  29.842  32.770  1.00  0.00    -0.354 N 
ATOM     56  C   UNL A   1      38.797  31.649  31.051  1.00  0.00     0.074 A 
ATOM     57  C   UNL A   1      38.631  31.247  29.670  1.00  0.00     0.031 C 
ATOM     58  C   UNL A   1      44.164  28.562  32.791  1.00  0.00     0.029 A 
ATOM     59  C   UNL A   1      43.362  29.476  33.599  1.00  0.00     0.049 A 
ATOM     60  H   UNL A   1      41.616  30.463  33.039  1.00  0.00     0.167 HD
ATOM     61  C   UNL A   1      37.957  32.483  31.711  1.00  0.00     0.037 A 
ATOM     62  C   UNL A   1      43.632  29.836  34.869  1.00  0.00     0.037 A 
ATOM     63  C   UNL A   1      38.125  32.870  33.087  1.00  0.00     0.049 A 
ATOM     64  C   UNL A   1      42.703  30.784  35.575  1.00  0.00     0.074 A 
ATOM     65  C   UNL A   1      37.308  33.671  33.865  1.00  0.00     0.029 A 
ATOM     66  N   UNL A   1      39.191  32.489  33.891  1.00  0.00    -0.354 N 
ATOM     67  N   UNL A   1      41.603  31.345  35.131  1.00  0.00    -0.248 NA
ATOM     68  C   UNL A   1      43.051  31.147  36.955  1.00  0.00     0.031 C 
ATOM     69  C   UNL A   1      37.903  33.812  35.124  1.00  0.00     0.029 A 
ATOM     70  C   UNL A   1      39.066  33.058  35.148  1.00  0.00     0.049 A 
ATOM     71  H   UNL A   1      39.928  31.901  33.609  1.00  0.00     0.167 HD
ATOM     72  C   UNL A   1      41.111  32.103  36.188  1.00  0.00     0.074 A 
ATOM     73  C   UNL A   1      42.031  31.925  37.293  1.00  0.00     0.031 C 
ATOM     74  C   UNL A   1      39.994  32.872  36.239  1.00  0.00     0.037 A 
BRANCH  61  75
ATOM     75  C   UNL A   1      36.789  33.035  30.935  1.00  0.00     0.058 A 
ATOM     76  C   UNL A   1      36.959  34.020  29.947  1.00  0.00     0.135 A 
ATOM     77  C   UNL A   1      35.483  32.592  31.197  1.00  0.00     0.135 A 
ATOM     78  F   UNL A   1      38.184  34.488  29.662  1.00  0.00    -0.206 F 
ATOM     79  C   UNL A   1      35.871  34.592  29.293  1.00  0.00     0.059 A 
ATOM     80  C   UNL A   1      34.383  33.126  30.531  1.00  0.00     0.059 A 
ATOM     81  F   UNL A   1      35.261  31.648  32.124  1.00  0.00    -0.206 F 
ATOM     82  C   UNL A   1      34.585  34.146  29.602  1.00  0.00     0.060 A 
BRANCH  82  83
ATOM     83  S   UNL A   1      33.180  34.933  28.788  1.00  0.00     0.124 S 
ATOM     84  O   UNL A   1      33.805  36.123  28.217  1.00  0.00    -0.237 OA
ATOM     85  O   UNL A   1      32.762  33.915  27.828  1.00  0.00    -0.237 OA
ATOM     86  O   UNL A   1      32.247  35.179  29.883  1.00  0.00    -0.744 OA
ENDBRANCH  82  83
ENDBRANCH  61  75
BRANCH  62  87
ATOM     87  C   UNL A   1      44.806  29.248  35.566  1.00  0.00     0.058 A 
ATOM     88  C   UNL A   1      46.074  29.836  35.445  1.00  0.00     0.135 A 
ATOM     89  C   UNL A   1      44.681  28.127  36.402  1.00  0.00     0.135 A 
ATOM     90  F   UNL A   1      46.244  30.905  34.652  1.00  0.00    -0.206 F 
ATOM     91  C   UNL A   1      47.178  29.335  36.126  1.00  0.00     0.059 A 
ATOM     92  C   UNL A   1      45.766  27.621  37.111  1.00  0.00     0.059 A 
ATOM     93  F   UNL A   1      43.486  27.539  36.563  1.00  0.00    -0.206 F 
ATOM     94  C   UNL A   1      47.012  28.232  36.965  1.00  0.00     0.060 A 
BRANCH  94  95
ATOM     95  S   UNL A   1      48.435  27.642  37.906  1.00  0.00     0.124 S 
ATOM     96  O   UNL A   1      48.606  28.711  38.883  1.00  0.00    -0.237 OA
ATOM     97  O   UNL A   1      47.950  26.369  38.428  1.00  0.00    -0.237 OA
ATOM     98  O   UNL A   1      49.485  27.536  36.895  1.00  0.00    -0.744 OA
ENDBRANCH  94  95
ENDBRANCH  62  87
BRANCH  74  99
ATOM     99  C   UNL A   1      39.688  33.557  37.542  1.00  0.00     0.058 A 
ATOM    100  C   UNL A   1      38.780  33.017  38.466  1.00  0.00     0.135 A 
ATOM    101  C   UNL A   1      40.350  34.746  37.892  1.00  0.00     0.135 A 
ATOM    102  F   UNL A   1      38.115  31.887  38.179  1.00  0.00    -0.206 F 
ATOM    103  C   UNL A   1      38.522  33.643  39.681  1.00  0.00     0.059 A 
ATOM    104  C   UNL A   1      40.128  35.375  39.112  1.00  0.00     0.059 A 
ATOM    105  F   UNL A   1      41.235  35.300  37.047  1.00  0.00    -0.206 F 
ATOM    106  C   UNL A   1      39.203  34.821  39.997  1.00  0.00     0.060 A 
BRANCH 106 107
ATOM    107  S   UNL A   1      38.885  35.604  41.592  1.00  0.00     0.124 S 
ATOM    108  O   UNL A   1      39.057  37.016  41.266  1.00  0.00    -0.237 OA
ATOM    109  O   UNL A   1      37.520  35.180  41.881  1.00  0.00    -0.237 OA
ATOM    110  O   UNL A   1      39.910  35.031  42.461  1.00  0.00    -0.744 OA
ENDBRANCH 106 107
ENDBRANCH  74  99
ENDBRANCH  48  49
ENDBRANCH  40  43
ENDBRANCH  38  39
ENDBRANCH  37  38
ENDBRANCH  36  37
ENDBRANCH  35  36
ENDBRANCH  34  35
ENDBRANCH  33  34
ENDBRANCH   3  33
TORSDOF 26
ENDMDL
MODEL 3
REMARK VINA RESULT:      -9.4      5.360      8.745
REMARK SMILES CCCCCCNC(=O)Oc1cccc(-c2ccc([C@@H](C)C(=O)NCCCCCCNC(=O)c3ccc(-c4c5nc(c(-c6c(F)cc(S(=O)(=O)[O-])cc6F)c6ccc([nH]6)c(-c6c(F)cc(S(=O)(=O)[O-])cc6F)c6nc(c(-c7c(F)cc(S(=O)(=O)[O-])cc7F)c7ccc4[nH]7)C=C6)C=C5)cc3)cc2[N+](=O)[O-])c1
REMARK SMILES IDX 22 1 23 2 24 3 20 5 21 6 19 7 16 8 17 9 101 10 18 11 100 12
REMARK SMILES IDX 15 13 11 14 12 15 105 16 13 17 14 18 10 19 8 20 7 21 9 23
REMARK SMILES IDX 6 24 5 25 4 26 3 27 2 28 1 29 102 30 103 31 104 32 25 33
REMARK SMILES IDX 26 34 27 35 28 36 29 37 30 38 31 39 32 40 33 42 34 43 35 44
REMARK SMILES IDX 99 45 36 46 98 47 37 48 38 49 39 50 92 51 40 52 97 53 91 54
REMARK SMILES IDX 93 55 41 56 96 57 90 58 89 59 42 61 76 62 55 63 75 64 56 65
REMARK SMILES IDX 59 66 74 67 94 68 57 69 58 70 73 72 95 73 60 74 43 75 44 76
REMARK SMILES IDX 53 77 45 78 46 79 52 80 54 81 47 82 48 83 49 84 50 85 51 86
REMARK SMILES IDX 77 87 78 88 87 89 79 90 80 91 86 92 88 93 81 94 82 95 83 96
REMARK SMILES IDX 84 97 85 98 61 99 62 100 71 101 63 102 64 103 70 104 72 105
REMARK SMILES IDX 65 106 66 107 67 108 68 109 69 110
REMARK H PARENT 24 4 7 22 31 41 93 60 59 71
REMARK Flexibility Score: inf
ROOT
ATOM      1  C   UNL A   1      33.091  17.911  24.936  1.00  0.00     0.227 C 
ATOM      2  O   UNL A   1      32.456  17.159  25.687  1.00  0.00    -0.274 OA
ATOM      3  N   UNL A   1      34.440  17.932  25.105  1.00  0.00    -0.356 N 
ATOM      4  H   UNL A   1      34.775  17.270  25.753  1.00  0.00     0.163 HD
ENDROOT
BRANCH   1   5
ATOM      5  C   UNL A   1      32.344  18.741  23.880  1.00  0.00     0.105 C 
ATOM      6  C   UNL A   1      32.603  18.312  22.436  1.00  0.00     0.023 C 
BRANCH   5   7
ATOM      7  C   UNL A   1      32.375  20.241  24.137  1.00  0.00    -0.029 A 
ATOM      8  C   UNL A   1      32.273  23.096  24.452  1.00  0.00     0.060 A 
ATOM      9  C   UNL A   1      31.753  22.221  25.420  1.00  0.00     0.016 A 
ATOM     10  C   UNL A   1      32.934  22.492  23.366  1.00  0.00     0.277 A 
ATOM     11  C   UNL A   1      31.841  20.829  25.286  1.00  0.00     0.005 A 
ATOM     12  C   UNL A   1      32.951  21.094  23.184  1.00  0.00     0.090 A 
BRANCH   8  13
ATOM     13  C   UNL A   1      32.050  24.549  24.609  1.00  0.00    -0.008 A 
ATOM     14  C   UNL A   1      32.615  26.682  25.627  1.00  0.00     0.133 A 
ATOM     15  C   UNL A   1      31.625  27.329  24.895  1.00  0.00     0.047 A 
ATOM     16  C   UNL A   1      32.841  25.312  25.485  1.00  0.00     0.056 A 
ATOM     17  C   UNL A   1      30.855  26.595  23.998  1.00  0.00     0.004 A 
ATOM     18  C   UNL A   1      31.060  25.219  23.864  1.00  0.00     0.009 A 
BRANCH  14  19
ATOM     19  O   UNL A   1      33.259  27.432  26.626  1.00  0.00    -0.410 OA
BRANCH  19  20
ATOM     20  C   UNL A   1      32.508  28.228  27.476  1.00  0.00     0.412 C 
ATOM     21  N   UNL A   1      33.027  29.487  27.619  1.00  0.00    -0.321 N 
ATOM     22  H   UNL A   1      32.574  30.082  28.261  1.00  0.00     0.167 HD
ATOM     23  O   UNL A   1      31.485  27.896  28.060  1.00  0.00    -0.224 OA
BRANCH  21  24
ATOM     24  C   UNL A   1      34.174  30.033  26.922  1.00  0.00     0.119 C 
BRANCH  24  25
ATOM     25  C   UNL A   1      35.231  30.564  27.892  1.00  0.00     0.021 C 
BRANCH  25  26
ATOM     26  C   UNL A   1      36.513  29.726  27.970  1.00  0.00     0.002 C 
BRANCH  26  27
ATOM     27  C   UNL A   1      37.767  30.482  28.419  1.00  0.00    -0.000 C 
BRANCH  27  28
ATOM     28  C   UNL A   1      38.726  29.690  29.312  1.00  0.00    -0.003 C 
ATOM     29  C   UNL A   1      38.016  28.702  30.226  1.00  0.00     0.004 C 
ENDBRANCH  27  28
ENDBRANCH  26  27
ENDBRANCH  25  26
ENDBRANCH  24  25
ENDBRANCH  21  24
ENDBRANCH  19  20
ENDBRANCH  14  19
ENDBRANCH   8  13
BRANCH  10  30
ATOM     30  N   UNL A   1      33.700  23.286  22.408  1.00  0.00     0.063 N 
ATOM     31  O   UNL A   1      34.880  23.535  22.692  1.00  0.00    -0.258 OA
ATOM     32  O   UNL A   1      33.108  23.712  21.405  1.00  0.00    -0.258 OA
ENDBRANCH  10  30
ENDBRANCH   5   7
ENDBRANCH   1   5
BRANCH   3  33
ATOM     33  C   UNL A   1      35.474  18.749  24.507  1.00  0.00     0.116 C 
BRANCH  33  34
ATOM     34  C   UNL A   1      35.616  20.090  25.232  1.00  0.00     0.021 C 
BRANCH  34  35
ATOM     35  C   UNL A   1      36.662  21.021  24.610  1.00  0.00     0.002 C 
BRANCH  35  36
ATOM     36  C   UNL A   1      38.006  21.068  25.350  1.00  0.00     0.002 C 
BRANCH  36  37
ATOM     37  C   UNL A   1      38.397  22.437  25.913  1.00  0.00     0.021 C 
BRANCH  37  38
ATOM     38  C   UNL A   1      39.648  22.430  26.786  1.00  0.00     0.116 C 
BRANCH  38  39
ATOM     39  N   UNL A   1      40.662  21.527  26.264  1.00  0.00    -0.352 N 
ATOM     40  C   UNL A   1      41.990  21.762  26.009  1.00  0.00     0.251 C 
ATOM     41  H   UNL A   1      40.350  20.615  26.066  1.00  0.00     0.163 HD
ATOM     42  O   UNL A   1      42.633  20.962  25.334  1.00  0.00    -0.269 OA
BRANCH  40  43
ATOM     43  C   UNL A   1      42.641  22.978  26.539  1.00  0.00     0.039 A 
ATOM     44  C   UNL A   1      43.186  22.952  27.826  1.00  0.00     0.014 A 
ATOM     45  C   UNL A   1      42.688  24.150  25.779  1.00  0.00     0.014 A 
ATOM     46  C   UNL A   1      43.826  24.088  28.328  1.00  0.00     0.010 A 
ATOM     47  C   UNL A   1      43.388  25.255  26.252  1.00  0.00     0.010 A 
ATOM     48  C   UNL A   1      43.957  25.238  27.534  1.00  0.00    -0.014 A 
BRANCH  48  49
ATOM     49  C   UNL A   1      44.677  26.439  28.029  1.00  0.00     0.031 A 
ATOM     50  C   UNL A   1      46.153  26.591  27.783  1.00  0.00     0.074 A 
ATOM     51  C   UNL A   1      44.013  27.362  28.752  1.00  0.00     0.049 A 
ATOM     52  N   UNL A   1      46.964  27.539  28.178  1.00  0.00    -0.248 NA
ATOM     53  C   UNL A   1      46.808  25.521  27.016  1.00  0.00     0.031 C 
ATOM     54  C   UNL A   1      42.588  27.308  29.087  1.00  0.00     0.029 A 
ATOM     55  N   UNL A   1      44.448  28.524  29.336  1.00  0.00    -0.354 N 
ATOM     56  C   UNL A   1      48.224  27.175  27.717  1.00  0.00     0.074 A 
ATOM     57  C   UNL A   1      48.078  25.889  27.069  1.00  0.00     0.031 C 
ATOM     58  C   UNL A   1      42.260  28.406  29.785  1.00  0.00     0.029 A 
ATOM     59  C   UNL A   1      43.455  29.222  29.981  1.00  0.00     0.049 A 
ATOM     60  H   UNL A   1      45.383  28.829  29.297  1.00  0.00     0.167 HD
ATOM     61  C   UNL A   1      49.390  27.860  27.803  1.00  0.00     0.037 A 
ATOM     62  C   UNL A   1      43.502  30.389  30.652  1.00  0.00     0.037 A 
ATOM     63  C   UNL A   1      49.524  29.143  28.441  1.00  0.00     0.049 A 
ATOM     64  C   UNL A   1      44.811  31.120  30.761  1.00  0.00     0.074 A 
ATOM     65  C   UNL A   1      50.648  29.944  28.544  1.00  0.00     0.029 A 
ATOM     66  N   UNL A   1      48.497  29.813  29.095  1.00  0.00    -0.354 N 
ATOM     67  N   UNL A   1      45.983  30.789  30.273  1.00  0.00    -0.248 NA
ATOM     68  C   UNL A   1      44.804  32.382  31.512  1.00  0.00     0.031 C 
ATOM     69  C   UNL A   1      50.313  31.074  29.298  1.00  0.00     0.029 A 
ATOM     70  C   UNL A   1      48.967  31.003  29.623  1.00  0.00     0.049 A 
ATOM     71  H   UNL A   1      47.571  29.488  29.170  1.00  0.00     0.167 HD
ATOM     72  C   UNL A   1      46.847  31.819  30.631  1.00  0.00     0.074 A 
ATOM     73  C   UNL A   1      46.060  32.783  31.373  1.00  0.00     0.031 C 
ATOM     74  C   UNL A   1      48.170  31.954  30.363  1.00  0.00     0.037 A 
BRANCH  61  75
ATOM     75  C   UNL A   1      50.610  27.215  27.198  1.00  0.00     0.058 A 
ATOM     76  C   UNL A   1      50.895  27.316  25.826  1.00  0.00     0.135 A 
ATOM     77  C   UNL A   1      51.492  26.466  27.993  1.00  0.00     0.135 A 
ATOM     78  F   UNL A   1      50.081  28.011  25.016  1.00  0.00    -0.206 F 
ATOM     79  C   UNL A   1      51.974  26.648  25.254  1.00  0.00     0.059 A 
ATOM     80  C   UNL A   1      52.596  25.815  27.448  1.00  0.00     0.059 A 
ATOM     81  F   UNL A   1      51.274  26.339  29.312  1.00  0.00    -0.206 F 
ATOM     82  C   UNL A   1      52.811  25.889  26.072  1.00  0.00     0.060 A 
BRANCH  82  83
ATOM     83  S   UNL A   1      54.173  24.982  25.310  1.00  0.00     0.124 S 
ATOM     84  O   UNL A   1      54.630  25.938  24.305  1.00  0.00    -0.237 OA
ATOM     85  O   UNL A   1      55.076  24.767  26.436  1.00  0.00    -0.237 OA
ATOM     86  O   UNL A   1      53.530  23.781  24.787  1.00  0.00    -0.744 OA
ENDBRANCH  82  83
ENDBRANCH  61  75
BRANCH  62  87
ATOM     87  C   UNL A   1      42.253  30.959  31.223  1.00  0.00     0.058 A 
ATOM     88  C   UNL A   1      41.820  30.586  32.504  1.00  0.00     0.135 A 
ATOM     89  C   UNL A   1      41.499  31.919  30.530  1.00  0.00     0.135 A 
ATOM     90  F   UNL A   1      42.506  29.667  33.202  1.00  0.00    -0.206 F 
ATOM     91  C   UNL A   1      40.684  31.142  33.080  1.00  0.00     0.059 A 
ATOM     92  C   UNL A   1      40.370  32.506  31.094  1.00  0.00     0.059 A 
ATOM     93  F   UNL A   1      41.880  32.320  29.308  1.00  0.00    -0.206 F 
ATOM     94  C   UNL A   1      39.970  32.109  32.370  1.00  0.00     0.060 A 
BRANCH  94  95
ATOM     95  S   UNL A   1      38.543  32.882  33.162  1.00  0.00     0.124 S 
ATOM     96  O   UNL A   1      38.862  34.298  33.026  1.00  0.00    -0.237 OA
ATOM     97  O   UNL A   1      37.438  32.393  32.345  1.00  0.00    -0.237 OA
ATOM     98  O   UNL A   1      38.586  32.351  34.523  1.00  0.00    -0.744 OA
ENDBRANCH  94  95
ENDBRANCH  62  87
BRANCH  74  99
ATOM     99  C   UNL A   1      48.847  33.206  30.850  1.00  0.00     0.058 A 
ATOM    100  C   UNL A   1      49.445  33.277  32.117  1.00  0.00     0.135 A 
ATOM    101  C   UNL A   1      48.942  34.332  30.016  1.00  0.00     0.135 A 
ATOM    102  F   UNL A   1      49.377  32.232  32.957  1.00  0.00    -0.206 F 
ATOM    103  C   UNL A   1      50.092  34.430  32.551  1.00  0.00     0.059 A 
ATOM    104  C   UNL A   1      49.608  35.485  30.417  1.00  0.00     0.059 A 
ATOM    105  F   UNL A   1      48.395  34.313  28.789  1.00  0.00    -0.206 F 
ATOM    106  C   UNL A   1      50.171  35.529  31.692  1.00  0.00     0.060 A 
BRANCH 106 107
ATOM    107  S   UNL A   1      51.045  37.006  32.253  1.00  0.00     0.124 S 
ATOM    108  O   UNL A   1      50.098  37.559  33.216  1.00  0.00    -0.237 OA
ATOM    109  O   UNL A   1      52.270  36.448  32.815  1.00  0.00    -0.237 OA
ATOM    110  O   UNL A   1      51.221  37.781  31.028  1.00  0.00    -0.744 OA
ENDBRANCH 106 107
ENDBRANCH  74  99
ENDBRANCH  48  49
ENDBRANCH  40  43
ENDBRANCH  38  39
ENDBRANCH  37  38
ENDBRANCH  36  37
ENDBRANCH  35  36
ENDBRANCH  34  35
ENDBRANCH  33  34
ENDBRANCH   3  33
TORSDOF 26
ENDMDL
