MODEL 1
REMARK VINA RESULT:     -10.6      0.000      0.000
REMARK SMILES O=C(NCCCCCCNC(=O)[C@@H](Cc1ccc(F)cc1)C[C@H](O)C(F)(F)F)c1ccc(-c2c3nc(c(-c4c(F)cc(S(=O)(=O)[O-])cc4F)c4ccc([nH]4)c(-c4c(F)cc(S(=O)(=O)[O-])cc4F)c4nc(c(-c5c(F)cc(S(=O)(=O)[O-])cc5F)c5ccc2[nH]5)C=C4)C=C3)cc1
REMARK SMILES IDX 6 1 5 2 4 3 3 4 1 5 2 6 29 8 30 9 94 10 31 11 93 12 32 13
REMARK SMILES IDX 33 14 34 15 87 16 35 17 92 18 86 19 88 20 36 21 91 22 85 23
REMARK SMILES IDX 84 24 37 26 71 27 50 28 70 29 51 30 54 31 69 32 89 33 52 34
REMARK SMILES IDX 53 35 68 37 90 38 55 39 38 40 39 41 48 42 40 43 41 44 47 45
REMARK SMILES IDX 49 46 42 47 43 48 44 49 45 50 46 51 72 52 73 53 82 54 74 55
REMARK SMILES IDX 75 56 81 57 83 58 76 59 77 60 78 61 79 62 80 63 56 64 57 65
REMARK SMILES IDX 66 66 58 67 59 68 65 69 67 70 60 71 61 72 62 73 63 74 64 75
REMARK SMILES IDX 7 76 8 77 9 78 10 79 11 80 12 82 13 83 14 84 15 85 16 86
REMARK SMILES IDX 21 87 17 88 20 89 18 90 19 91 22 92 23 93 25 94 26 95 27 96
REMARK SMILES IDX 28 97 24 98
REMARK H PARENT 3 7 88 25 54 36 10 81 24 99
REMARK Flexibility Score: inf
ROOT
ATOM      1  C   UNL A   1      32.912  26.124  25.708  1.00  0.00     0.002 C 
ENDROOT
BRANCH   1   2
ATOM      2  C   UNL A   1      32.804  27.388  26.566  1.00  0.00     0.021 C 
BRANCH   2   3
ATOM      3  C   UNL A   1      34.100  28.181  26.697  1.00  0.00     0.116 C 
BRANCH   3   4
ATOM      4  N   UNL A   1      33.855  29.537  27.162  1.00  0.00    -0.352 N 
ATOM      5  O   UNL A   1      34.144  31.363  28.444  1.00  0.00    -0.269 OA
ATOM      6  C   UNL A   1      34.630  30.348  27.954  1.00  0.00     0.251 C 
ATOM      7  H   UNL A   1      33.005  29.934  26.864  1.00  0.00     0.163 HD
BRANCH   6   8
ATOM      8  C   UNL A   1      36.041  29.994  28.221  1.00  0.00     0.039 A 
ATOM      9  C   UNL A   1      37.023  30.197  27.249  1.00  0.00     0.014 A 
ATOM     10  C   UNL A   1      36.395  29.495  29.479  1.00  0.00     0.014 A 
ATOM     11  C   UNL A   1      38.328  29.781  27.484  1.00  0.00     0.010 A 
ATOM     12  C   UNL A   1      37.727  29.161  29.745  1.00  0.00     0.010 A 
ATOM     13  C   UNL A   1      38.701  29.282  28.742  1.00  0.00    -0.014 A 
BRANCH  13  14
ATOM     14  C   UNL A   1      40.130  28.973  29.007  1.00  0.00     0.031 A 
ATOM     15  C   UNL A   1      41.021  29.950  29.722  1.00  0.00     0.074 A 
ATOM     16  C   UNL A   1      40.610  27.774  28.619  1.00  0.00     0.049 A 
ATOM     17  N   UNL A   1      42.283  29.824  30.046  1.00  0.00    -0.248 NA
ATOM     18  C   UNL A   1      40.425  31.234  30.121  1.00  0.00     0.031 C 
ATOM     19  C   UNL A   1      39.836  26.748  27.915  1.00  0.00     0.029 A 
ATOM     20  N   UNL A   1      41.847  27.204  28.776  1.00  0.00    -0.354 N 
ATOM     21  C   UNL A   1      42.634  31.008  30.684  1.00  0.00     0.074 A 
ATOM     22  C   UNL A   1      41.462  31.857  30.664  1.00  0.00     0.031 C 
ATOM     23  C   UNL A   1      40.595  25.655  27.755  1.00  0.00     0.029 A 
ATOM     24  C   UNL A   1      41.929  25.925  28.278  1.00  0.00     0.049 A 
ATOM     25  H   UNL A   1      42.603  27.665  29.205  1.00  0.00     0.167 HD
ATOM     26  C   UNL A   1      43.821  31.345  31.244  1.00  0.00     0.037 A 
ATOM     27  C   UNL A   1      42.965  25.064  28.233  1.00  0.00     0.037 A 
ATOM     28  C   UNL A   1      44.980  30.486  31.256  1.00  0.00     0.049 A 
ATOM     29  C   UNL A   1      44.284  25.485  28.811  1.00  0.00     0.074 A 
ATOM     30  C   UNL A   1      46.226  30.734  31.807  1.00  0.00     0.029 A 
ATOM     31  N   UNL A   1      45.041  29.220  30.691  1.00  0.00    -0.354 N 
ATOM     32  N   UNL A   1      44.595  26.605  29.419  1.00  0.00    -0.248 NA
ATOM     33  C   UNL A   1      45.395  24.532  28.693  1.00  0.00     0.031 C 
ATOM     34  C   UNL A   1      47.053  29.641  31.532  1.00  0.00     0.029 A 
ATOM     35  C   UNL A   1      46.308  28.684  30.860  1.00  0.00     0.049 A 
ATOM     36  H   UNL A   1      44.294  28.769  30.236  1.00  0.00     0.167 HD
ATOM     37  C   UNL A   1      45.934  26.485  29.772  1.00  0.00     0.074 A 
ATOM     38  C   UNL A   1      46.367  25.177  29.324  1.00  0.00     0.031 C 
ATOM     39  C   UNL A   1      46.730  27.380  30.409  1.00  0.00     0.037 A 
BRANCH  26  40
ATOM     40  C   UNL A   1      43.936  32.698  31.894  1.00  0.00     0.058 A 
ATOM     41  C   UNL A   1      44.373  33.811  31.157  1.00  0.00     0.135 A 
ATOM     42  C   UNL A   1      43.680  32.882  33.262  1.00  0.00     0.135 A 
ATOM     43  F   UNL A   1      44.631  33.696  29.845  1.00  0.00    -0.206 F 
ATOM     44  C   UNL A   1      44.566  35.053  31.756  1.00  0.00     0.059 A 
ATOM     45  C   UNL A   1      43.839  34.122  33.876  1.00  0.00     0.059 A 
ATOM     46  F   UNL A   1      43.241  31.858  34.011  1.00  0.00    -0.206 F 
ATOM     47  C   UNL A   1      44.295  35.199  33.117  1.00  0.00     0.060 A 
BRANCH  47  48
ATOM     48  S   UNL A   1      44.514  36.825  33.872  1.00  0.00     0.124 S 
ATOM     49  O   UNL A   1      43.594  37.645  33.092  1.00  0.00    -0.237 OA
ATOM     50  O   UNL A   1      44.128  36.573  35.257  1.00  0.00    -0.237 OA
ATOM     51  O   UNL A   1      45.932  37.103  33.668  1.00  0.00    -0.744 OA
ENDBRANCH  47  48
ENDBRANCH  26  40
BRANCH  27  52
ATOM     52  C   UNL A   1      42.773  23.720  27.629  1.00  0.00     0.058 A 
ATOM     53  C   UNL A   1      42.479  22.599  28.422  1.00  0.00     0.135 A 
ATOM     54  C   UNL A   1      42.939  23.519  26.251  1.00  0.00     0.135 A 
ATOM     55  F   UNL A   1      42.321  22.735  29.748  1.00  0.00    -0.206 F 
ATOM     56  C   UNL A   1      42.395  21.323  27.877  1.00  0.00     0.059 A 
ATOM     57  C   UNL A   1      42.830  22.256  25.678  1.00  0.00     0.059 A 
ATOM     58  F   UNL A   1      43.210  24.562  25.451  1.00  0.00    -0.206 F 
ATOM     59  C   UNL A   1      42.578  21.161  26.504  1.00  0.00     0.060 A 
BRANCH  59  60
ATOM     60  S   UNL A   1      42.488  19.493  25.822  1.00  0.00     0.124 S 
ATOM     61  O   UNL A   1      42.825  18.682  26.988  1.00  0.00    -0.237 OA
ATOM     62  O   UNL A   1      41.100  19.420  25.378  1.00  0.00    -0.237 OA
ATOM     63  O   UNL A   1      43.486  19.508  24.757  1.00  0.00    -0.744 OA
ENDBRANCH  59  60
ENDBRANCH  27  52
BRANCH  39  64
ATOM     64  C   UNL A   1      48.152  26.974  30.681  1.00  0.00     0.058 A 
ATOM     65  C   UNL A   1      48.483  26.294  31.864  1.00  0.00     0.135 A 
ATOM     66  C   UNL A   1      49.196  27.316  29.808  1.00  0.00     0.135 A 
ATOM     67  F   UNL A   1      47.524  25.946  32.736  1.00  0.00    -0.206 F 
ATOM     68  C   UNL A   1      49.802  25.986  32.182  1.00  0.00     0.059 A 
ATOM     69  C   UNL A   1      50.519  26.991  30.091  1.00  0.00     0.059 A 
ATOM     70  F   UNL A   1      48.932  27.954  28.656  1.00  0.00    -0.206 F 
ATOM     71  C   UNL A   1      50.814  26.341  31.289  1.00  0.00     0.060 A 
BRANCH  71  72
ATOM     72  S   UNL A   1      52.517  25.922  31.713  1.00  0.00     0.124 S 
ATOM     73  O   UNL A   1      53.201  26.121  30.439  1.00  0.00    -0.237 OA
ATOM     74  O   UNL A   1      52.823  26.895  32.757  1.00  0.00    -0.237 OA
ATOM     75  O   UNL A   1      52.423  24.536  32.165  1.00  0.00    -0.744 OA
ENDBRANCH  71  72
ENDBRANCH  39  64
ENDBRANCH  13  14
ENDBRANCH   6   8
ENDBRANCH   3   4
ENDBRANCH   2   3
ENDBRANCH   1   2
BRANCH   1  76
ATOM     76  C   UNL A   1      31.632  25.283  25.609  1.00  0.00     0.002 C 
BRANCH  76  77
ATOM     77  C   UNL A   1      31.754  24.040  24.728  1.00  0.00     0.021 C 
BRANCH  77  78
ATOM     78  C   UNL A   1      31.131  22.784  25.333  1.00  0.00     0.116 C 
BRANCH  78  79
ATOM     79  N   UNL A   1      31.990  22.225  26.349  1.00  0.00    -0.356 N 
ATOM     80  C   UNL A   1      33.098  21.455  26.254  1.00  0.00     0.223 C 
ATOM     81  H   UNL A   1      31.725  22.443  27.273  1.00  0.00     0.163 HD
ATOM     82  O   UNL A   1      33.624  21.100  27.315  1.00  0.00    -0.275 OA
BRANCH  80  83
ATOM     83  C   UNL A   1      33.725  21.020  24.926  1.00  0.00     0.085 C 
BRANCH  83  84
ATOM     84  C   UNL A   1      34.750  22.023  24.325  1.00  0.00     0.049 C 
BRANCH  84  85
ATOM     85  C   UNL A   1      36.113  22.286  24.937  1.00  0.00    -0.047 A 
ATOM     86  C   UNL A   1      37.185  21.382  24.861  1.00  0.00     0.007 A 
ATOM     87  C   UNL A   1      36.358  23.535  25.542  1.00  0.00     0.007 A 
ATOM     88  C   UNL A   1      38.397  21.643  25.506  1.00  0.00     0.039 A 
ATOM     89  C   UNL A   1      37.587  23.818  26.147  1.00  0.00     0.039 A 
ATOM     90  C   UNL A   1      38.583  22.853  26.156  1.00  0.00     0.123 A 
ATOM     91  F   UNL A   1      39.729  23.087  26.807  1.00  0.00    -0.207 F 
ENDBRANCH  84  85
ENDBRANCH  83  84
BRANCH  83  92
ATOM     92  C   UNL A   1      34.073  19.529  24.792  1.00  0.00     0.055 C 
BRANCH  92  93
ATOM     93  C   UNL A   1      32.879  18.569  24.933  1.00  0.00     0.220 C 
BRANCH  93  94
ATOM     94  C   UNL A   1      33.090  17.325  24.049  1.00  0.00     0.414 C 
ATOM     95  F   UNL A   1      32.450  17.439  22.867  1.00  0.00    -0.168 F 
ATOM     96  F   UNL A   1      34.400  17.121  23.790  1.00  0.00    -0.168 F 
ATOM     97  F   UNL A   1      32.612  16.220  24.669  1.00  0.00    -0.168 F 
ENDBRANCH  93  94
BRANCH  93  98
ATOM     98  O   UNL A   1      32.757  18.219  26.326  1.00  0.00    -0.384 OA
ATOM     99  H   UNL A   1      33.527  17.696  26.598  1.00  0.00     0.211 HD
ENDBRANCH  93  98
ENDBRANCH  92  93
ENDBRANCH  83  92
ENDBRANCH  80  83
ENDBRANCH  78  79
ENDBRANCH  77  78
ENDBRANCH  76  77
ENDBRANCH   1  76
TORSDOF 22
ENDMDL
MODEL 2
REMARK VINA RESULT:     -10.6      0.747      8.165
REMARK SMILES O=C(NCCCCCCNC(=O)[C@@H](Cc1ccc(F)cc1)C[C@H](O)C(F)(F)F)c1ccc(-c2c3nc(c(-c4c(F)cc(S(=O)(=O)[O-])cc4F)c4ccc([nH]4)c(-c4c(F)cc(S(=O)(=O)[O-])cc4F)c4nc(c(-c5c(F)cc(S(=O)(=O)[O-])cc5F)c5ccc2[nH]5)C=C4)C=C3)cc1
REMARK SMILES IDX 6 1 5 2 4 3 3 4 1 5 2 6 29 8 30 9 94 10 31 11 93 12 32 13
REMARK SMILES IDX 33 14 34 15 87 16 35 17 92 18 86 19 88 20 36 21 91 22 85 23
REMARK SMILES IDX 84 24 37 26 71 27 50 28 70 29 51 30 54 31 69 32 89 33 52 34
REMARK SMILES IDX 53 35 68 37 90 38 55 39 38 40 39 41 48 42 40 43 41 44 47 45
REMARK SMILES IDX 49 46 42 47 43 48 44 49 45 50 46 51 72 52 73 53 82 54 74 55
REMARK SMILES IDX 75 56 81 57 83 58 76 59 77 60 78 61 79 62 80 63 56 64 57 65
REMARK SMILES IDX 66 66 58 67 59 68 65 69 67 70 60 71 61 72 62 73 63 74 64 75
REMARK SMILES IDX 7 76 8 77 9 78 10 79 11 80 12 82 13 83 14 84 15 85 16 86
REMARK SMILES IDX 21 87 17 88 20 89 18 90 19 91 22 92 23 93 25 94 26 95 27 96
REMARK SMILES IDX 28 97 24 98
REMARK H PARENT 3 7 88 25 54 36 10 81 24 99
REMARK Flexibility Score: inf
ROOT
ATOM      1  C   UNL A   1      32.582  26.284  25.687  1.00  0.00     0.002 C 
ENDROOT
BRANCH   1   2
ATOM      2  C   UNL A   1      32.592  27.384  26.752  1.00  0.00     0.021 C 
BRANCH   2   3
ATOM      3  C   UNL A   1      33.899  28.163  26.849  1.00  0.00     0.116 C 
BRANCH   3   4
ATOM      4  N   UNL A   1      33.675  29.540  27.261  1.00  0.00    -0.352 N 
ATOM      5  O   UNL A   1      34.004  31.415  28.460  1.00  0.00    -0.269 OA
ATOM      6  C   UNL A   1      34.472  30.376  28.004  1.00  0.00     0.251 C 
ATOM      7  H   UNL A   1      32.822  29.932  26.964  1.00  0.00     0.163 HD
BRANCH   6   8
ATOM      8  C   UNL A   1      35.885  30.022  28.257  1.00  0.00     0.039 A 
ATOM      9  C   UNL A   1      36.845  30.156  27.252  1.00  0.00     0.014 A 
ATOM     10  C   UNL A   1      36.265  29.592  29.533  1.00  0.00     0.014 A 
ATOM     11  C   UNL A   1      38.151  29.738  27.479  1.00  0.00     0.010 A 
ATOM     12  C   UNL A   1      37.599  29.258  29.786  1.00  0.00     0.010 A 
ATOM     13  C   UNL A   1      38.550  29.309  28.755  1.00  0.00    -0.014 A 
BRANCH  13  14
ATOM     14  C   UNL A   1      39.981  28.999  29.003  1.00  0.00     0.031 A 
ATOM     15  C   UNL A   1      40.562  27.658  28.654  1.00  0.00     0.074 A 
ATOM     16  C   UNL A   1      40.766  29.964  29.523  1.00  0.00     0.049 A 
ATOM     17  N   UNL A   1      41.793  27.236  28.790  1.00  0.00    -0.248 NA
ATOM     18  C   UNL A   1      39.646  26.658  28.085  1.00  0.00     0.031 C 
ATOM     19  C   UNL A   1      40.310  31.305  29.902  1.00  0.00     0.029 A 
ATOM     20  N   UNL A   1      42.109  29.983  29.802  1.00  0.00    -0.354 N 
ATOM     21  C   UNL A   1      41.803  25.926  28.327  1.00  0.00     0.074 A 
ATOM     22  C   UNL A   1      40.444  25.608  27.944  1.00  0.00     0.031 C 
ATOM     23  C   UNL A   1      41.360  32.031  30.307  1.00  0.00     0.029 A 
ATOM     24  C   UNL A   1      42.552  31.191  30.285  1.00  0.00     0.049 A 
ATOM     25  H   UNL A   1      42.698  29.206  29.668  1.00  0.00     0.167 HD
ATOM     26  C   UNL A   1      42.853  25.076  28.219  1.00  0.00     0.037 A 
ATOM     27  C   UNL A   1      43.780  31.582  30.681  1.00  0.00     0.037 A 
ATOM     28  C   UNL A   1      44.203  25.409  28.604  1.00  0.00     0.049 A 
ATOM     29  C   UNL A   1      44.914  30.602  30.604  1.00  0.00     0.074 A 
ATOM     30  C   UNL A   1      45.338  24.619  28.525  1.00  0.00     0.029 A 
ATOM     31  N   UNL A   1      44.603  26.624  29.143  1.00  0.00    -0.354 N 
ATOM     32  N   UNL A   1      44.906  29.370  30.154  1.00  0.00    -0.248 NA
ATOM     33  C   UNL A   1      46.221  31.060  31.093  1.00  0.00     0.031 C 
ATOM     34  C   UNL A   1      46.411  25.337  29.061  1.00  0.00     0.029 A 
ATOM     35  C   UNL A   1      45.961  26.598  29.421  1.00  0.00     0.049 A 
ATOM     36  H   UNL A   1      44.009  27.393  29.304  1.00  0.00     0.167 HD
ATOM     37  C   UNL A   1      46.210  28.910  30.289  1.00  0.00     0.074 A 
ATOM     38  C   UNL A   1      46.982  30.002  30.848  1.00  0.00     0.031 C 
ATOM     39  C   UNL A   1      46.719  27.691  29.979  1.00  0.00     0.037 A 
BRANCH  26  40
ATOM     40  C   UNL A   1      42.595  23.701  27.663  1.00  0.00     0.058 A 
ATOM     41  C   UNL A   1      42.437  22.600  28.522  1.00  0.00     0.135 A 
ATOM     42  C   UNL A   1      42.570  23.458  26.281  1.00  0.00     0.135 A 
ATOM     43  F   UNL A   1      42.450  22.772  29.853  1.00  0.00    -0.206 F 
ATOM     44  C   UNL A   1      42.280  21.308  28.029  1.00  0.00     0.059 A 
ATOM     45  C   UNL A   1      42.386  22.177  25.766  1.00  0.00     0.059 A 
ATOM     46  F   UNL A   1      42.696  24.476  25.413  1.00  0.00    -0.206 F 
ATOM     47  C   UNL A   1      42.255  21.106  26.648  1.00  0.00     0.060 A 
BRANCH  47  48
ATOM     48  S   UNL A   1      42.012  19.428  26.025  1.00  0.00     0.124 S 
ATOM     49  O   UNL A   1      40.578  19.410  25.760  1.00  0.00    -0.237 OA
ATOM     50  O   UNL A   1      42.878  19.411  24.850  1.00  0.00    -0.237 OA
ATOM     51  O   UNL A   1      42.458  18.589  27.133  1.00  0.00    -0.744 OA
ENDBRANCH  47  48
ENDBRANCH  26  40
BRANCH  27  52
ATOM     52  C   UNL A   1      43.983  32.972  31.166  1.00  0.00     0.058 A 
ATOM     53  C   UNL A   1      43.785  33.310  32.515  1.00  0.00     0.135 A 
ATOM     54  C   UNL A   1      44.321  34.003  30.278  1.00  0.00     0.135 A 
ATOM     55  F   UNL A   1      43.449  32.363  33.405  1.00  0.00    -0.206 F 
ATOM     56  C   UNL A   1      43.877  34.624  32.958  1.00  0.00     0.059 A 
ATOM     57  C   UNL A   1      44.448  35.322  30.703  1.00  0.00     0.059 A 
ATOM     58  F   UNL A   1      44.530  33.727  28.981  1.00  0.00    -0.206 F 
ATOM     59  C   UNL A   1      44.204  35.625  32.042  1.00  0.00     0.060 A 
BRANCH  59  60
ATOM     60  S   UNL A   1      44.295  37.327  32.634  1.00  0.00     0.124 S 
ATOM     61  O   UNL A   1      43.230  37.346  33.632  1.00  0.00    -0.237 OA
ATOM     62  O   UNL A   1      45.656  37.395  33.156  1.00  0.00    -0.237 OA
ATOM     63  O   UNL A   1      44.045  38.117  31.433  1.00  0.00    -0.744 OA
ENDBRANCH  59  60
ENDBRANCH  27  52
BRANCH  39  64
ATOM     64  C   UNL A   1      48.187  27.471  30.217  1.00  0.00     0.058 A 
ATOM     65  C   UNL A   1      48.642  26.978  31.451  1.00  0.00     0.135 A 
ATOM     66  C   UNL A   1      49.149  27.809  29.252  1.00  0.00     0.135 A 
ATOM     67  F   UNL A   1      47.765  26.643  32.410  1.00  0.00    -0.206 F 
ATOM     68  C   UNL A   1      49.999  26.849  31.728  1.00  0.00     0.059 A 
ATOM     69  C   UNL A   1      50.511  27.660  29.496  1.00  0.00     0.059 A 
ATOM     70  F   UNL A   1      48.767  28.270  28.050  1.00  0.00    -0.206 F 
ATOM     71  C   UNL A   1      50.927  27.194  30.744  1.00  0.00     0.060 A 
BRANCH  71  72
ATOM     72  S   UNL A   1      52.682  27.008  31.118  1.00  0.00     0.124 S 
ATOM     73  O   UNL A   1      53.265  26.918  29.783  1.00  0.00    -0.237 OA
ATOM     74  O   UNL A   1      52.972  28.234  31.856  1.00  0.00    -0.237 OA
ATOM     75  O   UNL A   1      52.732  25.782  31.909  1.00  0.00    -0.744 OA
ENDBRANCH  71  72
ENDBRANCH  39  64
ENDBRANCH  13  14
ENDBRANCH   6   8
ENDBRANCH   3   4
ENDBRANCH   2   3
ENDBRANCH   1   2
BRANCH   1  76
ATOM     76  C   UNL A   1      31.309  25.429  25.634  1.00  0.00     0.002 C 
BRANCH  76  77
ATOM     77  C   UNL A   1      31.471  24.088  24.918  1.00  0.00     0.021 C 
BRANCH  77  78
ATOM     78  C   UNL A   1      30.968  22.889  25.719  1.00  0.00     0.116 C 
BRANCH  78  79
ATOM     79  N   UNL A   1      31.962  22.457  26.672  1.00  0.00    -0.356 N 
ATOM     80  C   UNL A   1      32.931  21.518  26.584  1.00  0.00     0.223 C 
ATOM     81  H   UNL A   1      31.929  22.928  27.537  1.00  0.00     0.163 HD
ATOM     82  O   UNL A   1      33.634  21.345  27.586  1.00  0.00    -0.275 OA
BRANCH  80  83
ATOM     83  C   UNL A   1      33.201  20.684  25.328  1.00  0.00     0.085 C 
BRANCH  83  84
ATOM     84  C   UNL A   1      34.301  21.253  24.388  1.00  0.00     0.049 C 
BRANCH  84  85
ATOM     85  C   UNL A   1      35.593  21.866  24.894  1.00  0.00    -0.047 A 
ATOM     86  C   UNL A   1      35.702  23.197  25.326  1.00  0.00     0.007 A 
ATOM     87  C   UNL A   1      36.731  21.044  25.026  1.00  0.00     0.007 A 
ATOM     88  C   UNL A   1      36.934  23.733  25.714  1.00  0.00     0.039 A 
ATOM     89  C   UNL A   1      37.954  21.566  25.460  1.00  0.00     0.039 A 
ATOM     90  C   UNL A   1      38.053  22.915  25.763  1.00  0.00     0.123 A 
ATOM     91  F   UNL A   1      39.240  23.436  26.097  1.00  0.00    -0.207 F 
ENDBRANCH  84  85
ENDBRANCH  83  84
BRANCH  83  92
ATOM     92  C   UNL A   1      33.180  19.157  25.505  1.00  0.00     0.055 C 
BRANCH  92  93
ATOM     93  C   UNL A   1      32.988  18.355  24.207  1.00  0.00     0.220 C 
BRANCH  93  94
ATOM     94  C   UNL A   1      34.206  17.445  23.959  1.00  0.00     0.414 C 
ATOM     95  F   UNL A   1      34.316  17.101  22.659  1.00  0.00    -0.168 F 
ATOM     96  F   UNL A   1      35.357  18.052  24.323  1.00  0.00    -0.168 F 
ATOM     97  F   UNL A   1      34.094  16.303  24.677  1.00  0.00    -0.168 F 
ENDBRANCH  93  94
BRANCH  93  98
ATOM     98  O   UNL A   1      31.770  17.596  24.333  1.00  0.00    -0.384 OA
ATOM     99  H   UNL A   1      31.946  16.665  24.125  1.00  0.00     0.211 HD
ENDBRANCH  93  98
ENDBRANCH  92  93
ENDBRANCH  83  92
ENDBRANCH  80  83
ENDBRANCH  78  79
ENDBRANCH  77  78
ENDBRANCH  76  77
ENDBRANCH   1  76
TORSDOF 22
ENDMDL
MODEL 3
REMARK VINA RESULT:     -10.5      4.746     10.248
REMARK SMILES O=C(NCCCCCCNC(=O)[C@@H](Cc1ccc(F)cc1)C[C@H](O)C(F)(F)F)c1ccc(-c2c3nc(c(-c4c(F)cc(S(=O)(=O)[O-])cc4F)c4ccc([nH]4)c(-c4c(F)cc(S(=O)(=O)[O-])cc4F)c4nc(c(-c5c(F)cc(S(=O)(=O)[O-])cc5F)c5ccc2[nH]5)C=C4)C=C3)cc1
REMARK SMILES IDX 6 1 5 2 4 3 3 4 1 5 2 6 29 8 30 9 94 10 31 11 93 12 32 13
REMARK SMILES IDX 33 14 34 15 87 16 35 17 92 18 86 19 88 20 36 21 91 22 85 23
REMARK SMILES IDX 84 24 37 26 71 27 50 28 70 29 51 30 54 31 69 32 89 33 52 34
REMARK SMILES IDX 53 35 68 37 90 38 55 39 38 40 39 41 48 42 40 43 41 44 47 45
REMARK SMILES IDX 49 46 42 47 43 48 44 49 45 50 46 51 72 52 73 53 82 54 74 55
REMARK SMILES IDX 75 56 81 57 83 58 76 59 77 60 78 61 79 62 80 63 56 64 57 65
REMARK SMILES IDX 66 66 58 67 59 68 65 69 67 70 60 71 61 72 62 73 63 74 64 75
REMARK SMILES IDX 7 76 8 77 9 78 10 79 11 80 12 82 13 83 14 84 15 85 16 86
REMARK SMILES IDX 21 87 17 88 20 89 18 90 19 91 22 92 23 93 25 94 26 95 27 96
REMARK SMILES IDX 28 97 24 98
REMARK H PARENT 3 7 88 25 54 36 10 81 24 99
REMARK Flexibility Score: inf
ROOT
ATOM      1  C   UNL A   1      39.447  22.282  26.463  1.00  0.00     0.002 C 
ENDROOT
BRANCH   1   2
ATOM      2  C   UNL A   1      40.684  21.910  27.284  1.00  0.00     0.021 C 
BRANCH   2   3
ATOM      3  C   UNL A   1      41.642  23.067  27.551  1.00  0.00     0.116 C 
BRANCH   3   4
ATOM      4  N   UNL A   1      41.860  23.870  26.358  1.00  0.00    -0.352 N 
ATOM      5  O   UNL A   1      41.656  25.659  25.009  1.00  0.00    -0.269 OA
ATOM      6  C   UNL A   1      41.653  25.212  26.151  1.00  0.00     0.251 C 
ATOM      7  H   UNL A   1      42.207  23.377  25.580  1.00  0.00     0.163 HD
BRANCH   6   8
ATOM      8  C   UNL A   1      41.420  26.112  27.302  1.00  0.00     0.039 A 
ATOM      9  C   UNL A   1      40.348  25.895  28.171  1.00  0.00     0.014 A 
ATOM     10  C   UNL A   1      42.312  27.161  27.542  1.00  0.00     0.014 A 
ATOM     11  C   UNL A   1      40.092  26.798  29.196  1.00  0.00     0.010 A 
ATOM     12  C   UNL A   1      42.106  28.016  28.629  1.00  0.00     0.010 A 
ATOM     13  C   UNL A   1      40.982  27.854  29.454  1.00  0.00    -0.014 A 
BRANCH  13  14
ATOM     14  C   UNL A   1      40.756  28.720  30.638  1.00  0.00     0.031 A 
ATOM     15  C   UNL A   1      41.628  28.618  31.859  1.00  0.00     0.074 A 
ATOM     16  C   UNL A   1      39.766  29.634  30.587  1.00  0.00     0.049 A 
ATOM     17  N   UNL A   1      41.574  29.313  32.966  1.00  0.00    -0.248 NA
ATOM     18  C   UNL A   1      42.692  27.604  31.840  1.00  0.00     0.031 C 
ATOM     19  C   UNL A   1      38.856  29.821  29.453  1.00  0.00     0.029 A 
ATOM     20  N   UNL A   1      39.369  30.587  31.489  1.00  0.00    -0.354 N 
ATOM     21  C   UNL A   1      42.592  28.824  33.776  1.00  0.00     0.074 A 
ATOM     22  C   UNL A   1      43.222  27.742  33.048  1.00  0.00     0.031 C 
ATOM     23  C   UNL A   1      38.049  30.862  29.702  1.00  0.00     0.029 A 
ATOM     24  C   UNL A   1      38.333  31.371  31.039  1.00  0.00     0.049 A 
ATOM     25  H   UNL A   1      39.786  30.700  32.373  1.00  0.00     0.167 HD
ATOM     26  C   UNL A   1      42.972  29.249  35.005  1.00  0.00     0.037 A 
ATOM     27  C   UNL A   1      37.672  32.382  31.637  1.00  0.00     0.037 A 
ATOM     28  C   UNL A   1      42.334  30.329  35.717  1.00  0.00     0.049 A 
ATOM     29  C   UNL A   1      38.077  32.795  33.022  1.00  0.00     0.074 A 
ATOM     30  C   UNL A   1      42.652  30.840  36.965  1.00  0.00     0.029 A 
ATOM     31  N   UNL A   1      41.251  31.062  35.253  1.00  0.00    -0.354 N 
ATOM     32  N   UNL A   1      39.048  32.326  33.769  1.00  0.00    -0.248 NA
ATOM     33  C   UNL A   1      37.294  33.868  33.650  1.00  0.00     0.031 C 
ATOM     34  C   UNL A   1      41.731  31.846  37.275  1.00  0.00     0.029 A 
ATOM     35  C   UNL A   1      40.874  32.005  36.197  1.00  0.00     0.049 A 
ATOM     36  H   UNL A   1      40.814  30.931  34.381  1.00  0.00     0.167 HD
ATOM     37  C   UNL A   1      39.006  33.059  34.948  1.00  0.00     0.074 A 
ATOM     38  C   UNL A   1      37.923  34.012  34.809  1.00  0.00     0.031 C 
ATOM     39  C   UNL A   1      39.793  32.948  36.047  1.00  0.00     0.037 A 
BRANCH  26  40
ATOM     40  C   UNL A   1      44.130  28.550  35.667  1.00  0.00     0.058 A 
ATOM     41  C   UNL A   1      43.909  27.491  36.563  1.00  0.00     0.135 A 
ATOM     42  C   UNL A   1      45.455  28.971  35.470  1.00  0.00     0.135 A 
ATOM     43  F   UNL A   1      42.664  27.044  36.790  1.00  0.00    -0.206 F 
ATOM     44  C   UNL A   1      44.958  26.886  37.250  1.00  0.00     0.059 A 
ATOM     45  C   UNL A   1      46.522  28.362  36.125  1.00  0.00     0.059 A 
ATOM     46  F   UNL A   1      45.726  29.967  34.610  1.00  0.00    -0.206 F 
ATOM     47  C   UNL A   1      46.262  27.328  37.023  1.00  0.00     0.060 A 
BRANCH  47  48
ATOM     48  S   UNL A   1      47.616  26.507  37.892  1.00  0.00     0.124 S 
ATOM     49  O   UNL A   1      47.204  25.109  37.839  1.00  0.00    -0.237 OA
ATOM     50  O   UNL A   1      48.768  26.865  37.070  1.00  0.00    -0.237 OA
ATOM     51  O   UNL A   1      47.588  27.121  39.216  1.00  0.00    -0.744 OA
ENDBRANCH  47  48
ENDBRANCH  26  40
BRANCH  27  52
ATOM     52  C   UNL A   1      36.575  33.070  30.909  1.00  0.00     0.058 A 
ATOM     53  C   UNL A   1      36.846  34.029  29.919  1.00  0.00     0.135 A 
ATOM     54  C   UNL A   1      35.233  32.826  31.231  1.00  0.00     0.135 A 
ATOM     55  F   UNL A   1      38.114  34.310  29.581  1.00  0.00    -0.206 F 
ATOM     56  C   UNL A   1      35.827  34.748  29.304  1.00  0.00     0.059 A 
ATOM     57  C   UNL A   1      34.194  33.511  30.607  1.00  0.00     0.059 A 
ATOM     58  F   UNL A   1      34.924  31.911  32.163  1.00  0.00    -0.206 F 
ATOM     59  C   UNL A   1      34.504  34.485  29.658  1.00  0.00     0.060 A 
BRANCH  59  60
ATOM     60  S   UNL A   1      33.200  35.445  28.863  1.00  0.00     0.124 S 
ATOM     61  O   UNL A   1      33.977  36.387  28.063  1.00  0.00    -0.237 OA
ATOM     62  O   UNL A   1      32.479  34.421  28.115  1.00  0.00    -0.237 OA
ATOM     63  O   UNL A   1      32.474  36.027  29.988  1.00  0.00    -0.744 OA
ENDBRANCH  59  60
ENDBRANCH  27  52
BRANCH  39  64
ATOM     64  C   UNL A   1      39.531  33.894  37.187  1.00  0.00     0.058 A 
ATOM     65  C   UNL A   1      40.132  35.163  37.211  1.00  0.00     0.135 A 
ATOM     66  C   UNL A   1      38.743  33.521  38.287  1.00  0.00     0.135 A 
ATOM     67  F   UNL A   1      40.898  35.568  36.186  1.00  0.00    -0.206 F 
ATOM     68  C   UNL A   1      39.978  36.021  38.294  1.00  0.00     0.059 A 
ATOM     69  C   UNL A   1      38.551  34.376  39.369  1.00  0.00     0.059 A 
ATOM     70  F   UNL A   1      38.135  32.324  38.308  1.00  0.00    -0.206 F 
ATOM     71  C   UNL A   1      39.186  35.618  39.371  1.00  0.00     0.060 A 
BRANCH  71  72
ATOM     72  S   UNL A   1      38.988  36.750  40.762  1.00  0.00     0.124 S 
ATOM     73  O   UNL A   1      40.369  36.929  41.200  1.00  0.00    -0.237 OA
ATOM     74  O   UNL A   1      38.367  37.909  40.130  1.00  0.00    -0.237 OA
ATOM     75  O   UNL A   1      38.129  36.011  41.682  1.00  0.00    -0.744 OA
ENDBRANCH  71  72
ENDBRANCH  39  64
ENDBRANCH  13  14
ENDBRANCH   6   8
ENDBRANCH   3   4
ENDBRANCH   2   3
ENDBRANCH   1   2
BRANCH   1  76
ATOM     76  C   UNL A   1      38.745  21.111  25.762  1.00  0.00     0.002 C 
BRANCH  76  77
ATOM     77  C   UNL A   1      37.523  21.505  24.932  1.00  0.00     0.021 C 
BRANCH  77  78
ATOM     78  C   UNL A   1      36.292  20.638  25.185  1.00  0.00     0.116 C 
BRANCH  78  79
ATOM     79  N   UNL A   1      35.406  21.270  26.133  1.00  0.00    -0.356 N 
ATOM     80  C   UNL A   1      34.060  21.234  26.255  1.00  0.00     0.223 C 
ATOM     81  H   UNL A   1      35.861  21.825  26.808  1.00  0.00     0.163 HD
ATOM     82  O   UNL A   1      33.563  21.906  27.166  1.00  0.00    -0.275 OA
BRANCH  80  83
ATOM     83  C   UNL A   1      33.141  20.410  25.347  1.00  0.00     0.085 C 
BRANCH  83  84
ATOM     84  C   UNL A   1      33.034  20.924  23.884  1.00  0.00     0.049 C 
BRANCH  84  85
ATOM     85  C   UNL A   1      32.539  22.313  23.524  1.00  0.00    -0.047 A 
ATOM     86  C   UNL A   1      31.487  22.958  24.193  1.00  0.00     0.007 A 
ATOM     87  C   UNL A   1      33.219  23.040  22.527  1.00  0.00     0.007 A 
ATOM     88  C   UNL A   1      31.022  24.208  23.773  1.00  0.00     0.039 A 
ATOM     89  C   UNL A   1      32.785  24.312  22.137  1.00  0.00     0.039 A 
ATOM     90  C   UNL A   1      31.667  24.868  22.738  1.00  0.00     0.123 A 
ATOM     91  F   UNL A   1      31.199  26.047  22.310  1.00  0.00    -0.207 F 
ENDBRANCH  84  85
ENDBRANCH  83  84
BRANCH  83  92
ATOM     92  C   UNL A   1      33.190  18.885  25.531  1.00  0.00     0.055 C 
BRANCH  92  93
ATOM     93  C   UNL A   1      32.721  18.069  24.314  1.00  0.00     0.220 C 
BRANCH  93  94
ATOM     94  C   UNL A   1      33.886  17.232  23.754  1.00  0.00     0.414 C 
ATOM     95  F   UNL A   1      33.756  15.925  24.064  1.00  0.00    -0.168 F 
ATOM     96  F   UNL A   1      33.961  17.330  22.408  1.00  0.00    -0.168 F 
ATOM     97  F   UNL A   1      35.064  17.659  24.267  1.00  0.00    -0.168 F 
ENDBRANCH  93  94
BRANCH  93  98
ATOM     98  O   UNL A   1      31.622  17.239  24.736  1.00  0.00    -0.384 OA
ATOM     99  H   UNL A   1      31.202  16.837  23.960  1.00  0.00     0.211 HD
ENDBRANCH  93  98
ENDBRANCH  92  93
ENDBRANCH  83  92
ENDBRANCH  80  83
ENDBRANCH  78  79
ENDBRANCH  77  78
ENDBRANCH  76  77
ENDBRANCH   1  76
TORSDOF 22
ENDMDL
