MODEL 1
REMARK VINA RESULT:     -12.1      0.000      0.000
REMARK SMILES Cc1cc(C(=O)N[C@H]2C=C[C@H](C(=O)NCCCCCCNC(=O)c3ccc(-c4c5nc(c(-c6c(F)cc(S(=O)(=O)[O-])cc6F)c6ccc([nH]6)c(-c6c(F)cc(S(=O)(=O)[O-])cc6F)c6nc(c(-c7c(F)cc(S(=O)(=O)[O-])cc7F)c7ccc4[nH]7)C=C6)C=C5)cc3)C2)ccc1F
REMARK SMILES IDX 18 1 17 2 16 3 15 4 14 5 12 6 13 7 11 9 8 10 9 11 90 12
REMARK SMILES IDX 10 13 7 14 5 15 6 16 4 18 1 19 2 20 3 21 93 22 92 23 94 24
REMARK SMILES IDX 91 25 19 26 20 27 21 28 22 29 23 31 24 32 25 33 89 34 26 35
REMARK SMILES IDX 88 36 27 37 28 38 29 39 82 40 30 41 87 42 81 43 83 44 31 45
REMARK SMILES IDX 86 46 80 47 79 48 32 50 66 51 45 52 65 53 46 54 49 55 64 56
REMARK SMILES IDX 84 57 47 58 48 59 63 61 85 62 50 63 33 64 34 65 43 66 35 67
REMARK SMILES IDX 36 68 42 69 44 70 37 71 38 72 39 73 40 74 41 75 67 76 68 77
REMARK SMILES IDX 77 78 69 79 70 80 76 81 78 82 71 83 72 84 73 85 74 86 75 87
REMARK SMILES IDX 51 88 52 89 61 90 53 91 54 92 60 93 62 94 55 95 56 96 57 97
REMARK SMILES IDX 58 98 59 99
REMARK H PARENT 14 8 7 17 21 30 83 49 49 60
REMARK Flexibility Score: inf
ROOT
ATOM      1  C   UNL A   1      31.401  27.081  26.696  1.00  0.00     0.002 C 
ENDROOT
BRANCH   1   2
ATOM      2  C   UNL A   1      31.174  25.789  25.834  1.00  0.00     0.002 C 
BRANCH   2   3
ATOM      3  C   UNL A   1      30.637  24.464  26.433  1.00  0.00     0.021 C 
BRANCH   3   4
ATOM      4  C   UNL A   1      31.627  23.413  26.930  1.00  0.00     0.116 C 
BRANCH   4   5
ATOM      5  N   UNL A   1      32.984  23.784  26.581  1.00  0.00    -0.356 N 
ATOM      6  C   UNL A   1      33.924  23.181  25.820  1.00  0.00     0.227 C 
ATOM      7  O   UNL A   1      35.092  23.510  26.068  1.00  0.00    -0.274 OA
ATOM      8  H   UNL A   1      33.277  24.637  26.975  1.00  0.00     0.163 HD
BRANCH   6   9
ATOM      9  C   UNL A   1      33.628  22.162  24.692  1.00  0.00     0.103 C 
ATOM     10  C   UNL A   1      32.992  23.658  22.924  1.00  0.00     0.106 C 
ATOM     11  C   UNL A   1      31.858  22.739  23.228  1.00  0.00    -0.006 C 
ATOM     12  C   UNL A   1      34.167  22.792  23.382  1.00  0.00     0.047 C 
ATOM     13  C   UNL A   1      32.199  21.942  24.255  1.00  0.00    -0.016 C 
BRANCH  10  14
ATOM     14  N   UNL A   1      33.052  24.071  21.550  1.00  0.00    -0.346 N 
ATOM     15  C   UNL A   1      32.781  25.305  20.998  1.00  0.00     0.251 C 
ATOM     16  O   UNL A   1      32.952  25.451  19.787  1.00  0.00    -0.269 OA
ATOM     17  H   UNL A   1      33.325  23.373  20.912  1.00  0.00     0.164 HD
BRANCH  15  18
ATOM     18  C   UNL A   1      32.362  26.492  21.810  1.00  0.00     0.040 A 
ATOM     19  C   UNL A   1      29.280  28.170  23.303  1.00  0.00     0.047 C 
ATOM     20  C   UNL A   1      30.708  27.907  22.927  1.00  0.00    -0.015 A 
ATOM     21  C   UNL A   1      31.033  26.874  22.035  1.00  0.00     0.020 A 
ATOM     22  C   UNL A   1      31.740  28.659  23.483  1.00  0.00     0.126 A 
ATOM     23  C   UNL A   1      33.069  28.370  23.194  1.00  0.00     0.040 A 
ATOM     24  F   UNL A   1      31.458  29.678  24.306  1.00  0.00    -0.207 F 
ATOM     25  C   UNL A   1      33.379  27.278  22.375  1.00  0.00     0.017 A 
ENDBRANCH  15  18
ENDBRANCH  10  14
ENDBRANCH   6   9
ENDBRANCH   4   5
ENDBRANCH   3   4
ENDBRANCH   2   3
ENDBRANCH   1   2
BRANCH   1  26
ATOM     26  C   UNL A   1      32.829  27.826  26.881  1.00  0.00     0.021 C 
BRANCH  26  27
ATOM     27  C   UNL A   1      32.921  29.402  27.247  1.00  0.00     0.116 C 
BRANCH  27  28
ATOM     28  N   UNL A   1      34.269  30.286  27.738  1.00  0.00    -0.352 N 
ATOM     29  C   UNL A   1      35.694  30.482  28.066  1.00  0.00     0.251 C 
ATOM     30  H   UNL A   1      33.888  31.180  27.898  1.00  0.00     0.163 HD
ATOM     31  O   UNL A   1      36.009  31.680  27.873  1.00  0.00    -0.269 OA
BRANCH  29  32
ATOM     32  C   UNL A   1      37.010  29.616  28.474  1.00  0.00     0.039 A 
ATOM     33  C   UNL A   1      37.062  28.840  29.687  1.00  0.00     0.014 A 
ATOM     34  C   UNL A   1      38.254  29.659  27.858  1.00  0.00     0.014 A 
ATOM     35  C   UNL A   1      38.292  28.757  30.474  1.00  0.00     0.010 A 
ATOM     36  C   UNL A   1      39.459  29.615  28.636  1.00  0.00     0.010 A 
ATOM     37  C   UNL A   1      39.455  29.405  30.019  1.00  0.00    -0.014 A 
BRANCH  37  38
ATOM     38  C   UNL A   1      40.516  30.064  30.895  1.00  0.00     0.031 A 
ATOM     39  C   UNL A   1      40.122  31.017  31.926  1.00  0.00     0.074 A 
ATOM     40  C   UNL A   1      41.842  29.758  31.046  1.00  0.00     0.049 A 
ATOM     41  N   UNL A   1      40.249  32.299  31.865  1.00  0.00    -0.248 NA
ATOM     42  C   UNL A   1      39.647  30.497  33.207  1.00  0.00     0.031 C 
ATOM     43  C   UNL A   1      42.948  30.393  31.794  1.00  0.00     0.029 A 
ATOM     44  N   UNL A   1      42.543  28.739  30.453  1.00  0.00    -0.354 N 
ATOM     45  C   UNL A   1      40.157  32.717  33.179  1.00  0.00     0.074 A 
ATOM     46  C   UNL A   1      39.537  31.625  33.911  1.00  0.00     0.031 C 
ATOM     47  C   UNL A   1      44.130  30.050  31.220  1.00  0.00     0.029 A 
ATOM     48  C   UNL A   1      43.846  29.135  30.136  1.00  0.00     0.049 A 
ATOM     49  H   UNL A   1      42.175  27.844  30.272  1.00  0.00     0.167 HD
ATOM     50  C   UNL A   1      40.995  33.663  33.708  1.00  0.00     0.037 A 
ATOM     51  C   UNL A   1      44.154  29.229  28.804  1.00  0.00     0.037 A 
ATOM     52  C   UNL A   1      42.193  33.841  32.871  1.00  0.00     0.049 A 
ATOM     53  C   UNL A   1      44.032  30.723  28.392  1.00  0.00     0.074 A 
ATOM     54  C   UNL A   1      43.534  33.539  33.079  1.00  0.00     0.029 A 
ATOM     55  N   UNL A   1      42.075  34.076  31.502  1.00  0.00    -0.354 N 
ATOM     56  N   UNL A   1      43.658  31.661  29.231  1.00  0.00    -0.248 NA
ATOM     57  C   UNL A   1      44.383  31.321  27.100  1.00  0.00     0.031 C 
ATOM     58  C   UNL A   1      44.196  33.529  31.822  1.00  0.00     0.029 A 
ATOM     59  C   UNL A   1      43.268  33.832  30.842  1.00  0.00     0.049 A 
ATOM     60  H   UNL A   1      41.248  34.377  31.060  1.00  0.00     0.167 HD
ATOM     61  C   UNL A   1      43.711  32.912  28.674  1.00  0.00     0.074 A 
ATOM     62  C   UNL A   1      44.188  32.640  27.330  1.00  0.00     0.031 C 
ATOM     63  C   UNL A   1      43.384  34.037  29.396  1.00  0.00     0.037 A 
BRANCH  50  64
ATOM     64  C   UNL A   1      40.856  34.121  35.155  1.00  0.00     0.058 A 
ATOM     65  C   UNL A   1      41.747  33.737  36.177  1.00  0.00     0.135 A 
ATOM     66  C   UNL A   1      39.862  35.045  35.563  1.00  0.00     0.135 A 
ATOM     67  F   UNL A   1      42.805  32.955  35.933  1.00  0.00    -0.206 F 
ATOM     68  C   UNL A   1      41.617  34.168  37.503  1.00  0.00     0.059 A 
ATOM     69  C   UNL A   1      39.680  35.451  36.889  1.00  0.00     0.059 A 
ATOM     70  F   UNL A   1      39.041  35.618  34.666  1.00  0.00    -0.206 F 
ATOM     71  C   UNL A   1      40.574  35.015  37.854  1.00  0.00     0.060 A 
BRANCH  71  72
ATOM     72  S   UNL A   1      40.448  35.589  39.560  1.00  0.00     0.124 S 
ATOM     73  O   UNL A   1      40.977  36.946  39.474  1.00  0.00    -0.237 OA
ATOM     74  O   UNL A   1      39.014  35.484  39.808  1.00  0.00    -0.237 OA
ATOM     75  O   UNL A   1      41.280  34.646  40.302  1.00  0.00    -0.744 OA
ENDBRANCH  71  72
ENDBRANCH  50  64
BRANCH  51  76
ATOM     76  C   UNL A   1      43.639  27.934  28.079  1.00  0.00     0.058 A 
ATOM     77  C   UNL A   1      43.264  28.118  26.705  1.00  0.00     0.135 A 
ATOM     78  C   UNL A   1      44.442  26.832  28.265  1.00  0.00     0.135 A 
ATOM     79  F   UNL A   1      42.224  28.912  26.420  1.00  0.00    -0.206 F 
ATOM     80  C   UNL A   1      44.055  27.685  25.610  1.00  0.00     0.059 A 
ATOM     81  C   UNL A   1      45.268  26.481  27.181  1.00  0.00     0.059 A 
ATOM     82  F   UNL A   1      44.790  26.465  29.509  1.00  0.00    -0.206 F 
ATOM     83  C   UNL A   1      45.194  26.971  25.894  1.00  0.00     0.060 A 
BRANCH  83  84
ATOM     84  S   UNL A   1      46.711  27.023  24.765  1.00  0.00     0.124 S 
ATOM     85  O   UNL A   1      46.884  25.708  24.183  1.00  0.00    -0.237 OA
ATOM     86  O   UNL A   1      46.315  28.029  23.816  1.00  0.00    -0.237 OA
ATOM     87  O   UNL A   1      47.796  27.452  25.659  1.00  0.00    -0.744 OA
ENDBRANCH  83  84
ENDBRANCH  51  76
BRANCH  63  88
ATOM     88  C   UNL A   1      43.231  35.477  28.906  1.00  0.00     0.058 A 
ATOM     89  C   UNL A   1      44.284  36.383  28.724  1.00  0.00     0.135 A 
ATOM     90  C   UNL A   1      41.959  35.954  28.464  1.00  0.00     0.135 A 
ATOM     91  F   UNL A   1      45.549  36.054  29.014  1.00  0.00    -0.206 F 
ATOM     92  C   UNL A   1      44.090  37.667  28.193  1.00  0.00     0.059 A 
ATOM     93  C   UNL A   1      41.759  37.195  27.867  1.00  0.00     0.059 A 
ATOM     94  F   UNL A   1      40.841  35.224  28.589  1.00  0.00    -0.206 F 
ATOM     95  C   UNL A   1      42.828  38.063  27.760  1.00  0.00     0.060 A 
BRANCH  95  96
ATOM     96  S   UNL A   1      42.596  39.692  27.028  1.00  0.00     0.124 S 
ATOM     97  O   UNL A   1      42.497  40.535  28.216  1.00  0.00    -0.237 OA
ATOM     98  O   UNL A   1      43.810  39.859  26.235  1.00  0.00    -0.237 OA
ATOM     99  O   UNL A   1      41.366  39.550  26.254  1.00  0.00    -0.744 OA
ENDBRANCH  95  96
ENDBRANCH  63  88
ENDBRANCH  37  38
ENDBRANCH  29  32
ENDBRANCH  27  28
ENDBRANCH  26  27
ENDBRANCH   1  26
TORSDOF 18
ENDMDL
MODEL 2
REMARK VINA RESULT:     -11.9      3.565      5.724
REMARK SMILES Cc1cc(C(=O)N[C@H]2C=C[C@H](C(=O)NCCCCCCNC(=O)c3ccc(-c4c5nc(c(-c6c(F)cc(S(=O)(=O)[O-])cc6F)c6ccc([nH]6)c(-c6c(F)cc(S(=O)(=O)[O-])cc6F)c6nc(c(-c7c(F)cc(S(=O)(=O)[O-])cc7F)c7ccc4[nH]7)C=C6)C=C5)cc3)C2)ccc1F
REMARK SMILES IDX 18 1 17 2 16 3 15 4 14 5 12 6 13 7 11 9 8 10 9 11 90 12
REMARK SMILES IDX 10 13 7 14 5 15 6 16 4 18 1 19 2 20 3 21 93 22 92 23 94 24
REMARK SMILES IDX 91 25 19 26 20 27 21 28 22 29 23 31 24 32 25 33 89 34 26 35
REMARK SMILES IDX 88 36 27 37 28 38 29 39 82 40 30 41 87 42 81 43 83 44 31 45
REMARK SMILES IDX 86 46 80 47 79 48 32 50 66 51 45 52 65 53 46 54 49 55 64 56
REMARK SMILES IDX 84 57 47 58 48 59 63 61 85 62 50 63 33 64 34 65 43 66 35 67
REMARK SMILES IDX 36 68 42 69 44 70 37 71 38 72 39 73 40 74 41 75 67 76 68 77
REMARK SMILES IDX 77 78 69 79 70 80 76 81 78 82 71 83 72 84 73 85 74 86 75 87
REMARK SMILES IDX 51 88 52 89 61 90 53 91 54 92 60 93 62 94 55 95 56 96 57 97
REMARK SMILES IDX 58 98 59 99
REMARK H PARENT 14 8 7 17 21 30 83 49 49 60
REMARK Flexibility Score: inf
ROOT
ATOM      1  C   UNL A   1      42.994  22.963  28.308  1.00  0.00     0.002 C 
ENDROOT
BRANCH   1   2
ATOM      2  C   UNL A   1      42.302  21.706  27.673  1.00  0.00     0.002 C 
BRANCH   2   3
ATOM      3  C   UNL A   1      40.766  21.502  27.678  1.00  0.00     0.021 C 
BRANCH   3   4
ATOM      4  C   UNL A   1      39.994  21.600  26.364  1.00  0.00     0.116 C 
BRANCH   4   5
ATOM      5  N   UNL A   1      38.859  22.491  26.504  1.00  0.00    -0.356 N 
ATOM      6  C   UNL A   1      37.795  22.739  25.708  1.00  0.00     0.227 C 
ATOM      7  O   UNL A   1      37.250  23.838  25.886  1.00  0.00    -0.274 OA
ATOM      8  H   UNL A   1      38.864  23.015  27.337  1.00  0.00     0.163 HD
BRANCH   6   9
ATOM      9  C   UNL A   1      37.236  21.759  24.648  1.00  0.00     0.103 C 
ATOM     10  C   UNL A   1      35.308  22.986  23.911  1.00  0.00     0.106 C 
ATOM     11  C   UNL A   1      34.875  21.676  24.475  1.00  0.00    -0.006 C 
ATOM     12  C   UNL A   1      36.730  22.631  23.471  1.00  0.00     0.047 C 
ATOM     13  C   UNL A   1      35.951  21.017  24.937  1.00  0.00    -0.016 C 
BRANCH  10  14
ATOM     14  N   UNL A   1      34.459  23.473  22.860  1.00  0.00    -0.346 N 
ATOM     15  C   UNL A   1      33.538  24.499  22.888  1.00  0.00     0.251 C 
ATOM     16  O   UNL A   1      32.953  24.785  21.842  1.00  0.00    -0.269 OA
ATOM     17  H   UNL A   1      34.548  23.008  21.996  1.00  0.00     0.164 HD
BRANCH  15  18
ATOM     18  C   UNL A   1      33.270  25.328  24.107  1.00  0.00     0.040 A 
ATOM     19  C   UNL A   1      33.665  28.864  25.477  1.00  0.00     0.047 C 
ATOM     20  C   UNL A   1      33.318  27.408  25.394  1.00  0.00    -0.015 A 
ATOM     21  C   UNL A   1      33.731  26.637  24.297  1.00  0.00     0.020 A 
ATOM     22  C   UNL A   1      32.551  26.801  26.385  1.00  0.00     0.126 A 
ATOM     23  C   UNL A   1      32.166  25.470  26.275  1.00  0.00     0.040 A 
ATOM     24  F   UNL A   1      32.177  27.501  27.465  1.00  0.00    -0.207 F 
ATOM     25  C   UNL A   1      32.509  24.742  25.130  1.00  0.00     0.017 A 
ENDBRANCH  15  18
ENDBRANCH  10  14
ENDBRANCH   6   9
ENDBRANCH   4   5
ENDBRANCH   3   4
ENDBRANCH   2   3
ENDBRANCH   1   2
BRANCH   1  26
ATOM     26  C   UNL A   1      44.578  23.293  28.208  1.00  0.00     0.021 C 
BRANCH  26  27
ATOM     27  C   UNL A   1      45.146  24.426  27.197  1.00  0.00     0.116 C 
BRANCH  27  28
ATOM     28  N   UNL A   1      44.278  25.561  26.303  1.00  0.00    -0.352 N 
ATOM     29  C   UNL A   1      43.172  26.504  26.051  1.00  0.00     0.251 C 
ATOM     30  H   UNL A   1      44.815  25.637  25.481  1.00  0.00     0.163 HD
ATOM     31  O   UNL A   1      43.555  27.402  25.266  1.00  0.00    -0.269 OA
BRANCH  29  32
ATOM     32  C   UNL A   1      41.660  26.818  26.564  1.00  0.00     0.039 A 
ATOM     33  C   UNL A   1      40.897  27.926  26.048  1.00  0.00     0.014 A 
ATOM     34  C   UNL A   1      41.010  26.226  27.640  1.00  0.00     0.014 A 
ATOM     35  C   UNL A   1      40.026  28.711  26.922  1.00  0.00     0.010 A 
ATOM     36  C   UNL A   1      40.186  27.007  28.518  1.00  0.00     0.010 A 
ATOM     37  C   UNL A   1      39.894  28.354  28.277  1.00  0.00    -0.014 A 
BRANCH  37  38
ATOM     38  C   UNL A   1      39.707  29.317  29.445  1.00  0.00     0.031 A 
ATOM     39  C   UNL A   1      38.682  30.351  29.381  1.00  0.00     0.074 A 
ATOM     40  C   UNL A   1      40.217  29.264  30.714  1.00  0.00     0.049 A 
ATOM     41  N   UNL A   1      38.881  31.608  29.169  1.00  0.00    -0.248 NA
ATOM     42  C   UNL A   1      37.304  29.983  29.700  1.00  0.00     0.031 C 
ATOM     43  C   UNL A   1      40.162  30.190  31.866  1.00  0.00     0.029 A 
ATOM     44  N   UNL A   1      41.013  28.290  31.261  1.00  0.00    -0.354 N 
ATOM     45  C   UNL A   1      37.727  32.220  29.617  1.00  0.00     0.074 A 
ATOM     46  C   UNL A   1      36.714  31.179  29.684  1.00  0.00     0.031 C 
ATOM     47  C   UNL A   1      41.225  29.956  32.679  1.00  0.00     0.029 A 
ATOM     48  C   UNL A   1      41.962  28.837  32.132  1.00  0.00     0.049 A 
ATOM     49  H   UNL A   1      40.928  27.329  31.066  1.00  0.00     0.167 HD
ATOM     50  C   UNL A   1      37.748  33.367  30.367  1.00  0.00     0.037 A 
ATOM     51  C   UNL A   1      43.273  28.754  31.742  1.00  0.00     0.037 A 
ATOM     52  C   UNL A   1      39.080  33.597  30.951  1.00  0.00     0.049 A 
ATOM     53  C   UNL A   1      43.666  30.117  31.104  1.00  0.00     0.074 A 
ATOM     54  C   UNL A   1      39.548  33.561  32.258  1.00  0.00     0.029 A 
ATOM     55  N   UNL A   1      40.221  33.575  30.148  1.00  0.00    -0.354 N 
ATOM     56  N   UNL A   1      42.815  31.108  30.970  1.00  0.00    -0.248 NA
ATOM     57  C   UNL A   1      44.996  30.539  30.656  1.00  0.00     0.031 C 
ATOM     58  C   UNL A   1      40.965  33.448  32.230  1.00  0.00     0.029 A 
ATOM     59  C   UNL A   1      41.369  33.424  30.908  1.00  0.00     0.049 A 
ATOM     60  H   UNL A   1      40.211  33.656  29.168  1.00  0.00     0.167 HD
ATOM     61  C   UNL A   1      43.404  32.238  30.468  1.00  0.00     0.074 A 
ATOM     62  C   UNL A   1      44.787  31.827  30.300  1.00  0.00     0.031 C 
ATOM     63  C   UNL A   1      42.691  33.399  30.276  1.00  0.00     0.037 A 
BRANCH  50  64
ATOM     64  C   UNL A   1      36.457  34.033  30.829  1.00  0.00     0.058 A 
ATOM     65  C   UNL A   1      35.468  34.502  29.942  1.00  0.00     0.135 A 
ATOM     66  C   UNL A   1      36.117  34.152  32.200  1.00  0.00     0.135 A 
ATOM     67  F   UNL A   1      35.588  34.366  28.616  1.00  0.00    -0.206 F 
ATOM     68  C   UNL A   1      34.283  35.108  30.374  1.00  0.00     0.059 A 
ATOM     69  C   UNL A   1      34.963  34.797  32.657  1.00  0.00     0.059 A 
ATOM     70  F   UNL A   1      36.891  33.607  33.154  1.00  0.00    -0.206 F 
ATOM     71  C   UNL A   1      34.042  35.262  31.733  1.00  0.00     0.060 A 
BRANCH  71  72
ATOM     72  S   UNL A   1      32.490  36.010  32.269  1.00  0.00     0.124 S 
ATOM     73  O   UNL A   1      32.924  36.897  33.344  1.00  0.00    -0.237 OA
ATOM     74  O   UNL A   1      32.036  36.668  31.049  1.00  0.00    -0.237 OA
ATOM     75  O   UNL A   1      31.688  34.867  32.697  1.00  0.00    -0.744 OA
ENDBRANCH  71  72
ENDBRANCH  50  64
BRANCH  51  76
ATOM     76  C   UNL A   1      43.559  27.289  31.255  1.00  0.00     0.058 A 
ATOM     77  C   UNL A   1      44.251  27.193  30.000  1.00  0.00     0.135 A 
ATOM     78  C   UNL A   1      44.101  26.473  32.222  1.00  0.00     0.135 A 
ATOM     79  F   UNL A   1      43.645  27.638  28.892  1.00  0.00    -0.206 F 
ATOM     80  C   UNL A   1      45.623  26.853  29.884  1.00  0.00     0.059 A 
ATOM     81  C   UNL A   1      45.481  26.223  32.114  1.00  0.00     0.059 A 
ATOM     82  F   UNL A   1      43.501  26.371  33.418  1.00  0.00    -0.206 F 
ATOM     83  C   UNL A   1      46.291  26.511  31.035  1.00  0.00     0.060 A 
BRANCH  83  84
ATOM     84  S   UNL A   1      48.145  26.824  31.243  1.00  0.00     0.124 S 
ATOM     85  O   UNL A   1      48.860  25.775  30.545  1.00  0.00    -0.237 OA
ATOM     86  O   UNL A   1      48.277  28.120  30.633  1.00  0.00    -0.237 OA
ATOM     87  O   UNL A   1      48.335  26.837  32.701  1.00  0.00    -0.744 OA
ENDBRANCH  83  84
ENDBRANCH  51  76
BRANCH  63  88
ATOM     88  C   UNL A   1      43.132  34.691  29.587  1.00  0.00     0.058 A 
ATOM     89  C   UNL A   1      43.303  35.927  30.225  1.00  0.00     0.135 A 
ATOM     90  C   UNL A   1      43.537  34.672  28.218  1.00  0.00     0.135 A 
ATOM     91  F   UNL A   1      43.046  36.083  31.530  1.00  0.00    -0.206 F 
ATOM     92  C   UNL A   1      43.790  37.059  29.555  1.00  0.00     0.059 A 
ATOM     93  C   UNL A   1      44.090  35.765  27.555  1.00  0.00     0.059 A 
ATOM     94  F   UNL A   1      43.416  33.577  27.453  1.00  0.00    -0.206 F 
ATOM     95  C   UNL A   1      44.188  36.969  28.224  1.00  0.00     0.060 A 
BRANCH  95  96
ATOM     96  S   UNL A   1      44.864  38.413  27.386  1.00  0.00     0.124 S 
ATOM     97  O   UNL A   1      45.365  39.196  28.511  1.00  0.00    -0.237 OA
ATOM     98  O   UNL A   1      45.883  37.828  26.519  1.00  0.00    -0.237 OA
ATOM     99  O   UNL A   1      43.710  38.978  26.691  1.00  0.00    -0.744 OA
ENDBRANCH  95  96
ENDBRANCH  63  88
ENDBRANCH  37  38
ENDBRANCH  29  32
ENDBRANCH  27  28
ENDBRANCH  26  27
ENDBRANCH   1  26
TORSDOF 18
ENDMDL
MODEL 3
REMARK VINA RESULT:     -11.9      5.541     10.507
REMARK SMILES Cc1cc(C(=O)N[C@H]2C=C[C@H](C(=O)NCCCCCCNC(=O)c3ccc(-c4c5nc(c(-c6c(F)cc(S(=O)(=O)[O-])cc6F)c6ccc([nH]6)c(-c6c(F)cc(S(=O)(=O)[O-])cc6F)c6nc(c(-c7c(F)cc(S(=O)(=O)[O-])cc7F)c7ccc4[nH]7)C=C6)C=C5)cc3)C2)ccc1F
REMARK SMILES IDX 18 1 17 2 16 3 15 4 14 5 12 6 13 7 11 9 8 10 9 11 90 12
REMARK SMILES IDX 10 13 7 14 5 15 6 16 4 18 1 19 2 20 3 21 93 22 92 23 94 24
REMARK SMILES IDX 91 25 19 26 20 27 21 28 22 29 23 31 24 32 25 33 89 34 26 35
REMARK SMILES IDX 88 36 27 37 28 38 29 39 82 40 30 41 87 42 81 43 83 44 31 45
REMARK SMILES IDX 86 46 80 47 79 48 32 50 66 51 45 52 65 53 46 54 49 55 64 56
REMARK SMILES IDX 84 57 47 58 48 59 63 61 85 62 50 63 33 64 34 65 43 66 35 67
REMARK SMILES IDX 36 68 42 69 44 70 37 71 38 72 39 73 40 74 41 75 67 76 68 77
REMARK SMILES IDX 77 78 69 79 70 80 76 81 78 82 71 83 72 84 73 85 74 86 75 87
REMARK SMILES IDX 51 88 52 89 61 90 53 91 54 92 60 93 62 94 55 95 56 96 57 97
REMARK SMILES IDX 58 98 59 99
REMARK H PARENT 14 8 7 17 21 30 83 49 49 60
REMARK Flexibility Score: inf
ROOT
ATOM      1  C   UNL A   1      34.955  23.039  24.640  1.00  0.00     0.002 C 
ENDROOT
BRANCH   1   2
ATOM      2  C   UNL A   1      34.746  22.923  23.089  1.00  0.00     0.002 C 
BRANCH   2   3
ATOM      3  C   UNL A   1      33.343  22.819  22.437  1.00  0.00     0.021 C 
BRANCH   3   4
ATOM      4  C   UNL A   1      32.238  23.772  22.884  1.00  0.00     0.116 C 
BRANCH   4   5
ATOM      5  N   UNL A   1      31.903  24.700  21.821  1.00  0.00    -0.356 N 
ATOM      6  C   UNL A   1      32.277  25.974  21.576  1.00  0.00     0.227 C 
ATOM      7  O   UNL A   1      31.501  26.623  20.861  1.00  0.00    -0.274 OA
ATOM      8  H   UNL A   1      31.283  24.330  21.151  1.00  0.00     0.163 HD
BRANCH   6   9
ATOM      9  C   UNL A   1      33.577  26.631  22.103  1.00  0.00     0.103 C 
ATOM     10  C   UNL A   1      32.707  27.846  23.983  1.00  0.00     0.106 C 
ATOM     11  C   UNL A   1      33.329  28.800  23.021  1.00  0.00    -0.006 C 
ATOM     12  C   UNL A   1      33.496  26.578  23.650  1.00  0.00     0.047 C 
ATOM     13  C   UNL A   1      33.764  28.122  21.946  1.00  0.00    -0.016 C 
BRANCH  10  14
ATOM     14  N   UNL A   1      32.794  28.264  25.354  1.00  0.00    -0.346 N 
ATOM     15  C   UNL A   1      32.416  27.592  26.497  1.00  0.00     0.251 C 
ATOM     16  O   UNL A   1      32.635  28.125  27.586  1.00  0.00    -0.269 OA
ATOM     17  H   UNL A   1      33.180  29.159  25.498  1.00  0.00     0.164 HD
BRANCH  15  18
ATOM     18  C   UNL A   1      31.820  26.217  26.480  1.00  0.00     0.040 A 
ATOM     19  C   UNL A   1      32.598  22.599  27.398  1.00  0.00     0.047 C 
ATOM     20  C   UNL A   1      31.867  23.806  26.889  1.00  0.00    -0.015 A 
ATOM     21  C   UNL A   1      32.522  25.041  26.777  1.00  0.00     0.020 A 
ATOM     22  C   UNL A   1      30.518  23.731  26.553  1.00  0.00     0.126 A 
ATOM     23  C   UNL A   1      29.819  24.864  26.152  1.00  0.00     0.040 A 
ATOM     24  F   UNL A   1      29.877  22.556  26.611  1.00  0.00    -0.207 F 
ATOM     25  C   UNL A   1      30.464  26.106  26.134  1.00  0.00     0.017 A 
ENDBRANCH  15  18
ENDBRANCH  10  14
ENDBRANCH   6   9
ENDBRANCH   4   5
ENDBRANCH   3   4
ENDBRANCH   2   3
ENDBRANCH   1   2
BRANCH   1  26
ATOM     26  C   UNL A   1      35.742  24.249  25.377  1.00  0.00     0.021 C 
BRANCH  26  27
ATOM     27  C   UNL A   1      37.158  24.007  26.128  1.00  0.00     0.116 C 
BRANCH  27  28
ATOM     28  N   UNL A   1      38.291  22.790  25.859  1.00  0.00    -0.352 N 
ATOM     29  C   UNL A   1      39.543  22.048  26.104  1.00  0.00     0.251 C 
ATOM     30  H   UNL A   1      37.889  22.288  25.112  1.00  0.00     0.163 HD
ATOM     31  O   UNL A   1      39.401  20.854  25.749  1.00  0.00    -0.269 OA
BRANCH  29  32
ATOM     32  C   UNL A   1      40.998  22.255  26.802  1.00  0.00     0.039 A 
ATOM     33  C   UNL A   1      41.154  22.997  28.027  1.00  0.00     0.014 A 
ATOM     34  C   UNL A   1      42.234  21.940  26.251  1.00  0.00     0.014 A 
ATOM     35  C   UNL A   1      42.313  23.865  28.238  1.00  0.00     0.010 A 
ATOM     36  C   UNL A   1      43.359  22.813  26.428  1.00  0.00     0.010 A 
ATOM     37  C   UNL A   1      43.312  23.944  27.251  1.00  0.00    -0.014 A 
BRANCH  37  38
ATOM     38  C   UNL A   1      44.122  25.185  26.890  1.00  0.00     0.031 A 
ATOM     39  C   UNL A   1      45.531  25.061  26.538  1.00  0.00     0.074 A 
ATOM     40  C   UNL A   1      43.700  26.459  26.618  1.00  0.00     0.049 A 
ATOM     41  N   UNL A   1      46.534  25.371  27.289  1.00  0.00    -0.248 NA
ATOM     42  C   UNL A   1      45.873  24.664  25.174  1.00  0.00     0.031 C 
ATOM     43  C   UNL A   1      44.413  27.727  26.352  1.00  0.00     0.029 A 
ATOM     44  N   UNL A   1      42.410  26.926  26.572  1.00  0.00    -0.354 N 
ATOM     45  C   UNL A   1      47.595  25.495  26.413  1.00  0.00     0.074 A 
ATOM     46  C   UNL A   1      47.199  24.806  25.195  1.00  0.00     0.031 C 
ATOM     47  C   UNL A   1      43.602  28.770  26.665  1.00  0.00     0.029 A 
ATOM     48  C   UNL A   1      42.323  28.229  27.073  1.00  0.00     0.049 A 
ATOM     49  H   UNL A   1      41.645  26.409  26.231  1.00  0.00     0.167 HD
ATOM     50  C   UNL A   1      48.498  26.520  26.495  1.00  0.00     0.037 A 
ATOM     51  C   UNL A   1      41.634  28.392  28.246  1.00  0.00     0.037 A 
ATOM     52  C   UNL A   1      47.974  27.627  27.313  1.00  0.00     0.049 A 
ATOM     53  C   UNL A   1      42.672  28.449  29.403  1.00  0.00     0.074 A 
ATOM     54  C   UNL A   1      47.583  28.922  26.995  1.00  0.00     0.029 A 
ATOM     55  N   UNL A   1      47.462  27.389  28.588  1.00  0.00    -0.354 N 
ATOM     56  N   UNL A   1      43.962  28.319  29.203  1.00  0.00    -0.248 NA
ATOM     57  C   UNL A   1      42.412  28.735  30.817  1.00  0.00     0.031 C 
ATOM     58  C   UNL A   1      46.781  29.427  28.054  1.00  0.00     0.029 A 
ATOM     59  C   UNL A   1      46.685  28.448  29.027  1.00  0.00     0.049 A 
ATOM     60  H   UNL A   1      47.632  26.571  29.109  1.00  0.00     0.167 HD
ATOM     61  C   UNL A   1      44.689  28.494  30.352  1.00  0.00     0.074 A 
ATOM     62  C   UNL A   1      43.660  28.768  31.339  1.00  0.00     0.031 C 
ATOM     63  C   UNL A   1      46.063  28.426  30.353  1.00  0.00     0.037 A 
BRANCH  50  64
ATOM     64  C   UNL A   1      49.673  26.619  25.529  1.00  0.00     0.058 A 
ATOM     65  C   UNL A   1      50.907  25.974  25.742  1.00  0.00     0.135 A 
ATOM     66  C   UNL A   1      49.578  27.304  24.291  1.00  0.00     0.135 A 
ATOM     67  F   UNL A   1      51.121  25.197  26.811  1.00  0.00    -0.206 F 
ATOM     68  C   UNL A   1      51.979  26.065  24.847  1.00  0.00     0.059 A 
ATOM     69  C   UNL A   1      50.649  27.451  23.405  1.00  0.00     0.059 A 
ATOM     70  F   UNL A   1      48.412  27.834  23.882  1.00  0.00    -0.206 F 
ATOM     71  C   UNL A   1      51.847  26.815  23.685  1.00  0.00     0.060 A 
BRANCH  71  72
ATOM     72  S   UNL A   1      53.228  26.886  22.526  1.00  0.00     0.124 S 
ATOM     73  O   UNL A   1      52.751  26.063  21.419  1.00  0.00    -0.237 OA
ATOM     74  O   UNL A   1      53.321  28.316  22.257  1.00  0.00    -0.237 OA
ATOM     75  O   UNL A   1      54.341  26.319  23.283  1.00  0.00    -0.744 OA
ENDBRANCH  71  72
ENDBRANCH  50  64
BRANCH  51  76
ATOM     76  C   UNL A   1      40.277  27.608  28.142  1.00  0.00     0.058 A 
ATOM     77  C   UNL A   1      40.012  26.709  29.230  1.00  0.00     0.135 A 
ATOM     78  C   UNL A   1      39.194  28.402  27.837  1.00  0.00     0.135 A 
ATOM     79  F   UNL A   1      40.818  25.654  29.407  1.00  0.00    -0.206 F 
ATOM     80  C   UNL A   1      39.079  26.979  30.264  1.00  0.00     0.059 A 
ATOM     81  C   UNL A   1      38.334  28.709  28.907  1.00  0.00     0.059 A 
ATOM     82  F   UNL A   1      39.249  29.221  26.774  1.00  0.00    -0.206 F 
ATOM     83  C   UNL A   1      38.329  28.125  30.156  1.00  0.00     0.060 A 
BRANCH  83  84
ATOM     84  S   UNL A   1      37.699  29.051  31.681  1.00  0.00     0.124 S 
ATOM     85  O   UNL A   1      37.658  28.119  32.789  1.00  0.00    -0.237 OA
ATOM     86  O   UNL A   1      38.704  30.071  31.819  1.00  0.00    -0.237 OA
ATOM     87  O   UNL A   1      36.390  29.568  31.258  1.00  0.00    -0.744 OA
ENDBRANCH  83  84
ENDBRANCH  51  76
BRANCH  63  88
ATOM     88  C   UNL A   1      47.021  28.435  31.545  1.00  0.00     0.058 A 
ATOM     89  C   UNL A   1      47.286  27.337  32.374  1.00  0.00     0.135 A 
ATOM     90  C   UNL A   1      47.832  29.581  31.807  1.00  0.00     0.135 A 
ATOM     91  F   UNL A   1      46.666  26.162  32.200  1.00  0.00    -0.206 F 
ATOM     92  C   UNL A   1      48.238  27.382  33.403  1.00  0.00     0.059 A 
ATOM     93  C   UNL A   1      48.832  29.622  32.775  1.00  0.00     0.059 A 
ATOM     94  F   UNL A   1      47.690  30.726  31.123  1.00  0.00    -0.206 F 
ATOM     95  C   UNL A   1      49.012  28.523  33.592  1.00  0.00     0.060 A 
BRANCH  95  96
ATOM     96  S   UNL A   1      50.271  28.556  34.880  1.00  0.00     0.124 S 
ATOM     97  O   UNL A   1      50.957  29.810  34.586  1.00  0.00    -0.237 OA
ATOM     98  O   UNL A   1      49.473  28.545  36.103  1.00  0.00    -0.237 OA
ATOM     99  O   UNL A   1      51.045  27.343  34.635  1.00  0.00    -0.744 OA
ENDBRANCH  95  96
ENDBRANCH  63  88
ENDBRANCH  37  38
ENDBRANCH  29  32
ENDBRANCH  27  28
ENDBRANCH  26  27
ENDBRANCH   1  26
TORSDOF 18
ENDMDL
