MODEL 1
REMARK VINA RESULT:     -12.0      0.000      0.000
REMARK SMILES Cc1cc2c(c(C)c1Cl)C=C(C(=O)NCCCCCCNC(=O)c1ccc(-c3c4nc(c(-c5c(F)cc(S(=O)(=O)[O-])cc5F)c5ccc([nH]5)c(-c5c(F)cc(S(=O)(=O)[O-])cc5F)c5nc(c(-c6c(F)cc(S(=O)(=O)[O-])cc6F)c6ccc3[nH]6)C=C5)C=C4)cc1)[C@@H](C(F)(F)F)O2
REMARK SMILES IDX 18 1 17 2 16 3 15 4 14 5 12 6 13 7 11 9 1 10 2 11 3 12 8 13
REMARK SMILES IDX 4 14 6 15 9 16 5 17 95 18 7 19 10 20 90 21 91 22 92 23 93 24
REMARK SMILES IDX 94 25 19 26 20 27 21 28 22 29 23 31 24 32 25 33 89 34 26 35
REMARK SMILES IDX 88 36 27 37 28 38 29 39 82 40 30 41 87 42 81 43 83 44 31 45
REMARK SMILES IDX 86 46 80 47 79 48 32 50 66 51 45 52 65 53 46 54 49 55 64 56
REMARK SMILES IDX 84 57 47 58 48 59 63 61 85 62 50 63 33 64 34 65 43 66 35 67
REMARK SMILES IDX 36 68 42 69 44 70 37 71 38 72 39 73 40 74 41 75 67 76 68 77
REMARK SMILES IDX 77 78 69 79 70 80 76 81 78 82 71 83 72 84 73 85 74 86 75 87
REMARK SMILES IDX 51 88 52 89 61 90 53 91 54 92 60 93 62 94 55 95 56 96 57 97
REMARK SMILES IDX 58 98 59 99
REMARK H PARENT 14 8 21 30 83 49 49 60
REMARK Flexibility Score: inf
ROOT
ATOM      1  C   UNL A   1      37.767  23.741  25.525  1.00  0.00     0.002 C 
ENDROOT
BRANCH   1   2
ATOM      2  C   UNL A   1      36.463  23.159  24.962  1.00  0.00     0.002 C 
BRANCH   2   3
ATOM      3  C   UNL A   1      36.579  21.741  24.399  1.00  0.00     0.021 C 
BRANCH   3   4
ATOM      4  C   UNL A   1      35.785  20.707  25.188  1.00  0.00     0.116 C 
BRANCH   4   5
ATOM      5  N   UNL A   1      34.515  20.405  24.550  1.00  0.00    -0.352 N 
ATOM      6  C   UNL A   1      33.304  20.995  24.431  1.00  0.00     0.251 C 
ATOM      7  O   UNL A   1      32.479  20.370  23.754  1.00  0.00    -0.270 OA
ATOM      8  H   UNL A   1      34.545  19.541  24.080  1.00  0.00     0.163 HD
BRANCH   6   9
ATOM      9  C   UNL A   1      32.917  22.302  25.043  1.00  0.00     0.067 C 
ATOM     10  C   UNL A   1      31.554  28.494  26.519  1.00  0.00     0.046 C 
ATOM     11  C   UNL A   1      32.036  27.210  25.900  1.00  0.00    -0.028 A 
ATOM     12  C   UNL A   1      31.699  26.012  26.532  1.00  0.00     0.052 A 
ATOM     13  C   UNL A   1      32.763  27.160  24.694  1.00  0.00     0.047 A 
ATOM     14  C   UNL A   1      32.097  24.794  25.995  1.00  0.00     0.128 A 
ATOM     15  C   UNL A   1      33.177  25.924  24.137  1.00  0.00    -0.021 A 
ATOM     16  Cl  UNL A   1      33.123  28.659  23.886  1.00  0.00    -0.084 Cl
ATOM     17  C   UNL A   1      32.825  24.726  24.804  1.00  0.00     0.022 A 
ATOM     18  O   UNL A   1      31.679  23.703  26.693  1.00  0.00    -0.475 OA
ATOM     19  C   UNL A   1      33.973  25.852  22.854  1.00  0.00     0.047 C 
ATOM     20  C   UNL A   1      33.144  23.392  24.285  1.00  0.00     0.026 C 
ATOM     21  C   UNL A   1      32.344  22.447  26.421  1.00  0.00     0.314 C 
BRANCH  21  22
ATOM     22  C   UNL A   1      33.376  22.173  27.529  1.00  0.00     0.429 C 
ATOM     23  F   UNL A   1      32.864  22.487  28.743  1.00  0.00    -0.167 F 
ATOM     24  F   UNL A   1      33.741  20.871  27.593  1.00  0.00    -0.167 F 
ATOM     25  F   UNL A   1      34.511  22.891  27.366  1.00  0.00    -0.167 F 
ENDBRANCH  21  22
ENDBRANCH   6   9
ENDBRANCH   4   5
ENDBRANCH   3   4
ENDBRANCH   2   3
ENDBRANCH   1   2
BRANCH   1  26
ATOM     26  C   UNL A   1      38.699  22.725  26.193  1.00  0.00     0.021 C 
BRANCH  26  27
ATOM     27  C   UNL A   1      39.809  23.347  27.029  1.00  0.00     0.116 C 
BRANCH  27  28
ATOM     28  N   UNL A   1      40.919  23.786  26.201  1.00  0.00    -0.352 N 
ATOM     29  C   UNL A   1      41.564  24.994  26.193  1.00  0.00     0.251 C 
ATOM     30  H   UNL A   1      41.254  23.122  25.556  1.00  0.00     0.163 HD
ATOM     31  O   UNL A   1      42.311  25.284  25.258  1.00  0.00    -0.269 OA
BRANCH  29  32
ATOM     32  C   UNL A   1      41.356  25.944  27.302  1.00  0.00     0.039 A 
ATOM     33  C   UNL A   1      42.209  27.043  27.426  1.00  0.00     0.014 A 
ATOM     34  C   UNL A   1      40.335  25.731  28.236  1.00  0.00     0.014 A 
ATOM     35  C   UNL A   1      42.016  27.949  28.470  1.00  0.00     0.010 A 
ATOM     36  C   UNL A   1      40.101  26.673  29.230  1.00  0.00     0.010 A 
ATOM     37  C   UNL A   1      40.952  27.778  29.370  1.00  0.00    -0.014 A 
BRANCH  37  38
ATOM     38  C   UNL A   1      40.751  28.709  30.506  1.00  0.00     0.031 A 
ATOM     39  C   UNL A   1      41.602  28.566  31.739  1.00  0.00     0.074 A 
ATOM     40  C   UNL A   1      39.790  29.651  30.445  1.00  0.00     0.049 A 
ATOM     41  N   UNL A   1      41.537  29.222  32.868  1.00  0.00    -0.248 NA
ATOM     42  C   UNL A   1      42.650  27.531  31.706  1.00  0.00     0.031 C 
ATOM     43  C   UNL A   1      38.894  29.871  29.307  1.00  0.00     0.029 A 
ATOM     44  N   UNL A   1      39.404  30.596  31.360  1.00  0.00    -0.354 N 
ATOM     45  C   UNL A   1      42.529  28.680  33.677  1.00  0.00     0.074 A 
ATOM     46  C   UNL A   1      43.139  27.599  32.935  1.00  0.00     0.031 C 
ATOM     47  C   UNL A   1      38.081  30.903  29.584  1.00  0.00     0.029 A 
ATOM     48  C   UNL A   1      38.368  31.391  30.930  1.00  0.00     0.049 A 
ATOM     49  H   UNL A   1      39.828  30.695  32.243  1.00  0.00     0.167 HD
ATOM     50  C   UNL A   1      42.917  29.068  34.914  1.00  0.00     0.037 A 
ATOM     51  C   UNL A   1      37.719  32.392  31.556  1.00  0.00     0.037 A 
ATOM     52  C   UNL A   1      42.320  30.160  35.635  1.00  0.00     0.049 A 
ATOM     53  C   UNL A   1      38.140  32.775  32.950  1.00  0.00     0.074 A 
ATOM     54  C   UNL A   1      42.662  30.656  36.881  1.00  0.00     0.029 A 
ATOM     55  N   UNL A   1      41.260  30.928  35.176  1.00  0.00    -0.354 N 
ATOM     56  N   UNL A   1      39.103  32.275  33.688  1.00  0.00    -0.248 NA
ATOM     57  C   UNL A   1      37.387  33.859  33.597  1.00  0.00     0.031 C 
ATOM     58  C   UNL A   1      41.779  31.694  37.193  1.00  0.00     0.029 A 
ATOM     59  C   UNL A   1      40.918  31.878  36.123  1.00  0.00     0.049 A 
ATOM     60  H   UNL A   1      40.816  30.814  34.304  1.00  0.00     0.167 HD
ATOM     61  C   UNL A   1      39.081  32.992  34.880  1.00  0.00     0.074 A 
ATOM     62  C   UNL A   1      38.025  33.976  34.753  1.00  0.00     0.031 C 
ATOM     63  C   UNL A   1      39.859  32.847  35.981  1.00  0.00     0.037 A 
BRANCH  50  64
ATOM     64  C   UNL A   1      44.049  28.317  35.561  1.00  0.00     0.058 A 
ATOM     65  C   UNL A   1      43.813  27.202  36.382  1.00  0.00     0.135 A 
ATOM     66  C   UNL A   1      45.382  28.685  35.322  1.00  0.00     0.135 A 
ATOM     67  F   UNL A   1      42.557  26.821  36.661  1.00  0.00    -0.206 F 
ATOM     68  C   UNL A   1      44.859  26.489  36.958  1.00  0.00     0.059 A 
ATOM     69  C   UNL A   1      46.446  27.968  35.864  1.00  0.00     0.059 A 
ATOM     70  F   UNL A   1      45.663  29.745  34.550  1.00  0.00    -0.206 F 
ATOM     71  C   UNL A   1      46.173  26.877  36.688  1.00  0.00     0.060 A 
BRANCH  71  72
ATOM     72  S   UNL A   1      47.516  25.923  37.427  1.00  0.00     0.124 S 
ATOM     73  O   UNL A   1      48.584  26.118  36.451  1.00  0.00    -0.237 OA
ATOM     74  O   UNL A   1      47.700  26.591  38.711  1.00  0.00    -0.237 OA
ATOM     75  O   UNL A   1      46.973  24.570  37.498  1.00  0.00    -0.744 OA
ENDBRANCH  71  72
ENDBRANCH  50  64
BRANCH  51  76
ATOM     76  C   UNL A   1      36.618  33.114  30.863  1.00  0.00     0.058 A 
ATOM     77  C   UNL A   1      35.280  32.895  31.218  1.00  0.00     0.135 A 
ATOM     78  C   UNL A   1      36.880  34.046  29.846  1.00  0.00     0.135 A 
ATOM     79  F   UNL A   1      34.977  32.006  32.178  1.00  0.00    -0.206 F 
ATOM     80  C   UNL A   1      34.237  33.563  30.585  1.00  0.00     0.059 A 
ATOM     81  C   UNL A   1      35.856  34.748  29.215  1.00  0.00     0.059 A 
ATOM     82  F   UNL A   1      38.144  34.303  29.476  1.00  0.00    -0.206 F 
ATOM     83  C   UNL A   1      34.536  34.492  29.587  1.00  0.00     0.060 A 
BRANCH  83  84
ATOM     84  S   UNL A   1      33.176  35.391  28.809  1.00  0.00     0.124 S 
ATOM     85  O   UNL A   1      33.895  36.378  28.010  1.00  0.00    -0.237 OA
ATOM     86  O   UNL A   1      32.502  34.332  28.061  1.00  0.00    -0.237 OA
ATOM     87  O   UNL A   1      32.428  35.920  29.944  1.00  0.00    -0.744 OA
ENDBRANCH  83  84
ENDBRANCH  51  76
BRANCH  63  88
ATOM     88  C   UNL A   1      39.605  33.773  37.137  1.00  0.00     0.058 A 
ATOM     89  C   UNL A   1      38.734  33.421  38.180  1.00  0.00     0.135 A 
ATOM     90  C   UNL A   1      40.285  34.998  37.236  1.00  0.00     0.135 A 
ATOM     91  F   UNL A   1      38.055  32.263  38.130  1.00  0.00    -0.206 F 
ATOM     92  C   UNL A   1      38.530  34.259  39.271  1.00  0.00     0.059 A 
ATOM     93  C   UNL A   1      40.119  35.838  38.333  1.00  0.00     0.059 A 
ATOM     94  F   UNL A   1      41.139  35.378  36.273  1.00  0.00    -0.206 F 
ATOM     95  C   UNL A   1      39.231  35.464  39.340  1.00  0.00     0.060 A 
BRANCH  95  96
ATOM     96  S   UNL A   1      38.978  36.523  40.780  1.00  0.00     0.124 S 
ATOM     97  O   UNL A   1      38.509  37.757  40.159  1.00  0.00    -0.237 OA
ATOM     98  O   UNL A   1      37.982  35.777  41.542  1.00  0.00    -0.237 OA
ATOM     99  O   UNL A   1      40.303  36.592  41.390  1.00  0.00    -0.744 OA
ENDBRANCH  95  96
ENDBRANCH  63  88
ENDBRANCH  37  38
ENDBRANCH  29  32
ENDBRANCH  27  28
ENDBRANCH  26  27
ENDBRANCH   1  26
TORSDOF 17
ENDMDL
MODEL 2
REMARK VINA RESULT:     -11.9      3.249      4.114
REMARK SMILES Cc1cc2c(c(C)c1Cl)C=C(C(=O)NCCCCCCNC(=O)c1ccc(-c3c4nc(c(-c5c(F)cc(S(=O)(=O)[O-])cc5F)c5ccc([nH]5)c(-c5c(F)cc(S(=O)(=O)[O-])cc5F)c5nc(c(-c6c(F)cc(S(=O)(=O)[O-])cc6F)c6ccc3[nH]6)C=C5)C=C4)cc1)[C@@H](C(F)(F)F)O2
REMARK SMILES IDX 18 1 17 2 16 3 15 4 14 5 12 6 13 7 11 9 1 10 2 11 3 12 8 13
REMARK SMILES IDX 4 14 6 15 9 16 5 17 95 18 7 19 10 20 90 21 91 22 92 23 93 24
REMARK SMILES IDX 94 25 19 26 20 27 21 28 22 29 23 31 24 32 25 33 89 34 26 35
REMARK SMILES IDX 88 36 27 37 28 38 29 39 82 40 30 41 87 42 81 43 83 44 31 45
REMARK SMILES IDX 86 46 80 47 79 48 32 50 66 51 45 52 65 53 46 54 49 55 64 56
REMARK SMILES IDX 84 57 47 58 48 59 63 61 85 62 50 63 33 64 34 65 43 66 35 67
REMARK SMILES IDX 36 68 42 69 44 70 37 71 38 72 39 73 40 74 41 75 67 76 68 77
REMARK SMILES IDX 77 78 69 79 70 80 76 81 78 82 71 83 72 84 73 85 74 86 75 87
REMARK SMILES IDX 51 88 52 89 61 90 53 91 54 92 60 93 62 94 55 95 56 96 57 97
REMARK SMILES IDX 58 98 59 99
REMARK H PARENT 14 8 21 30 83 49 49 60
REMARK Flexibility Score: inf
ROOT
ATOM      1  C   UNL A   1      35.102  22.113  25.141  1.00  0.00     0.002 C 
ENDROOT
BRANCH   1   2
ATOM      2  C   UNL A   1      33.632  21.674  25.179  1.00  0.00     0.002 C 
BRANCH   2   3
ATOM      3  C   UNL A   1      32.642  22.767  25.589  1.00  0.00     0.021 C 
BRANCH   3   4
ATOM      4  C   UNL A   1      31.723  23.212  24.458  1.00  0.00     0.116 C 
BRANCH   4   5
ATOM      5  N   UNL A   1      32.474  23.770  23.346  1.00  0.00    -0.352 N 
ATOM      6  C   UNL A   1      32.735  25.000  22.848  1.00  0.00     0.251 C 
ATOM      7  O   UNL A   1      33.468  25.020  21.854  1.00  0.00    -0.270 OA
ATOM      8  H   UNL A   1      32.907  23.065  22.814  1.00  0.00     0.163 HD
BRANCH   6   9
ATOM      9  C   UNL A   1      32.213  26.285  23.406  1.00  0.00     0.067 C 
ATOM     10  C   UNL A   1      31.147  31.976  26.380  1.00  0.00     0.046 C 
ATOM     11  C   UNL A   1      31.674  30.647  25.912  1.00  0.00    -0.028 A 
ATOM     12  C   UNL A   1      30.982  29.992  24.892  1.00  0.00     0.052 A 
ATOM     13  C   UNL A   1      32.853  30.064  26.416  1.00  0.00     0.047 A 
ATOM     14  C   UNL A   1      31.434  28.773  24.401  1.00  0.00     0.128 A 
ATOM     15  C   UNL A   1      33.324  28.820  25.926  1.00  0.00    -0.021 A 
ATOM     16  Cl  UNL A   1      33.738  30.922  27.644  1.00  0.00    -0.084 Cl
ATOM     17  C   UNL A   1      32.598  28.176  24.895  1.00  0.00     0.022 A 
ATOM     18  O   UNL A   1      30.686  28.256  23.389  1.00  0.00    -0.475 OA
ATOM     19  C   UNL A   1      34.576  28.169  26.467  1.00  0.00     0.047 C 
ATOM     20  C   UNL A   1      33.027  26.920  24.270  1.00  0.00     0.026 C 
ATOM     21  C   UNL A   1      30.864  26.853  23.084  1.00  0.00     0.314 C 
BRANCH  21  22
ATOM     22  C   UNL A   1      29.711  26.050  23.713  1.00  0.00     0.429 C 
ATOM     23  F   UNL A   1      28.556  26.755  23.658  1.00  0.00    -0.167 F 
ATOM     24  F   UNL A   1      29.477  24.881  23.071  1.00  0.00    -0.167 F 
ATOM     25  F   UNL A   1      29.944  25.746  25.010  1.00  0.00    -0.167 F 
ENDBRANCH  21  22
ENDBRANCH   6   9
ENDBRANCH   4   5
ENDBRANCH   3   4
ENDBRANCH   2   3
ENDBRANCH   1   2
BRANCH   1  26
ATOM     26  C   UNL A   1      35.367  23.545  25.617  1.00  0.00     0.021 C 
BRANCH  26  27
ATOM     27  C   UNL A   1      36.774  24.052  25.326  1.00  0.00     0.116 C 
BRANCH  27  28
ATOM     28  N   UNL A   1      37.765  23.003  25.493  1.00  0.00    -0.352 N 
ATOM     29  C   UNL A   1      39.019  23.079  26.036  1.00  0.00     0.251 C 
ATOM     30  H   UNL A   1      37.496  22.112  25.171  1.00  0.00     0.163 HD
ATOM     31  O   UNL A   1      39.817  22.157  25.868  1.00  0.00    -0.269 OA
BRANCH  29  32
ATOM     32  C   UNL A   1      39.410  24.270  26.815  1.00  0.00     0.039 A 
ATOM     33  C   UNL A   1      40.232  25.231  26.223  1.00  0.00     0.014 A 
ATOM     34  C   UNL A   1      38.985  24.420  28.140  1.00  0.00     0.014 A 
ATOM     35  C   UNL A   1      40.603  26.362  26.951  1.00  0.00     0.010 A 
ATOM     36  C   UNL A   1      39.296  25.581  28.838  1.00  0.00     0.010 A 
ATOM     37  C   UNL A   1      40.126  26.552  28.258  1.00  0.00    -0.014 A 
BRANCH  37  38
ATOM     38  C   UNL A   1      40.535  27.729  29.062  1.00  0.00     0.031 A 
ATOM     39  C   UNL A   1      41.874  27.724  29.749  1.00  0.00     0.074 A 
ATOM     40  C   UNL A   1      39.699  28.775  29.201  1.00  0.00     0.049 A 
ATOM     41  N   UNL A   1      42.390  28.614  30.558  1.00  0.00    -0.248 NA
ATOM     42  C   UNL A   1      42.737  26.554  29.515  1.00  0.00     0.031 C 
ATOM     43  C   UNL A   1      38.370  28.881  28.594  1.00  0.00     0.029 A 
ATOM     44  N   UNL A   1      39.840  29.946  29.900  1.00  0.00    -0.354 N 
ATOM     45  C   UNL A   1      43.631  28.110  30.929  1.00  0.00     0.074 A 
ATOM     46  C   UNL A   1      43.766  26.810  30.310  1.00  0.00     0.031 C 
ATOM     47  C   UNL A   1      37.830  30.065  28.926  1.00  0.00     0.029 A 
ATOM     48  C   UNL A   1      38.753  30.782  29.801  1.00  0.00     0.049 A 
ATOM     49  H   UNL A   1      40.643  30.167  30.423  1.00  0.00     0.167 HD
ATOM     50  C   UNL A   1      44.586  28.692  31.691  1.00  0.00     0.037 A 
ATOM     51  C   UNL A   1      38.525  31.987  30.361  1.00  0.00     0.037 A 
ATOM     52  C   UNL A   1      44.453  29.997  32.283  1.00  0.00     0.049 A 
ATOM     53  C   UNL A   1      39.585  32.593  31.242  1.00  0.00     0.074 A 
ATOM     54  C   UNL A   1      45.375  30.692  33.045  1.00  0.00     0.029 A 
ATOM     55  N   UNL A   1      43.330  30.805  32.179  1.00  0.00    -0.354 N 
ATOM     56  N   UNL A   1      40.768  32.119  31.556  1.00  0.00    -0.248 NA
ATOM     57  C   UNL A   1      39.280  33.898  31.846  1.00  0.00     0.031 C 
ATOM     58  C   UNL A   1      44.792  31.900  33.439  1.00  0.00     0.029 A 
ATOM     59  C   UNL A   1      43.525  31.981  32.882  1.00  0.00     0.049 A 
ATOM     60  H   UNL A   1      42.514  30.575  31.677  1.00  0.00     0.167 HD
ATOM     61  C   UNL A   1      41.354  33.074  32.381  1.00  0.00     0.074 A 
ATOM     62  C   UNL A   1      40.404  34.162  32.498  1.00  0.00     0.031 C 
ATOM     63  C   UNL A   1      42.565  33.051  32.991  1.00  0.00     0.037 A 
BRANCH  50  64
ATOM     64  C   UNL A   1      45.863  27.931  31.917  1.00  0.00     0.058 A 
ATOM     65  C   UNL A   1      46.013  27.058  33.008  1.00  0.00     0.135 A 
ATOM     66  C   UNL A   1      46.930  28.037  31.011  1.00  0.00     0.135 A 
ATOM     67  F   UNL A   1      45.032  26.936  33.915  1.00  0.00    -0.206 F 
ATOM     68  C   UNL A   1      47.182  26.331  33.202  1.00  0.00     0.059 A 
ATOM     69  C   UNL A   1      48.099  27.297  31.171  1.00  0.00     0.059 A 
ATOM     70  F   UNL A   1      46.842  28.860  29.956  1.00  0.00    -0.206 F 
ATOM     71  C   UNL A   1      48.218  26.453  32.274  1.00  0.00     0.060 A 
BRANCH  71  72
ATOM     72  S   UNL A   1      49.718  25.483  32.533  1.00  0.00     0.124 S 
ATOM     73  O   UNL A   1      50.040  25.073  31.170  1.00  0.00    -0.237 OA
ATOM     74  O   UNL A   1      50.620  26.461  33.132  1.00  0.00    -0.237 OA
ATOM     75  O   UNL A   1      49.281  24.410  33.421  1.00  0.00    -0.744 OA
ENDBRANCH  71  72
ENDBRANCH  50  64
BRANCH  51  76
ATOM     76  C   UNL A   1      37.252  32.706  30.090  1.00  0.00     0.058 A 
ATOM     77  C   UNL A   1      36.113  32.472  30.875  1.00  0.00     0.135 A 
ATOM     78  C   UNL A   1      37.149  33.649  29.055  1.00  0.00     0.135 A 
ATOM     79  F   UNL A   1      36.158  31.572  31.869  1.00  0.00    -0.206 F 
ATOM     80  C   UNL A   1      34.914  33.137  30.640  1.00  0.00     0.059 A 
ATOM     81  C   UNL A   1      35.968  34.348  28.817  1.00  0.00     0.059 A 
ATOM     82  F   UNL A   1      38.212  33.921  28.283  1.00  0.00    -0.206 F 
ATOM     83  C   UNL A   1      34.854  34.078  29.610  1.00  0.00     0.060 A 
BRANCH  83  84
ATOM     84  S   UNL A   1      33.306  34.972  29.348  1.00  0.00     0.124 S 
ATOM     85  O   UNL A   1      32.740  34.981  30.693  1.00  0.00    -0.237 OA
ATOM     86  O   UNL A   1      33.781  36.258  28.846  1.00  0.00    -0.237 OA
ATOM     87  O   UNL A   1      32.602  34.148  28.371  1.00  0.00    -0.744 OA
ENDBRANCH  83  84
ENDBRANCH  51  76
BRANCH  63  88
ATOM     88  C   UNL A   1      42.938  34.236  33.837  1.00  0.00     0.058 A 
ATOM     89  C   UNL A   1      42.632  34.284  35.207  1.00  0.00     0.135 A 
ATOM     90  C   UNL A   1      43.662  35.307  33.290  1.00  0.00     0.135 A 
ATOM     91  F   UNL A   1      41.936  33.287  35.778  1.00  0.00    -0.206 F 
ATOM     92  C   UNL A   1      43.013  35.360  35.999  1.00  0.00     0.059 A 
ATOM     93  C   UNL A   1      44.080  36.380  34.071  1.00  0.00     0.059 A 
ATOM     94  F   UNL A   1      43.991  35.307  31.989  1.00  0.00    -0.206 F 
ATOM     95  C   UNL A   1      43.741  36.403  35.423  1.00  0.00     0.060 A 
BRANCH  95  96
ATOM     96  S   UNL A   1      44.256  37.776  36.475  1.00  0.00     0.124 S 
ATOM     97  O   UNL A   1      43.328  37.654  37.594  1.00  0.00    -0.237 OA
ATOM     98  O   UNL A   1      45.646  37.441  36.763  1.00  0.00    -0.237 OA
ATOM     99  O   UNL A   1      44.063  38.948  35.625  1.00  0.00    -0.744 OA
ENDBRANCH  95  96
ENDBRANCH  63  88
ENDBRANCH  37  38
ENDBRANCH  29  32
ENDBRANCH  27  28
ENDBRANCH  26  27
ENDBRANCH   1  26
TORSDOF 17
ENDMDL
MODEL 3
REMARK VINA RESULT:     -11.9      1.287      8.314
REMARK SMILES Cc1cc2c(c(C)c1Cl)C=C(C(=O)NCCCCCCNC(=O)c1ccc(-c3c4nc(c(-c5c(F)cc(S(=O)(=O)[O-])cc5F)c5ccc([nH]5)c(-c5c(F)cc(S(=O)(=O)[O-])cc5F)c5nc(c(-c6c(F)cc(S(=O)(=O)[O-])cc6F)c6ccc3[nH]6)C=C5)C=C4)cc1)[C@@H](C(F)(F)F)O2
REMARK SMILES IDX 18 1 17 2 16 3 15 4 14 5 12 6 13 7 11 9 1 10 2 11 3 12 8 13
REMARK SMILES IDX 4 14 6 15 9 16 5 17 95 18 7 19 10 20 90 21 91 22 92 23 93 24
REMARK SMILES IDX 94 25 19 26 20 27 21 28 22 29 23 31 24 32 25 33 89 34 26 35
REMARK SMILES IDX 88 36 27 37 28 38 29 39 82 40 30 41 87 42 81 43 83 44 31 45
REMARK SMILES IDX 86 46 80 47 79 48 32 50 66 51 45 52 65 53 46 54 49 55 64 56
REMARK SMILES IDX 84 57 47 58 48 59 63 61 85 62 50 63 33 64 34 65 43 66 35 67
REMARK SMILES IDX 36 68 42 69 44 70 37 71 38 72 39 73 40 74 41 75 67 76 68 77
REMARK SMILES IDX 77 78 69 79 70 80 76 81 78 82 71 83 72 84 73 85 74 86 75 87
REMARK SMILES IDX 51 88 52 89 61 90 53 91 54 92 60 93 62 94 55 95 56 96 57 97
REMARK SMILES IDX 58 98 59 99
REMARK H PARENT 14 8 21 30 83 49 49 60
REMARK Flexibility Score: inf
ROOT
ATOM      1  C   UNL A   1      41.500  21.781  26.398  1.00  0.00     0.002 C 
ENDROOT
BRANCH   1   2
ATOM      2  C   UNL A   1      39.969  21.738  26.499  1.00  0.00     0.002 C 
BRANCH   2   3
ATOM      3  C   UNL A   1      39.280  23.102  26.440  1.00  0.00     0.021 C 
BRANCH   3   4
ATOM      4  C   UNL A   1      37.793  23.019  26.114  1.00  0.00     0.116 C 
BRANCH   4   5
ATOM      5  N   UNL A   1      37.560  22.959  24.682  1.00  0.00    -0.352 N 
ATOM      6  C   UNL A   1      36.499  23.047  23.848  1.00  0.00     0.251 C 
ATOM      7  O   UNL A   1      36.767  22.955  22.645  1.00  0.00    -0.270 OA
ATOM      8  H   UNL A   1      38.398  22.816  24.186  1.00  0.00     0.163 HD
BRANCH   6   9
ATOM      9  C   UNL A   1      35.080  23.241  24.275  1.00  0.00     0.067 C 
ATOM     10  C   UNL A   1      29.257  25.356  26.273  1.00  0.00     0.046 C 
ATOM     11  C   UNL A   1      30.713  25.182  25.936  1.00  0.00    -0.028 A 
ATOM     12  C   UNL A   1      31.103  23.996  25.312  1.00  0.00     0.052 A 
ATOM     13  C   UNL A   1      31.684  26.176  26.172  1.00  0.00     0.047 A 
ATOM     14  C   UNL A   1      32.429  23.788  24.956  1.00  0.00     0.128 A 
ATOM     15  C   UNL A   1      33.041  25.975  25.815  1.00  0.00    -0.021 A 
ATOM     16  Cl  UNL A   1      31.171  27.673  26.893  1.00  0.00    -0.084 Cl
ATOM     17  C   UNL A   1      33.407  24.759  25.189  1.00  0.00     0.022 A 
ATOM     18  O   UNL A   1      32.670  22.603  24.330  1.00  0.00    -0.475 OA
ATOM     19  C   UNL A   1      34.100  27.022  26.077  1.00  0.00     0.047 C 
ATOM     20  C   UNL A   1      34.767  24.472  24.721  1.00  0.00     0.026 C 
ATOM     21  C   UNL A   1      34.045  22.157  24.263  1.00  0.00     0.314 C 
BRANCH  21  22
ATOM     22  C   UNL A   1      34.281  21.091  25.347  1.00  0.00     0.429 C 
ATOM     23  F   UNL A   1      33.101  20.638  25.835  1.00  0.00    -0.167 F 
ATOM     24  F   UNL A   1      34.942  20.006  24.878  1.00  0.00    -0.167 F 
ATOM     25  F   UNL A   1      34.999  21.567  26.390  1.00  0.00    -0.167 F 
ENDBRANCH  21  22
ENDBRANCH   6   9
ENDBRANCH   4   5
ENDBRANCH   3   4
ENDBRANCH   2   3
ENDBRANCH   1   2
BRANCH   1  26
ATOM     26  C   UNL A   1      42.228  22.157  27.693  1.00  0.00     0.021 C 
BRANCH  26  27
ATOM     27  C   UNL A   1      43.093  23.406  27.587  1.00  0.00     0.116 C 
BRANCH  27  28
ATOM     28  N   UNL A   1      42.820  24.142  26.364  1.00  0.00    -0.352 N 
ATOM     29  C   UNL A   1      42.186  25.345  26.205  1.00  0.00     0.251 C 
ATOM     30  H   UNL A   1      43.135  23.716  25.535  1.00  0.00     0.163 HD
ATOM     31  O   UNL A   1      41.816  25.700  25.086  1.00  0.00    -0.269 OA
BRANCH  29  32
ATOM     32  C   UNL A   1      41.946  26.209  27.378  1.00  0.00     0.039 A 
ATOM     33  C   UNL A   1      42.773  27.314  27.589  1.00  0.00     0.014 A 
ATOM     34  C   UNL A   1      40.922  25.907  28.281  1.00  0.00     0.014 A 
ATOM     35  C   UNL A   1      42.551  28.138  28.693  1.00  0.00     0.010 A 
ATOM     36  C   UNL A   1      40.657  26.769  29.338  1.00  0.00     0.010 A 
ATOM     37  C   UNL A   1      41.482  27.881  29.567  1.00  0.00    -0.014 A 
BRANCH  37  38
ATOM     38  C   UNL A   1      41.249  28.723  30.764  1.00  0.00     0.031 A 
ATOM     39  C   UNL A   1      40.148  29.749  30.743  1.00  0.00     0.074 A 
ATOM     40  C   UNL A   1      42.040  28.591  31.845  1.00  0.00     0.049 A 
ATOM     41  N   UNL A   1      39.828  30.634  31.651  1.00  0.00    -0.248 NA
ATOM     42  C   UNL A   1      39.311  29.800  29.533  1.00  0.00     0.031 C 
ATOM     43  C   UNL A   1      43.149  27.642  31.972  1.00  0.00     0.029 A 
ATOM     44  N   UNL A   1      42.038  29.260  33.043  1.00  0.00    -0.354 N 
ATOM     45  C   UNL A   1      38.759  31.348  31.120  1.00  0.00     0.074 A 
ATOM     46  C   UNL A   1      38.525  30.836  29.788  1.00  0.00     0.031 C 
ATOM     47  C   UNL A   1      43.701  27.772  33.189  1.00  0.00     0.029 A 
ATOM     48  C   UNL A   1      43.016  28.839  33.913  1.00  0.00     0.049 A 
ATOM     49  H   UNL A   1      41.396  29.974  33.259  1.00  0.00     0.167 HD
ATOM     50  C   UNL A   1      38.020  32.320  31.703  1.00  0.00     0.037 A 
ATOM     51  C   UNL A   1      43.328  29.272  35.150  1.00  0.00     0.037 A 
ATOM     52  C   UNL A   1      38.245  32.807  33.038  1.00  0.00     0.049 A 
ATOM     53  C   UNL A   1      42.518  30.387  35.758  1.00  0.00     0.074 A 
ATOM     54  C   UNL A   1      37.531  33.766  33.734  1.00  0.00     0.029 A 
ATOM     55  N   UNL A   1      39.257  32.371  33.880  1.00  0.00    -0.354 N 
ATOM     56  N   UNL A   1      41.489  31.027  35.257  1.00  0.00    -0.248 NA
ATOM     57  C   UNL A   1      42.912  30.837  37.100  1.00  0.00     0.031 C 
ATOM     58  C   UNL A   1      38.140  33.942  34.980  1.00  0.00     0.029 A 
ATOM     59  C   UNL A   1      39.203  33.058  35.081  1.00  0.00     0.049 A 
ATOM     60  H   UNL A   1      39.917  31.675  33.657  1.00  0.00     0.167 HD
ATOM     61  C   UNL A   1      41.103  31.946  36.227  1.00  0.00     0.074 A 
ATOM     62  C   UNL A   1      41.995  31.760  37.354  1.00  0.00     0.031 C 
ATOM     63  C   UNL A   1      40.105  32.863  36.189  1.00  0.00     0.037 A 
BRANCH  50  64
ATOM     64  C   UNL A   1      36.889  32.912  30.906  1.00  0.00     0.058 A 
ATOM     65  C   UNL A   1      37.123  33.860  29.895  1.00  0.00     0.135 A 
ATOM     66  C   UNL A   1      35.566  32.496  31.122  1.00  0.00     0.135 A 
ATOM     67  F   UNL A   1      38.366  34.307  29.663  1.00  0.00    -0.206 F 
ATOM     68  C   UNL A   1      36.082  34.386  29.139  1.00  0.00     0.059 A 
ATOM     69  C   UNL A   1      34.512  32.990  30.357  1.00  0.00     0.059 A 
ATOM     70  F   UNL A   1      35.286  31.598  32.079  1.00  0.00    -0.206 F 
ATOM     71  C   UNL A   1      34.780  33.940  29.373  1.00  0.00     0.060 A 
BRANCH  71  72
ATOM     72  S   UNL A   1      33.447  34.621  28.364  1.00  0.00     0.124 S 
ATOM     73  O   UNL A   1      32.574  35.196  29.382  1.00  0.00    -0.237 OA
ATOM     74  O   UNL A   1      34.155  35.578  27.520  1.00  0.00    -0.237 OA
ATOM     75  O   UNL A   1      32.914  33.452  27.670  1.00  0.00    -0.744 OA
ENDBRANCH  71  72
ENDBRANCH  50  64
BRANCH  51  76
ATOM     76  C   UNL A   1      44.445  28.639  35.901  1.00  0.00     0.058 A 
ATOM     77  C   UNL A   1      44.206  27.570  36.777  1.00  0.00     0.135 A 
ATOM     78  C   UNL A   1      45.770  29.076  35.750  1.00  0.00     0.135 A 
ATOM     79  F   UNL A   1      42.955  27.123  36.965  1.00  0.00    -0.206 F 
ATOM     80  C   UNL A   1      45.237  26.962  37.486  1.00  0.00     0.059 A 
ATOM     81  C   UNL A   1      46.824  28.467  36.426  1.00  0.00     0.059 A 
ATOM     82  F   UNL A   1      46.055  30.086  34.914  1.00  0.00    -0.206 F 
ATOM     83  C   UNL A   1      46.545  27.415  37.299  1.00  0.00     0.060 A 
BRANCH  83  84
ATOM     84  S   UNL A   1      47.881  26.584  38.185  1.00  0.00     0.124 S 
ATOM     85  O   UNL A   1      48.162  27.535  39.255  1.00  0.00    -0.237 OA
ATOM     86  O   UNL A   1      47.243  25.335  38.593  1.00  0.00    -0.237 OA
ATOM     87  O   UNL A   1      48.922  26.445  37.172  1.00  0.00    -0.744 OA
ENDBRANCH  83  84
ENDBRANCH  51  76
BRANCH  63  88
ATOM     88  C   UNL A   1      39.918  33.736  37.398  1.00  0.00     0.058 A 
ATOM     89  C   UNL A   1      40.605  34.953  37.537  1.00  0.00     0.135 A 
ATOM     90  C   UNL A   1      38.998  33.385  38.400  1.00  0.00     0.135 A 
ATOM     91  F   UNL A   1      41.499  35.332  36.610  1.00  0.00    -0.206 F 
ATOM     92  C   UNL A   1      40.402  35.781  38.635  1.00  0.00     0.059 A 
ATOM     93  C   UNL A   1      38.757  34.214  39.492  1.00  0.00     0.059 A 
ATOM     94  F   UNL A   1      38.306  32.239  38.311  1.00  0.00    -0.206 F 
ATOM     95  C   UNL A   1      39.472  35.404  39.606  1.00  0.00     0.060 A 
BRANCH  95  96
ATOM     96  S   UNL A   1      39.198  36.508  41.007  1.00  0.00     0.124 S 
ATOM     97  O   UNL A   1      40.551  36.661  41.531  1.00  0.00    -0.237 OA
ATOM     98  O   UNL A   1      38.629  37.689  40.365  1.00  0.00    -0.237 OA
ATOM     99  O   UNL A   1      38.277  35.759  41.857  1.00  0.00    -0.744 OA
ENDBRANCH  95  96
ENDBRANCH  63  88
ENDBRANCH  37  38
ENDBRANCH  29  32
ENDBRANCH  27  28
ENDBRANCH  26  27
ENDBRANCH   1  26
TORSDOF 17
ENDMDL
