MODEL 1
REMARK VINA RESULT:     -10.7      0.000      0.000
REMARK SMILES O=C(NCCCCCCNC(=O)c1cncc(OCCCc2ccccc2)n1)c1ccc(-c2c3nc(c(-c4c(F)cc(S(=O)(=O)[O-])cc4F)c4ccc([nH]4)c(-c4c(F)cc(S(=O)(=O)[O-])cc4F)c4nc(c(-c5c(F)cc(S(=O)(=O)[O-])cc5F)c5ccc2[nH]5)C=C4)C=C3)cc1
REMARK SMILES IDX 7 1 6 2 5 3 4 4 3 5 1 6 2 7 29 9 30 10 94 11 31 12 93 13
REMARK SMILES IDX 32 14 33 15 34 16 87 17 35 18 92 19 86 20 88 21 36 22 91 23
REMARK SMILES IDX 85 24 84 25 37 27 71 28 50 29 70 30 51 31 54 32 69 33 89 34
REMARK SMILES IDX 52 35 53 36 68 38 90 39 55 40 38 41 39 42 48 43 40 44 41 45
REMARK SMILES IDX 47 46 49 47 42 48 43 49 44 50 45 51 46 52 72 53 73 54 82 55
REMARK SMILES IDX 74 56 75 57 81 58 83 59 76 60 77 61 78 62 79 63 80 64 56 65
REMARK SMILES IDX 57 66 66 67 58 68 59 69 65 70 67 71 60 72 61 73 62 74 63 75
REMARK SMILES IDX 64 76 8 77 9 78 10 79 11 80 12 82 13 83 14 84 28 85 15 86
REMARK SMILES IDX 17 87 16 88 18 89 19 90 20 91 21 92 22 93 23 94 27 95 24 96
REMARK SMILES IDX 26 97 25 98
REMARK H PARENT 3 8 88 26 54 37 10 81
REMARK Flexibility Score: inf
ROOT
ATOM      1  C   UNL A   1      34.592  31.274  27.712  1.00  0.00     0.002 C 
ENDROOT
BRANCH   1   2
ATOM      2  C   UNL A   1      34.759  32.689  28.273  1.00  0.00     0.002 C 
BRANCH   2   3
ATOM      3  C   UNL A   1      36.200  33.195  28.377  1.00  0.00     0.021 C 
BRANCH   3   4
ATOM      4  C   UNL A   1      36.802  33.147  29.777  1.00  0.00     0.116 C 
BRANCH   4   5
ATOM      5  N   UNL A   1      36.209  32.101  30.592  1.00  0.00    -0.352 N 
ATOM      6  O   UNL A   1      35.907  30.012  31.373  1.00  0.00    -0.269 OA
ATOM      7  C   UNL A   1      36.643  30.816  30.812  1.00  0.00     0.251 C 
ATOM      8  H   UNL A   1      35.376  32.349  31.056  1.00  0.00     0.163 HD
BRANCH   7   9
ATOM      9  C   UNL A   1      37.987  30.398  30.353  1.00  0.00     0.039 A 
ATOM     10  C   UNL A   1      38.268  30.236  28.992  1.00  0.00     0.014 A 
ATOM     11  C   UNL A   1      38.990  30.195  31.304  1.00  0.00     0.014 A 
ATOM     12  C   UNL A   1      39.514  29.758  28.591  1.00  0.00     0.010 A 
ATOM     13  C   UNL A   1      40.261  29.786  30.894  1.00  0.00     0.010 A 
ATOM     14  C   UNL A   1      40.527  29.541  29.537  1.00  0.00    -0.014 A 
BRANCH  14  15
ATOM     15  C   UNL A   1      41.881  29.105  29.109  1.00  0.00     0.031 A 
ATOM     16  C   UNL A   1      43.010  30.091  29.018  1.00  0.00     0.074 A 
ATOM     17  C   UNL A   1      42.076  27.820  28.754  1.00  0.00     0.049 A 
ATOM     18  N   UNL A   1      44.224  29.919  28.561  1.00  0.00    -0.248 NA
ATOM     19  C   UNL A   1      42.735  31.455  29.494  1.00  0.00     0.031 C 
ATOM     20  C   UNL A   1      41.056  26.771  28.800  1.00  0.00     0.029 A 
ATOM     21  N   UNL A   1      43.188  27.182  28.265  1.00  0.00    -0.354 N 
ATOM     22  C   UNL A   1      44.851  31.154  28.669  1.00  0.00     0.074 A 
ATOM     23  C   UNL A   1      43.873  32.074  29.212  1.00  0.00     0.031 C 
ATOM     24  C   UNL A   1      41.587  25.623  28.357  1.00  0.00     0.029 A 
ATOM     25  C   UNL A   1      42.962  25.867  27.935  1.00  0.00     0.049 A 
ATOM     26  H   UNL A   1      44.062  27.623  28.160  1.00  0.00     0.167 HD
ATOM     27  C   UNL A   1      46.125  31.488  28.343  1.00  0.00     0.037 A 
ATOM     28  C   UNL A   1      43.755  24.966  27.324  1.00  0.00     0.037 A 
ATOM     29  C   UNL A   1      47.083  30.560  27.797  1.00  0.00     0.049 A 
ATOM     30  C   UNL A   1      45.148  25.363  26.929  1.00  0.00     0.074 A 
ATOM     31  C   UNL A   1      48.408  30.788  27.465  1.00  0.00     0.029 A 
ATOM     32  N   UNL A   1      46.817  29.234  27.484  1.00  0.00    -0.354 N 
ATOM     33  N   UNL A   1      45.740  26.526  27.069  1.00  0.00    -0.248 NA
ATOM     34  C   UNL A   1      45.985  24.333  26.300  1.00  0.00     0.031 C 
ATOM     35  C   UNL A   1      48.924  29.619  26.897  1.00  0.00     0.029 A 
ATOM     36  C   UNL A   1      47.944  28.639  26.939  1.00  0.00     0.049 A 
ATOM     37  H   UNL A   1      45.954  28.782  27.629  1.00  0.00     0.167 HD
ATOM     38  C   UNL A   1      47.029  26.359  26.574  1.00  0.00     0.074 A 
ATOM     39  C   UNL A   1      47.128  24.984  26.128  1.00  0.00     0.031 C 
ATOM     40  C   UNL A   1      48.037  27.262  26.510  1.00  0.00     0.037 A 
BRANCH  27  41
ATOM     41  C   UNL A   1      46.537  32.925  28.528  1.00  0.00     0.058 A 
ATOM     42  C   UNL A   1      46.396  33.878  27.506  1.00  0.00     0.135 A 
ATOM     43  C   UNL A   1      47.082  33.355  29.749  1.00  0.00     0.135 A 
ATOM     44  F   UNL A   1      45.890  33.524  26.314  1.00  0.00    -0.206 F 
ATOM     45  C   UNL A   1      46.832  35.190  27.670  1.00  0.00     0.059 A 
ATOM     46  C   UNL A   1      47.494  34.670  29.946  1.00  0.00     0.059 A 
ATOM     47  F   UNL A   1      47.231  32.491  30.766  1.00  0.00    -0.206 F 
ATOM     48  C   UNL A   1      47.390  35.574  28.890  1.00  0.00     0.060 A 
BRANCH  48  49
ATOM     49  S   UNL A   1      48.001  37.264  29.067  1.00  0.00     0.124 S 
ATOM     50  O   UNL A   1      47.942  37.440  30.516  1.00  0.00    -0.237 OA
ATOM     51  O   UNL A   1      49.339  37.174  28.495  1.00  0.00    -0.237 OA
ATOM     52  O   UNL A   1      47.045  38.055  28.300  1.00  0.00    -0.744 OA
ENDBRANCH  48  49
ENDBRANCH  27  41
BRANCH  28  53
ATOM     53  C   UNL A   1      43.222  23.607  27.050  1.00  0.00     0.058 A 
ATOM     54  C   UNL A   1      42.914  23.199  25.746  1.00  0.00     0.135 A 
ATOM     55  C   UNL A   1      43.092  22.660  28.081  1.00  0.00     0.135 A 
ATOM     56  F   UNL A   1      43.016  24.068  24.729  1.00  0.00    -0.206 F 
ATOM     57  C   UNL A   1      42.508  21.897  25.468  1.00  0.00     0.059 A 
ATOM     58  C   UNL A   1      42.714  21.347  27.825  1.00  0.00     0.059 A 
ATOM     59  F   UNL A   1      43.392  22.998  29.345  1.00  0.00    -0.206 F 
ATOM     60  C   UNL A   1      42.425  20.975  26.513  1.00  0.00     0.060 A 
BRANCH  60  61
ATOM     61  S   UNL A   1      41.994  19.265  26.123  1.00  0.00     0.124 S 
ATOM     62  O   UNL A   1      42.332  18.586  27.368  1.00  0.00    -0.237 OA
ATOM     63  O   UNL A   1      40.570  19.371  25.820  1.00  0.00    -0.237 OA
ATOM     64  O   UNL A   1      42.848  18.954  24.981  1.00  0.00    -0.744 OA
ENDBRANCH  60  61
ENDBRANCH  28  53
BRANCH  40  65
ATOM     65  C   UNL A   1      49.369  26.795  25.989  1.00  0.00     0.058 A 
ATOM     66  C   UNL A   1      49.772  27.022  24.665  1.00  0.00     0.135 A 
ATOM     67  C   UNL A   1      50.294  26.203  26.865  1.00  0.00     0.135 A 
ATOM     68  F   UNL A   1      48.922  27.572  23.784  1.00  0.00    -0.206 F 
ATOM     69  C   UNL A   1      51.049  26.681  24.228  1.00  0.00     0.059 A 
ATOM     70  C   UNL A   1      51.584  25.879  26.457  1.00  0.00     0.059 A 
ATOM     71  F   UNL A   1      49.958  25.968  28.144  1.00  0.00    -0.206 F 
ATOM     72  C   UNL A   1      51.952  26.122  25.136  1.00  0.00     0.060 A 
BRANCH  72  73
ATOM     73  S   UNL A   1      53.632  25.765  24.579  1.00  0.00     0.124 S 
ATOM     74  O   UNL A   1      53.548  26.091  23.158  1.00  0.00    -0.237 OA
ATOM     75  O   UNL A   1      54.430  26.677  25.393  1.00  0.00    -0.237 OA
ATOM     76  O   UNL A   1      53.801  24.348  24.888  1.00  0.00    -0.744 OA
ENDBRANCH  72  73
ENDBRANCH  40  65
ENDBRANCH  14  15
ENDBRANCH   7   9
ENDBRANCH   4   5
ENDBRANCH   3   4
ENDBRANCH   2   3
ENDBRANCH   1   2
BRANCH   1  77
ATOM     77  C   UNL A   1      33.186  30.913  27.222  1.00  0.00     0.021 C 
BRANCH  77  78
ATOM     78  C   UNL A   1      32.956  29.447  26.863  1.00  0.00     0.116 C 
BRANCH  78  79
ATOM     79  N   UNL A   1      33.623  29.038  25.642  1.00  0.00    -0.351 N 
ATOM     80  C   UNL A   1      33.264  28.054  24.750  1.00  0.00     0.271 C 
ATOM     81  H   UNL A   1      34.447  29.531  25.421  1.00  0.00     0.163 HD
ATOM     82  O   UNL A   1      33.919  27.886  23.725  1.00  0.00    -0.267 OA
BRANCH  80  83
ATOM     83  C   UNL A   1      32.124  27.160  25.056  1.00  0.00     0.150 A 
ATOM     84  C   UNL A   1      30.931  27.249  24.363  1.00  0.00     0.145 A 
ATOM     85  N   UNL A   1      32.331  26.253  26.044  1.00  0.00    -0.205 NA
ATOM     86  N   UNL A   1      29.880  26.438  24.645  1.00  0.00    -0.257 NA
ATOM     87  C   UNL A   1      31.305  25.432  26.313  1.00  0.00     0.233 A 
ATOM     88  C   UNL A   1      30.101  25.522  25.626  1.00  0.00     0.179 A 
BRANCH  87  89
ATOM     89  O   UNL A   1      31.477  24.418  27.224  1.00  0.00    -0.477 OA
BRANCH  89  90
ATOM     90  C   UNL A   1      31.301  23.097  26.689  1.00  0.00     0.232 C 
BRANCH  90  91
ATOM     91  C   UNL A   1      32.608  22.452  26.206  1.00  0.00     0.046 C 
BRANCH  91  92
ATOM     92  C   UNL A   1      33.889  22.845  26.958  1.00  0.00     0.039 C 
BRANCH  92  93
ATOM     93  C   UNL A   1      35.192  22.520  26.261  1.00  0.00    -0.048 A 
ATOM     94  C   UNL A   1      36.154  23.513  26.040  1.00  0.00     0.004 A 
ATOM     95  C   UNL A   1      35.448  21.232  25.780  1.00  0.00     0.004 A 
ATOM     96  C   UNL A   1      37.328  23.244  25.337  1.00  0.00     0.000 A 
ATOM     97  C   UNL A   1      36.623  20.959  25.073  1.00  0.00     0.000 A 
ATOM     98  C   UNL A   1      37.561  21.966  24.847  1.00  0.00     0.000 A 
ENDBRANCH  92  93
ENDBRANCH  91  92
ENDBRANCH  90  91
ENDBRANCH  89  90
ENDBRANCH  87  89
ENDBRANCH  80  83
ENDBRANCH  78  79
ENDBRANCH  77  78
ENDBRANCH   1  77
TORSDOF 21
ENDMDL
MODEL 2
REMARK VINA RESULT:     -10.7      1.282      2.094
REMARK SMILES O=C(NCCCCCCNC(=O)c1cncc(OCCCc2ccccc2)n1)c1ccc(-c2c3nc(c(-c4c(F)cc(S(=O)(=O)[O-])cc4F)c4ccc([nH]4)c(-c4c(F)cc(S(=O)(=O)[O-])cc4F)c4nc(c(-c5c(F)cc(S(=O)(=O)[O-])cc5F)c5ccc2[nH]5)C=C4)C=C3)cc1
REMARK SMILES IDX 7 1 6 2 5 3 4 4 3 5 1 6 2 7 29 9 30 10 94 11 31 12 93 13
REMARK SMILES IDX 32 14 33 15 34 16 87 17 35 18 92 19 86 20 88 21 36 22 91 23
REMARK SMILES IDX 85 24 84 25 37 27 71 28 50 29 70 30 51 31 54 32 69 33 89 34
REMARK SMILES IDX 52 35 53 36 68 38 90 39 55 40 38 41 39 42 48 43 40 44 41 45
REMARK SMILES IDX 47 46 49 47 42 48 43 49 44 50 45 51 46 52 72 53 73 54 82 55
REMARK SMILES IDX 74 56 75 57 81 58 83 59 76 60 77 61 78 62 79 63 80 64 56 65
REMARK SMILES IDX 57 66 66 67 58 68 59 69 65 70 67 71 60 72 61 73 62 74 63 75
REMARK SMILES IDX 64 76 8 77 9 78 10 79 11 80 12 82 13 83 14 84 28 85 15 86
REMARK SMILES IDX 17 87 16 88 18 89 19 90 20 91 21 92 22 93 23 94 27 95 24 96
REMARK SMILES IDX 26 97 25 98
REMARK H PARENT 3 8 88 26 54 37 10 81
REMARK Flexibility Score: inf
ROOT
ATOM      1  C   UNL A   1      34.136  28.584  26.168  1.00  0.00     0.002 C 
ENDROOT
BRANCH   1   2
ATOM      2  C   UNL A   1      34.361  29.346  27.476  1.00  0.00     0.002 C 
BRANCH   2   3
ATOM      3  C   UNL A   1      34.469  30.867  27.347  1.00  0.00     0.021 C 
BRANCH   3   4
ATOM      4  C   UNL A   1      35.658  31.494  28.067  1.00  0.00     0.116 C 
BRANCH   4   5
ATOM      5  N   UNL A   1      35.504  31.461  29.510  1.00  0.00    -0.352 N 
ATOM      6  O   UNL A   1      35.969  30.844  31.624  1.00  0.00    -0.269 OA
ATOM      7  C   UNL A   1      36.356  30.963  30.467  1.00  0.00     0.251 C 
ATOM      8  H   UNL A   1      34.668  31.853  29.854  1.00  0.00     0.163 HD
BRANCH   7   9
ATOM      9  C   UNL A   1      37.730  30.555  30.096  1.00  0.00     0.039 A 
ATOM     10  C   UNL A   1      38.107  30.425  28.756  1.00  0.00     0.014 A 
ATOM     11  C   UNL A   1      38.662  30.328  31.112  1.00  0.00     0.014 A 
ATOM     12  C   UNL A   1      39.379  29.956  28.434  1.00  0.00     0.010 A 
ATOM     13  C   UNL A   1      39.958  29.927  30.784  1.00  0.00     0.010 A 
ATOM     14  C   UNL A   1      40.322  29.713  29.445  1.00  0.00    -0.014 A 
BRANCH  14  15
ATOM     15  C   UNL A   1      41.703  29.286  29.104  1.00  0.00     0.031 A 
ATOM     16  C   UNL A   1      42.827  30.282  29.071  1.00  0.00     0.074 A 
ATOM     17  C   UNL A   1      41.930  28.000  28.777  1.00  0.00     0.049 A 
ATOM     18  N   UNL A   1      44.067  30.117  28.691  1.00  0.00    -0.248 NA
ATOM     19  C   UNL A   1      42.511  31.648  29.514  1.00  0.00     0.031 C 
ATOM     20  C   UNL A   1      40.919  26.941  28.772  1.00  0.00     0.029 A 
ATOM     21  N   UNL A   1      43.076  27.367  28.363  1.00  0.00    -0.354 N 
ATOM     22  C   UNL A   1      44.676  31.359  28.822  1.00  0.00     0.074 A 
ATOM     23  C   UNL A   1      43.659  32.275  29.295  1.00  0.00     0.031 C 
ATOM     24  C   UNL A   1      41.487  25.793  28.375  1.00  0.00     0.029 A 
ATOM     25  C   UNL A   1      42.882  26.047  28.035  1.00  0.00     0.049 A 
ATOM     26  H   UNL A   1      43.951  27.815  28.307  1.00  0.00     0.167 HD
ATOM     27  C   UNL A   1      45.964  31.701  28.571  1.00  0.00     0.037 A 
ATOM     28  C   UNL A   1      43.719  25.147  27.483  1.00  0.00     0.037 A 
ATOM     29  C   UNL A   1      46.962  30.777  28.094  1.00  0.00     0.049 A 
ATOM     30  C   UNL A   1      45.130  25.553  27.169  1.00  0.00     0.074 A 
ATOM     31  C   UNL A   1      48.303  31.014  27.841  1.00  0.00     0.029 A 
ATOM     32  N   UNL A   1      46.728  29.445  27.781  1.00  0.00    -0.354 N 
ATOM     33  N   UNL A   1      45.702  26.722  27.332  1.00  0.00    -0.248 NA
ATOM     34  C   UNL A   1      46.013  24.524  26.604  1.00  0.00     0.031 C 
ATOM     35  C   UNL A   1      48.863  29.844  27.319  1.00  0.00     0.029 A 
ATOM     36  C   UNL A   1      47.891  28.855  27.312  1.00  0.00     0.049 A 
ATOM     37  H   UNL A   1      45.861  28.986  27.878  1.00  0.00     0.167 HD
ATOM     38  C   UNL A   1      47.020  26.563  26.918  1.00  0.00     0.074 A 
ATOM     39  C   UNL A   1      47.158  25.184  26.494  1.00  0.00     0.031 C 
ATOM     40  C   UNL A   1      48.022  27.475  26.905  1.00  0.00     0.037 A 
BRANCH  27  41
ATOM     41  C   UNL A   1      46.351  33.144  28.764  1.00  0.00     0.058 A 
ATOM     42  C   UNL A   1      46.853  33.624  29.985  1.00  0.00     0.135 A 
ATOM     43  C   UNL A   1      46.217  34.063  27.709  1.00  0.00     0.135 A 
ATOM     44  F   UNL A   1      46.996  32.795  31.032  1.00  0.00    -0.206 F 
ATOM     45  C   UNL A   1      47.155  34.970  30.169  1.00  0.00     0.059 A 
ATOM     46  C   UNL A   1      46.544  35.407  27.861  1.00  0.00     0.059 A 
ATOM     47  F   UNL A   1      45.752  33.660  26.516  1.00  0.00    -0.206 F 
ATOM     48  C   UNL A   1      46.987  35.856  29.105  1.00  0.00     0.060 A 
BRANCH  48  49
ATOM     49  S   UNL A   1      47.329  37.608  29.376  1.00  0.00     0.124 S 
ATOM     50  O   UNL A   1      46.493  38.227  28.351  1.00  0.00    -0.237 OA
ATOM     51  O   UNL A   1      46.890  37.803  30.753  1.00  0.00    -0.237 OA
ATOM     52  O   UNL A   1      48.768  37.712  29.158  1.00  0.00    -0.744 OA
ENDBRANCH  48  49
ENDBRANCH  27  41
BRANCH  28  53
ATOM     53  C   UNL A   1      43.216  23.779  27.193  1.00  0.00     0.058 A 
ATOM     54  C   UNL A   1      42.989  23.355  25.877  1.00  0.00     0.135 A 
ATOM     55  C   UNL A   1      43.035  22.841  28.225  1.00  0.00     0.135 A 
ATOM     56  F   UNL A   1      43.142  24.216  24.859  1.00  0.00    -0.206 F 
ATOM     57  C   UNL A   1      42.611  22.047  25.590  1.00  0.00     0.059 A 
ATOM     58  C   UNL A   1      42.685  21.522  27.960  1.00  0.00     0.059 A 
ATOM     59  F   UNL A   1      43.257  23.195  29.500  1.00  0.00    -0.206 F 
ATOM     60  C   UNL A   1      42.476  21.134  26.637  1.00  0.00     0.060 A 
BRANCH  60  61
ATOM     61  S   UNL A   1      42.085  19.416  26.241  1.00  0.00     0.124 S 
ATOM     62  O   UNL A   1      42.661  18.713  27.381  1.00  0.00    -0.237 OA
ATOM     63  O   UNL A   1      40.627  19.443  26.178  1.00  0.00    -0.237 OA
ATOM     64  O   UNL A   1      42.756  19.204  24.962  1.00  0.00    -0.744 OA
ENDBRANCH  60  61
ENDBRANCH  28  53
BRANCH  40  65
ATOM     65  C   UNL A   1      49.387  27.015  26.472  1.00  0.00     0.058 A 
ATOM     66  C   UNL A   1      50.354  26.581  27.391  1.00  0.00     0.135 A 
ATOM     67  C   UNL A   1      49.689  26.911  25.103  1.00  0.00     0.135 A 
ATOM     68  F   UNL A   1      50.121  26.671  28.710  1.00  0.00    -0.206 F 
ATOM     69  C   UNL A   1      51.572  26.056  26.968  1.00  0.00     0.059 A 
ATOM     70  C   UNL A   1      50.888  26.365  24.658  1.00  0.00     0.059 A 
ATOM     71  F   UNL A   1      48.796  27.309  24.182  1.00  0.00    -0.206 F 
ATOM     72  C   UNL A   1      51.824  25.940  25.599  1.00  0.00     0.060 A 
BRANCH  72  73
ATOM     73  S   UNL A   1      53.372  25.178  25.064  1.00  0.00     0.124 S 
ATOM     74  O   UNL A   1      53.130  23.772  25.373  1.00  0.00    -0.237 OA
ATOM     75  O   UNL A   1      53.412  25.519  23.645  1.00  0.00    -0.237 OA
ATOM     76  O   UNL A   1      54.380  25.837  25.889  1.00  0.00    -0.744 OA
ENDBRANCH  72  73
ENDBRANCH  40  65
ENDBRANCH  14  15
ENDBRANCH   7   9
ENDBRANCH   4   5
ENDBRANCH   3   4
ENDBRANCH   2   3
ENDBRANCH   1   2
BRANCH   1  77
ATOM     77  C   UNL A   1      33.093  29.182  25.218  1.00  0.00     0.021 C 
BRANCH  77  78
ATOM     78  C   UNL A   1      31.724  28.507  25.213  1.00  0.00     0.116 C 
BRANCH  78  79
ATOM     79  N   UNL A   1      30.927  28.819  24.043  1.00  0.00    -0.351 N 
ATOM     80  C   UNL A   1      30.793  28.105  22.874  1.00  0.00     0.271 C 
ATOM     81  H   UNL A   1      30.411  29.656  24.090  1.00  0.00     0.163 HD
ATOM     82  O   UNL A   1      30.016  28.490  22.005  1.00  0.00    -0.267 OA
BRANCH  80  83
ATOM     83  C   UNL A   1      31.630  26.906  22.642  1.00  0.00     0.150 A 
ATOM     84  C   UNL A   1      32.897  27.004  22.098  1.00  0.00     0.145 A 
ATOM     85  N   UNL A   1      31.078  25.719  23.005  1.00  0.00    -0.205 NA
ATOM     86  N   UNL A   1      33.665  25.907  21.874  1.00  0.00    -0.257 NA
ATOM     87  C   UNL A   1      31.841  24.633  22.809  1.00  0.00     0.233 A 
ATOM     88  C   UNL A   1      33.110  24.724  22.255  1.00  0.00     0.179 A 
BRANCH  87  89
ATOM     89  O   UNL A   1      31.394  23.411  23.251  1.00  0.00    -0.477 OA
BRANCH  89  90
ATOM     90  C   UNL A   1      30.901  23.407  24.600  1.00  0.00     0.232 C 
BRANCH  90  91
ATOM     91  C   UNL A   1      31.688  22.480  25.537  1.00  0.00     0.046 C 
BRANCH  91  92
ATOM     92  C   UNL A   1      32.836  21.677  24.907  1.00  0.00     0.039 C 
BRANCH  92  93
ATOM     93  C   UNL A   1      34.194  22.344  24.919  1.00  0.00    -0.048 A 
ATOM     94  C   UNL A   1      34.460  23.415  25.782  1.00  0.00     0.004 A 
ATOM     95  C   UNL A   1      35.201  21.939  24.037  1.00  0.00     0.004 A 
ATOM     96  C   UNL A   1      35.683  24.084  25.753  1.00  0.00     0.000 A 
ATOM     97  C   UNL A   1      36.428  22.610  24.004  1.00  0.00     0.000 A 
ATOM     98  C   UNL A   1      36.667  23.685  24.859  1.00  0.00     0.000 A 
ENDBRANCH  92  93
ENDBRANCH  91  92
ENDBRANCH  90  91
ENDBRANCH  89  90
ENDBRANCH  87  89
ENDBRANCH  80  83
ENDBRANCH  78  79
ENDBRANCH  77  78
ENDBRANCH   1  77
TORSDOF 21
ENDMDL
MODEL 3
REMARK VINA RESULT:     -10.5      1.013      8.315
REMARK SMILES O=C(NCCCCCCNC(=O)c1cncc(OCCCc2ccccc2)n1)c1ccc(-c2c3nc(c(-c4c(F)cc(S(=O)(=O)[O-])cc4F)c4ccc([nH]4)c(-c4c(F)cc(S(=O)(=O)[O-])cc4F)c4nc(c(-c5c(F)cc(S(=O)(=O)[O-])cc5F)c5ccc2[nH]5)C=C4)C=C3)cc1
REMARK SMILES IDX 7 1 6 2 5 3 4 4 3 5 1 6 2 7 29 9 30 10 94 11 31 12 93 13
REMARK SMILES IDX 32 14 33 15 34 16 87 17 35 18 92 19 86 20 88 21 36 22 91 23
REMARK SMILES IDX 85 24 84 25 37 27 71 28 50 29 70 30 51 31 54 32 69 33 89 34
REMARK SMILES IDX 52 35 53 36 68 38 90 39 55 40 38 41 39 42 48 43 40 44 41 45
REMARK SMILES IDX 47 46 49 47 42 48 43 49 44 50 45 51 46 52 72 53 73 54 82 55
REMARK SMILES IDX 74 56 75 57 81 58 83 59 76 60 77 61 78 62 79 63 80 64 56 65
REMARK SMILES IDX 57 66 66 67 58 68 59 69 65 70 67 71 60 72 61 73 62 74 63 75
REMARK SMILES IDX 64 76 8 77 9 78 10 79 11 80 12 82 13 83 14 84 28 85 15 86
REMARK SMILES IDX 17 87 16 88 18 89 19 90 20 91 21 92 22 93 23 94 27 95 24 96
REMARK SMILES IDX 26 97 25 98
REMARK H PARENT 3 8 88 26 54 37 10 81
REMARK Flexibility Score: inf
ROOT
ATOM      1  C   UNL A   1      33.397  30.464  27.240  1.00  0.00     0.002 C 
ENDROOT
BRANCH   1   2
ATOM      2  C   UNL A   1      34.858  30.706  27.629  1.00  0.00     0.002 C 
BRANCH   2   3
ATOM      3  C   UNL A   1      35.187  32.117  28.123  1.00  0.00     0.021 C 
BRANCH   3   4
ATOM      4  C   UNL A   1      36.268  32.190  29.196  1.00  0.00     0.116 C 
BRANCH   4   5
ATOM      5  N   UNL A   1      36.004  31.286  30.301  1.00  0.00    -0.352 N 
ATOM      6  O   UNL A   1      36.223  29.420  31.542  1.00  0.00    -0.269 OA
ATOM      7  C   UNL A   1      36.707  30.177  30.707  1.00  0.00     0.251 C 
ATOM      8  H   UNL A   1      35.206  31.498  30.838  1.00  0.00     0.163 HD
BRANCH   7   9
ATOM      9  C   UNL A   1      38.036  29.886  30.123  1.00  0.00     0.039 A 
ATOM     10  C   UNL A   1      38.212  29.797  28.738  1.00  0.00     0.014 A 
ATOM     11  C   UNL A   1      39.129  29.730  30.979  1.00  0.00     0.014 A 
ATOM     12  C   UNL A   1      39.452  29.438  28.216  1.00  0.00     0.010 A 
ATOM     13  C   UNL A   1      40.387  29.441  30.449  1.00  0.00     0.010 A 
ATOM     14  C   UNL A   1      40.556  29.268  29.066  1.00  0.00    -0.014 A 
BRANCH  14  15
ATOM     15  C   UNL A   1      41.898  28.959  28.510  1.00  0.00     0.031 A 
ATOM     16  C   UNL A   1      42.239  27.566  28.060  1.00  0.00     0.074 A 
ATOM     17  C   UNL A   1      42.827  29.932  28.457  1.00  0.00     0.049 A 
ATOM     18  N   UNL A   1      43.386  27.086  27.655  1.00  0.00    -0.248 NA
ATOM     19  C   UNL A   1      41.148  26.581  28.081  1.00  0.00     0.031 C 
ATOM     20  C   UNL A   1      42.614  31.321  28.864  1.00  0.00     0.029 A 
ATOM     21  N   UNL A   1      44.141  29.899  28.061  1.00  0.00    -0.354 N 
ATOM     22  C   UNL A   1      43.166  25.738  27.395  1.00  0.00     0.074 A 
ATOM     23  C   UNL A   1      41.778  25.473  27.714  1.00  0.00     0.031 C 
ATOM     24  C   UNL A   1      43.755  32.007  28.700  1.00  0.00     0.029 A 
ATOM     25  C   UNL A   1      44.795  31.095  28.237  1.00  0.00     0.049 A 
ATOM     26  H   UNL A   1      44.574  29.097  27.686  1.00  0.00     0.167 HD
ATOM     27  C   UNL A   1      44.041  24.811  26.934  1.00  0.00     0.037 A 
ATOM     28  C   UNL A   1      46.094  31.417  28.086  1.00  0.00     0.037 A 
ATOM     29  C   UNL A   1      45.421  25.091  26.628  1.00  0.00     0.049 A 
ATOM     30  C   UNL A   1      47.060  30.368  27.618  1.00  0.00     0.074 A 
ATOM     31  C   UNL A   1      46.382  24.231  26.124  1.00  0.00     0.029 A 
ATOM     32  N   UNL A   1      46.043  26.318  26.814  1.00  0.00    -0.354 N 
ATOM     33  N   UNL A   1      46.830  29.106  27.342  1.00  0.00    -0.248 NA
ATOM     34  C   UNL A   1      48.458  30.780  27.433  1.00  0.00     0.031 C 
ATOM     35  C   UNL A   1      47.597  24.922  26.062  1.00  0.00     0.029 A 
ATOM     36  C   UNL A   1      47.380  26.232  26.460  1.00  0.00     0.049 A 
ATOM     37  H   UNL A   1      45.599  27.132  27.148  1.00  0.00     0.167 HD
ATOM     38  C   UNL A   1      48.046  28.579  26.922  1.00  0.00     0.074 A 
ATOM     39  C   UNL A   1      49.010  29.660  26.983  1.00  0.00     0.031 C 
ATOM     40  C   UNL A   1      48.330  27.319  26.511  1.00  0.00     0.037 A 
BRANCH  27  41
ATOM     41  C   UNL A   1      43.540  23.399  26.778  1.00  0.00     0.058 A 
ATOM     42  C   UNL A   1      43.256  22.582  27.884  1.00  0.00     0.135 A 
ATOM     43  C   UNL A   1      43.342  22.854  25.498  1.00  0.00     0.135 A 
ATOM     44  F   UNL A   1      43.434  23.044  29.132  1.00  0.00    -0.206 F 
ATOM     45  C   UNL A   1      42.848  21.260  27.727  1.00  0.00     0.059 A 
ATOM     46  C   UNL A   1      42.902  21.545  25.318  1.00  0.00     0.059 A 
ATOM     47  F   UNL A   1      43.587  23.590  24.403  1.00  0.00    -0.206 F 
ATOM     48  C   UNL A   1      42.684  20.748  26.440  1.00  0.00     0.060 A 
BRANCH  48  49
ATOM     49  S   UNL A   1      42.207  19.016  26.253  1.00  0.00     0.124 S 
ATOM     50  O   UNL A   1      42.440  18.506  27.602  1.00  0.00    -0.237 OA
ATOM     51  O   UNL A   1      40.809  19.118  25.848  1.00  0.00    -0.237 OA
ATOM     52  O   UNL A   1      43.120  18.519  25.229  1.00  0.00    -0.744 OA
ENDBRANCH  48  49
ENDBRANCH  27  41
BRANCH  28  53
ATOM     53  C   UNL A   1      46.533  32.802  28.398  1.00  0.00     0.058 A 
ATOM     54  C   UNL A   1      47.066  33.127  29.652  1.00  0.00     0.135 A 
ATOM     55  C   UNL A   1      46.508  33.806  27.415  1.00  0.00     0.135 A 
ATOM     56  F   UNL A   1      47.105  32.204  30.625  1.00  0.00    -0.206 F 
ATOM     57  C   UNL A   1      47.570  34.396  29.921  1.00  0.00     0.059 A 
ATOM     58  C   UNL A   1      47.030  35.073  27.651  1.00  0.00     0.059 A 
ATOM     59  F   UNL A   1      46.023  33.539  26.192  1.00  0.00    -0.206 F 
ATOM     60  C   UNL A   1      47.561  35.358  28.909  1.00  0.00     0.060 A 
BRANCH  60  61
ATOM     61  S   UNL A   1      48.309  36.968  29.240  1.00  0.00     0.124 S 
ATOM     62  O   UNL A   1      49.414  36.980  28.288  1.00  0.00    -0.237 OA
ATOM     63  O   UNL A   1      47.208  37.881  28.951  1.00  0.00    -0.237 OA
ATOM     64  O   UNL A   1      48.688  36.881  30.647  1.00  0.00    -0.744 OA
ENDBRANCH  60  61
ENDBRANCH  28  53
BRANCH  40  65
ATOM     65  C   UNL A   1      49.728  27.032  26.035  1.00  0.00     0.058 A 
ATOM     66  C   UNL A   1      50.702  26.474  26.877  1.00  0.00     0.135 A 
ATOM     67  C   UNL A   1      50.060  27.224  24.683  1.00  0.00     0.135 A 
ATOM     68  F   UNL A   1      50.441  26.283  28.179  1.00  0.00    -0.206 F 
ATOM     69  C   UNL A   1      51.956  26.113  26.393  1.00  0.00     0.059 A 
ATOM     70  C   UNL A   1      51.297  26.846  24.174  1.00  0.00     0.059 A 
ATOM     71  F   UNL A   1      49.162  27.751  23.835  1.00  0.00    -0.206 F 
ATOM     72  C   UNL A   1      52.240  26.291  25.038  1.00  0.00     0.060 A 
BRANCH  72  73
ATOM     73  S   UNL A   1      53.839  25.738  24.407  1.00  0.00     0.124 S 
ATOM     74  O   UNL A   1      53.874  24.353  24.865  1.00  0.00    -0.237 OA
ATOM     75  O   UNL A   1      53.687  25.926  22.967  1.00  0.00    -0.237 OA
ATOM     76  O   UNL A   1      54.790  26.637  25.053  1.00  0.00    -0.744 OA
ENDBRANCH  72  73
ENDBRANCH  40  65
ENDBRANCH  14  15
ENDBRANCH   7   9
ENDBRANCH   4   5
ENDBRANCH   3   4
ENDBRANCH   2   3
ENDBRANCH   1   2
BRANCH   1  77
ATOM     77  C   UNL A   1      33.164  29.427  26.136  1.00  0.00     0.021 C 
BRANCH  77  78
ATOM     78  C   UNL A   1      31.767  28.813  26.076  1.00  0.00     0.116 C 
BRANCH  78  79
ATOM     79  N   UNL A   1      31.240  28.701  24.730  1.00  0.00    -0.351 N 
ATOM     80  C   UNL A   1      30.793  27.581  24.068  1.00  0.00     0.271 C 
ATOM     81  H   UNL A   1      31.195  29.542  24.219  1.00  0.00     0.163 HD
ATOM     82  O   UNL A   1      30.314  27.683  22.941  1.00  0.00    -0.267 OA
BRANCH  80  83
ATOM     83  C   UNL A   1      30.945  26.246  24.690  1.00  0.00     0.150 A 
ATOM     84  C   UNL A   1      30.302  25.923  25.871  1.00  0.00     0.145 A 
ATOM     85  N   UNL A   1      31.740  25.370  24.025  1.00  0.00    -0.205 NA
ATOM     86  N   UNL A   1      30.444  24.704  26.450  1.00  0.00    -0.257 NA
ATOM     87  C   UNL A   1      31.867  24.155  24.579  1.00  0.00     0.233 A 
ATOM     88  C   UNL A   1      31.231  23.826  25.769  1.00  0.00     0.179 A 
BRANCH  87  89
ATOM     89  O   UNL A   1      32.567  23.181  23.909  1.00  0.00    -0.477 OA
BRANCH  89  90
ATOM     90  C   UNL A   1      33.089  22.137  24.745  1.00  0.00     0.232 C 
BRANCH  90  91
ATOM     91  C   UNL A   1      34.620  22.031  24.711  1.00  0.00     0.046 C 
BRANCH  91  92
ATOM     92  C   UNL A   1      35.406  23.292  25.099  1.00  0.00     0.039 C 
BRANCH  92  93
ATOM     93  C   UNL A   1      36.810  23.065  25.615  1.00  0.00    -0.048 A 
ATOM     94  C   UNL A   1      37.519  24.094  26.247  1.00  0.00     0.004 A 
ATOM     95  C   UNL A   1      37.453  21.835  25.432  1.00  0.00     0.004 A 
ATOM     96  C   UNL A   1      38.838  23.920  26.663  1.00  0.00     0.000 A 
ATOM     97  C   UNL A   1      38.777  21.657  25.847  1.00  0.00     0.000 A 
ATOM     98  C   UNL A   1      39.471  22.701  26.457  1.00  0.00     0.000 A 
ENDBRANCH  92  93
ENDBRANCH  91  92
ENDBRANCH  90  91
ENDBRANCH  89  90
ENDBRANCH  87  89
ENDBRANCH  80  83
ENDBRANCH  78  79
ENDBRANCH  77  78
ENDBRANCH   1  77
TORSDOF 21
ENDMDL
