MODEL 1
REMARK VINA RESULT:      -7.8      0.000      0.000
REMARK SMILES O=C(Cn1nc(-c2ccc(Br)cc2)ccc1=O)N[C@H](C(=O)NCCCCCCNC(=O)c1ccc(-c2c3nc(c(-c4c(F)cc(S(=O)(=O)[O-])cc4F)c4ccc([nH]4)c(-c4c(F)cc(S(=O)(=O)[O-])cc4F)c4nc(c(-c5c(F)cc(S(=O)(=O)[O-])cc5F)c5ccc2[nH]5)C=C4)C=C3)cc1)c1ccccc1
REMARK SMILES IDX 25 1 24 2 23 3 22 4 20 5 21 6 19 8 18 9 1 10 2 11 3 13 4 14
REMARK SMILES IDX 5 15 16 16 6 17 15 18 17 19 14 20 7 21 8 22 13 23 9 24 12 25
REMARK SMILES IDX 10 26 11 27 98 28 99 29 103 30 100 31 102 32 101 33 26 34
REMARK SMILES IDX 27 35 28 36 29 37 30 38 31 40 32 41 33 42 97 43 34 44 96 45
REMARK SMILES IDX 35 46 36 47 37 48 90 49 38 50 95 51 89 52 91 53 39 54 94 55
REMARK SMILES IDX 88 56 87 57 40 59 74 60 53 61 73 62 54 63 57 64 72 65 92 66
REMARK SMILES IDX 55 67 56 68 71 70 93 71 58 72 41 73 42 74 51 75 43 76 44 77
REMARK SMILES IDX 50 78 52 79 45 80 46 81 47 82 48 83 49 84 75 85 76 86 85 87
REMARK SMILES IDX 77 88 78 89 84 90 86 91 79 92 80 93 81 94 82 95 83 96 59 97
REMARK SMILES IDX 60 98 69 99 61 100 62 101 68 102 70 103 63 104 64 105 65 106
REMARK SMILES IDX 66 107 67 108
REMARK H PARENT 22 7 18 12 29 39 91 58 57 69
REMARK Flexibility Score: inf
ROOT
ATOM      1  C   UNL A   1      45.008  24.788  26.213  1.00  0.00     0.002 C 
ENDROOT
BRANCH   1   2
ATOM      2  C   UNL A   1      46.102  24.362  25.223  1.00  0.00     0.021 C 
BRANCH   2   3
ATOM      3  C   UNL A   1      47.351  25.248  25.213  1.00  0.00     0.116 C 
BRANCH   3   4
ATOM      4  N   UNL A   1      47.151  26.437  24.407  1.00  0.00    -0.354 N 
ATOM      5  C   UNL A   1      46.825  27.724  24.748  1.00  0.00     0.247 C 
ATOM      6  O   UNL A   1      46.692  28.508  23.805  1.00  0.00    -0.272 OA
ATOM      7  H   UNL A   1      47.274  26.295  23.440  1.00  0.00     0.163 HD
BRANCH   5   8
ATOM      8  C   UNL A   1      46.729  28.139  26.243  1.00  0.00     0.202 C 
BRANCH   8   9
ATOM      9  N   UNL A   1      48.025  28.663  26.684  1.00  0.00    -0.339 N 
ATOM     10  O   UNL A   1      48.650  26.894  28.015  1.00  0.00    -0.273 OA
ATOM     11  C   UNL A   1      48.912  27.965  27.474  1.00  0.00     0.242 C 
ATOM     12  H   UNL A   1      48.277  29.570  26.398  1.00  0.00     0.164 HD
BRANCH  11  13
ATOM     13  C   UNL A   1      50.261  28.646  27.709  1.00  0.00     0.248 C 
BRANCH  13  14
ATOM     14  N   UNL A   1      50.204  29.780  28.628  1.00  0.00    -0.220 N 
ATOM     15  N   UNL A   1      49.168  30.665  28.442  1.00  0.00    -0.169 NA
ATOM     16  C   UNL A   1      51.113  29.859  29.674  1.00  0.00     0.267 A 
ATOM     17  C   UNL A   1      49.049  31.641  29.287  1.00  0.00     0.091 A 
ATOM     18  C   UNL A   1      50.953  31.013  30.585  1.00  0.00     0.075 A 
ATOM     19  O   UNL A   1      52.028  29.065  29.871  1.00  0.00    -0.268 OA
ATOM     20  C   UNL A   1      49.966  31.892  30.416  1.00  0.00     0.036 A 
BRANCH  17  21
ATOM     21  C   UNL A   1      47.897  32.558  29.164  1.00  0.00     0.002 A 
ATOM     22  C   UNL A   1      47.008  32.650  30.242  1.00  0.00     0.011 A 
ATOM     23  C   UNL A   1      47.680  33.296  27.996  1.00  0.00     0.011 A 
ATOM     24  C   UNL A   1      45.901  33.493  30.156  1.00  0.00     0.016 A 
ATOM     25  C   UNL A   1      46.562  34.130  27.911  1.00  0.00     0.016 A 
ATOM     26  C   UNL A   1      45.681  34.226  28.991  1.00  0.00     0.018 A 
ATOM     27  Br  UNL A   1      44.163  35.344  28.869  1.00  0.00    -0.051 Br
ENDBRANCH  17  21
ENDBRANCH  13  14
ENDBRANCH  11  13
ENDBRANCH   8   9
BRANCH   8  28
ATOM     28  C   UNL A   1      45.535  29.019  26.617  1.00  0.00    -0.016 A 
ATOM     29  C   UNL A   1      44.259  28.457  26.810  1.00  0.00     0.006 A 
ATOM     30  C   UNL A   1      45.646  30.418  26.686  1.00  0.00     0.006 A 
ATOM     31  C   UNL A   1      43.154  29.252  27.121  1.00  0.00     0.000 A 
ATOM     32  C   UNL A   1      44.538  31.215  26.989  1.00  0.00     0.000 A 
ATOM     33  C   UNL A   1      43.294  30.632  27.214  1.00  0.00     0.000 A 
ENDBRANCH   8  28
ENDBRANCH   5   8
ENDBRANCH   3   4
ENDBRANCH   2   3
ENDBRANCH   1   2
BRANCH   1  34
ATOM     34  C   UNL A   1      43.581  24.846  25.654  1.00  0.00     0.002 C 
BRANCH  34  35
ATOM     35  C   UNL A   1      42.961  23.499  25.280  1.00  0.00     0.021 C 
BRANCH  35  36
ATOM     36  C   UNL A   1      42.038  22.889  26.329  1.00  0.00     0.116 C 
BRANCH  36  37
ATOM     37  N   UNL A   1      40.678  22.687  25.851  1.00  0.00    -0.352 N 
ATOM     38  C   UNL A   1      39.544  23.425  26.118  1.00  0.00     0.251 C 
ATOM     39  H   UNL A   1      40.550  21.916  25.253  1.00  0.00     0.163 HD
ATOM     40  O   UNL A   1      38.453  23.041  25.719  1.00  0.00    -0.269 OA
BRANCH  38  41
ATOM     41  C   UNL A   1      39.649  24.663  26.925  1.00  0.00     0.039 A 
ATOM     42  C   UNL A   1      40.267  25.803  26.411  1.00  0.00     0.014 A 
ATOM     43  C   UNL A   1      39.154  24.667  28.233  1.00  0.00     0.014 A 
ATOM     44  C   UNL A   1      40.548  26.875  27.253  1.00  0.00     0.010 A 
ATOM     45  C   UNL A   1      39.368  25.778  29.056  1.00  0.00     0.010 A 
ATOM     46  C   UNL A   1      40.119  26.868  28.591  1.00  0.00    -0.014 A 
BRANCH  46  47
ATOM     47  C   UNL A   1      40.501  27.995  29.485  1.00  0.00     0.031 A 
ATOM     48  C   UNL A   1      41.881  28.061  30.090  1.00  0.00     0.074 A 
ATOM     49  C   UNL A   1      39.631  29.004  29.690  1.00  0.00     0.049 A 
ATOM     50  N   UNL A   1      42.408  28.997  30.838  1.00  0.00    -0.248 NA
ATOM     51  C   UNL A   1      42.787  26.933  29.821  1.00  0.00     0.031 C 
ATOM     52  C   UNL A   1      38.271  29.062  29.152  1.00  0.00     0.029 A 
ATOM     53  N   UNL A   1      39.769  30.185  30.373  1.00  0.00    -0.354 N 
ATOM     54  C   UNL A   1      43.695  28.569  31.140  1.00  0.00     0.074 A 
ATOM     55  C   UNL A   1      43.863  27.272  30.519  1.00  0.00     0.031 C 
ATOM     56  C   UNL A   1      37.721  30.243  29.476  1.00  0.00     0.029 A 
ATOM     57  C   UNL A   1      38.667  31.002  30.286  1.00  0.00     0.049 A 
ATOM     58  H   UNL A   1      40.580  30.424  30.878  1.00  0.00     0.167 HD
ATOM     59  C   UNL A   1      44.656  29.203  31.853  1.00  0.00     0.037 A 
ATOM     60  C   UNL A   1      38.440  32.226  30.802  1.00  0.00     0.037 A 
ATOM     61  C   UNL A   1      44.499  30.503  32.452  1.00  0.00     0.049 A 
ATOM     62  C   UNL A   1      39.506  32.891  31.624  1.00  0.00     0.074 A 
ATOM     63  C   UNL A   1      45.427  31.235  33.172  1.00  0.00     0.029 A 
ATOM     64  N   UNL A   1      43.342  31.265  32.400  1.00  0.00    -0.354 N 
ATOM     65  N   UNL A   1      40.720  32.471  31.890  1.00  0.00    -0.248 NA
ATOM     66  C   UNL A   1      39.169  34.186  32.230  1.00  0.00     0.031 C 
ATOM     67  C   UNL A   1      44.820  32.426  33.585  1.00  0.00     0.029 A 
ATOM     68  C   UNL A   1      43.525  32.450  33.093  1.00  0.00     0.049 A 
ATOM     69  H   UNL A   1      42.513  31.002  31.940  1.00  0.00     0.167 HD
ATOM     70  C   UNL A   1      41.292  33.450  32.693  1.00  0.00     0.074 A 
ATOM     71  C   UNL A   1      40.301  34.494  32.851  1.00  0.00     0.031 C 
ATOM     72  C   UNL A   1      42.526  33.477  33.251  1.00  0.00     0.037 A 
BRANCH  59  73
ATOM     73  C   UNL A   1      45.974  28.501  32.029  1.00  0.00     0.058 A 
ATOM     74  C   UNL A   1      47.019  28.660  31.105  1.00  0.00     0.135 A 
ATOM     75  C   UNL A   1      46.215  27.706  33.162  1.00  0.00     0.135 A 
ATOM     76  F   UNL A   1      46.837  29.396  29.997  1.00  0.00    -0.206 F 
ATOM     77  C   UNL A   1      48.250  28.040  31.287  1.00  0.00     0.059 A 
ATOM     78  C   UNL A   1      47.447  27.093  33.375  1.00  0.00     0.059 A 
ATOM     79  F   UNL A   1      45.250  27.522  34.075  1.00  0.00    -0.206 F 
ATOM     80  C   UNL A   1      48.455  27.258  32.426  1.00  0.00     0.060 A 
BRANCH  80  81
ATOM     81  S   UNL A   1      50.063  26.470  32.651  1.00  0.00     0.124 S 
ATOM     82  O   UNL A   1      50.966  27.608  32.502  1.00  0.00    -0.237 OA
ATOM     83  O   UNL A   1      49.954  25.921  33.999  1.00  0.00    -0.237 OA
ATOM     84  O   UNL A   1      50.112  25.484  31.576  1.00  0.00    -0.744 OA
ENDBRANCH  80  81
ENDBRANCH  59  73
BRANCH  60  85
ATOM     85  C   UNL A   1      37.141  32.899  30.544  1.00  0.00     0.058 A 
ATOM     86  C   UNL A   1      36.091  32.813  31.469  1.00  0.00     0.135 A 
ATOM     87  C   UNL A   1      36.941  33.677  29.393  1.00  0.00     0.135 A 
ATOM     88  F   UNL A   1      36.234  32.073  32.579  1.00  0.00    -0.206 F 
ATOM     89  C   UNL A   1      34.887  33.477  31.264  1.00  0.00     0.059 A 
ATOM     90  C   UNL A   1      35.755  34.368  29.177  1.00  0.00     0.059 A 
ATOM     91  F   UNL A   1      37.923  33.800  28.486  1.00  0.00    -0.206 F 
ATOM     92  C   UNL A   1      34.730  34.259  30.117  1.00  0.00     0.060 A 
BRANCH  92  93
ATOM     93  S   UNL A   1      33.193  35.181  29.899  1.00  0.00     0.124 S 
ATOM     94  O   UNL A   1      32.549  34.426  28.830  1.00  0.00    -0.237 OA
ATOM     95  O   UNL A   1      32.579  35.069  31.219  1.00  0.00    -0.237 OA
ATOM     96  O   UNL A   1      33.652  36.519  29.541  1.00  0.00    -0.744 OA
ENDBRANCH  92  93
ENDBRANCH  60  85
BRANCH  72  97
ATOM     97  C   UNL A   1      42.879  34.667  34.096  1.00  0.00     0.058 A 
ATOM     98  C   UNL A   1      42.856  34.595  35.496  1.00  0.00     0.135 A 
ATOM     99  C   UNL A   1      43.317  35.861  33.502  1.00  0.00     0.135 A 
ATOM    100  F   UNL A   1      42.436  33.478  36.109  1.00  0.00    -0.206 F 
ATOM    101  C   UNL A   1      43.254  35.672  36.284  1.00  0.00     0.059 A 
ATOM    102  C   UNL A   1      43.738  36.943  34.270  1.00  0.00     0.059 A 
ATOM    103  F   UNL A   1      43.363  35.976  32.165  1.00  0.00    -0.206 F 
ATOM    104  C   UNL A   1      43.699  36.840  35.661  1.00  0.00     0.060 A 
BRANCH 104 105
ATOM    105  S   UNL A   1      44.267  38.207  36.694  1.00  0.00     0.124 S 
ATOM    106  O   UNL A   1      45.602  37.755  37.071  1.00  0.00    -0.237 OA
ATOM    107  O   UNL A   1      44.215  39.337  35.772  1.00  0.00    -0.237 OA
ATOM    108  O   UNL A   1      43.287  38.243  37.776  1.00  0.00    -0.744 OA
ENDBRANCH 104 105
ENDBRANCH  72  97
ENDBRANCH  46  47
ENDBRANCH  38  41
ENDBRANCH  36  37
ENDBRANCH  35  36
ENDBRANCH  34  35
ENDBRANCH   1  34
TORSDOF 21
ENDMDL
MODEL 2
REMARK VINA RESULT:      -7.7      0.835      7.809
REMARK SMILES O=C(Cn1nc(-c2ccc(Br)cc2)ccc1=O)N[C@H](C(=O)NCCCCCCNC(=O)c1ccc(-c2c3nc(c(-c4c(F)cc(S(=O)(=O)[O-])cc4F)c4ccc([nH]4)c(-c4c(F)cc(S(=O)(=O)[O-])cc4F)c4nc(c(-c5c(F)cc(S(=O)(=O)[O-])cc5F)c5ccc2[nH]5)C=C4)C=C3)cc1)c1ccccc1
REMARK SMILES IDX 25 1 24 2 23 3 22 4 20 5 21 6 19 8 18 9 1 10 2 11 3 13 4 14
REMARK SMILES IDX 5 15 16 16 6 17 15 18 17 19 14 20 7 21 8 22 13 23 9 24 12 25
REMARK SMILES IDX 10 26 11 27 98 28 99 29 103 30 100 31 102 32 101 33 26 34
REMARK SMILES IDX 27 35 28 36 29 37 30 38 31 40 32 41 33 42 97 43 34 44 96 45
REMARK SMILES IDX 35 46 36 47 37 48 90 49 38 50 95 51 89 52 91 53 39 54 94 55
REMARK SMILES IDX 88 56 87 57 40 59 74 60 53 61 73 62 54 63 57 64 72 65 92 66
REMARK SMILES IDX 55 67 56 68 71 70 93 71 58 72 41 73 42 74 51 75 43 76 44 77
REMARK SMILES IDX 50 78 52 79 45 80 46 81 47 82 48 83 49 84 75 85 76 86 85 87
REMARK SMILES IDX 77 88 78 89 84 90 86 91 79 92 80 93 81 94 82 95 83 96 59 97
REMARK SMILES IDX 60 98 69 99 61 100 62 101 68 102 70 103 63 104 64 105 65 106
REMARK SMILES IDX 66 107 67 108
REMARK H PARENT 22 7 18 12 29 39 91 58 57 69
REMARK Flexibility Score: inf
ROOT
ATOM      1  C   UNL A   1      44.199  24.234  26.638  1.00  0.00     0.002 C 
ENDROOT
BRANCH   1   2
ATOM      2  C   UNL A   1      45.594  23.591  26.598  1.00  0.00     0.021 C 
BRANCH   2   3
ATOM      3  C   UNL A   1      46.760  24.575  26.464  1.00  0.00     0.116 C 
BRANCH   3   4
ATOM      4  N   UNL A   1      46.531  25.526  25.393  1.00  0.00    -0.354 N 
ATOM      5  C   UNL A   1      46.207  26.857  25.412  1.00  0.00     0.247 C 
ATOM      6  O   UNL A   1      46.044  27.382  24.307  1.00  0.00    -0.272 OA
ATOM      7  H   UNL A   1      46.628  25.147  24.490  1.00  0.00     0.163 HD
BRANCH   5   8
ATOM      8  C   UNL A   1      46.150  27.632  26.758  1.00  0.00     0.202 C 
BRANCH   8   9
ATOM      9  N   UNL A   1      47.510  27.808  27.274  1.00  0.00    -0.339 N 
ATOM     10  O   UNL A   1      48.567  28.184  25.265  1.00  0.00    -0.273 OA
ATOM     11  C   UNL A   1      48.595  28.144  26.492  1.00  0.00     0.242 C 
ATOM     12  H   UNL A   1      47.659  27.679  28.237  1.00  0.00     0.164 HD
BRANCH  11  13
ATOM     13  C   UNL A   1      49.896  28.406  27.251  1.00  0.00     0.248 C 
BRANCH  13  14
ATOM     14  N   UNL A   1      49.748  29.299  28.398  1.00  0.00    -0.220 N 
ATOM     15  N   UNL A   1      48.809  30.297  28.278  1.00  0.00    -0.169 NA
ATOM     16  C   UNL A   1      50.471  29.049  29.557  1.00  0.00     0.267 A 
ATOM     17  C   UNL A   1      48.604  31.059  29.306  1.00  0.00     0.091 A 
ATOM     18  C   UNL A   1      50.224  29.973  30.685  1.00  0.00     0.075 A 
ATOM     19  O   UNL A   1      51.294  28.149  29.691  1.00  0.00    -0.268 OA
ATOM     20  C   UNL A   1      49.329  30.956  30.587  1.00  0.00     0.036 A 
BRANCH  17  21
ATOM     21  C   UNL A   1      47.541  32.083  29.237  1.00  0.00     0.002 A 
ATOM     22  C   UNL A   1      47.725  33.168  28.372  1.00  0.00     0.011 A 
ATOM     23  C   UNL A   1      46.393  31.990  30.030  1.00  0.00     0.011 A 
ATOM     24  C   UNL A   1      46.751  34.163  28.291  1.00  0.00     0.016 A 
ATOM     25  C   UNL A   1      45.426  32.996  29.954  1.00  0.00     0.016 A 
ATOM     26  C   UNL A   1      45.608  34.074  29.085  1.00  0.00     0.018 A 
ATOM     27  Br  UNL A   1      44.305  35.438  28.994  1.00  0.00    -0.051 Br
ENDBRANCH  17  21
ENDBRANCH  13  14
ENDBRANCH  11  13
ENDBRANCH   8   9
BRANCH   8  28
ATOM     28  C   UNL A   1      45.307  28.909  26.760  1.00  0.00    -0.016 A 
ATOM     29  C   UNL A   1      45.897  30.161  26.501  1.00  0.00     0.006 A 
ATOM     30  C   UNL A   1      43.947  28.891  27.112  1.00  0.00     0.006 A 
ATOM     31  C   UNL A   1      45.146  31.338  26.530  1.00  0.00     0.000 A 
ATOM     32  C   UNL A   1      43.196  30.071  27.149  1.00  0.00     0.000 A 
ATOM     33  C   UNL A   1      43.794  31.293  26.851  1.00  0.00     0.000 A 
ENDBRANCH   8  28
ENDBRANCH   5   8
ENDBRANCH   3   4
ENDBRANCH   2   3
ENDBRANCH   1   2
BRANCH   1  34
ATOM     34  C   UNL A   1      43.299  23.962  25.427  1.00  0.00     0.002 C 
BRANCH  34  35
ATOM     35  C   UNL A   1      42.647  22.579  25.383  1.00  0.00     0.021 C 
BRANCH  35  36
ATOM     36  C   UNL A   1      41.591  22.318  26.452  1.00  0.00     0.116 C 
BRANCH  36  37
ATOM     37  N   UNL A   1      40.240  22.237  25.917  1.00  0.00    -0.352 N 
ATOM     38  C   UNL A   1      39.191  23.120  26.066  1.00  0.00     0.251 C 
ATOM     39  H   UNL A   1      40.047  21.441  25.372  1.00  0.00     0.163 HD
ATOM     40  O   UNL A   1      38.080  22.834  25.639  1.00  0.00    -0.269 OA
BRANCH  38  41
ATOM     41  C   UNL A   1      39.407  24.399  26.783  1.00  0.00     0.039 A 
ATOM     42  C   UNL A   1      40.098  25.450  26.181  1.00  0.00     0.014 A 
ATOM     43  C   UNL A   1      38.940  24.530  28.095  1.00  0.00     0.014 A 
ATOM     44  C   UNL A   1      40.477  26.552  26.941  1.00  0.00     0.010 A 
ATOM     45  C   UNL A   1      39.256  25.675  28.835  1.00  0.00     0.010 A 
ATOM     46  C   UNL A   1      40.077  26.670  28.283  1.00  0.00    -0.014 A 
BRANCH  46  47
ATOM     47  C   UNL A   1      40.562  27.822  29.090  1.00  0.00     0.031 A 
ATOM     48  C   UNL A   1      39.682  29.025  29.318  1.00  0.00     0.074 A 
ATOM     49  C   UNL A   1      41.769  27.753  29.687  1.00  0.00     0.049 A 
ATOM     50  N   UNL A   1      39.913  30.090  30.043  1.00  0.00    -0.248 NA
ATOM     51  C   UNL A   1      38.372  29.036  28.646  1.00  0.00     0.031 C 
ATOM     52  C   UNL A   1      42.709  26.640  29.553  1.00  0.00     0.029 A 
ATOM     53  N   UNL A   1      42.396  28.616  30.549  1.00  0.00    -0.354 N 
ATOM     54  C   UNL A   1      38.792  30.900  29.907  1.00  0.00     0.074 A 
ATOM     55  C   UNL A   1      37.890  30.219  29.003  1.00  0.00     0.031 C 
ATOM     56  C   UNL A   1      43.766  26.859  30.351  1.00  0.00     0.029 A 
ATOM     57  C   UNL A   1      43.603  28.150  31.012  1.00  0.00     0.049 A 
ATOM     58  H   UNL A   1      42.017  29.487  30.811  1.00  0.00     0.167 HD
ATOM     59  C   UNL A   1      38.529  32.092  30.493  1.00  0.00     0.037 A 
ATOM     60  C   UNL A   1      44.485  28.699  31.870  1.00  0.00     0.037 A 
ATOM     61  C   UNL A   1      39.415  32.761  31.409  1.00  0.00     0.049 A 
ATOM     62  C   UNL A   1      44.190  30.042  32.474  1.00  0.00     0.074 A 
ATOM     63  C   UNL A   1      39.222  33.961  32.072  1.00  0.00     0.029 A 
ATOM     64  N   UNL A   1      40.660  32.287  31.795  1.00  0.00    -0.354 N 
ATOM     65  N   UNL A   1      43.119  30.787  32.337  1.00  0.00    -0.248 NA
ATOM     66  C   UNL A   1      45.226  30.627  33.335  1.00  0.00     0.031 C 
ATOM     67  C   UNL A   1      40.366  34.230  32.832  1.00  0.00     0.029 A 
ATOM     68  C   UNL A   1      41.255  33.181  32.670  1.00  0.00     0.049 A 
ATOM     69  H   UNL A   1      41.062  31.442  31.491  1.00  0.00     0.167 HD
ATOM     70  C   UNL A   1      43.352  31.928  33.095  1.00  0.00     0.074 A 
ATOM     71  C   UNL A   1      44.655  31.766  33.706  1.00  0.00     0.031 C 
ATOM     72  C   UNL A   1      42.558  33.012  33.264  1.00  0.00     0.037 A 
BRANCH  59  73
ATOM     73  C   UNL A   1      37.224  32.761  30.162  1.00  0.00     0.058 A 
ATOM     74  C   UNL A   1      36.084  32.582  30.962  1.00  0.00     0.135 A 
ATOM     75  C   UNL A   1      37.125  33.634  29.066  1.00  0.00     0.135 A 
ATOM     76  F   UNL A   1      36.120  31.746  32.013  1.00  0.00    -0.206 F 
ATOM     77  C   UNL A   1      34.888  33.229  30.677  1.00  0.00     0.059 A 
ATOM     78  C   UNL A   1      35.942  34.308  28.773  1.00  0.00     0.059 A 
ATOM     79  F   UNL A   1      38.185  33.839  28.269  1.00  0.00    -0.206 F 
ATOM     80  C   UNL A   1      34.826  34.091  29.580  1.00  0.00     0.060 A 
BRANCH  80  81
ATOM     81  S   UNL A   1      33.266  34.931  29.232  1.00  0.00     0.124 S 
ATOM     82  O   UNL A   1      32.641  34.936  30.552  1.00  0.00    -0.237 OA
ATOM     83  O   UNL A   1      33.716  36.230  28.740  1.00  0.00    -0.237 OA
ATOM     84  O   UNL A   1      32.631  34.072  28.238  1.00  0.00    -0.744 OA
ENDBRANCH  80  81
ENDBRANCH  59  73
BRANCH  60  85
ATOM     85  C   UNL A   1      45.731  27.965  32.208  1.00  0.00     0.058 A 
ATOM     86  C   UNL A   1      45.824  27.211  33.386  1.00  0.00     0.135 A 
ATOM     87  C   UNL A   1      46.835  27.968  31.341  1.00  0.00     0.135 A 
ATOM     88  F   UNL A   1      44.797  27.185  34.249  1.00  0.00    -0.206 F 
ATOM     89  C   UNL A   1      46.967  26.481  33.693  1.00  0.00     0.059 A 
ATOM     90  C   UNL A   1      47.980  27.228  31.615  1.00  0.00     0.059 A 
ATOM     91  F   UNL A   1      46.788  28.666  30.195  1.00  0.00    -0.206 F 
ATOM     92  C   UNL A   1      48.038  26.490  32.796  1.00  0.00     0.060 A 
BRANCH  92  93
ATOM     93  S   UNL A   1      49.487  25.476  33.165  1.00  0.00     0.124 S 
ATOM     94  O   UNL A   1      50.099  25.350  31.847  1.00  0.00    -0.237 OA
ATOM     95  O   UNL A   1      50.205  26.307  34.126  1.00  0.00    -0.237 OA
ATOM     96  O   UNL A   1      48.909  24.253  33.713  1.00  0.00    -0.744 OA
ENDBRANCH  92  93
ENDBRANCH  60  85
BRANCH  72  97
ATOM     97  C   UNL A   1      43.073  34.120  34.137  1.00  0.00     0.058 A 
ATOM     98  C   UNL A   1      42.856  34.113  35.522  1.00  0.00     0.135 A 
ATOM     99  C   UNL A   1      43.853  35.154  33.595  1.00  0.00     0.135 A 
ATOM    100  F   UNL A   1      42.110  33.150  36.085  1.00  0.00    -0.206 F 
ATOM    101  C   UNL A   1      43.394  35.098  36.345  1.00  0.00     0.059 A 
ATOM    102  C   UNL A   1      44.417  36.138  34.402  1.00  0.00     0.059 A 
ATOM    103  F   UNL A   1      44.094  35.200  32.275  1.00  0.00    -0.206 F 
ATOM    104  C   UNL A   1      44.179  36.104  35.776  1.00  0.00     0.060 A 
BRANCH 104 105
ATOM    105  S   UNL A   1      44.918  37.341  36.862  1.00  0.00     0.124 S 
ATOM    106  O   UNL A   1      45.567  36.502  37.864  1.00  0.00    -0.237 OA
ATOM    107  O   UNL A   1      45.812  38.056  35.957  1.00  0.00    -0.237 OA
ATOM    108  O   UNL A   1      43.769  38.108  37.334  1.00  0.00    -0.744 OA
ENDBRANCH 104 105
ENDBRANCH  72  97
ENDBRANCH  46  47
ENDBRANCH  38  41
ENDBRANCH  36  37
ENDBRANCH  35  36
ENDBRANCH  34  35
ENDBRANCH   1  34
TORSDOF 21
ENDMDL
MODEL 3
REMARK VINA RESULT:      -7.6      3.985      7.784
REMARK SMILES O=C(Cn1nc(-c2ccc(Br)cc2)ccc1=O)N[C@H](C(=O)NCCCCCCNC(=O)c1ccc(-c2c3nc(c(-c4c(F)cc(S(=O)(=O)[O-])cc4F)c4ccc([nH]4)c(-c4c(F)cc(S(=O)(=O)[O-])cc4F)c4nc(c(-c5c(F)cc(S(=O)(=O)[O-])cc5F)c5ccc2[nH]5)C=C4)C=C3)cc1)c1ccccc1
REMARK SMILES IDX 25 1 24 2 23 3 22 4 20 5 21 6 19 8 18 9 1 10 2 11 3 13 4 14
REMARK SMILES IDX 5 15 16 16 6 17 15 18 17 19 14 20 7 21 8 22 13 23 9 24 12 25
REMARK SMILES IDX 10 26 11 27 98 28 99 29 103 30 100 31 102 32 101 33 26 34
REMARK SMILES IDX 27 35 28 36 29 37 30 38 31 40 32 41 33 42 97 43 34 44 96 45
REMARK SMILES IDX 35 46 36 47 37 48 90 49 38 50 95 51 89 52 91 53 39 54 94 55
REMARK SMILES IDX 88 56 87 57 40 59 74 60 53 61 73 62 54 63 57 64 72 65 92 66
REMARK SMILES IDX 55 67 56 68 71 70 93 71 58 72 41 73 42 74 51 75 43 76 44 77
REMARK SMILES IDX 50 78 52 79 45 80 46 81 47 82 48 83 49 84 75 85 76 86 85 87
REMARK SMILES IDX 77 88 78 89 84 90 86 91 79 92 80 93 81 94 82 95 83 96 59 97
REMARK SMILES IDX 60 98 69 99 61 100 62 101 68 102 70 103 63 104 64 105 65 106
REMARK SMILES IDX 66 107 67 108
REMARK H PARENT 22 7 18 12 29 39 91 58 57 69
REMARK Flexibility Score: inf
ROOT
ATOM      1  C   UNL A   1      47.163  25.347  28.485  1.00  0.00     0.002 C 
ENDROOT
BRANCH   1   2
ATOM      2  C   UNL A   1      46.567  24.309  27.523  1.00  0.00     0.021 C 
BRANCH   2   3
ATOM      3  C   UNL A   1      45.091  23.974  27.760  1.00  0.00     0.116 C 
BRANCH   3   4
ATOM      4  N   UNL A   1      44.284  24.281  26.596  1.00  0.00    -0.354 N 
ATOM      5  C   UNL A   1      43.564  23.479  25.750  1.00  0.00     0.247 C 
ATOM      6  O   UNL A   1      43.005  24.058  24.814  1.00  0.00    -0.272 OA
ATOM      7  H   UNL A   1      44.243  25.240  26.375  1.00  0.00     0.163 HD
BRANCH   5   8
ATOM      8  C   UNL A   1      43.420  21.959  26.042  1.00  0.00     0.202 C 
BRANCH   8   9
ATOM      9  N   UNL A   1      42.052  21.536  25.734  1.00  0.00    -0.339 N 
ATOM     10  O   UNL A   1      41.713  20.187  27.567  1.00  0.00    -0.273 OA
ATOM     11  C   UNL A   1      41.283  20.743  26.560  1.00  0.00     0.242 C 
ATOM     12  H   UNL A   1      41.656  21.834  24.884  1.00  0.00     0.164 HD
BRANCH  11  13
ATOM     13  C   UNL A   1      39.838  20.528  26.108  1.00  0.00     0.248 C 
BRANCH  13  14
ATOM     14  N   UNL A   1      39.024  21.741  26.118  1.00  0.00    -0.220 N 
ATOM     15  N   UNL A   1      39.591  22.852  26.697  1.00  0.00    -0.169 NA
ATOM     16  C   UNL A   1      37.792  21.743  25.479  1.00  0.00     0.267 A 
ATOM     17  C   UNL A   1      38.921  23.962  26.656  1.00  0.00     0.091 A 
ATOM     18  C   UNL A   1      37.055  23.025  25.496  1.00  0.00     0.075 A 
ATOM     19  O   UNL A   1      37.281  20.768  24.936  1.00  0.00    -0.268 OA
ATOM     20  C   UNL A   1      37.578  24.112  26.063  1.00  0.00     0.036 A 
BRANCH  17  21
ATOM     21  C   UNL A   1      39.541  25.192  27.192  1.00  0.00     0.002 A 
ATOM     22  C   UNL A   1      40.460  25.873  26.386  1.00  0.00     0.011 A 
ATOM     23  C   UNL A   1      39.241  25.653  28.477  1.00  0.00     0.011 A 
ATOM     24  C   UNL A   1      41.076  27.029  26.864  1.00  0.00     0.016 A 
ATOM     25  C   UNL A   1      39.870  26.805  28.956  1.00  0.00     0.016 A 
ATOM     26  C   UNL A   1      40.782  27.487  28.148  1.00  0.00     0.018 A 
ATOM     27  Br  UNL A   1      41.641  29.037  28.801  1.00  0.00    -0.051 Br
ENDBRANCH  17  21
ENDBRANCH  13  14
ENDBRANCH  11  13
ENDBRANCH   8   9
BRANCH   8  28
ATOM     28  C   UNL A   1      44.505  21.058  25.451  1.00  0.00    -0.016 A 
ATOM     29  C   UNL A   1      45.721  21.601  24.993  1.00  0.00     0.006 A 
ATOM     30  C   UNL A   1      44.292  19.683  25.255  1.00  0.00     0.006 A 
ATOM     31  C   UNL A   1      46.708  20.794  24.423  1.00  0.00     0.000 A 
ATOM     32  C   UNL A   1      45.277  18.876  24.675  1.00  0.00     0.000 A 
ATOM     33  C   UNL A   1      46.488  19.431  24.267  1.00  0.00     0.000 A 
ENDBRANCH   8  28
ENDBRANCH   5   8
ENDBRANCH   3   4
ENDBRANCH   2   3
ENDBRANCH   1   2
BRANCH   1  34
ATOM     34  C   UNL A   1      48.694  25.414  28.539  1.00  0.00     0.002 C 
BRANCH  34  35
ATOM     35  C   UNL A   1      49.416  25.126  27.221  1.00  0.00     0.021 C 
BRANCH  35  36
ATOM     36  C   UNL A   1      49.753  26.351  26.378  1.00  0.00     0.116 C 
BRANCH  36  37
ATOM     37  N   UNL A   1      49.083  26.362  25.087  1.00  0.00    -0.352 N 
ATOM     38  C   UNL A   1      47.903  26.978  24.724  1.00  0.00     0.251 C 
ATOM     39  H   UNL A   1      49.534  25.860  24.371  1.00  0.00     0.163 HD
ATOM     40  O   UNL A   1      47.424  26.784  23.615  1.00  0.00    -0.269 OA
BRANCH  38  41
ATOM     41  C   UNL A   1      47.198  27.842  25.700  1.00  0.00     0.039 A 
ATOM     42  C   UNL A   1      47.895  28.785  26.456  1.00  0.00     0.014 A 
ATOM     43  C   UNL A   1      45.822  27.675  25.886  1.00  0.00     0.014 A 
ATOM     44  C   UNL A   1      47.258  29.429  27.512  1.00  0.00     0.010 A 
ATOM     45  C   UNL A   1      45.166  28.383  26.900  1.00  0.00     0.010 A 
ATOM     46  C   UNL A   1      45.891  29.222  27.760  1.00  0.00    -0.014 A 
BRANCH  46  47
ATOM     47  C   UNL A   1      45.259  29.866  28.943  1.00  0.00     0.031 A 
ATOM     48  C   UNL A   1      45.198  29.147  30.268  1.00  0.00     0.074 A 
ATOM     49  C   UNL A   1      44.809  31.133  28.848  1.00  0.00     0.049 A 
ATOM     50  N   UNL A   1      44.743  29.577  31.418  1.00  0.00    -0.248 NA
ATOM     51  C   UNL A   1      45.714  27.769  30.309  1.00  0.00     0.031 C 
ATOM     52  C   UNL A   1      44.821  31.938  27.625  1.00  0.00     0.029 A 
ATOM     53  N   UNL A   1      44.288  31.976  29.796  1.00  0.00    -0.354 N 
ATOM     54  C   UNL A   1      44.904  28.525  32.312  1.00  0.00     0.074 A 
ATOM     55  C   UNL A   1      45.471  27.423  31.566  1.00  0.00     0.031 C 
ATOM     56  C   UNL A   1      44.386  33.176  27.911  1.00  0.00     0.029 A 
ATOM     57  C   UNL A   1      44.015  33.237  29.321  1.00  0.00     0.049 A 
ATOM     58  H   UNL A   1      44.124  31.703  30.728  1.00  0.00     0.167 HD
ATOM     59  C   UNL A   1      44.622  28.486  33.636  1.00  0.00     0.037 A 
ATOM     60  C   UNL A   1      43.521  34.322  29.947  1.00  0.00     0.037 A 
ATOM     61  C   UNL A   1      44.079  29.589  34.385  1.00  0.00     0.049 A 
ATOM     62  C   UNL A   1      43.177  34.240  31.406  1.00  0.00     0.074 A 
ATOM     63  C   UNL A   1      43.784  29.649  35.736  1.00  0.00     0.029 A 
ATOM     64  N   UNL A   1      43.751  30.825  33.849  1.00  0.00    -0.354 N 
ATOM     65  N   UNL A   1      43.345  33.237  32.235  1.00  0.00    -0.248 NA
ATOM     66  C   UNL A   1      42.562  35.429  32.013  1.00  0.00     0.031 C 
ATOM     67  C   UNL A   1      43.245  30.911  36.011  1.00  0.00     0.029 A 
ATOM     68  C   UNL A   1      43.237  31.648  34.839  1.00  0.00     0.049 A 
ATOM     69  H   UNL A   1      43.866  31.080  32.906  1.00  0.00     0.167 HD
ATOM     70  C   UNL A   1      42.858  33.674  33.461  1.00  0.00     0.074 A 
ATOM     71  C   UNL A   1      42.409  35.038  33.272  1.00  0.00     0.031 C 
ATOM     72  C   UNL A   1      42.786  33.002  34.635  1.00  0.00     0.037 A 
BRANCH  59  73
ATOM     73  C   UNL A   1      44.895  27.203  34.371  1.00  0.00     0.058 A 
ATOM     74  C   UNL A   1      46.155  26.931  34.928  1.00  0.00     0.135 A 
ATOM     75  C   UNL A   1      43.873  26.260  34.569  1.00  0.00     0.135 A 
ATOM     76  F   UNL A   1      47.171  27.791  34.756  1.00  0.00    -0.206 F 
ATOM     77  C   UNL A   1      46.397  25.761  35.640  1.00  0.00     0.059 A 
ATOM     78  C   UNL A   1      44.088  25.091  35.295  1.00  0.00     0.059 A 
ATOM     79  F   UNL A   1      42.651  26.472  34.056  1.00  0.00    -0.206 F 
ATOM     80  C   UNL A   1      45.357  24.847  35.818  1.00  0.00     0.060 A 
BRANCH  80  81
ATOM     81  S   UNL A   1      45.688  23.339  36.753  1.00  0.00     0.124 S 
ATOM     82  O   UNL A   1      45.235  23.721  38.087  1.00  0.00    -0.237 OA
ATOM     83  O   UNL A   1      44.859  22.356  36.061  1.00  0.00    -0.237 OA
ATOM     84  O   UNL A   1      47.128  23.156  36.606  1.00  0.00    -0.744 OA
ENDBRANCH  80  81
ENDBRANCH  59  73
BRANCH  60  85
ATOM     85  C   UNL A   1      43.328  35.582  29.185  1.00  0.00     0.058 A 
ATOM     86  C   UNL A   1      42.120  35.846  28.524  1.00  0.00     0.135 A 
ATOM     87  C   UNL A   1      44.329  36.565  29.140  1.00  0.00     0.135 A 
ATOM     88  F   UNL A   1      41.138  34.931  28.532  1.00  0.00    -0.206 F 
ATOM     89  C   UNL A   1      41.908  37.041  27.847  1.00  0.00     0.059 A 
ATOM     90  C   UNL A   1      44.132  37.778  28.490  1.00  0.00     0.059 A 
ATOM     91  F   UNL A   1      45.498  36.364  29.769  1.00  0.00    -0.206 F 
ATOM     92  C   UNL A   1      42.919  38.006  27.842  1.00  0.00     0.060 A 
BRANCH  92  93
ATOM     93  S   UNL A   1      42.605  39.587  27.028  1.00  0.00     0.124 S 
ATOM     94  O   UNL A   1      43.747  39.684  26.127  1.00  0.00    -0.237 OA
ATOM     95  O   UNL A   1      41.310  39.353  26.395  1.00  0.00    -0.237 OA
ATOM     96  O   UNL A   1      42.590  40.537  28.135  1.00  0.00    -0.744 OA
ENDBRANCH  92  93
ENDBRANCH  60  85
BRANCH  72  97
ATOM     97  C   UNL A   1      42.192  33.721  35.811  1.00  0.00     0.058 A 
ATOM     98  C   UNL A   1      42.978  34.546  36.629  1.00  0.00     0.135 A 
ATOM     99  C   UNL A   1      40.816  33.645  36.077  1.00  0.00     0.135 A 
ATOM    100  F   UNL A   1      44.299  34.644  36.420  1.00  0.00    -0.206 F 
ATOM    101  C   UNL A   1      42.419  35.273  37.676  1.00  0.00     0.059 A 
ATOM    102  C   UNL A   1      40.233  34.377  37.106  1.00  0.00     0.059 A 
ATOM    103  F   UNL A   1      40.022  32.872  35.318  1.00  0.00    -0.206 F 
ATOM    104  C   UNL A   1      41.043  35.186  37.903  1.00  0.00     0.060 A 
BRANCH 104 105
ATOM    105  S   UNL A   1      40.323  36.180  39.227  1.00  0.00     0.124 S 
ATOM    106  O   UNL A   1      39.495  35.195  39.916  1.00  0.00    -0.237 OA
ATOM    107  O   UNL A   1      41.504  36.636  39.952  1.00  0.00    -0.237 OA
ATOM    108  O   UNL A   1      39.594  37.222  38.510  1.00  0.00    -0.744 OA
ENDBRANCH 104 105
ENDBRANCH  72  97
ENDBRANCH  46  47
ENDBRANCH  38  41
ENDBRANCH  36  37
ENDBRANCH  35  36
ENDBRANCH  34  35
ENDBRANCH   1  34
TORSDOF 21
ENDMDL
