MODEL 1
REMARK VINA RESULT:     -10.6      0.000      0.000
REMARK SMILES C[C@H](NC(=O)N(CC(=O)NCCCCCCNC(=O)c1ccc(-c2c3nc(c(-c4c(F)cc(S(=O)(=O)[O-])cc4F)c4ccc([nH]4)c(-c4c(F)cc(S(=O)(=O)[O-])cc4F)c4nc(c(-c5c(F)cc(S(=O)(=O)[O-])cc5F)c5ccc2[nH]5)C=C4)C=C3)cc1)CC(F)(F)F)[C@@H]1CCCO1
REMARK SMILES IDX 13 1 12 2 11 3 10 4 8 5 9 6 7 8 6 9 4 10 3 11 5 13 2 14 1 15
REMARK SMILES IDX 91 16 92 17 95 18 93 19 94 20 86 21 87 22 88 23 89 24 90 25
REMARK SMILES IDX 14 26 15 27 16 28 17 29 18 30 19 32 20 33 21 34 85 35 22 36
REMARK SMILES IDX 84 37 23 38 24 39 25 40 78 41 26 42 83 43 77 44 79 45 27 46
REMARK SMILES IDX 82 47 76 48 75 49 28 51 62 52 41 53 61 54 42 55 45 56 60 57
REMARK SMILES IDX 80 58 43 59 44 60 59 62 81 63 46 64 29 65 30 66 39 67 31 68
REMARK SMILES IDX 32 69 38 70 40 71 33 72 34 73 35 74 36 75 37 76 63 77 64 78
REMARK SMILES IDX 73 79 65 80 66 81 72 82 74 83 67 84 68 85 69 86 70 87 71 88
REMARK SMILES IDX 47 89 48 90 57 91 49 92 50 93 56 94 58 95 51 96 52 97 53 98
REMARK SMILES IDX 54 99 55 100
REMARK H PARENT 10 7 3 12 17 31 79 50 45 61
REMARK Flexibility Score: inf
ROOT
ATOM      1  C   UNL A   1      31.607  27.509  24.319  1.00  0.00     0.002 C 
ENDROOT
BRANCH   1   2
ATOM      2  C   UNL A   1      30.304  26.729  24.136  1.00  0.00     0.021 C 
BRANCH   2   3
ATOM      3  C   UNL A   1      30.464  25.215  24.202  1.00  0.00     0.116 C 
BRANCH   3   4
ATOM      4  N   UNL A   1      30.050  24.661  25.476  1.00  0.00    -0.355 N 
ATOM      5  C   UNL A   1      30.517  23.615  26.205  1.00  0.00     0.239 C 
ATOM      6  O   UNL A   1      30.078  23.504  27.358  1.00  0.00    -0.273 OA
ATOM      7  H   UNL A   1      29.289  25.130  25.889  1.00  0.00     0.163 HD
BRANCH   5   8
ATOM      8  C   UNL A   1      31.666  22.694  25.753  1.00  0.00     0.221 C 
BRANCH   8   9
ATOM      9  N   UNL A   1      33.015  22.896  26.257  1.00  0.00    -0.306 N 
BRANCH   9  10
ATOM     10  C   UNL A   1      33.814  22.017  26.914  1.00  0.00     0.318 C 
ATOM     11  N   UNL A   1      34.444  20.973  26.371  1.00  0.00    -0.333 N 
ATOM     12  H   UNL A   1      34.710  20.365  27.098  1.00  0.00     0.165 HD
ATOM     13  O   UNL A   1      33.978  22.130  28.134  1.00  0.00    -0.249 OA
BRANCH  11  14
ATOM     14  C   UNL A   1      34.892  20.384  25.096  1.00  0.00     0.109 C 
ATOM     15  C   UNL A   1      36.395  20.204  24.880  1.00  0.00     0.034 C 
BRANCH  14  16
ATOM     16  C   UNL A   1      33.963  19.272  24.555  1.00  0.00     0.140 C 
ATOM     17  C   UNL A   1      32.798  18.805  25.416  1.00  0.00     0.036 C 
ATOM     18  O   UNL A   1      34.776  18.094  24.316  1.00  0.00    -0.376 OA
ATOM     19  C   UNL A   1      32.659  17.356  25.007  1.00  0.00     0.031 C 
ATOM     20  C   UNL A   1      34.099  16.944  24.824  1.00  0.00     0.160 C 
ENDBRANCH  14  16
ENDBRANCH  11  14
ENDBRANCH   9  10
BRANCH   9  21
ATOM     21  C   UNL A   1      33.561  24.268  26.090  1.00  0.00     0.237 C 
BRANCH  21  22
ATOM     22  C   UNL A   1      34.457  24.522  24.871  1.00  0.00     0.406 C 
ATOM     23  F   UNL A   1      34.049  23.888  23.756  1.00  0.00    -0.169 F 
ATOM     24  F   UNL A   1      34.503  25.848  24.594  1.00  0.00    -0.169 F 
ATOM     25  F   UNL A   1      35.730  24.139  25.126  1.00  0.00    -0.169 F 
ENDBRANCH  21  22
ENDBRANCH   9  21
ENDBRANCH   8   9
ENDBRANCH   5   8
ENDBRANCH   3   4
ENDBRANCH   2   3
ENDBRANCH   1   2
BRANCH   1  26
ATOM     26  C   UNL A   1      31.706  28.305  25.623  1.00  0.00     0.002 C 
BRANCH  26  27
ATOM     27  C   UNL A   1      32.493  27.625  26.745  1.00  0.00     0.021 C 
BRANCH  27  28
ATOM     28  C   UNL A   1      33.818  28.291  27.102  1.00  0.00     0.116 C 
BRANCH  28  29
ATOM     29  N   UNL A   1      33.646  29.680  27.501  1.00  0.00    -0.352 N 
ATOM     30  C   UNL A   1      34.530  30.510  28.141  1.00  0.00     0.251 C 
ATOM     31  H   UNL A   1      32.775  30.078  27.280  1.00  0.00     0.163 HD
ATOM     32  O   UNL A   1      34.152  31.602  28.561  1.00  0.00    -0.269 OA
BRANCH  30  33
ATOM     33  C   UNL A   1      35.927  30.076  28.344  1.00  0.00     0.039 A 
ATOM     34  C   UNL A   1      36.826  30.176  27.280  1.00  0.00     0.014 A 
ATOM     35  C   UNL A   1      36.350  29.579  29.580  1.00  0.00     0.014 A 
ATOM     36  C   UNL A   1      38.165  29.827  27.472  1.00  0.00     0.010 A 
ATOM     37  C   UNL A   1      37.698  29.301  29.790  1.00  0.00     0.010 A 
ATOM     38  C   UNL A   1      38.619  29.417  28.738  1.00  0.00    -0.014 A 
BRANCH  38  39
ATOM     39  C   UNL A   1      40.054  29.112  28.974  1.00  0.00     0.031 A 
ATOM     40  C   UNL A   1      40.613  27.765  28.595  1.00  0.00     0.074 A 
ATOM     41  C   UNL A   1      40.837  30.025  29.584  1.00  0.00     0.049 A 
ATOM     42  N   UNL A   1      41.821  27.296  28.772  1.00  0.00    -0.248 NA
ATOM     43  C   UNL A   1      39.690  26.813  27.956  1.00  0.00     0.031 C 
ATOM     44  C   UNL A   1      40.396  31.345  30.045  1.00  0.00     0.029 A 
ATOM     45  N   UNL A   1      42.163  29.981  29.935  1.00  0.00    -0.354 N 
ATOM     46  C   UNL A   1      41.796  25.991  28.292  1.00  0.00     0.074 A 
ATOM     47  C   UNL A   1      40.445  25.729  27.849  1.00  0.00     0.031 C 
ATOM     48  C   UNL A   1      41.436  31.988  30.600  1.00  0.00     0.029 A 
ATOM     49  C   UNL A   1      42.606  31.116  30.574  1.00  0.00     0.049 A 
ATOM     50  H   UNL A   1      42.745  29.208  29.747  1.00  0.00     0.167 HD
ATOM     51  C   UNL A   1      42.814  25.102  28.213  1.00  0.00     0.037 A 
ATOM     52  C   UNL A   1      43.813  31.416  31.094  1.00  0.00     0.037 A 
ATOM     53  C   UNL A   1      44.166  25.386  28.618  1.00  0.00     0.049 A 
ATOM     54  C   UNL A   1      44.927  30.408  30.982  1.00  0.00     0.074 A 
ATOM     55  C   UNL A   1      45.286  24.583  28.490  1.00  0.00     0.029 A 
ATOM     56  N   UNL A   1      44.581  26.556  29.235  1.00  0.00    -0.354 N 
ATOM     57  N   UNL A   1      44.908  29.215  30.435  1.00  0.00    -0.248 NA
ATOM     58  C   UNL A   1      46.228  30.786  31.550  1.00  0.00     0.031 C 
ATOM     59  C   UNL A   1      46.365  25.242  29.085  1.00  0.00     0.029 A 
ATOM     60  C   UNL A   1      45.932  26.482  29.524  1.00  0.00     0.049 A 
ATOM     61  H   UNL A   1      44.001  27.326  29.436  1.00  0.00     0.167 HD
ATOM     62  C   UNL A   1      46.201  28.718  30.562  1.00  0.00     0.074 A 
ATOM     63  C   UNL A   1      46.979  29.743  31.224  1.00  0.00     0.031 C 
ATOM     64  C   UNL A   1      46.699  27.520  30.168  1.00  0.00     0.037 A 
BRANCH  51  65
ATOM     65  C   UNL A   1      42.520  23.730  27.670  1.00  0.00     0.058 A 
ATOM     66  C   UNL A   1      42.475  23.471  26.291  1.00  0.00     0.135 A 
ATOM     67  C   UNL A   1      42.371  22.640  28.544  1.00  0.00     0.135 A 
ATOM     68  F   UNL A   1      42.595  24.477  25.410  1.00  0.00    -0.206 F 
ATOM     69  C   UNL A   1      42.287  22.184  25.799  1.00  0.00     0.059 A 
ATOM     70  C   UNL A   1      42.210  21.340  28.075  1.00  0.00     0.059 A 
ATOM     71  F   UNL A   1      42.403  22.831  29.873  1.00  0.00    -0.206 F 
ATOM     72  C   UNL A   1      42.165  21.123  26.699  1.00  0.00     0.060 A 
BRANCH  72  73
ATOM     73  S   UNL A   1      41.974  19.453  26.041  1.00  0.00     0.124 S 
ATOM     74  O   UNL A   1      42.461  18.643  27.153  1.00  0.00    -0.237 OA
ATOM     75  O   UNL A   1      40.538  19.381  25.787  1.00  0.00    -0.237 OA
ATOM     76  O   UNL A   1      42.818  19.455  24.850  1.00  0.00    -0.744 OA
ENDBRANCH  72  73
ENDBRANCH  51  65
BRANCH  52  77
ATOM     77  C   UNL A   1      44.041  32.722  31.771  1.00  0.00     0.058 A 
ATOM     78  C   UNL A   1      43.769  32.890  33.137  1.00  0.00     0.135 A 
ATOM     79  C   UNL A   1      44.502  33.841  31.058  1.00  0.00     0.135 A 
ATOM     80  F   UNL A   1      43.323  31.853  33.864  1.00  0.00    -0.206 F 
ATOM     81  C   UNL A   1      43.906  34.124  33.764  1.00  0.00     0.059 A 
ATOM     82  C   UNL A   1      44.678  35.078  31.670  1.00  0.00     0.059 A 
ATOM     83  F   UNL A   1      44.797  33.733  29.754  1.00  0.00    -0.206 F 
ATOM     84  C   UNL A   1      44.356  35.215  33.019  1.00  0.00     0.060 A 
BRANCH  84  85
ATOM     85  S   UNL A   1      44.532  36.814  33.840  1.00  0.00     0.124 S 
ATOM     86  O   UNL A   1      43.352  37.522  33.359  1.00  0.00    -0.237 OA
ATOM     87  O   UNL A   1      44.522  36.437  35.251  1.00  0.00    -0.237 OA
ATOM     88  O   UNL A   1      45.812  37.307  33.341  1.00  0.00    -0.744 OA
ENDBRANCH  84  85
ENDBRANCH  52  77
BRANCH  64  89
ATOM     89  C   UNL A   1      48.166  27.267  30.393  1.00  0.00     0.058 A 
ATOM     90  C   UNL A   1      48.642  26.657  31.564  1.00  0.00     0.135 A 
ATOM     91  C   UNL A   1      49.101  27.590  29.395  1.00  0.00     0.135 A 
ATOM     92  F   UNL A   1      47.792  26.333  32.552  1.00  0.00    -0.206 F 
ATOM     93  C   UNL A   1      49.997  26.402  31.749  1.00  0.00     0.059 A 
ATOM     94  C   UNL A   1      50.455  27.314  29.545  1.00  0.00     0.059 A 
ATOM     95  F   UNL A   1      48.696  28.165  28.250  1.00  0.00    -0.206 F 
ATOM     96  C   UNL A   1      50.896  26.731  30.732  1.00  0.00     0.060 A 
BRANCH  96  97
ATOM     97  S   UNL A   1      52.646  26.362  30.971  1.00  0.00     0.124 S 
ATOM     98  O   UNL A   1      53.090  27.526  31.732  1.00  0.00    -0.237 OA
ATOM     99  O   UNL A   1      52.602  25.103  31.709  1.00  0.00    -0.237 OA
ATOM    100  O   UNL A   1      53.163  26.267  29.610  1.00  0.00    -0.744 OA
ENDBRANCH  96  97
ENDBRANCH  64  89
ENDBRANCH  38  39
ENDBRANCH  30  33
ENDBRANCH  28  29
ENDBRANCH  27  28
ENDBRANCH  26  27
ENDBRANCH   1  26
TORSDOF 22
ENDMDL
MODEL 2
REMARK VINA RESULT:     -10.0      2.568      8.185
REMARK SMILES C[C@H](NC(=O)N(CC(=O)NCCCCCCNC(=O)c1ccc(-c2c3nc(c(-c4c(F)cc(S(=O)(=O)[O-])cc4F)c4ccc([nH]4)c(-c4c(F)cc(S(=O)(=O)[O-])cc4F)c4nc(c(-c5c(F)cc(S(=O)(=O)[O-])cc5F)c5ccc2[nH]5)C=C4)C=C3)cc1)CC(F)(F)F)[C@@H]1CCCO1
REMARK SMILES IDX 13 1 12 2 11 3 10 4 8 5 9 6 7 8 6 9 4 10 3 11 5 13 2 14 1 15
REMARK SMILES IDX 91 16 92 17 95 18 93 19 94 20 86 21 87 22 88 23 89 24 90 25
REMARK SMILES IDX 14 26 15 27 16 28 17 29 18 30 19 32 20 33 21 34 85 35 22 36
REMARK SMILES IDX 84 37 23 38 24 39 25 40 78 41 26 42 83 43 77 44 79 45 27 46
REMARK SMILES IDX 82 47 76 48 75 49 28 51 62 52 41 53 61 54 42 55 45 56 60 57
REMARK SMILES IDX 80 58 43 59 44 60 59 62 81 63 46 64 29 65 30 66 39 67 31 68
REMARK SMILES IDX 32 69 38 70 40 71 33 72 34 73 35 74 36 75 37 76 63 77 64 78
REMARK SMILES IDX 73 79 65 80 66 81 72 82 74 83 67 84 68 85 69 86 70 87 71 88
REMARK SMILES IDX 47 89 48 90 57 91 49 92 50 93 56 94 58 95 51 96 52 97 53 98
REMARK SMILES IDX 54 99 55 100
REMARK H PARENT 10 7 3 12 17 31 79 50 45 61
REMARK Flexibility Score: inf
ROOT
ATOM      1  C   UNL A   1      31.356  27.503  24.219  1.00  0.00     0.002 C 
ENDROOT
BRANCH   1   2
ATOM      2  C   UNL A   1      30.976  27.092  25.642  1.00  0.00     0.021 C 
BRANCH   2   3
ATOM      3  C   UNL A   1      30.305  25.727  25.745  1.00  0.00     0.116 C 
BRANCH   3   4
ATOM      4  N   UNL A   1      30.450  24.937  24.538  1.00  0.00    -0.355 N 
ATOM      5  C   UNL A   1      30.884  23.667  24.333  1.00  0.00     0.239 C 
ATOM      6  O   UNL A   1      30.709  23.199  23.200  1.00  0.00    -0.273 OA
ATOM      7  H   UNL A   1      30.185  25.408  23.716  1.00  0.00     0.163 HD
BRANCH   5   8
ATOM      8  C   UNL A   1      31.400  22.740  25.450  1.00  0.00     0.221 C 
BRANCH   8   9
ATOM      9  N   UNL A   1      32.820  22.451  25.574  1.00  0.00    -0.306 N 
BRANCH   9  10
ATOM     10  C   UNL A   1      33.435  21.562  26.394  1.00  0.00     0.318 C 
ATOM     11  N   UNL A   1      34.114  20.480  26.008  1.00  0.00    -0.333 N 
ATOM     12  H   UNL A   1      34.206  19.883  26.785  1.00  0.00     0.165 HD
ATOM     13  O   UNL A   1      33.360  21.703  27.620  1.00  0.00    -0.249 OA
BRANCH  11  14
ATOM     14  C   UNL A   1      34.779  19.839  24.858  1.00  0.00     0.109 C 
ATOM     15  C   UNL A   1      36.301  19.948  24.760  1.00  0.00     0.034 C 
BRANCH  14  16
ATOM     16  C   UNL A   1      34.138  18.499  24.427  1.00  0.00     0.140 C 
ATOM     17  C   UNL A   1      32.812  18.086  25.048  1.00  0.00     0.036 C 
ATOM     18  O   UNL A   1      35.073  17.437  24.749  1.00  0.00    -0.376 OA
ATOM     19  C   UNL A   1      32.911  16.577  25.040  1.00  0.00     0.031 C 
ATOM     20  C   UNL A   1      34.368  16.359  25.363  1.00  0.00     0.160 C 
ENDBRANCH  14  16
ENDBRANCH  11  14
ENDBRANCH   9  10
BRANCH   9  21
ATOM     21  C   UNL A   1      33.718  23.294  24.741  1.00  0.00     0.237 C 
BRANCH  21  22
ATOM     22  C   UNL A   1      34.368  24.506  25.419  1.00  0.00     0.406 C 
ATOM     23  F   UNL A   1      35.537  24.226  26.026  1.00  0.00    -0.169 F 
ATOM     24  F   UNL A   1      34.603  25.481  24.508  1.00  0.00    -0.169 F 
ATOM     25  F   UNL A   1      33.537  25.039  26.346  1.00  0.00    -0.169 F 
ENDBRANCH  21  22
ENDBRANCH   9  21
ENDBRANCH   8   9
ENDBRANCH   5   8
ENDBRANCH   3   4
ENDBRANCH   2   3
ENDBRANCH   1   2
BRANCH   1  26
ATOM     26  C   UNL A   1      32.298  28.706  24.123  1.00  0.00     0.002 C 
BRANCH  26  27
ATOM     27  C   UNL A   1      33.760  28.420  24.472  1.00  0.00     0.021 C 
BRANCH  27  28
ATOM     28  C   UNL A   1      34.127  28.625  25.939  1.00  0.00     0.116 C 
BRANCH  28  29
ATOM     29  N   UNL A   1      33.796  29.962  26.407  1.00  0.00    -0.352 N 
ATOM     30  C   UNL A   1      34.386  30.700  27.401  1.00  0.00     0.251 C 
ATOM     31  H   UNL A   1      33.044  30.397  25.946  1.00  0.00     0.163 HD
ATOM     32  O   UNL A   1      33.861  31.743  27.785  1.00  0.00    -0.269 OA
BRANCH  30  33
ATOM     33  C   UNL A   1      35.638  30.224  28.022  1.00  0.00     0.039 A 
ATOM     34  C   UNL A   1      36.847  30.441  27.357  1.00  0.00     0.014 A 
ATOM     35  C   UNL A   1      35.620  29.570  29.258  1.00  0.00     0.014 A 
ATOM     36  C   UNL A   1      38.045  30.051  27.959  1.00  0.00     0.010 A 
ATOM     37  C   UNL A   1      36.820  29.247  29.887  1.00  0.00     0.010 A 
ATOM     38  C   UNL A   1      38.045  29.480  29.243  1.00  0.00    -0.014 A 
BRANCH  38  39
ATOM     39  C   UNL A   1      39.317  29.127  29.924  1.00  0.00     0.031 A 
ATOM     40  C   UNL A   1      39.768  29.904  31.134  1.00  0.00     0.074 A 
ATOM     41  C   UNL A   1      40.094  28.147  29.418  1.00  0.00     0.049 A 
ATOM     42  N   UNL A   1      40.870  29.781  31.827  1.00  0.00    -0.248 NA
ATOM     43  C   UNL A   1      38.879  30.975  31.611  1.00  0.00     0.031 C 
ATOM     44  C   UNL A   1      39.788  27.359  28.221  1.00  0.00     0.029 A 
ATOM     45  N   UNL A   1      41.305  27.655  29.835  1.00  0.00    -0.354 N 
ATOM     46  C   UNL A   1      40.818  30.769  32.804  1.00  0.00     0.074 A 
ATOM     47  C   UNL A   1      39.594  31.508  32.591  1.00  0.00     0.031 C 
ATOM     48  C   UNL A   1      40.775  26.472  28.013  1.00  0.00     0.029 A 
ATOM     49  C   UNL A   1      41.803  26.654  29.032  1.00  0.00     0.049 A 
ATOM     50  H   UNL A   1      41.775  27.986  30.635  1.00  0.00     0.167 HD
ATOM     51  C   UNL A   1      41.703  31.023  33.795  1.00  0.00     0.037 A 
ATOM     52  C   UNL A   1      42.962  25.971  29.100  1.00  0.00     0.037 A 
ATOM     53  C   UNL A   1      42.899  30.255  34.024  1.00  0.00     0.049 A 
ATOM     54  C   UNL A   1      43.923  26.271  30.222  1.00  0.00     0.074 A 
ATOM     55  C   UNL A   1      43.810  30.375  35.059  1.00  0.00     0.029 A 
ATOM     56  N   UNL A   1      43.355  29.232  33.207  1.00  0.00    -0.354 N 
ATOM     57  N   UNL A   1      43.808  27.145  31.194  1.00  0.00    -0.248 NA
ATOM     58  C   UNL A   1      45.166  25.489  30.262  1.00  0.00     0.031 C 
ATOM     59  C   UNL A   1      44.849  29.468  34.834  1.00  0.00     0.029 A 
ATOM     60  C   UNL A   1      44.552  28.737  33.696  1.00  0.00     0.049 A 
ATOM     61  H   UNL A   1      42.895  28.906  32.400  1.00  0.00     0.167 HD
ATOM     62  C   UNL A   1      44.947  26.992  31.979  1.00  0.00     0.074 A 
ATOM     63  C   UNL A   1      45.729  25.934  31.378  1.00  0.00     0.031 C 
ATOM     64  C   UNL A   1      45.312  27.668  33.096  1.00  0.00     0.037 A 
BRANCH  51  65
ATOM     65  C   UNL A   1      41.427  32.179  34.719  1.00  0.00     0.058 A 
ATOM     66  C   UNL A   1      41.919  33.468  34.462  1.00  0.00     0.135 A 
ATOM     67  C   UNL A   1      40.581  32.011  35.828  1.00  0.00     0.135 A 
ATOM     68  F   UNL A   1      42.745  33.683  33.427  1.00  0.00    -0.206 F 
ATOM     69  C   UNL A   1      41.589  34.547  35.276  1.00  0.00     0.059 A 
ATOM     70  C   UNL A   1      40.214  33.081  36.638  1.00  0.00     0.059 A 
ATOM     71  F   UNL A   1      40.084  30.798  36.121  1.00  0.00    -0.206 F 
ATOM     72  C   UNL A   1      40.727  34.345  36.356  1.00  0.00     0.060 A 
BRANCH  72  73
ATOM     73  S   UNL A   1      40.268  35.767  37.369  1.00  0.00     0.124 S 
ATOM     74  O   UNL A   1      39.937  36.758  36.350  1.00  0.00    -0.237 OA
ATOM     75  O   UNL A   1      39.141  35.249  38.138  1.00  0.00    -0.237 OA
ATOM     76  O   UNL A   1      41.476  36.042  38.141  1.00  0.00    -0.744 OA
ENDBRANCH  72  73
ENDBRANCH  51  65
BRANCH  52  77
ATOM     77  C   UNL A   1      43.291  24.936  28.081  1.00  0.00     0.058 A 
ATOM     78  C   UNL A   1      42.976  23.584  28.290  1.00  0.00     0.135 A 
ATOM     79  C   UNL A   1      43.960  25.271  26.893  1.00  0.00     0.135 A 
ATOM     80  F   UNL A   1      42.340  23.210  29.412  1.00  0.00    -0.206 F 
ATOM     81  C   UNL A   1      43.345  22.598  27.381  1.00  0.00     0.059 A 
ATOM     82  C   UNL A   1      44.310  24.307  25.953  1.00  0.00     0.059 A 
ATOM     83  F   UNL A   1      44.267  26.551  26.631  1.00  0.00    -0.206 F 
ATOM     84  C   UNL A   1      44.018  22.970  26.216  1.00  0.00     0.060 A 
BRANCH  84  85
ATOM     85  S   UNL A   1      44.493  21.685  25.040  1.00  0.00     0.124 S 
ATOM     86  O   UNL A   1      43.511  20.647  25.327  1.00  0.00    -0.237 OA
ATOM     87  O   UNL A   1      44.344  22.371  23.759  1.00  0.00    -0.237 OA
ATOM     88  O   UNL A   1      45.868  21.375  25.420  1.00  0.00    -0.744 OA
ENDBRANCH  84  85
ENDBRANCH  52  77
BRANCH  64  89
ATOM     89  C   UNL A   1      46.589  27.253  33.775  1.00  0.00     0.058 A 
ATOM     90  C   UNL A   1      46.619  26.236  34.742  1.00  0.00     0.135 A 
ATOM     91  C   UNL A   1      47.810  27.846  33.409  1.00  0.00     0.135 A 
ATOM     92  F   UNL A   1      45.480  25.641  35.132  1.00  0.00    -0.206 F 
ATOM     93  C   UNL A   1      47.810  25.841  35.342  1.00  0.00     0.059 A 
ATOM     94  C   UNL A   1      49.016  27.443  33.972  1.00  0.00     0.059 A 
ATOM     95  F   UNL A   1      47.839  28.815  32.479  1.00  0.00    -0.206 F 
ATOM     96  C   UNL A   1      49.004  26.448  34.948  1.00  0.00     0.060 A 
BRANCH  96  97
ATOM     97  S   UNL A   1      50.546  25.901  35.709  1.00  0.00     0.124 S 
ATOM     98  O   UNL A   1      51.449  25.880  34.564  1.00  0.00    -0.237 OA
ATOM     99  O   UNL A   1      50.796  26.948  36.695  1.00  0.00    -0.237 OA
ATOM    100  O   UNL A   1      50.206  24.594  36.264  1.00  0.00    -0.744 OA
ENDBRANCH  96  97
ENDBRANCH  64  89
ENDBRANCH  38  39
ENDBRANCH  30  33
ENDBRANCH  28  29
ENDBRANCH  27  28
ENDBRANCH  26  27
ENDBRANCH   1  26
TORSDOF 22
ENDMDL
MODEL 3
REMARK VINA RESULT:      -9.9      2.843      8.697
REMARK SMILES C[C@H](NC(=O)N(CC(=O)NCCCCCCNC(=O)c1ccc(-c2c3nc(c(-c4c(F)cc(S(=O)(=O)[O-])cc4F)c4ccc([nH]4)c(-c4c(F)cc(S(=O)(=O)[O-])cc4F)c4nc(c(-c5c(F)cc(S(=O)(=O)[O-])cc5F)c5ccc2[nH]5)C=C4)C=C3)cc1)CC(F)(F)F)[C@@H]1CCCO1
REMARK SMILES IDX 13 1 12 2 11 3 10 4 8 5 9 6 7 8 6 9 4 10 3 11 5 13 2 14 1 15
REMARK SMILES IDX 91 16 92 17 95 18 93 19 94 20 86 21 87 22 88 23 89 24 90 25
REMARK SMILES IDX 14 26 15 27 16 28 17 29 18 30 19 32 20 33 21 34 85 35 22 36
REMARK SMILES IDX 84 37 23 38 24 39 25 40 78 41 26 42 83 43 77 44 79 45 27 46
REMARK SMILES IDX 82 47 76 48 75 49 28 51 62 52 41 53 61 54 42 55 45 56 60 57
REMARK SMILES IDX 80 58 43 59 44 60 59 62 81 63 46 64 29 65 30 66 39 67 31 68
REMARK SMILES IDX 32 69 38 70 40 71 33 72 34 73 35 74 36 75 37 76 63 77 64 78
REMARK SMILES IDX 73 79 65 80 66 81 72 82 74 83 67 84 68 85 69 86 70 87 71 88
REMARK SMILES IDX 47 89 48 90 57 91 49 92 50 93 56 94 58 95 51 96 52 97 53 98
REMARK SMILES IDX 54 99 55 100
REMARK H PARENT 10 7 3 12 17 31 79 50 45 61
REMARK Flexibility Score: inf
ROOT
ATOM      1  C   UNL A   1      32.443  30.350  26.179  1.00  0.00     0.002 C 
ENDROOT
BRANCH   1   2
ATOM      2  C   UNL A   1      32.675  29.349  25.047  1.00  0.00     0.021 C 
BRANCH   2   3
ATOM      3  C   UNL A   1      31.528  28.369  24.829  1.00  0.00     0.116 C 
BRANCH   3   4
ATOM      4  N   UNL A   1      31.358  28.002  23.437  1.00  0.00    -0.355 N 
ATOM      5  C   UNL A   1      31.395  26.801  22.806  1.00  0.00     0.239 C 
ATOM      6  O   UNL A   1      31.016  26.784  21.627  1.00  0.00    -0.273 OA
ATOM      7  H   UNL A   1      31.182  28.764  22.840  1.00  0.00     0.163 HD
BRANCH   5   8
ATOM      8  C   UNL A   1      31.700  25.464  23.510  1.00  0.00     0.221 C 
BRANCH   8   9
ATOM      9  N   UNL A   1      32.957  24.774  23.271  1.00  0.00    -0.306 N 
BRANCH   9  10
ATOM     10  C   UNL A   1      33.169  23.600  22.623  1.00  0.00     0.318 C 
ATOM     11  N   UNL A   1      33.234  22.393  23.189  1.00  0.00    -0.333 N 
ATOM     12  H   UNL A   1      33.664  21.780  22.552  1.00  0.00     0.165 HD
ATOM     13  O   UNL A   1      33.358  23.598  21.401  1.00  0.00    -0.249 OA
BRANCH  11  14
ATOM     14  C   UNL A   1      32.906  21.631  24.408  1.00  0.00     0.109 C 
ATOM     15  C   UNL A   1      31.591  21.950  25.119  1.00  0.00     0.034 C 
BRANCH  14  16
ATOM     16  C   UNL A   1      33.340  20.147  24.357  1.00  0.00     0.140 C 
ATOM     17  C   UNL A   1      32.559  19.183  23.476  1.00  0.00     0.036 C 
ATOM     18  O   UNL A   1      33.250  19.614  25.704  1.00  0.00    -0.376 OA
ATOM     19  C   UNL A   1      32.703  17.877  24.225  1.00  0.00     0.031 C 
ATOM     20  C   UNL A   1      32.624  18.331  25.661  1.00  0.00     0.160 C 
ENDBRANCH  14  16
ENDBRANCH  11  14
ENDBRANCH   9  10
BRANCH   9  21
ATOM     21  C   UNL A   1      34.158  25.404  23.880  1.00  0.00     0.237 C 
BRANCH  21  22
ATOM     22  C   UNL A   1      34.284  25.339  25.408  1.00  0.00     0.406 C 
ATOM     23  F   UNL A   1      34.126  26.529  26.017  1.00  0.00    -0.169 F 
ATOM     24  F   UNL A   1      33.355  24.493  25.917  1.00  0.00    -0.169 F 
ATOM     25  F   UNL A   1      35.492  24.844  25.767  1.00  0.00    -0.169 F 
ENDBRANCH  21  22
ENDBRANCH   9  21
ENDBRANCH   8   9
ENDBRANCH   5   8
ENDBRANCH   3   4
ENDBRANCH   2   3
ENDBRANCH   1   2
BRANCH   1  26
ATOM     26  C   UNL A   1      33.236  30.073  27.459  1.00  0.00     0.002 C 
BRANCH  26  27
ATOM     27  C   UNL A   1      34.723  29.774  27.255  1.00  0.00     0.021 C 
BRANCH  27  28
ATOM     28  C   UNL A   1      35.678  30.772  27.902  1.00  0.00     0.116 C 
BRANCH  28  29
ATOM     29  N   UNL A   1      35.541  30.806  29.350  1.00  0.00    -0.352 N 
ATOM     30  C   UNL A   1      36.383  30.306  30.310  1.00  0.00     0.251 C 
ATOM     31  H   UNL A   1      34.731  31.250  29.687  1.00  0.00     0.163 HD
ATOM     32  O   UNL A   1      36.021  30.266  31.484  1.00  0.00    -0.269 OA
BRANCH  30  33
ATOM     33  C   UNL A   1      37.714  29.795  29.923  1.00  0.00     0.039 A 
ATOM     34  C   UNL A   1      38.075  29.808  28.573  1.00  0.00     0.014 A 
ATOM     35  C   UNL A   1      38.602  29.310  30.886  1.00  0.00     0.014 A 
ATOM     36  C   UNL A   1      39.351  29.384  28.197  1.00  0.00     0.010 A 
ATOM     37  C   UNL A   1      39.898  28.956  30.517  1.00  0.00     0.010 A 
ATOM     38  C   UNL A   1      40.285  28.986  29.169  1.00  0.00    -0.014 A 
BRANCH  38  39
ATOM     39  C   UNL A   1      41.669  28.601  28.789  1.00  0.00     0.031 A 
ATOM     40  C   UNL A   1      42.758  29.642  28.748  1.00  0.00     0.074 A 
ATOM     41  C   UNL A   1      41.930  27.330  28.423  1.00  0.00     0.049 A 
ATOM     42  N   UNL A   1      44.009  29.511  28.389  1.00  0.00    -0.248 NA
ATOM     43  C   UNL A   1      42.389  31.013  29.136  1.00  0.00     0.031 C 
ATOM     44  C   UNL A   1      40.947  26.245  28.372  1.00  0.00     0.029 A 
ATOM     45  N   UNL A   1      43.097  26.735  28.011  1.00  0.00    -0.354 N 
ATOM     46  C   UNL A   1      44.568  30.780  28.485  1.00  0.00     0.074 A 
ATOM     47  C   UNL A   1      43.512  31.676  28.900  1.00  0.00     0.031 C 
ATOM     48  C   UNL A   1      41.555  25.116  27.972  1.00  0.00     0.029 A 
ATOM     49  C   UNL A   1      42.958  25.402  27.697  1.00  0.00     0.049 A 
ATOM     50  H   UNL A   1      43.954  27.216  27.948  1.00  0.00     0.167 HD
ATOM     51  C   UNL A   1      45.848  31.157  28.262  1.00  0.00     0.037 A 
ATOM     52  C   UNL A   1      43.857  24.515  27.226  1.00  0.00     0.037 A 
ATOM     53  C   UNL A   1      46.902  30.250  27.890  1.00  0.00     0.049 A 
ATOM     54  C   UNL A   1      45.277  24.964  26.997  1.00  0.00     0.074 A 
ATOM     55  C   UNL A   1      48.251  30.520  27.734  1.00  0.00     0.029 A 
ATOM     56  N   UNL A   1      46.729  28.904  27.608  1.00  0.00    -0.354 N 
ATOM     57  N   UNL A   1      45.808  26.149  27.188  1.00  0.00    -0.248 NA
ATOM     58  C   UNL A   1      46.223  23.957  26.497  1.00  0.00     0.031 C 
ATOM     59  C   UNL A   1      48.882  29.353  27.298  1.00  0.00     0.029 A 
ATOM     60  C   UNL A   1      47.940  28.339  27.245  1.00  0.00     0.049 A 
ATOM     61  H   UNL A   1      45.873  28.421  27.658  1.00  0.00     0.167 HD
ATOM     62  C   UNL A   1      47.155  26.018  26.865  1.00  0.00     0.074 A 
ATOM     63  C   UNL A   1      47.360  24.638  26.481  1.00  0.00     0.031 C 
ATOM     64  C   UNL A   1      48.133  26.957  26.883  1.00  0.00     0.037 A 
BRANCH  51  65
ATOM     65  C   UNL A   1      46.199  32.613  28.412  1.00  0.00     0.058 A 
ATOM     66  C   UNL A   1      46.671  33.142  29.623  1.00  0.00     0.135 A 
ATOM     67  C   UNL A   1      46.147  33.470  27.300  1.00  0.00     0.135 A 
ATOM     68  F   UNL A   1      46.726  32.373  30.722  1.00  0.00    -0.206 F 
ATOM     69  C   UNL A   1      47.072  34.470  29.728  1.00  0.00     0.059 A 
ATOM     70  C   UNL A   1      46.569  34.794  27.375  1.00  0.00     0.059 A 
ATOM     71  F   UNL A   1      45.700  33.017  26.118  1.00  0.00    -0.206 F 
ATOM     72  C   UNL A   1      47.026  35.286  28.596  1.00  0.00     0.060 A 
BRANCH  72  73
ATOM     73  S   UNL A   1      47.600  36.991  28.739  1.00  0.00     0.124 S 
ATOM     74  O   UNL A   1      49.028  36.801  28.972  1.00  0.00    -0.237 OA
ATOM     75  O   UNL A   1      47.239  37.551  27.441  1.00  0.00    -0.237 OA
ATOM     76  O   UNL A   1      46.845  37.512  29.875  1.00  0.00    -0.744 OA
ENDBRANCH  72  73
ENDBRANCH  51  65
BRANCH  52  77
ATOM     77  C   UNL A   1      43.452  23.112  26.932  1.00  0.00     0.058 A 
ATOM     78  C   UNL A   1      43.166  22.208  27.966  1.00  0.00     0.135 A 
ATOM     79  C   UNL A   1      43.377  22.637  25.613  1.00  0.00     0.135 A 
ATOM     80  F   UNL A   1      43.226  22.611  29.245  1.00  0.00    -0.206 F 
ATOM     81  C   UNL A   1      42.860  20.875  27.708  1.00  0.00     0.059 A 
ATOM     82  C   UNL A   1      43.042  21.317  25.328  1.00  0.00     0.059 A 
ATOM     83  F   UNL A   1      43.621  23.463  24.585  1.00  0.00    -0.206 F 
ATOM     84  C   UNL A   1      42.806  20.437  26.384  1.00  0.00     0.060 A 
BRANCH  84  85
ATOM     85  S   UNL A   1      42.408  18.707  26.057  1.00  0.00     0.124 S 
ATOM     86  O   UNL A   1      42.702  18.090  27.345  1.00  0.00    -0.237 OA
ATOM     87  O   UNL A   1      40.997  18.781  25.690  1.00  0.00    -0.237 OA
ATOM     88  O   UNL A   1      43.313  18.355  24.967  1.00  0.00    -0.744 OA
ENDBRANCH  84  85
ENDBRANCH  52  77
BRANCH  64  89
ATOM     89  C   UNL A   1      49.528  26.516  26.527  1.00  0.00     0.058 A 
ATOM     90  C   UNL A   1      50.040  26.654  25.228  1.00  0.00     0.135 A 
ATOM     91  C   UNL A   1      50.381  26.000  27.517  1.00  0.00     0.135 A 
ATOM     92  F   UNL A   1      49.265  27.136  24.243  1.00  0.00    -0.206 F 
ATOM     93  C   UNL A   1      51.341  26.270  24.916  1.00  0.00     0.059 A 
ATOM     94  C   UNL A   1      51.694  25.641  27.235  1.00  0.00     0.059 A 
ATOM     95  F   UNL A   1      49.944  25.858  28.779  1.00  0.00    -0.206 F 
ATOM     96  C   UNL A   1      52.162  25.768  25.928  1.00  0.00     0.060 A 
BRANCH  96  97
ATOM     97  S   UNL A   1      53.857  25.306  25.518  1.00  0.00     0.124 S 
ATOM     98  O   UNL A   1      54.421  25.053  26.839  1.00  0.00    -0.237 OA
ATOM     99  O   UNL A   1      53.665  24.130  24.674  1.00  0.00    -0.237 OA
ATOM    100  O   UNL A   1      54.374  26.486  24.831  1.00  0.00    -0.744 OA
ENDBRANCH  96  97
ENDBRANCH  64  89
ENDBRANCH  38  39
ENDBRANCH  30  33
ENDBRANCH  28  29
ENDBRANCH  27  28
ENDBRANCH  26  27
ENDBRANCH   1  26
TORSDOF 22
ENDMDL
