MODEL 1
REMARK VINA RESULT:     -10.8      0.000      0.000
REMARK SMILES Cn1nc(N2CCC(CC(=O)NCCCCCCNC(=O)c3ccc(-c4c5nc(c(-c6c(F)cc(S(=O)(=O)[O-])cc6F)c6ccc([nH]6)c(-c6c(F)cc(S(=O)(=O)[O-])cc6F)c6nc(c(-c7c(F)cc(S(=O)(=O)[O-])cc7F)c7ccc4[nH]7)C=C6)C=C5)cc3)CC2)c(=O)n(C)c1=O
REMARK SMILES IDX 16 1 15 2 14 3 13 4 12 5 10 6 11 7 9 9 8 10 5 11 6 12 89 13
REMARK SMILES IDX 7 14 88 15 4 16 1 17 2 18 3 19 94 20 92 21 95 22 90 23 93 24
REMARK SMILES IDX 91 25 17 26 18 27 19 28 20 29 21 31 22 32 23 33 87 34 24 35
REMARK SMILES IDX 86 36 25 37 26 38 27 39 80 40 28 41 85 42 79 43 81 44 29 45
REMARK SMILES IDX 84 46 78 47 77 48 30 50 64 51 43 52 63 53 44 54 47 55 62 56
REMARK SMILES IDX 82 57 45 58 46 59 61 61 83 62 48 63 31 64 32 65 41 66 33 67
REMARK SMILES IDX 34 68 40 69 42 70 35 71 36 72 37 73 38 74 39 75 65 76 66 77
REMARK SMILES IDX 75 78 67 79 68 80 74 81 76 82 69 83 70 84 71 85 72 86 73 87
REMARK SMILES IDX 49 88 50 89 59 90 51 91 52 92 58 93 60 94 53 95 54 96 55 97
REMARK SMILES IDX 56 98 57 99
REMARK H PARENT 12 8 19 30 81 49 47 60
REMARK Flexibility Score: inf
ROOT
ATOM      1  C   UNL A   1      33.428  27.613  24.534  1.00  0.00     0.002 C 
ENDROOT
BRANCH   1   2
ATOM      2  C   UNL A   1      33.143  28.810  23.628  1.00  0.00     0.002 C 
BRANCH   2   3
ATOM      3  C   UNL A   1      31.682  28.973  23.212  1.00  0.00     0.021 C 
BRANCH   3   4
ATOM      4  C   UNL A   1      31.095  27.784  22.440  1.00  0.00     0.116 C 
BRANCH   4   5
ATOM      5  N   UNL A   1      29.773  27.447  22.947  1.00  0.00    -0.356 N 
ATOM      6  C   UNL A   1      29.392  26.622  23.965  1.00  0.00     0.220 C 
ATOM      7  O   UNL A   1      28.188  26.407  24.119  1.00  0.00    -0.275 OA
ATOM      8  H   UNL A   1      29.029  27.889  22.478  1.00  0.00     0.163 HD
BRANCH   6   9
ATOM      9  C   UNL A   1      30.415  25.991  24.896  1.00  0.00     0.103 C 
BRANCH   9  10
ATOM     10  C   UNL A   1      30.587  24.467  24.719  1.00  0.00     0.002 C 
ATOM     11  N   UNL A   1      32.508  22.315  24.718  1.00  0.00    -0.351 N 
ATOM     12  C   UNL A   1      31.969  22.719  23.440  1.00  0.00     0.118 C 
ATOM     13  C   UNL A   1      31.584  22.382  25.836  1.00  0.00     0.118 C 
ATOM     14  C   UNL A   1      31.504  24.159  23.530  1.00  0.00     0.025 C 
ATOM     15  C   UNL A   1      31.134  23.837  26.019  1.00  0.00     0.025 C 
BRANCH  11  16
ATOM     16  C   UNL A   1      33.854  22.036  24.879  1.00  0.00     0.215 A 
ATOM     17  C   UNL A   1      36.108  19.231  24.837  1.00  0.00     0.180 C 
ATOM     18  N   UNL A   1      35.644  20.597  25.004  1.00  0.00    -0.216 N 
ATOM     19  N   UNL A   1      34.302  20.813  24.823  1.00  0.00    -0.145 NA
ATOM     20  C   UNL A   1      36.578  21.572  25.344  1.00  0.00     0.346 A 
ATOM     21  N   UNL A   1      36.096  22.858  25.478  1.00  0.00    -0.259 N 
ATOM     22  O   UNL A   1      37.771  21.302  25.498  1.00  0.00    -0.246 OA
ATOM     23  C   UNL A   1      34.798  23.202  25.177  1.00  0.00     0.299 A 
ATOM     24  C   UNL A   1      36.983  23.916  25.909  1.00  0.00     0.159 C 
ATOM     25  O   UNL A   1      34.356  24.347  25.161  1.00  0.00    -0.265 OA
ENDBRANCH  11  16
ENDBRANCH   9  10
ENDBRANCH   6   9
ENDBRANCH   4   5
ENDBRANCH   3   4
ENDBRANCH   2   3
ENDBRANCH   1   2
BRANCH   1  26
ATOM     26  C   UNL A   1      34.344  27.890  25.731  1.00  0.00     0.021 C 
BRANCH  26  27
ATOM     27  C   UNL A   1      33.630  28.106  27.064  1.00  0.00     0.116 C 
BRANCH  27  28
ATOM     28  N   UNL A   1      33.401  29.515  27.337  1.00  0.00    -0.352 N 
ATOM     29  C   UNL A   1      34.216  30.427  27.961  1.00  0.00     0.251 C 
ATOM     30  H   UNL A   1      32.536  29.868  27.029  1.00  0.00     0.163 HD
ATOM     31  O   UNL A   1      33.763  31.510  28.316  1.00  0.00    -0.269 OA
BRANCH  29  32
ATOM     32  C   UNL A   1      35.636  30.099  28.212  1.00  0.00     0.039 A 
ATOM     33  C   UNL A   1      36.005  29.597  29.462  1.00  0.00     0.014 A 
ATOM     34  C   UNL A   1      36.604  30.319  27.227  1.00  0.00     0.014 A 
ATOM     35  C   UNL A   1      37.341  29.269  29.709  1.00  0.00     0.010 A 
ATOM     36  C   UNL A   1      37.924  29.937  27.454  1.00  0.00     0.010 A 
ATOM     37  C   UNL A   1      38.307  29.417  28.699  1.00  0.00    -0.014 A 
BRANCH  37  38
ATOM     38  C   UNL A   1      39.729  29.067  28.940  1.00  0.00     0.031 A 
ATOM     39  C   UNL A   1      40.654  30.082  29.555  1.00  0.00     0.074 A 
ATOM     40  C   UNL A   1      40.192  27.851  28.587  1.00  0.00     0.049 A 
ATOM     41  N   UNL A   1      41.939  29.999  29.783  1.00  0.00    -0.248 NA
ATOM     42  C   UNL A   1      40.057  31.369  29.952  1.00  0.00     0.031 C 
ATOM     43  C   UNL A   1      39.393  26.787  27.976  1.00  0.00     0.029 A 
ATOM     44  N   UNL A   1      41.447  27.306  28.690  1.00  0.00    -0.354 N 
ATOM     45  C   UNL A   1      42.303  31.213  30.355  1.00  0.00     0.074 A 
ATOM     46  C   UNL A   1      41.117  32.040  30.383  1.00  0.00     0.031 C 
ATOM     47  C   UNL A   1      40.169  25.705  27.791  1.00  0.00     0.029 A 
ATOM     48  C   UNL A   1      41.527  26.012  28.230  1.00  0.00     0.049 A 
ATOM     49  H   UNL A   1      42.218  27.795  29.060  1.00  0.00     0.167 HD
ATOM     50  C   UNL A   1      43.508  31.592  30.840  1.00  0.00     0.037 A 
ATOM     51  C   UNL A   1      42.579  25.172  28.169  1.00  0.00     0.037 A 
ATOM     52  C   UNL A   1      44.682  30.760  30.825  1.00  0.00     0.049 A 
ATOM     53  C   UNL A   1      43.922  25.642  28.662  1.00  0.00     0.074 A 
ATOM     54  C   UNL A   1      45.950  31.052  31.296  1.00  0.00     0.029 A 
ATOM     55  N   UNL A   1      44.730  29.467  30.324  1.00  0.00    -0.354 N 
ATOM     56  N   UNL A   1      44.246  26.792  29.204  1.00  0.00    -0.248 NA
ATOM     57  C   UNL A   1      45.044  24.702  28.531  1.00  0.00     0.031 C 
ATOM     58  C   UNL A   1      46.772  29.947  31.054  1.00  0.00     0.029 A 
ATOM     59  C   UNL A   1      46.006  28.951  30.468  1.00  0.00     0.049 A 
ATOM     60  H   UNL A   1      43.968  28.987  29.926  1.00  0.00     0.167 HD
ATOM     61  C   UNL A   1      45.600  26.703  29.505  1.00  0.00     0.074 A 
ATOM     62  C   UNL A   1      46.032  25.381  29.097  1.00  0.00     0.031 C 
ATOM     63  C   UNL A   1      46.415  27.629  30.067  1.00  0.00     0.037 A 
BRANCH  50  64
ATOM     64  C   UNL A   1      43.615  32.957  31.460  1.00  0.00     0.058 A 
ATOM     65  C   UNL A   1      43.426  33.143  32.838  1.00  0.00     0.135 A 
ATOM     66  C   UNL A   1      43.974  34.074  30.690  1.00  0.00     0.135 A 
ATOM     67  F   UNL A   1      43.062  32.112  33.617  1.00  0.00    -0.206 F 
ATOM     68  C   UNL A   1      43.579  34.392  33.431  1.00  0.00     0.059 A 
ATOM     69  C   UNL A   1      44.157  35.329  31.266  1.00  0.00     0.059 A 
ATOM     70  F   UNL A   1      44.161  33.952  29.366  1.00  0.00    -0.206 F 
ATOM     71  C   UNL A   1      43.952  35.477  32.638  1.00  0.00     0.060 A 
BRANCH  71  72
ATOM     72  S   UNL A   1      44.182  37.082  33.433  1.00  0.00     0.124 S 
ATOM     73  O   UNL A   1      43.036  37.128  34.335  1.00  0.00    -0.237 OA
ATOM     74  O   UNL A   1      45.485  36.926  34.072  1.00  0.00    -0.237 OA
ATOM     75  O   UNL A   1      44.141  38.024  32.319  1.00  0.00    -0.744 OA
ENDBRANCH  71  72
ENDBRANCH  50  64
BRANCH  51  76
ATOM     76  C   UNL A   1      42.411  23.790  27.646  1.00  0.00     0.058 A 
ATOM     77  C   UNL A   1      42.343  22.697  28.523  1.00  0.00     0.135 A 
ATOM     78  C   UNL A   1      42.332  23.528  26.269  1.00  0.00     0.135 A 
ATOM     79  F   UNL A   1      42.421  22.896  29.848  1.00  0.00    -0.206 F 
ATOM     80  C   UNL A   1      42.228  21.391  28.057  1.00  0.00     0.059 A 
ATOM     81  C   UNL A   1      42.193  22.232  25.779  1.00  0.00     0.059 A 
ATOM     82  F   UNL A   1      42.376  24.538  25.388  1.00  0.00    -0.206 F 
ATOM     83  C   UNL A   1      42.157  21.169  26.680  1.00  0.00     0.060 A 
BRANCH  83  84
ATOM     84  S   UNL A   1      41.985  19.472  26.087  1.00  0.00     0.124 S 
ATOM     85  O   UNL A   1      40.558  19.405  25.797  1.00  0.00    -0.237 OA
ATOM     86  O   UNL A   1      42.874  19.461  24.930  1.00  0.00    -0.237 OA
ATOM     87  O   UNL A   1      42.437  18.673  27.223  1.00  0.00    -0.744 OA
ENDBRANCH  83  84
ENDBRANCH  51  76
BRANCH  63  88
ATOM     88  C   UNL A   1      47.847  27.242  30.302  1.00  0.00     0.058 A 
ATOM     89  C   UNL A   1      48.849  27.529  29.362  1.00  0.00     0.135 A 
ATOM     90  C   UNL A   1      48.231  26.631  31.507  1.00  0.00     0.135 A 
ATOM     91  F   UNL A   1      48.532  28.107  28.192  1.00  0.00    -0.206 F 
ATOM     92  C   UNL A   1      50.180  27.207  29.600  1.00  0.00     0.059 A 
ATOM     93  C   UNL A   1      49.561  26.324  31.776  1.00  0.00     0.059 A 
ATOM     94  F   UNL A   1      47.313  26.345  32.443  1.00  0.00    -0.206 F 
ATOM     95  C   UNL A   1      50.528  26.607  30.812  1.00  0.00     0.060 A 
BRANCH  95  96
ATOM     96  S   UNL A   1      52.265  26.230  31.121  1.00  0.00     0.124 S 
ATOM     97  O   UNL A   1      52.670  27.361  31.948  1.00  0.00    -0.237 OA
ATOM     98  O   UNL A   1      52.187  24.941  31.802  1.00  0.00    -0.237 OA
ATOM     99  O   UNL A   1      52.848  26.190  29.782  1.00  0.00    -0.744 OA
ENDBRANCH  95  96
ENDBRANCH  63  88
ENDBRANCH  37  38
ENDBRANCH  29  32
ENDBRANCH  27  28
ENDBRANCH  26  27
ENDBRANCH   1  26
TORSDOF 18
ENDMDL
MODEL 2
REMARK VINA RESULT:     -10.7      2.679      3.535
REMARK SMILES Cn1nc(N2CCC(CC(=O)NCCCCCCNC(=O)c3ccc(-c4c5nc(c(-c6c(F)cc(S(=O)(=O)[O-])cc6F)c6ccc([nH]6)c(-c6c(F)cc(S(=O)(=O)[O-])cc6F)c6nc(c(-c7c(F)cc(S(=O)(=O)[O-])cc7F)c7ccc4[nH]7)C=C6)C=C5)cc3)CC2)c(=O)n(C)c1=O
REMARK SMILES IDX 16 1 15 2 14 3 13 4 12 5 10 6 11 7 9 9 8 10 5 11 6 12 89 13
REMARK SMILES IDX 7 14 88 15 4 16 1 17 2 18 3 19 94 20 92 21 95 22 90 23 93 24
REMARK SMILES IDX 91 25 17 26 18 27 19 28 20 29 21 31 22 32 23 33 87 34 24 35
REMARK SMILES IDX 86 36 25 37 26 38 27 39 80 40 28 41 85 42 79 43 81 44 29 45
REMARK SMILES IDX 84 46 78 47 77 48 30 50 64 51 43 52 63 53 44 54 47 55 62 56
REMARK SMILES IDX 82 57 45 58 46 59 61 61 83 62 48 63 31 64 32 65 41 66 33 67
REMARK SMILES IDX 34 68 40 69 42 70 35 71 36 72 37 73 38 74 39 75 65 76 66 77
REMARK SMILES IDX 75 78 67 79 68 80 74 81 76 82 69 83 70 84 71 85 72 86 73 87
REMARK SMILES IDX 49 88 50 89 59 90 51 91 52 92 58 93 60 94 53 95 54 96 55 97
REMARK SMILES IDX 56 98 57 99
REMARK H PARENT 12 8 19 30 81 49 47 60
REMARK Flexibility Score: inf
ROOT
ATOM      1  C   UNL A   1      34.335  28.954  27.360  1.00  0.00     0.002 C 
ENDROOT
BRANCH   1   2
ATOM      2  C   UNL A   1      34.035  28.234  26.045  1.00  0.00     0.002 C 
BRANCH   2   3
ATOM      3  C   UNL A   1      33.288  29.069  25.007  1.00  0.00     0.021 C 
BRANCH   3   4
ATOM      4  C   UNL A   1      33.007  28.350  23.681  1.00  0.00     0.116 C 
BRANCH   4   5
ATOM      5  N   UNL A   1      31.585  28.374  23.377  1.00  0.00    -0.356 N 
ATOM      6  C   UNL A   1      30.542  27.691  23.930  1.00  0.00     0.220 C 
ATOM      7  O   UNL A   1      29.432  27.797  23.405  1.00  0.00    -0.275 OA
ATOM      8  H   UNL A   1      31.332  28.988  22.649  1.00  0.00     0.163 HD
BRANCH   6   9
ATOM      9  C   UNL A   1      30.732  26.828  25.168  1.00  0.00     0.103 C 
BRANCH   9  10
ATOM     10  C   UNL A   1      30.485  25.320  24.941  1.00  0.00     0.002 C 
ATOM     11  N   UNL A   1      31.757  22.734  24.822  1.00  0.00    -0.351 N 
ATOM     12  C   UNL A   1      31.322  23.314  23.573  1.00  0.00     0.118 C 
ATOM     13  C   UNL A   1      30.907  23.006  25.967  1.00  0.00     0.118 C 
ATOM     14  C   UNL A   1      31.262  24.821  23.717  1.00  0.00     0.025 C 
ATOM     15  C   UNL A   1      30.868  24.520  26.206  1.00  0.00     0.025 C 
BRANCH  11  16
ATOM     16  C   UNL A   1      32.982  22.099  24.935  1.00  0.00     0.215 A 
ATOM     17  C   UNL A   1      36.456  22.886  25.445  1.00  0.00     0.180 C 
ATOM     18  N   UNL A   1      35.268  22.093  25.180  1.00  0.00    -0.216 N 
ATOM     19  N   UNL A   1      34.084  22.777  25.087  1.00  0.00    -0.145 NA
ATOM     20  C   UNL A   1      35.417  20.716  25.028  1.00  0.00     0.346 A 
ATOM     21  N   UNL A   1      34.261  20.000  24.792  1.00  0.00    -0.259 N 
ATOM     22  O   UNL A   1      36.518  20.169  25.118  1.00  0.00    -0.246 OA
ATOM     23  C   UNL A   1      33.011  20.574  24.825  1.00  0.00     0.299 A 
ATOM     24  C   UNL A   1      34.337  18.578  24.541  1.00  0.00     0.159 C 
ATOM     25  O   UNL A   1      31.950  19.960  24.745  1.00  0.00    -0.265 OA
ENDBRANCH  11  16
ENDBRANCH   9  10
ENDBRANCH   6   9
ENDBRANCH   4   5
ENDBRANCH   3   4
ENDBRANCH   2   3
ENDBRANCH   1   2
BRANCH   1  26
ATOM     26  C   UNL A   1      34.421  30.481  27.275  1.00  0.00     0.021 C 
BRANCH  26  27
ATOM     27  C   UNL A   1      35.608  31.110  28.003  1.00  0.00     0.116 C 
BRANCH  27  28
ATOM     28  N   UNL A   1      35.494  30.978  29.445  1.00  0.00    -0.352 N 
ATOM     29  C   UNL A   1      36.333  30.351  30.334  1.00  0.00     0.251 C 
ATOM     30  H   UNL A   1      34.699  31.399  29.845  1.00  0.00     0.163 HD
ATOM     31  O   UNL A   1      35.957  30.133  31.480  1.00  0.00    -0.269 OA
BRANCH  29  32
ATOM     32  C   UNL A   1      37.685  29.933  29.904  1.00  0.00     0.039 A 
ATOM     33  C   UNL A   1      38.036  30.053  28.558  1.00  0.00     0.014 A 
ATOM     34  C   UNL A   1      38.590  29.392  30.824  1.00  0.00     0.014 A 
ATOM     35  C   UNL A   1      39.315  29.675  28.140  1.00  0.00     0.010 A 
ATOM     36  C   UNL A   1      39.883  29.072  30.417  1.00  0.00     0.010 A 
ATOM     37  C   UNL A   1      40.255  29.201  29.071  1.00  0.00    -0.014 A 
BRANCH  37  38
ATOM     38  C   UNL A   1      41.620  28.803  28.647  1.00  0.00     0.031 A 
ATOM     39  C   UNL A   1      42.725  29.825  28.631  1.00  0.00     0.074 A 
ATOM     40  C   UNL A   1      41.860  27.536  28.255  1.00  0.00     0.049 A 
ATOM     41  N   UNL A   1      43.963  29.698  28.231  1.00  0.00    -0.248 NA
ATOM     42  C   UNL A   1      42.388  31.174  29.116  1.00  0.00     0.031 C 
ATOM     43  C   UNL A   1      40.869  26.459  28.220  1.00  0.00     0.029 A 
ATOM     44  N   UNL A   1      43.013  26.938  27.812  1.00  0.00    -0.354 N 
ATOM     45  C   UNL A   1      44.554  30.941  28.420  1.00  0.00     0.074 A 
ATOM     46  C   UNL A   1      43.523  31.828  28.914  1.00  0.00     0.031 C 
ATOM     47  C   UNL A   1      41.464  25.325  27.813  1.00  0.00     0.029 A 
ATOM     48  C   UNL A   1      42.867  25.602  27.517  1.00  0.00     0.049 A 
ATOM     49  H   UNL A   1      43.867  27.421  27.715  1.00  0.00     0.167 HD
ATOM     50  C   UNL A   1      45.844  31.303  28.231  1.00  0.00     0.037 A 
ATOM     51  C   UNL A   1      43.763  24.707  27.061  1.00  0.00     0.037 A 
ATOM     52  C   UNL A   1      46.870  30.413  27.754  1.00  0.00     0.049 A 
ATOM     53  C   UNL A   1      45.179  25.153  26.802  1.00  0.00     0.074 A 
ATOM     54  C   UNL A   1      48.209  30.684  27.533  1.00  0.00     0.029 A 
ATOM     55  N   UNL A   1      46.676  29.076  27.440  1.00  0.00    -0.354 N 
ATOM     56  N   UNL A   1      45.720  26.333  26.992  1.00  0.00    -0.248 NA
ATOM     57  C   UNL A   1      46.104  24.147  26.262  1.00  0.00     0.031 C 
ATOM     58  C   UNL A   1      48.818  29.519  27.056  1.00  0.00     0.029 A 
ATOM     59  C   UNL A   1      47.867  28.512  27.019  1.00  0.00     0.049 A 
ATOM     60  H   UNL A   1      45.817  28.600  27.507  1.00  0.00     0.167 HD
ATOM     61  C   UNL A   1      47.054  26.203  26.624  1.00  0.00     0.074 A 
ATOM     62  C   UNL A   1      47.241  24.826  26.211  1.00  0.00     0.031 C 
ATOM     63  C   UNL A   1      48.036  27.136  26.624  1.00  0.00     0.037 A 
BRANCH  50  64
ATOM     64  C   UNL A   1      46.232  32.716  28.568  1.00  0.00     0.058 A 
ATOM     65  C   UNL A   1      46.076  33.752  27.633  1.00  0.00     0.135 A 
ATOM     66  C   UNL A   1      46.697  33.052  29.849  1.00  0.00     0.135 A 
ATOM     67  F   UNL A   1      45.654  33.482  26.388  1.00  0.00    -0.206 F 
ATOM     68  C   UNL A   1      46.377  35.071  27.953  1.00  0.00     0.059 A 
ATOM     69  C   UNL A   1      46.981  34.370  30.199  1.00  0.00     0.059 A 
ATOM     70  F   UNL A   1      46.869  32.099  30.778  1.00  0.00    -0.206 F 
ATOM     71  C   UNL A   1      46.822  35.371  29.242  1.00  0.00     0.060 A 
BRANCH  71  72
ATOM     72  S   UNL A   1      47.171  37.095  29.648  1.00  0.00     0.124 S 
ATOM     73  O   UNL A   1      48.282  37.389  28.747  1.00  0.00    -0.237 OA
ATOM     74  O   UNL A   1      45.907  37.751  29.328  1.00  0.00    -0.237 OA
ATOM     75  O   UNL A   1      47.511  37.050  31.067  1.00  0.00    -0.744 OA
ENDBRANCH  71  72
ENDBRANCH  50  64
BRANCH  51  76
ATOM     76  C   UNL A   1      43.369  23.290  26.839  1.00  0.00     0.058 A 
ATOM     77  C   UNL A   1      43.224  22.410  27.923  1.00  0.00     0.135 A 
ATOM     78  C   UNL A   1      43.144  22.781  25.550  1.00  0.00     0.135 A 
ATOM     79  F   UNL A   1      43.435  22.848  29.173  1.00  0.00    -0.206 F 
ATOM     80  C   UNL A   1      42.897  21.071  27.738  1.00  0.00     0.059 A 
ATOM     81  C   UNL A   1      42.792  21.450  25.342  1.00  0.00     0.059 A 
ATOM     82  F   UNL A   1      43.253  23.584  24.481  1.00  0.00    -0.206 F 
ATOM     83  C   UNL A   1      42.685  20.600  26.441  1.00  0.00     0.060 A 
BRANCH  83  84
ATOM     84  S   UNL A   1      42.239  18.864  26.215  1.00  0.00     0.124 S 
ATOM     85  O   UNL A   1      40.875  18.975  25.711  1.00  0.00    -0.237 OA
ATOM     86  O   UNL A   1      43.240  18.413  25.255  1.00  0.00    -0.237 OA
ATOM     87  O   UNL A   1      42.372  18.307  27.558  1.00  0.00    -0.744 OA
ENDBRANCH  83  84
ENDBRANCH  51  76
BRANCH  63  88
ATOM     88  C   UNL A   1      49.408  26.700  26.194  1.00  0.00     0.058 A 
ATOM     89  C   UNL A   1      49.903  26.990  24.913  1.00  0.00     0.135 A 
ATOM     90  C   UNL A   1      50.260  26.038  27.093  1.00  0.00     0.135 A 
ATOM     91  F   UNL A   1      49.125  27.615  24.014  1.00  0.00    -0.206 F 
ATOM     92  C   UNL A   1      51.187  26.621  24.531  1.00  0.00     0.059 A 
ATOM     93  C   UNL A   1      51.559  25.684  26.741  1.00  0.00     0.059 A 
ATOM     94  F   UNL A   1      49.839  25.748  28.335  1.00  0.00    -0.206 F 
ATOM     95  C   UNL A   1      52.010  25.971  25.454  1.00  0.00     0.060 A 
BRANCH  95  96
ATOM     96  S   UNL A   1      53.688  25.533  24.955  1.00  0.00     0.124 S 
ATOM     97  O   UNL A   1      53.603  25.646  23.503  1.00  0.00    -0.237 OA
ATOM     98  O   UNL A   1      54.488  26.554  25.624  1.00  0.00    -0.237 OA
ATOM     99  O   UNL A   1      53.854  24.177  25.471  1.00  0.00    -0.744 OA
ENDBRANCH  95  96
ENDBRANCH  63  88
ENDBRANCH  37  38
ENDBRANCH  29  32
ENDBRANCH  27  28
ENDBRANCH  26  27
ENDBRANCH   1  26
TORSDOF 18
ENDMDL
MODEL 3
REMARK VINA RESULT:     -10.7      3.046      4.439
REMARK SMILES Cn1nc(N2CCC(CC(=O)NCCCCCCNC(=O)c3ccc(-c4c5nc(c(-c6c(F)cc(S(=O)(=O)[O-])cc6F)c6ccc([nH]6)c(-c6c(F)cc(S(=O)(=O)[O-])cc6F)c6nc(c(-c7c(F)cc(S(=O)(=O)[O-])cc7F)c7ccc4[nH]7)C=C6)C=C5)cc3)CC2)c(=O)n(C)c1=O
REMARK SMILES IDX 16 1 15 2 14 3 13 4 12 5 10 6 11 7 9 9 8 10 5 11 6 12 89 13
REMARK SMILES IDX 7 14 88 15 4 16 1 17 2 18 3 19 94 20 92 21 95 22 90 23 93 24
REMARK SMILES IDX 91 25 17 26 18 27 19 28 20 29 21 31 22 32 23 33 87 34 24 35
REMARK SMILES IDX 86 36 25 37 26 38 27 39 80 40 28 41 85 42 79 43 81 44 29 45
REMARK SMILES IDX 84 46 78 47 77 48 30 50 64 51 43 52 63 53 44 54 47 55 62 56
REMARK SMILES IDX 82 57 45 58 46 59 61 61 83 62 48 63 31 64 32 65 41 66 33 67
REMARK SMILES IDX 34 68 40 69 42 70 35 71 36 72 37 73 38 74 39 75 65 76 66 77
REMARK SMILES IDX 75 78 67 79 68 80 74 81 76 82 69 83 70 84 71 85 72 86 73 87
REMARK SMILES IDX 49 88 50 89 59 90 51 91 52 92 58 93 60 94 53 95 54 96 55 97
REMARK SMILES IDX 56 98 57 99
REMARK H PARENT 12 8 19 30 81 49 47 60
REMARK Flexibility Score: inf
ROOT
ATOM      1  C   UNL A   1      35.708  33.890  29.207  1.00  0.00     0.002 C 
ENDROOT
BRANCH   1   2
ATOM      2  C   UNL A   1      35.420  32.921  28.061  1.00  0.00     0.002 C 
BRANCH   2   3
ATOM      3  C   UNL A   1      34.440  31.798  28.394  1.00  0.00     0.021 C 
BRANCH   3   4
ATOM      4  C   UNL A   1      34.334  30.697  27.331  1.00  0.00     0.116 C 
BRANCH   4   5
ATOM      5  N   UNL A   1      33.335  29.711  27.714  1.00  0.00    -0.356 N 
ATOM      6  C   UNL A   1      32.149  29.370  27.133  1.00  0.00     0.220 C 
ATOM      7  O   UNL A   1      31.416  28.577  27.727  1.00  0.00    -0.275 OA
ATOM      8  H   UNL A   1      33.552  29.202  28.529  1.00  0.00     0.163 HD
BRANCH   6   9
ATOM      9  C   UNL A   1      31.739  29.938  25.783  1.00  0.00     0.103 C 
BRANCH   9  10
ATOM     10  C   UNL A   1      32.041  29.016  24.582  1.00  0.00     0.002 C 
ATOM     11  N   UNL A   1      32.105  26.270  23.700  1.00  0.00    -0.351 N 
ATOM     12  C   UNL A   1      33.374  26.922  23.920  1.00  0.00     0.118 C 
ATOM     13  C   UNL A   1      31.051  27.116  23.169  1.00  0.00     0.118 C 
ATOM     14  C   UNL A   1      33.187  28.053  24.912  1.00  0.00     0.025 C 
ATOM     15  C   UNL A   1      30.768  28.242  24.170  1.00  0.00     0.025 C 
BRANCH  11  16
ATOM     16  C   UNL A   1      31.878  24.970  24.118  1.00  0.00     0.215 A 
ATOM     17  C   UNL A   1      30.505  23.176  26.919  1.00  0.00     0.180 C 
ATOM     18  N   UNL A   1      31.173  23.407  25.650  1.00  0.00    -0.216 N 
ATOM     19  N   UNL A   1      31.361  24.715  25.286  1.00  0.00    -0.145 NA
ATOM     20  C   UNL A   1      31.581  22.299  24.911  1.00  0.00     0.346 A 
ATOM     21  N   UNL A   1      32.198  22.564  23.705  1.00  0.00    -0.259 N 
ATOM     22  O   UNL A   1      31.384  21.148  25.306  1.00  0.00    -0.246 OA
ATOM     23  C   UNL A   1      32.303  23.833  23.186  1.00  0.00     0.299 A 
ATOM     24  C   UNL A   1      32.725  21.473  22.914  1.00  0.00     0.159 C 
ATOM     25  O   UNL A   1      32.729  24.106  22.068  1.00  0.00    -0.265 OA
ENDBRANCH  11  16
ENDBRANCH   9  10
ENDBRANCH   6   9
ENDBRANCH   4   5
ENDBRANCH   3   4
ENDBRANCH   2   3
ENDBRANCH   1   2
BRANCH   1  26
ATOM     26  C   UNL A   1      37.162  33.938  29.687  1.00  0.00     0.021 C 
BRANCH  26  27
ATOM     27  C   UNL A   1      37.385  33.519  31.140  1.00  0.00     0.116 C 
BRANCH  27  28
ATOM     28  N   UNL A   1      36.606  32.345  31.492  1.00  0.00    -0.352 N 
ATOM     29  C   UNL A   1      36.835  31.024  31.195  1.00  0.00     0.251 C 
ATOM     30  H   UNL A   1      35.795  32.520  32.022  1.00  0.00     0.163 HD
ATOM     31  O   UNL A   1      35.948  30.195  31.369  1.00  0.00    -0.269 OA
BRANCH  29  32
ATOM     32  C   UNL A   1      38.148  30.604  30.659  1.00  0.00     0.039 A 
ATOM     33  C   UNL A   1      39.175  30.286  31.550  1.00  0.00     0.014 A 
ATOM     34  C   UNL A   1      38.373  30.560  29.279  1.00  0.00     0.014 A 
ATOM     35  C   UNL A   1      40.416  29.875  31.058  1.00  0.00     0.010 A 
ATOM     36  C   UNL A   1      39.591  30.094  28.790  1.00  0.00     0.010 A 
ATOM     37  C   UNL A   1      40.627  29.756  29.674  1.00  0.00    -0.014 A 
BRANCH  37  38
ATOM     38  C   UNL A   1      41.936  29.313  29.132  1.00  0.00     0.031 A 
ATOM     39  C   UNL A   1      43.083  30.285  29.065  1.00  0.00     0.074 A 
ATOM     40  C   UNL A   1      42.086  28.052  28.681  1.00  0.00     0.049 A 
ATOM     41  N   UNL A   1      44.280  30.118  28.566  1.00  0.00    -0.248 NA
ATOM     42  C   UNL A   1      42.848  31.629  29.620  1.00  0.00     0.031 C 
ATOM     43  C   UNL A   1      41.045  27.022  28.687  1.00  0.00     0.029 A 
ATOM     44  N   UNL A   1      43.172  27.421  28.129  1.00  0.00    -0.354 N 
ATOM     45  C   UNL A   1      44.941  31.326  28.751  1.00  0.00     0.074 A 
ATOM     46  C   UNL A   1      43.994  32.239  29.353  1.00  0.00     0.031 C 
ATOM     47  C   UNL A   1      41.554  25.879  28.196  1.00  0.00     0.029 A 
ATOM     48  C   UNL A   1      42.942  26.104  27.803  1.00  0.00     0.049 A 
ATOM     49  H   UNL A   1      44.038  27.868  27.983  1.00  0.00     0.167 HD
ATOM     50  C   UNL A   1      46.229  31.637  28.475  1.00  0.00     0.037 A 
ATOM     51  C   UNL A   1      43.758  25.188  27.248  1.00  0.00     0.037 A 
ATOM     52  C   UNL A   1      47.173  30.721  27.891  1.00  0.00     0.049 A 
ATOM     53  C   UNL A   1      45.169  25.580  26.895  1.00  0.00     0.074 A 
ATOM     54  C   UNL A   1      48.503  30.941  27.575  1.00  0.00     0.029 A 
ATOM     55  N   UNL A   1      46.892  29.407  27.548  1.00  0.00    -0.354 N 
ATOM     56  N   UNL A   1      45.778  26.727  27.083  1.00  0.00    -0.248 NA
ATOM     57  C   UNL A   1      46.002  24.555  26.252  1.00  0.00     0.031 C 
ATOM     58  C   UNL A   1      49.018  29.768  27.013  1.00  0.00     0.029 A 
ATOM     59  C   UNL A   1      48.021  28.806  27.016  1.00  0.00     0.049 A 
ATOM     60  H   UNL A   1      46.020  28.966  27.665  1.00  0.00     0.167 HD
ATOM     61  C   UNL A   1      47.072  26.552  26.608  1.00  0.00     0.074 A 
ATOM     62  C   UNL A   1      47.163  25.185  26.136  1.00  0.00     0.031 C 
ATOM     63  C   UNL A   1      48.095  27.440  26.563  1.00  0.00     0.037 A 
BRANCH  50  64
ATOM     64  C   UNL A   1      46.707  33.018  28.828  1.00  0.00     0.058 A 
ATOM     65  C   UNL A   1      47.406  33.259  30.021  1.00  0.00     0.135 A 
ATOM     66  C   UNL A   1      46.528  34.093  27.944  1.00  0.00     0.135 A 
ATOM     67  F   UNL A   1      47.588  32.271  30.910  1.00  0.00    -0.206 F 
ATOM     68  C   UNL A   1      47.903  34.520  30.330  1.00  0.00     0.059 A 
ATOM     69  C   UNL A   1      47.038  35.359  28.222  1.00  0.00     0.059 A 
ATOM     70  F   UNL A   1      45.861  33.918  26.792  1.00  0.00    -0.206 F 
ATOM     71  C   UNL A   1      47.720  35.563  29.421  1.00  0.00     0.060 A 
BRANCH  71  72
ATOM     72  S   UNL A   1      48.405  37.184  29.825  1.00  0.00     0.124 S 
ATOM     73  O   UNL A   1      48.972  36.941  31.148  1.00  0.00    -0.237 OA
ATOM     74  O   UNL A   1      49.372  37.387  28.750  1.00  0.00    -0.237 OA
ATOM     75  O   UNL A   1      47.241  38.064  29.794  1.00  0.00    -0.744 OA
ENDBRANCH  71  72
ENDBRANCH  50  64
BRANCH  51  76
ATOM     76  C   UNL A   1      43.281  23.799  27.010  1.00  0.00     0.058 A 
ATOM     77  C   UNL A   1      43.128  22.903  28.079  1.00  0.00     0.135 A 
ATOM     78  C   UNL A   1      42.985  23.333  25.719  1.00  0.00     0.135 A 
ATOM     79  F   UNL A   1      43.405  23.299  29.330  1.00  0.00    -0.206 F 
ATOM     80  C   UNL A   1      42.725  21.587  27.877  1.00  0.00     0.059 A 
ATOM     81  C   UNL A   1      42.556  22.027  25.495  1.00  0.00     0.059 A 
ATOM     82  F   UNL A   1      43.099  24.154  24.665  1.00  0.00    -0.206 F 
ATOM     83  C   UNL A   1      42.443  21.158  26.579  1.00  0.00     0.060 A 
BRANCH  83  84
ATOM     84  S   UNL A   1      41.897  19.454  26.331  1.00  0.00     0.124 S 
ATOM     85  O   UNL A   1      40.452  19.620  26.231  1.00  0.00    -0.237 OA
ATOM     86  O   UNL A   1      42.586  19.088  25.098  1.00  0.00    -0.237 OA
ATOM     87  O   UNL A   1      42.373  18.773  27.532  1.00  0.00    -0.744 OA
ENDBRANCH  83  84
ENDBRANCH  51  76
BRANCH  63  88
ATOM     88  C   UNL A   1      49.408  26.960  26.014  1.00  0.00     0.058 A 
ATOM     89  C   UNL A   1      49.744  27.129  24.662  1.00  0.00     0.135 A 
ATOM     90  C   UNL A   1      50.364  26.378  26.862  1.00  0.00     0.135 A 
ATOM     91  F   UNL A   1      48.862  27.674  23.810  1.00  0.00    -0.206 F 
ATOM     92  C   UNL A   1      50.976  26.721  24.165  1.00  0.00     0.059 A 
ATOM     93  C   UNL A   1      51.614  25.987  26.391  1.00  0.00     0.059 A 
ATOM     94  F   UNL A   1      50.097  26.204  28.166  1.00  0.00    -0.206 F 
ATOM     95  C   UNL A   1      51.907  26.154  25.038  1.00  0.00     0.060 A 
BRANCH  95  96
ATOM     96  S   UNL A   1      53.516  25.664  24.384  1.00  0.00     0.124 S 
ATOM     97  O   UNL A   1      54.408  26.591  25.072  1.00  0.00    -0.237 OA
ATOM     98  O   UNL A   1      53.609  24.268  24.799  1.00  0.00    -0.237 OA
ATOM     99  O   UNL A   1      53.378  25.876  22.946  1.00  0.00    -0.744 OA
ENDBRANCH  95  96
ENDBRANCH  63  88
ENDBRANCH  37  38
ENDBRANCH  29  32
ENDBRANCH  27  28
ENDBRANCH  26  27
ENDBRANCH   1  26
TORSDOF 18
ENDMDL
