MODEL 1
REMARK VINA RESULT:     -12.2      0.000      0.000
REMARK SMILES C[C@@H]1CC[C@H](C)[N@H+]1Cc1cc2c(cc1Cl)C=C(C(=O)NCCCCCCNC(=O)c1ccc(-c3c4nc(c(-c5c(F)cc(S(=O)(=O)[O-])cc5F)c5ccc([nH]5)c(-c5c(F)cc(S(=O)(=O)[O-])cc5F)c5nc(c(-c6c(F)cc(S(=O)(=O)[O-])cc6F)c6ccc3[nH]6)C=C5)C=C4)cc1)[C@@H](C(F)(F)F)O2
REMARK SMILES IDX 24 1 23 2 22 3 21 4 20 5 18 6 19 7 17 9 9 10 10 11 14 12
REMARK SMILES IDX 11 13 13 14 15 15 12 16 101 17 16 18 96 19 8 20 7 21 6 22
REMARK SMILES IDX 5 23 4 24 3 25 2 26 1 28 97 29 98 30 99 31 100 32 25 33
REMARK SMILES IDX 26 34 27 35 28 36 29 38 30 39 31 40 95 41 32 42 94 43 33 44
REMARK SMILES IDX 34 45 35 46 88 47 36 48 93 49 87 50 89 51 37 52 92 53 86 54
REMARK SMILES IDX 85 55 38 57 72 58 51 59 71 60 52 61 55 62 70 63 90 64 53 65
REMARK SMILES IDX 54 66 69 68 91 69 56 70 39 71 40 72 49 73 41 74 42 75 48 76
REMARK SMILES IDX 50 77 43 78 44 79 45 80 46 81 47 82 73 83 74 84 83 85 75 86
REMARK SMILES IDX 76 87 82 88 84 89 77 90 78 91 79 92 80 93 81 94 57 95 58 96
REMARK SMILES IDX 67 97 59 98 60 99 66 100 68 101 61 102 62 103 63 104 64 105
REMARK SMILES IDX 65 106
REMARK H PARENT 20 8 7 27 27 37 89 56 55 67
REMARK Flexibility Score: inf
ROOT
ATOM      1  C   UNL A   1      33.390  28.695  27.030  1.00  0.00     0.002 C 
ENDROOT
BRANCH   1   2
ATOM      2  C   UNL A   1      31.991  28.954  26.453  1.00  0.00     0.002 C 
BRANCH   2   3
ATOM      3  C   UNL A   1      31.955  29.791  25.171  1.00  0.00     0.021 C 
BRANCH   3   4
ATOM      4  C   UNL A   1      30.594  30.416  24.880  1.00  0.00     0.116 C 
BRANCH   4   5
ATOM      5  N   UNL A   1      30.218  30.234  23.490  1.00  0.00    -0.352 N 
ATOM      6  C   UNL A   1      30.219  29.229  22.587  1.00  0.00     0.251 C 
ATOM      7  O   UNL A   1      29.782  29.529  21.470  1.00  0.00    -0.270 OA
ATOM      8  H   UNL A   1      29.870  31.068  23.100  1.00  0.00     0.163 HD
BRANCH   6   9
ATOM      9  C   UNL A   1      30.694  27.840  22.840  1.00  0.00     0.067 C 
ATOM     10  C   UNL A   1      31.184  23.139  24.632  1.00  0.00     0.029 A 
ATOM     11  C   UNL A   1      31.528  23.783  23.429  1.00  0.00     0.058 A 
ATOM     12  C   UNL A   1      30.656  23.930  25.666  1.00  0.00     0.050 A 
ATOM     13  C   UNL A   1      31.240  25.129  23.233  1.00  0.00     0.128 A 
ATOM     14  C   UNL A   1      30.309  25.268  25.440  1.00  0.00     0.033 A 
ATOM     15  Cl  UNL A   1      30.461  23.350  27.284  1.00  0.00    -0.084 Cl
ATOM     16  C   UNL A   1      30.573  25.862  24.209  1.00  0.00     0.019 A 
ATOM     17  O   UNL A   1      31.596  25.670  22.031  1.00  0.00    -0.475 OA
ATOM     18  C   UNL A   1      30.147  27.221  23.903  1.00  0.00     0.025 C 
ATOM     19  C   UNL A   1      31.738  27.120  22.030  1.00  0.00     0.314 C 
BRANCH  10  20
ATOM     20  C   UNL A   1      31.362  21.633  24.707  1.00  0.00     0.301 C 
BRANCH  20  21
ATOM     21  N   UNL A   1      32.667  21.103  24.273  1.00  0.00    -0.327 N 
ATOM     22  C   UNL A   1      32.479  18.987  22.989  1.00  0.00     0.075 C 
ATOM     23  C   UNL A   1      32.836  19.640  24.318  1.00  0.00     0.181 C 
ATOM     24  C   UNL A   1      34.303  19.417  24.682  1.00  0.00     0.071 C 
ATOM     25  C   UNL A   1      34.618  20.619  25.547  1.00  0.00     0.071 C 
ATOM     26  C   UNL A   1      33.839  21.744  24.879  1.00  0.00     0.181 C 
ATOM     27  H   UNL A   1      32.629  21.363  23.286  1.00  0.00     0.348 HD
ATOM     28  C   UNL A   1      34.645  22.436  23.780  1.00  0.00     0.075 C 
ENDBRANCH  20  21
ENDBRANCH  10  20
BRANCH  19  29
ATOM     29  C   UNL A   1      33.166  27.520  22.452  1.00  0.00     0.429 C 
ATOM     30  F   UNL A   1      33.345  27.328  23.780  1.00  0.00    -0.167 F 
ATOM     31  F   UNL A   1      34.109  26.779  21.823  1.00  0.00    -0.167 F 
ATOM     32  F   UNL A   1      33.446  28.815  22.184  1.00  0.00    -0.167 F 
ENDBRANCH  19  29
ENDBRANCH   6   9
ENDBRANCH   4   5
ENDBRANCH   3   4
ENDBRANCH   2   3
ENDBRANCH   1   2
BRANCH   1  33
ATOM     33  C   UNL A   1      34.161  29.941  27.473  1.00  0.00     0.021 C 
BRANCH  33  34
ATOM     34  C   UNL A   1      35.455  29.655  28.223  1.00  0.00     0.116 C 
BRANCH  34  35
ATOM     35  N   UNL A   1      35.620  30.509  29.388  1.00  0.00    -0.352 N 
ATOM     36  C   UNL A   1      36.742  30.706  30.160  1.00  0.00     0.251 C 
ATOM     37  H   UNL A   1      34.821  31.015  29.661  1.00  0.00     0.163 HD
ATOM     38  O   UNL A   1      36.673  31.338  31.205  1.00  0.00    -0.269 OA
BRANCH  36  39
ATOM     39  C   UNL A   1      38.024  30.115  29.722  1.00  0.00     0.039 A 
ATOM     40  C   UNL A   1      38.954  29.669  30.665  1.00  0.00     0.014 A 
ATOM     41  C   UNL A   1      38.315  30.056  28.358  1.00  0.00     0.014 A 
ATOM     42  C   UNL A   1      40.231  29.304  30.251  1.00  0.00     0.010 A 
ATOM     43  C   UNL A   1      39.574  29.618  27.941  1.00  0.00     0.010 A 
ATOM     44  C   UNL A   1      40.556  29.281  28.886  1.00  0.00    -0.014 A 
BRANCH  44  45
ATOM     45  C   UNL A   1      41.930  28.909  28.460  1.00  0.00     0.031 A 
ATOM     46  C   UNL A   1      42.241  27.499  28.031  1.00  0.00     0.074 A 
ATOM     47  C   UNL A   1      42.891  29.852  28.434  1.00  0.00     0.049 A 
ATOM     48  N   UNL A   1      43.391  26.978  27.688  1.00  0.00    -0.248 NA
ATOM     49  C   UNL A   1      41.117  26.549  27.985  1.00  0.00     0.031 C 
ATOM     50  C   UNL A   1      42.705  31.256  28.812  1.00  0.00     0.029 A 
ATOM     51  N   UNL A   1      44.211  29.780  28.069  1.00  0.00    -0.354 N 
ATOM     52  C   UNL A   1      43.137  25.639  27.412  1.00  0.00     0.074 A 
ATOM     53  C   UNL A   1      41.725  25.421  27.641  1.00  0.00     0.031 C 
ATOM     54  C   UNL A   1      43.859  31.916  28.633  1.00  0.00     0.029 A 
ATOM     55  C   UNL A   1      44.880  30.974  28.190  1.00  0.00     0.049 A 
ATOM     56  H   UNL A   1      44.637  28.951  27.751  1.00  0.00     0.167 HD
ATOM     57  C   UNL A   1      44.004  24.684  26.998  1.00  0.00     0.037 A 
ATOM     58  C   UNL A   1      46.179  31.274  27.997  1.00  0.00     0.037 A 
ATOM     59  C   UNL A   1      45.402  24.917  26.740  1.00  0.00     0.049 A 
ATOM     60  C   UNL A   1      47.122  30.188  27.564  1.00  0.00     0.074 A 
ATOM     61  C   UNL A   1      46.354  24.019  26.290  1.00  0.00     0.029 A 
ATOM     62  N   UNL A   1      46.047  26.133  26.903  1.00  0.00    -0.354 N 
ATOM     63  N   UNL A   1      46.866  28.926  27.316  1.00  0.00    -0.248 NA
ATOM     64  C   UNL A   1      48.532  30.563  27.395  1.00  0.00     0.031 C 
ATOM     65  C   UNL A   1      47.583  24.682  26.216  1.00  0.00     0.029 A 
ATOM     66  C   UNL A   1      47.388  26.006  26.579  1.00  0.00     0.049 A 
ATOM     67  H   UNL A   1      45.616  26.966  27.203  1.00  0.00     0.167 HD
ATOM     68  C   UNL A   1      48.082  28.357  26.956  1.00  0.00     0.074 A 
ATOM     69  C   UNL A   1      49.067  29.418  26.995  1.00  0.00     0.031 C 
ATOM     70  C   UNL A   1      48.356  27.071  26.629  1.00  0.00     0.037 A 
BRANCH  57  71
ATOM     71  C   UNL A   1      43.480  23.288  26.801  1.00  0.00     0.058 A 
ATOM     72  C   UNL A   1      43.323  22.732  25.523  1.00  0.00     0.135 A 
ATOM     73  C   UNL A   1      43.212  22.468  27.911  1.00  0.00     0.135 A 
ATOM     74  F   UNL A   1      43.547  23.478  24.430  1.00  0.00    -0.206 F 
ATOM     75  C   UNL A   1      42.917  21.413  25.350  1.00  0.00     0.059 A 
ATOM     76  C   UNL A   1      42.824  21.140  27.761  1.00  0.00     0.059 A 
ATOM     77  F   UNL A   1      43.342  22.953  29.156  1.00  0.00    -0.206 F 
ATOM     78  C   UNL A   1      42.676  20.621  26.476  1.00  0.00     0.060 A 
BRANCH  78  79
ATOM     79  S   UNL A   1      42.188  18.900  26.231  1.00  0.00     0.124 S 
ATOM     80  O   UNL A   1      42.389  18.348  27.567  1.00  0.00    -0.237 OA
ATOM     81  O   UNL A   1      40.798  19.030  25.803  1.00  0.00    -0.237 OA
ATOM     82  O   UNL A   1      43.114  18.425  25.209  1.00  0.00    -0.744 OA
ENDBRANCH  78  79
ENDBRANCH  57  71
BRANCH  58  83
ATOM     83  C   UNL A   1      46.658  32.659  28.238  1.00  0.00     0.058 A 
ATOM     84  C   UNL A   1      47.205  33.030  29.473  1.00  0.00     0.135 A 
ATOM     85  C   UNL A   1      46.604  33.630  27.225  1.00  0.00     0.135 A 
ATOM     86  F   UNL A   1      47.271  32.139  30.474  1.00  0.00    -0.206 F 
ATOM     87  C   UNL A   1      47.679  34.318  29.700  1.00  0.00     0.059 A 
ATOM     88  C   UNL A   1      47.095  34.916  27.420  1.00  0.00     0.059 A 
ATOM     89  F   UNL A   1      46.103  33.319  26.020  1.00  0.00    -0.206 F 
ATOM     90  C   UNL A   1      47.623  35.254  28.665  1.00  0.00     0.060 A 
BRANCH  90  91
ATOM     91  S   UNL A   1      48.295  36.904  28.950  1.00  0.00     0.124 S 
ATOM     92  O   UNL A   1      48.649  37.315  27.596  1.00  0.00    -0.237 OA
ATOM     93  O   UNL A   1      47.160  37.598  29.552  1.00  0.00    -0.237 OA
ATOM     94  O   UNL A   1      49.418  36.659  29.850  1.00  0.00    -0.744 OA
ENDBRANCH  90  91
ENDBRANCH  58  83
BRANCH  70  95
ATOM     95  C   UNL A   1      49.779  26.742  26.277  1.00  0.00     0.058 A 
ATOM     96  C   UNL A   1      50.672  26.237  27.234  1.00  0.00     0.135 A 
ATOM     97  C   UNL A   1      50.241  26.891  24.959  1.00  0.00     0.135 A 
ATOM     98  F   UNL A   1      50.280  26.083  28.508  1.00  0.00    -0.206 F 
ATOM     99  C   UNL A   1      51.983  25.911  26.902  1.00  0.00     0.059 A 
ATOM    100  C   UNL A   1      51.541  26.549  24.600  1.00  0.00     0.059 A 
ATOM    101  F   UNL A   1      49.422  27.361  24.004  1.00  0.00    -0.206 F 
ATOM    102  C   UNL A   1      52.408  26.071  25.582  1.00  0.00     0.060 A 
BRANCH 102 103
ATOM    103  S   UNL A   1      54.104  25.622  25.160  1.00  0.00     0.124 S 
ATOM    104  O   UNL A   1      54.172  26.018  23.757  1.00  0.00    -0.237 OA
ATOM    105  O   UNL A   1      54.883  26.435  26.087  1.00  0.00    -0.237 OA
ATOM    106  O   UNL A   1      54.146  24.184  25.408  1.00  0.00    -0.744 OA
ENDBRANCH 102 103
ENDBRANCH  70  95
ENDBRANCH  44  45
ENDBRANCH  36  39
ENDBRANCH  34  35
ENDBRANCH  33  34
ENDBRANCH   1  33
TORSDOF 19
ENDMDL
MODEL 2
REMARK VINA RESULT:     -11.9      1.332      7.995
REMARK SMILES C[C@@H]1CC[C@H](C)[N@H+]1Cc1cc2c(cc1Cl)C=C(C(=O)NCCCCCCNC(=O)c1ccc(-c3c4nc(c(-c5c(F)cc(S(=O)(=O)[O-])cc5F)c5ccc([nH]5)c(-c5c(F)cc(S(=O)(=O)[O-])cc5F)c5nc(c(-c6c(F)cc(S(=O)(=O)[O-])cc6F)c6ccc3[nH]6)C=C5)C=C4)cc1)[C@@H](C(F)(F)F)O2
REMARK SMILES IDX 24 1 23 2 22 3 21 4 20 5 18 6 19 7 17 9 9 10 10 11 14 12
REMARK SMILES IDX 11 13 13 14 15 15 12 16 101 17 16 18 96 19 8 20 7 21 6 22
REMARK SMILES IDX 5 23 4 24 3 25 2 26 1 28 97 29 98 30 99 31 100 32 25 33
REMARK SMILES IDX 26 34 27 35 28 36 29 38 30 39 31 40 95 41 32 42 94 43 33 44
REMARK SMILES IDX 34 45 35 46 88 47 36 48 93 49 87 50 89 51 37 52 92 53 86 54
REMARK SMILES IDX 85 55 38 57 72 58 51 59 71 60 52 61 55 62 70 63 90 64 53 65
REMARK SMILES IDX 54 66 69 68 91 69 56 70 39 71 40 72 49 73 41 74 42 75 48 76
REMARK SMILES IDX 50 77 43 78 44 79 45 80 46 81 47 82 73 83 74 84 83 85 75 86
REMARK SMILES IDX 76 87 82 88 84 89 77 90 78 91 79 92 80 93 81 94 57 95 58 96
REMARK SMILES IDX 67 97 59 98 60 99 66 100 68 101 61 102 62 103 63 104 64 105
REMARK SMILES IDX 65 106
REMARK H PARENT 20 8 7 27 27 37 89 56 55 67
REMARK Flexibility Score: inf
ROOT
ATOM      1  C   UNL A   1      33.215  30.348  27.303  1.00  0.00     0.002 C 
ENDROOT
BRANCH   1   2
ATOM      2  C   UNL A   1      31.811  29.838  26.952  1.00  0.00     0.002 C 
BRANCH   2   3
ATOM      3  C   UNL A   1      31.225  30.378  25.644  1.00  0.00     0.021 C 
BRANCH   3   4
ATOM      4  C   UNL A   1      31.250  29.372  24.496  1.00  0.00     0.116 C 
BRANCH   4   5
ATOM      5  N   UNL A   1      32.558  29.319  23.872  1.00  0.00    -0.352 N 
ATOM      6  C   UNL A   1      33.427  28.365  23.471  1.00  0.00     0.251 C 
ATOM      7  O   UNL A   1      34.468  28.788  22.955  1.00  0.00    -0.270 OA
ATOM      8  H   UNL A   1      32.908  30.222  23.692  1.00  0.00     0.163 HD
BRANCH   6   9
ATOM      9  C   UNL A   1      33.220  26.896  23.607  1.00  0.00     0.067 C 
ATOM     10  C   UNL A   1      33.524  22.079  25.109  1.00  0.00     0.029 A 
ATOM     11  C   UNL A   1      32.528  22.869  24.506  1.00  0.00     0.058 A 
ATOM     12  C   UNL A   1      34.791  22.658  25.295  1.00  0.00     0.050 A 
ATOM     13  C   UNL A   1      32.758  24.209  24.218  1.00  0.00     0.128 A 
ATOM     14  C   UNL A   1      34.996  24.024  25.063  1.00  0.00     0.033 A 
ATOM     15  Cl  UNL A   1      36.184  21.738  25.746  1.00  0.00    -0.084 Cl
ATOM     16  C   UNL A   1      33.967  24.810  24.552  1.00  0.00     0.019 A 
ATOM     17  O   UNL A   1      31.733  24.905  23.645  1.00  0.00    -0.475 OA
ATOM     18  C   UNL A   1      34.111  26.250  24.382  1.00  0.00     0.025 C 
ATOM     19  C   UNL A   1      32.133  26.107  22.926  1.00  0.00     0.314 C 
BRANCH  10  20
ATOM     20  C   UNL A   1      33.144  20.680  25.560  1.00  0.00     0.301 C 
BRANCH  20  21
ATOM     21  N   UNL A   1      33.346  19.596  24.581  1.00  0.00    -0.327 N 
ATOM     22  C   UNL A   1      32.233  20.029  22.406  1.00  0.00     0.075 C 
ATOM     23  C   UNL A   1      32.200  19.259  23.719  1.00  0.00     0.181 C 
ATOM     24  C   UNL A   1      32.298  17.751  23.494  1.00  0.00     0.071 C 
ATOM     25  C   UNL A   1      32.926  17.262  24.781  1.00  0.00     0.071 C 
ATOM     26  C   UNL A   1      33.923  18.361  25.123  1.00  0.00     0.181 C 
ATOM     27  H   UNL A   1      34.041  20.044  23.983  1.00  0.00     0.348 HD
ATOM     28  C   UNL A   1      35.287  18.130  24.473  1.00  0.00     0.075 C 
ENDBRANCH  20  21
ENDBRANCH  10  20
BRANCH  19  29
ATOM     29  C   UNL A   1      32.503  25.764  21.468  1.00  0.00     0.429 C 
ATOM     30  F   UNL A   1      32.783  24.446  21.342  1.00  0.00    -0.167 F 
ATOM     31  F   UNL A   1      31.488  26.028  20.611  1.00  0.00    -0.167 F 
ATOM     32  F   UNL A   1      33.576  26.456  21.026  1.00  0.00    -0.167 F 
ENDBRANCH  19  29
ENDBRANCH   6   9
ENDBRANCH   4   5
ENDBRANCH   3   4
ENDBRANCH   2   3
ENDBRANCH   1   2
BRANCH   1  33
ATOM     33  C   UNL A   1      34.341  29.319  27.175  1.00  0.00     0.021 C 
BRANCH  33  34
ATOM     34  C   UNL A   1      35.648  29.718  27.847  1.00  0.00     0.116 C 
BRANCH  34  35
ATOM     35  N   UNL A   1      35.471  30.039  29.254  1.00  0.00    -0.352 N 
ATOM     36  C   UNL A   1      36.416  30.080  30.254  1.00  0.00     0.251 C 
ATOM     37  H   UNL A   1      34.551  30.257  29.528  1.00  0.00     0.163 HD
ATOM     38  O   UNL A   1      36.078  30.213  31.422  1.00  0.00    -0.269 OA
BRANCH  36  39
ATOM     39  C   UNL A   1      37.842  29.929  29.896  1.00  0.00     0.039 A 
ATOM     40  C   UNL A   1      38.244  29.980  28.558  1.00  0.00     0.014 A 
ATOM     41  C   UNL A   1      38.774  29.684  30.906  1.00  0.00     0.014 A 
ATOM     42  C   UNL A   1      39.548  29.638  28.220  1.00  0.00     0.010 A 
ATOM     43  C   UNL A   1      40.101  29.414  30.567  1.00  0.00     0.010 A 
ATOM     44  C   UNL A   1      40.489  29.345  29.219  1.00  0.00    -0.014 A 
BRANCH  44  45
ATOM     45  C   UNL A   1      41.874  28.961  28.842  1.00  0.00     0.031 A 
ATOM     46  C   UNL A   1      42.989  29.971  28.901  1.00  0.00     0.074 A 
ATOM     47  C   UNL A   1      42.129  27.692  28.471  1.00  0.00     0.049 A 
ATOM     48  N   UNL A   1      44.243  29.835  28.551  1.00  0.00    -0.248 NA
ATOM     49  C   UNL A   1      42.655  31.310  29.415  1.00  0.00     0.031 C 
ATOM     50  C   UNL A   1      41.132  26.620  28.391  1.00  0.00     0.029 A 
ATOM     51  N   UNL A   1      43.300  27.082  28.100  1.00  0.00    -0.354 N 
ATOM     52  C   UNL A   1      44.839  31.070  28.775  1.00  0.00     0.074 A 
ATOM     53  C   UNL A   1      43.808  31.952  29.279  1.00  0.00     0.031 C 
ATOM     54  C   UNL A   1      41.738  25.482  28.023  1.00  0.00     0.029 A 
ATOM     55  C   UNL A   1      43.151  25.754  27.780  1.00  0.00     0.049 A 
ATOM     56  H   UNL A   1      44.164  27.552  28.067  1.00  0.00     0.167 HD
ATOM     57  C   UNL A   1      46.132  31.430  28.586  1.00  0.00     0.037 A 
ATOM     58  C   UNL A   1      44.042  24.860  27.312  1.00  0.00     0.037 A 
ATOM     59  C   UNL A   1      47.160  30.538  28.115  1.00  0.00     0.049 A 
ATOM     60  C   UNL A   1      45.462  25.295  27.085  1.00  0.00     0.074 A 
ATOM     61  C   UNL A   1      48.504  30.802  27.918  1.00  0.00     0.029 A 
ATOM     62  N   UNL A   1      46.961  29.208  27.774  1.00  0.00    -0.354 N 
ATOM     63  N   UNL A   1      46.006  26.469  27.295  1.00  0.00    -0.248 NA
ATOM     64  C   UNL A   1      46.386  24.288  26.548  1.00  0.00     0.031 C 
ATOM     65  C   UNL A   1      49.111  29.644  27.422  1.00  0.00     0.029 A 
ATOM     66  C   UNL A   1      48.154  28.644  27.351  1.00  0.00     0.049 A 
ATOM     67  H   UNL A   1      46.100  28.734  27.825  1.00  0.00     0.167 HD
ATOM     68  C   UNL A   1      47.338  26.342  26.921  1.00  0.00     0.074 A 
ATOM     69  C   UNL A   1      47.522  24.969  26.495  1.00  0.00     0.031 C 
ATOM     70  C   UNL A   1      48.318  27.278  26.925  1.00  0.00     0.037 A 
BRANCH  57  71
ATOM     71  C   UNL A   1      46.521  32.854  28.875  1.00  0.00     0.058 A 
ATOM     72  C   UNL A   1      46.431  33.856  27.897  1.00  0.00     0.135 A 
ATOM     73  C   UNL A   1      46.907  33.234  30.171  1.00  0.00     0.135 A 
ATOM     74  F   UNL A   1      46.085  33.543  26.638  1.00  0.00    -0.206 F 
ATOM     75  C   UNL A   1      46.713  35.186  28.192  1.00  0.00     0.059 A 
ATOM     76  C   UNL A   1      47.174  34.562  30.494  1.00  0.00     0.059 A 
ATOM     77  F   UNL A   1      47.012  32.314  31.142  1.00  0.00    -0.206 F 
ATOM     78  C   UNL A   1      47.078  35.531  29.496  1.00  0.00     0.060 A 
BRANCH  78  79
ATOM     79  S   UNL A   1      47.401  37.268  29.870  1.00  0.00     0.124 S 
ATOM     80  O   UNL A   1      46.274  37.922  29.213  1.00  0.00    -0.237 OA
ATOM     81  O   UNL A   1      47.377  37.281  31.329  1.00  0.00    -0.237 OA
ATOM     82  O   UNL A   1      48.706  37.510  29.265  1.00  0.00    -0.744 OA
ENDBRANCH  78  79
ENDBRANCH  57  71
BRANCH  58  83
ATOM     83  C   UNL A   1      43.604  23.474  27.006  1.00  0.00     0.058 A 
ATOM     84  C   UNL A   1      43.449  22.523  28.023  1.00  0.00     0.135 A 
ATOM     85  C   UNL A   1      43.302  23.085  25.691  1.00  0.00     0.135 A 
ATOM     86  F   UNL A   1      43.732  22.846  29.294  1.00  0.00    -0.206 F 
ATOM     87  C   UNL A   1      43.015  21.230  27.749  1.00  0.00     0.059 A 
ATOM     88  C   UNL A   1      42.842  21.806  25.396  1.00  0.00     0.059 A 
ATOM     89  F   UNL A   1      43.419  23.964  24.684  1.00  0.00    -0.206 F 
ATOM     90  C   UNL A   1      42.710  20.882  26.431  1.00  0.00     0.060 A 
BRANCH  90  91
ATOM     91  S   UNL A   1      42.090  19.221  26.094  1.00  0.00     0.124 S 
ATOM     92  O   UNL A   1      42.865  18.853  24.915  1.00  0.00    -0.237 OA
ATOM     93  O   UNL A   1      42.425  18.513  27.326  1.00  0.00    -0.237 OA
ATOM     94  O   UNL A   1      40.663  19.434  25.872  1.00  0.00    -0.744 OA
ENDBRANCH  90  91
ENDBRANCH  58  83
BRANCH  70  95
ATOM     95  C   UNL A   1      49.681  26.847  26.464  1.00  0.00     0.058 A 
ATOM     96  C   UNL A   1      50.595  26.249  27.342  1.00  0.00     0.135 A 
ATOM     97  C   UNL A   1      50.059  26.994  25.119  1.00  0.00     0.135 A 
ATOM     98  F   UNL A   1      50.284  26.092  28.638  1.00  0.00    -0.206 F 
ATOM     99  C   UNL A   1      51.849  25.829  26.910  1.00  0.00     0.059 A 
ATOM    100  C   UNL A   1      51.298  26.560  24.659  1.00  0.00     0.059 A 
ATOM    101  F   UNL A   1      49.215  27.553  24.236  1.00  0.00    -0.206 F 
ATOM    102  C   UNL A   1      52.191  25.990  25.565  1.00  0.00     0.060 A 
BRANCH 102 103
ATOM    103  S   UNL A   1      53.811  25.419  25.012  1.00  0.00     0.124 S 
ATOM    104  O   UNL A   1      53.493  24.860  23.703  1.00  0.00    -0.237 OA
ATOM    105  O   UNL A   1      54.591  26.651  25.004  1.00  0.00    -0.237 OA
ATOM    106  O   UNL A   1      54.195  24.448  26.032  1.00  0.00    -0.744 OA
ENDBRANCH 102 103
ENDBRANCH  70  95
ENDBRANCH  44  45
ENDBRANCH  36  39
ENDBRANCH  34  35
ENDBRANCH  33  34
ENDBRANCH   1  33
TORSDOF 19
ENDMDL
MODEL 3
REMARK VINA RESULT:     -11.8      2.835      8.505
REMARK SMILES C[C@@H]1CC[C@H](C)[N@H+]1Cc1cc2c(cc1Cl)C=C(C(=O)NCCCCCCNC(=O)c1ccc(-c3c4nc(c(-c5c(F)cc(S(=O)(=O)[O-])cc5F)c5ccc([nH]5)c(-c5c(F)cc(S(=O)(=O)[O-])cc5F)c5nc(c(-c6c(F)cc(S(=O)(=O)[O-])cc6F)c6ccc3[nH]6)C=C5)C=C4)cc1)[C@@H](C(F)(F)F)O2
REMARK SMILES IDX 24 1 23 2 22 3 21 4 20 5 18 6 19 7 17 9 9 10 10 11 14 12
REMARK SMILES IDX 11 13 13 14 15 15 12 16 101 17 16 18 96 19 8 20 7 21 6 22
REMARK SMILES IDX 5 23 4 24 3 25 2 26 1 28 97 29 98 30 99 31 100 32 25 33
REMARK SMILES IDX 26 34 27 35 28 36 29 38 30 39 31 40 95 41 32 42 94 43 33 44
REMARK SMILES IDX 34 45 35 46 88 47 36 48 93 49 87 50 89 51 37 52 92 53 86 54
REMARK SMILES IDX 85 55 38 57 72 58 51 59 71 60 52 61 55 62 70 63 90 64 53 65
REMARK SMILES IDX 54 66 69 68 91 69 56 70 39 71 40 72 49 73 41 74 42 75 48 76
REMARK SMILES IDX 50 77 43 78 44 79 45 80 46 81 47 82 73 83 74 84 83 85 75 86
REMARK SMILES IDX 76 87 82 88 84 89 77 90 78 91 79 92 80 93 81 94 57 95 58 96
REMARK SMILES IDX 67 97 59 98 60 99 66 100 68 101 61 102 62 103 63 104 64 105
REMARK SMILES IDX 65 106
REMARK H PARENT 20 8 7 27 27 37 89 56 55 67
REMARK Flexibility Score: inf
ROOT
ATOM      1  C   UNL A   1      33.737  28.110  24.860  1.00  0.00     0.002 C 
ENDROOT
BRANCH   1   2
ATOM      2  C   UNL A   1      32.917  29.350  24.478  1.00  0.00     0.002 C 
BRANCH   2   3
ATOM      3  C   UNL A   1      31.412  29.115  24.313  1.00  0.00     0.021 C 
BRANCH   3   4
ATOM      4  C   UNL A   1      30.862  27.996  25.193  1.00  0.00     0.116 C 
BRANCH   4   5
ATOM      5  N   UNL A   1      29.771  27.300  24.537  1.00  0.00    -0.352 N 
ATOM      6  C   UNL A   1      29.563  26.088  23.976  1.00  0.00     0.251 C 
ATOM      7  O   UNL A   1      28.427  25.908  23.526  1.00  0.00    -0.270 OA
ATOM      8  H   UNL A   1      28.964  27.862  24.488  1.00  0.00     0.163 HD
BRANCH   6   9
ATOM      9  C   UNL A   1      30.576  25.001  23.868  1.00  0.00     0.067 C 
ATOM     10  C   UNL A   1      33.543  21.029  24.852  1.00  0.00     0.029 A 
ATOM     11  C   UNL A   1      33.020  21.610  23.682  1.00  0.00     0.058 A 
ATOM     12  C   UNL A   1      33.309  21.689  26.069  1.00  0.00     0.050 A 
ATOM     13  C   UNL A   1      32.200  22.731  23.749  1.00  0.00     0.128 A 
ATOM     14  C   UNL A   1      32.430  22.779  26.137  1.00  0.00     0.033 A 
ATOM     15  Cl  UNL A   1      34.121  21.267  27.537  1.00  0.00    -0.084 Cl
ATOM     16  C   UNL A   1      31.849  23.282  24.976  1.00  0.00     0.019 A 
ATOM     17  O   UNL A   1      31.725  23.222  22.567  1.00  0.00    -0.475 OA
ATOM     18  C   UNL A   1      30.861  24.353  25.013  1.00  0.00     0.025 C 
ATOM     19  C   UNL A   1      31.303  24.616  22.608  1.00  0.00     0.314 C 
BRANCH  10  20
ATOM     20  C   UNL A   1      34.276  19.705  24.720  1.00  0.00     0.301 C 
BRANCH  20  21
ATOM     21  N   UNL A   1      33.459  18.535  24.350  1.00  0.00    -0.327 N 
ATOM     22  C   UNL A   1      32.467  17.383  26.311  1.00  0.00     0.075 C 
ATOM     23  C   UNL A   1      33.545  17.361  25.236  1.00  0.00     0.181 C 
ATOM     24  C   UNL A   1      33.400  16.152  24.314  1.00  0.00     0.071 C 
ATOM     25  C   UNL A   1      34.020  16.641  23.023  1.00  0.00     0.071 C 
ATOM     26  C   UNL A   1      33.583  18.098  22.955  1.00  0.00     0.181 C 
ATOM     27  H   UNL A   1      32.530  18.936  24.484  1.00  0.00     0.348 HD
ATOM     28  C   UNL A   1      32.229  18.267  22.265  1.00  0.00     0.075 C 
ENDBRANCH  20  21
ENDBRANCH  10  20
BRANCH  19  29
ATOM     29  C   UNL A   1      32.501  25.548  22.330  1.00  0.00     0.429 C 
ATOM     30  F   UNL A   1      33.369  25.536  23.369  1.00  0.00    -0.167 F 
ATOM     31  F   UNL A   1      33.201  25.165  21.236  1.00  0.00    -0.167 F 
ATOM     32  F   UNL A   1      32.126  26.831  22.124  1.00  0.00    -0.167 F 
ENDBRANCH  19  29
ENDBRANCH   6   9
ENDBRANCH   4   5
ENDBRANCH   3   4
ENDBRANCH   2   3
ENDBRANCH   1   2
BRANCH   1  33
ATOM     33  C   UNL A   1      34.393  28.155  26.243  1.00  0.00     0.021 C 
BRANCH  33  34
ATOM     34  C   UNL A   1      33.440  28.471  27.388  1.00  0.00     0.116 C 
BRANCH  34  35
ATOM     35  N   UNL A   1      33.361  29.895  27.666  1.00  0.00    -0.352 N 
ATOM     36  C   UNL A   1      34.326  30.728  28.183  1.00  0.00     0.251 C 
ATOM     37  H   UNL A   1      32.499  30.323  27.454  1.00  0.00     0.163 HD
ATOM     38  O   UNL A   1      34.049  31.875  28.506  1.00  0.00    -0.269 OA
BRANCH  36  39
ATOM     39  C   UNL A   1      35.695  30.204  28.372  1.00  0.00     0.039 A 
ATOM     40  C   UNL A   1      36.075  29.647  29.597  1.00  0.00     0.014 A 
ATOM     41  C   UNL A   1      36.618  30.318  27.331  1.00  0.00     0.014 A 
ATOM     42  C   UNL A   1      37.413  29.344  29.828  1.00  0.00     0.010 A 
ATOM     43  C   UNL A   1      37.946  29.944  27.543  1.00  0.00     0.010 A 
ATOM     44  C   UNL A   1      38.363  29.495  28.807  1.00  0.00    -0.014 A 
BRANCH  44  45
ATOM     45  C   UNL A   1      39.791  29.187  29.074  1.00  0.00     0.031 A 
ATOM     46  C   UNL A   1      40.687  30.213  29.717  1.00  0.00     0.074 A 
ATOM     47  C   UNL A   1      40.273  27.969  28.761  1.00  0.00     0.049 A 
ATOM     48  N   UNL A   1      41.969  30.144  29.969  1.00  0.00    -0.248 NA
ATOM     49  C   UNL A   1      40.065  31.484  30.127  1.00  0.00     0.031 C 
ATOM     50  C   UNL A   1      39.497  26.887  28.149  1.00  0.00     0.029 A 
ATOM     51  N   UNL A   1      41.524  27.430  28.919  1.00  0.00    -0.354 N 
ATOM     52  C   UNL A   1      42.313  31.365  30.539  1.00  0.00     0.074 A 
ATOM     53  C   UNL A   1      41.108  32.164  30.585  1.00  0.00     0.031 C 
ATOM     54  C   UNL A   1      40.281  25.808  28.010  1.00  0.00     0.029 A 
ATOM     55  C   UNL A   1      41.628  26.138  28.462  1.00  0.00     0.049 A 
ATOM     56  H   UNL A   1      42.276  27.922  29.323  1.00  0.00     0.167 HD
ATOM     57  C   UNL A   1      43.523  31.775  30.991  1.00  0.00     0.037 A 
ATOM     58  C   UNL A   1      42.694  25.319  28.384  1.00  0.00     0.037 A 
ATOM     59  C   UNL A   1      44.711  30.960  30.973  1.00  0.00     0.049 A 
ATOM     60  C   UNL A   1      44.029  25.811  28.865  1.00  0.00     0.074 A 
ATOM     61  C   UNL A   1      45.977  31.277  31.433  1.00  0.00     0.029 A 
ATOM     62  N   UNL A   1      44.781  29.668  30.474  1.00  0.00    -0.354 N 
ATOM     63  N   UNL A   1      44.337  26.970  29.394  1.00  0.00    -0.248 NA
ATOM     64  C   UNL A   1      45.163  24.887  28.732  1.00  0.00     0.031 C 
ATOM     65  C   UNL A   1      46.821  30.192  31.179  1.00  0.00     0.029 A 
ATOM     66  C   UNL A   1      46.071  29.181  30.600  1.00  0.00     0.049 A 
ATOM     67  H   UNL A   1      44.024  29.170  30.087  1.00  0.00     0.167 HD
ATOM     68  C   UNL A   1      45.699  26.915  29.662  1.00  0.00     0.074 A 
ATOM     69  C   UNL A   1      46.150  25.598  29.259  1.00  0.00     0.031 C 
ATOM     70  C   UNL A   1      46.504  27.870  30.188  1.00  0.00     0.037 A 
BRANCH  57  71
ATOM     71  C   UNL A   1      43.640  33.171  31.538  1.00  0.00     0.058 A 
ATOM     72  C   UNL A   1      43.491  33.441  32.907  1.00  0.00     0.135 A 
ATOM     73  C   UNL A   1      43.989  34.237  30.692  1.00  0.00     0.135 A 
ATOM     74  F   UNL A   1      43.139  32.462  33.754  1.00  0.00    -0.206 F 
ATOM     75  C   UNL A   1      43.683  34.720  33.419  1.00  0.00     0.059 A 
ATOM     76  C   UNL A   1      44.206  35.520  31.186  1.00  0.00     0.059 A 
ATOM     77  F   UNL A   1      44.140  34.033  29.374  1.00  0.00    -0.206 F 
ATOM     78  C   UNL A   1      44.046  35.753  32.552  1.00  0.00     0.060 A 
BRANCH  78  79
ATOM     79  S   UNL A   1      44.328  37.398  33.241  1.00  0.00     0.124 S 
ATOM     80  O   UNL A   1      45.704  37.284  33.713  1.00  0.00    -0.237 OA
ATOM     81  O   UNL A   1      44.127  38.260  32.080  1.00  0.00    -0.237 OA
ATOM     82  O   UNL A   1      43.314  37.510  34.284  1.00  0.00    -0.744 OA
ENDBRANCH  78  79
ENDBRANCH  57  71
BRANCH  58  83
ATOM     83  C   UNL A   1      42.538  23.962  27.802  1.00  0.00     0.058 A 
ATOM     84  C   UNL A   1      42.529  23.766  26.414  1.00  0.00     0.135 A 
ATOM     85  C   UNL A   1      42.425  22.830  28.625  1.00  0.00     0.135 A 
ATOM     86  F   UNL A   1      42.627  24.817  25.587  1.00  0.00    -0.206 F 
ATOM     87  C   UNL A   1      42.407  22.495  25.861  1.00  0.00     0.059 A 
ATOM     88  C   UNL A   1      42.328  21.548  28.096  1.00  0.00     0.059 A 
ATOM     89  F   UNL A   1      42.443  22.965  29.961  1.00  0.00    -0.206 F 
ATOM     90  C   UNL A   1      42.312  21.391  26.711  1.00  0.00     0.060 A 
BRANCH  90  91
ATOM     91  S   UNL A   1      42.216  19.742  25.984  1.00  0.00     0.124 S 
ATOM     92  O   UNL A   1      43.263  19.807  24.970  1.00  0.00    -0.237 OA
ATOM     93  O   UNL A   1      42.491  18.884  27.133  1.00  0.00    -0.237 OA
ATOM     94  O   UNL A   1      40.848  19.678  25.477  1.00  0.00    -0.744 OA
ENDBRANCH  90  91
ENDBRANCH  58  83
BRANCH  70  95
ATOM     95  C   UNL A   1      47.954  27.522  30.368  1.00  0.00     0.058 A 
ATOM     96  C   UNL A   1      48.399  26.794  31.481  1.00  0.00     0.135 A 
ATOM     97  C   UNL A   1      48.900  27.883  29.395  1.00  0.00     0.135 A 
ATOM     98  F   UNL A   1      47.535  26.431  32.441  1.00  0.00    -0.206 F 
ATOM     99  C   UNL A   1      49.739  26.452  31.635  1.00  0.00     0.059 A 
ATOM    100  C   UNL A   1      50.241  27.532  29.518  1.00  0.00     0.059 A 
ATOM    101  F   UNL A   1      48.523  28.573  28.307  1.00  0.00    -0.206 F 
ATOM    102  C   UNL A   1      50.652  26.827  30.648  1.00  0.00     0.060 A 
BRANCH 102 103
ATOM    103  S   UNL A   1      52.383  26.357  30.849  1.00  0.00     0.124 S 
ATOM    104  O   UNL A   1      52.920  27.512  31.560  1.00  0.00    -0.237 OA
ATOM    105  O   UNL A   1      52.284  25.125  31.625  1.00  0.00    -0.237 OA
ATOM    106  O   UNL A   1      52.852  26.191  29.477  1.00  0.00    -0.744 OA
ENDBRANCH 102 103
ENDBRANCH  70  95
ENDBRANCH  44  45
ENDBRANCH  36  39
ENDBRANCH  34  35
ENDBRANCH  33  34
ENDBRANCH   1  33
TORSDOF 19
ENDMDL
