MODEL 1
REMARK VINA RESULT:     -10.1      0.000      0.000
REMARK SMILES COc1cc(/C=C2/C(=O)N(c3ccccc3)C(=O)[NH+]=C2NCCCCCCNC(=O)c2ccc(-c3c4nc(c(-c5c(F)cc(S(=O)(=O)[O-])cc5F)c5ccc([nH]5)c(-c5c(F)cc(S(=O)(=O)[O-])cc5F)c5nc(c(-c6c(F)cc(S(=O)(=O)[O-])cc6F)c6ccc3[nH]6)C=C5)C=C4)cc2)ccc1OCC(=O)[O-]
REMARK SMILES IDX 24 1 23 2 22 3 21 4 6 5 7 6 8 7 20 8 9 9 10 10 19 11 17 12
REMARK SMILES IDX 18 15 5 16 3 17 4 18 99 19 98 20 97 21 2 22 1 23 100 24
REMARK SMILES IDX 101 25 102 26 103 27 104 28 11 29 12 30 16 31 13 32 15 33
REMARK SMILES IDX 14 34 25 35 26 36 27 37 28 38 29 39 30 41 31 42 32 43 96 44
REMARK SMILES IDX 33 45 95 46 34 47 35 48 36 49 89 50 37 51 94 52 88 53 90 54
REMARK SMILES IDX 38 55 93 56 87 57 86 58 39 60 73 61 52 62 72 63 53 64 56 65
REMARK SMILES IDX 71 66 91 67 54 68 55 69 70 71 92 72 57 73 40 74 41 75 50 76
REMARK SMILES IDX 42 77 43 78 49 79 51 80 44 81 45 82 46 83 47 84 48 85 74 86
REMARK SMILES IDX 75 87 84 88 76 89 77 90 83 91 85 92 78 93 79 94 80 95 81 96
REMARK SMILES IDX 82 97 58 98 59 99 68 100 60 101 61 102 67 103 69 104 62 105
REMARK SMILES IDX 63 106 64 107 65 108 66 109
REMARK H PARENT 19 13 21 14 28 40 90 59 56 70
REMARK Flexibility Score: inf
ROOT
ATOM      1  C   UNL A   1      39.278  34.445  32.787  1.00  0.00     0.003 C 
ENDROOT
BRANCH   1   2
ATOM      2  C   UNL A   1      40.704  33.649  33.400  1.00  0.00     0.037 C 
BRANCH   2   3
ATOM      3  C   UNL A   1      41.197  31.601  34.019  1.00  0.00     0.194 C 
BRANCH   3   4
ATOM      4  N   UNL A   1      42.414  30.665  33.604  1.00  0.00    -0.305 N 
ATOM      5  C   UNL A   1      40.891  28.927  35.582  1.00  0.00     0.030 C 
ATOM      6  C   UNL A   1      41.821  28.456  34.733  1.00  0.00     0.129 C 
ATOM      7  C   UNL A   1      42.100  27.011  34.632  1.00  0.00     0.328 C 
ATOM      8  C   UNL A   1      42.702  29.361  33.942  1.00  0.00     0.236 C 
ATOM      9  O   UNL A   1      41.250  26.185  34.962  1.00  0.00    -0.249 OA
ATOM     10  N   UNL A   1      43.403  26.734  34.231  1.00  0.00    -0.155 N 
ATOM     11  N   UNL A   1      43.890  28.964  33.596  1.00  0.00    -0.209 N 
ATOM     12  C   UNL A   1      44.347  27.741  34.010  1.00  0.00     0.448 C 
ATOM     13  H   UNL A   1      44.459  29.540  33.036  1.00  0.00     0.270 HD
ATOM     14  H   UNL A   1      43.071  31.088  33.005  1.00  0.00     0.256 HD
ATOM     15  O   UNL A   1      45.556  27.570  34.151  1.00  0.00    -0.212 OA
BRANCH   5  16
ATOM     16  C   UNL A   1      40.776  30.375  35.660  1.00  0.00    -0.021 A 
ATOM     17  C   UNL A   1      38.627  32.570  36.320  1.00  0.00     0.161 A 
ATOM     18  C   UNL A   1      39.114  31.064  35.424  1.00  0.00     0.058 A 
ATOM     19  C   UNL A   1      39.835  33.481  37.288  1.00  0.00     0.161 A 
ATOM     20  C   UNL A   1      41.499  32.808  37.493  1.00  0.00     0.051 A 
ATOM     21  C   UNL A   1      41.993  31.292  36.641  1.00  0.00     0.012 A 
BRANCH  17  22
ATOM     22  O   UNL A   1      37.275  32.761  36.278  1.00  0.00    -0.493 OA
ATOM     23  C   UNL A   1      36.802  33.874  35.546  1.00  0.00     0.278 C 
ENDBRANCH  17  22
BRANCH  19  24
ATOM     24  O   UNL A   1      39.402  34.362  38.253  1.00  0.00    -0.484 OA
BRANCH  24  25
ATOM     25  C   UNL A   1      39.448  35.729  37.872  1.00  0.00     0.282 C 
BRANCH  25  26
ATOM     26  C   UNL A   1      39.490  36.650  39.080  1.00  0.00     0.079 C 
ATOM     27  O   UNL A   1      38.954  37.742  39.179  1.00  0.00    -0.546 OA
ATOM     28  O   UNL A   1      40.247  36.175  40.086  1.00  0.00    -0.546 OA
ENDBRANCH  25  26
ENDBRANCH  24  25
ENDBRANCH  19  24
ENDBRANCH   5  16
BRANCH  10  29
ATOM     29  C   UNL A   1      43.819  25.377  34.189  1.00  0.00     0.111 A 
ATOM     30  C   UNL A   1      44.082  24.725  32.978  1.00  0.00     0.044 A 
ATOM     31  C   UNL A   1      43.924  24.665  35.391  1.00  0.00     0.044 A 
ATOM     32  C   UNL A   1      44.460  23.383  32.972  1.00  0.00     0.004 A 
ATOM     33  C   UNL A   1      44.268  23.315  35.380  1.00  0.00     0.004 A 
ATOM     34  C   UNL A   1      44.543  22.677  34.172  1.00  0.00     0.000 A 
ENDBRANCH  10  29
ENDBRANCH   3   4
ENDBRANCH   2   3
ENDBRANCH   1   2
BRANCH   1  35
ATOM     35  C   UNL A   1      38.913  34.110  31.342  1.00  0.00     0.002 C 
BRANCH  35  36
ATOM     36  C   UNL A   1      37.471  33.656  31.215  1.00  0.00     0.021 C 
BRANCH  36  37
ATOM     37  C   UNL A   1      37.042  32.666  32.266  1.00  0.00     0.116 C 
BRANCH  37  38
ATOM     38  N   UNL A   1      36.248  31.553  31.770  1.00  0.00    -0.352 N 
ATOM     39  C   UNL A   1      36.633  30.417  31.092  1.00  0.00     0.251 C 
ATOM     40  H   UNL A   1      35.281  31.621  31.948  1.00  0.00     0.163 HD
ATOM     41  O   UNL A   1      35.788  29.607  30.720  1.00  0.00    -0.269 OA
BRANCH  39  42
ATOM     42  C   UNL A   1      38.058  30.238  30.733  1.00  0.00     0.039 A 
ATOM     43  C   UNL A   1      38.937  29.673  31.660  1.00  0.00     0.014 A 
ATOM     44  C   UNL A   1      38.494  30.504  29.439  1.00  0.00     0.014 A 
ATOM     45  C   UNL A   1      40.215  29.285  31.248  1.00  0.00     0.010 A 
ATOM     46  C   UNL A   1      39.668  29.930  28.988  1.00  0.00     0.010 A 
ATOM     47  C   UNL A   1      40.569  29.356  29.892  1.00  0.00    -0.014 A 
BRANCH  47  48
ATOM     48  C   UNL A   1      41.892  28.919  29.375  1.00  0.00     0.031 A 
ATOM     49  C   UNL A   1      43.006  29.938  29.286  1.00  0.00     0.074 A 
ATOM     50  C   UNL A   1      42.059  27.672  28.889  1.00  0.00     0.049 A 
ATOM     51  N   UNL A   1      44.161  29.852  28.681  1.00  0.00    -0.248 NA
ATOM     52  C   UNL A   1      42.751  31.264  29.883  1.00  0.00     0.031 C 
ATOM     53  C   UNL A   1      41.028  26.630  28.830  1.00  0.00     0.029 A 
ATOM     54  N   UNL A   1      43.160  27.069  28.338  1.00  0.00    -0.354 N 
ATOM     55  C   UNL A   1      44.720  31.125  28.759  1.00  0.00     0.074 A 
ATOM     56  C   UNL A   1      43.748  31.982  29.394  1.00  0.00     0.031 C 
ATOM     57  C   UNL A   1      41.559  25.508  28.318  1.00  0.00     0.029 A 
ATOM     58  C   UNL A   1      42.952  25.759  27.971  1.00  0.00     0.049 A 
ATOM     59  H   UNL A   1      44.021  27.531  28.215  1.00  0.00     0.167 HD
ATOM     60  C   UNL A   1      45.953  31.532  28.383  1.00  0.00     0.037 A 
ATOM     61  C   UNL A   1      43.798  24.867  27.419  1.00  0.00     0.037 A 
ATOM     62  C   UNL A   1      46.953  30.629  27.889  1.00  0.00     0.049 A 
ATOM     63  C   UNL A   1      45.210  25.307  27.136  1.00  0.00     0.074 A 
ATOM     64  C   UNL A   1      48.283  30.884  27.608  1.00  0.00     0.029 A 
ATOM     65  N   UNL A   1      46.737  29.282  27.637  1.00  0.00    -0.354 N 
ATOM     66  N   UNL A   1      45.749  26.495  27.288  1.00  0.00    -0.248 NA
ATOM     67  C   UNL A   1      46.135  24.288  26.621  1.00  0.00     0.031 C 
ATOM     68  C   UNL A   1      48.865  29.694  27.162  1.00  0.00     0.029 A 
ATOM     69  C   UNL A   1      47.908  28.691  27.202  1.00  0.00     0.049 A 
ATOM     70  H   UNL A   1      45.877  28.816  27.752  1.00  0.00     0.167 HD
ATOM     71  C   UNL A   1      47.078  26.361  26.911  1.00  0.00     0.074 A 
ATOM     72  C   UNL A   1      47.269  24.973  26.543  1.00  0.00     0.031 C 
ATOM     73  C   UNL A   1      48.058  27.299  26.865  1.00  0.00     0.037 A 
BRANCH  60  74
ATOM     74  C   UNL A   1      46.300  32.989  28.535  1.00  0.00     0.058 A 
ATOM     75  C   UNL A   1      46.879  33.500  29.709  1.00  0.00     0.135 A 
ATOM     76  C   UNL A   1      46.077  33.886  27.478  1.00  0.00     0.135 A 
ATOM     77  F   UNL A   1      47.099  32.694  30.761  1.00  0.00    -0.206 F 
ATOM     78  C   UNL A   1      47.191  34.848  29.842  1.00  0.00     0.059 A 
ATOM     79  C   UNL A   1      46.414  35.234  27.575  1.00  0.00     0.059 A 
ATOM     80  F   UNL A   1      45.523  33.457  26.333  1.00  0.00    -0.206 F 
ATOM     81  C   UNL A   1      46.959  35.708  28.769  1.00  0.00     0.060 A 
BRANCH  81  82
ATOM     82  S   UNL A   1      47.397  37.450  28.950  1.00  0.00     0.124 S 
ATOM     83  O   UNL A   1      48.045  37.452  30.257  1.00  0.00    -0.237 OA
ATOM     84  O   UNL A   1      48.277  37.669  27.806  1.00  0.00    -0.237 OA
ATOM     85  O   UNL A   1      46.108  38.132  28.886  1.00  0.00    -0.744 OA
ENDBRANCH  81  82
ENDBRANCH  60  74
BRANCH  61  86
ATOM     86  C   UNL A   1      43.354  23.474  27.142  1.00  0.00     0.058 A 
ATOM     87  C   UNL A   1      42.948  23.089  25.854  1.00  0.00     0.135 A 
ATOM     88  C   UNL A   1      43.329  22.496  28.148  1.00  0.00     0.135 A 
ATOM     89  F   UNL A   1      42.954  23.985  24.856  1.00  0.00    -0.206 F 
ATOM     90  C   UNL A   1      42.506  21.798  25.580  1.00  0.00     0.059 A 
ATOM     91  C   UNL A   1      42.916  21.191  27.894  1.00  0.00     0.059 A 
ATOM     92  F   UNL A   1      43.731  22.801  29.393  1.00  0.00    -0.206 F 
ATOM     93  C   UNL A   1      42.492  20.855  26.608  1.00  0.00     0.060 A 
BRANCH  93  94
ATOM     94  S   UNL A   1      41.947  19.173  26.236  1.00  0.00     0.124 S 
ATOM     95  O   UNL A   1      42.145  18.511  27.520  1.00  0.00    -0.237 OA
ATOM     96  O   UNL A   1      40.561  19.382  25.831  1.00  0.00    -0.237 OA
ATOM     97  O   UNL A   1      42.849  18.758  25.165  1.00  0.00    -0.744 OA
ENDBRANCH  93  94
ENDBRANCH  61  86
BRANCH  73  98
ATOM     98  C   UNL A   1      49.422  26.844  26.439  1.00  0.00     0.058 A 
ATOM     99  C   UNL A   1      50.340  26.320  27.361  1.00  0.00     0.135 A 
ATOM    100  C   UNL A   1      49.785  26.871  25.084  1.00  0.00     0.135 A 
ATOM    101  F   UNL A   1      50.036  26.278  28.668  1.00  0.00    -0.206 F 
ATOM    102  C   UNL A   1      51.585  25.857  26.955  1.00  0.00     0.059 A 
ATOM    103  C   UNL A   1      51.014  26.388  24.652  1.00  0.00     0.059 A 
ATOM    104  F   UNL A   1      48.932  27.350  24.163  1.00  0.00    -0.206 F 
ATOM    105  C   UNL A   1      51.911  25.894  25.598  1.00  0.00     0.060 A 
BRANCH 105 106
ATOM    106  S   UNL A   1      53.518  25.256  25.080  1.00  0.00     0.124 S 
ATOM    107  O   UNL A   1      53.585  25.721  23.700  1.00  0.00    -0.237 OA
ATOM    108  O   UNL A   1      54.429  25.907  26.015  1.00  0.00    -0.237 OA
ATOM    109  O   UNL A   1      53.380  23.812  25.253  1.00  0.00    -0.744 OA
ENDBRANCH 105 106
ENDBRANCH  73  98
ENDBRANCH  47  48
ENDBRANCH  39  42
ENDBRANCH  37  38
ENDBRANCH  36  37
ENDBRANCH  35  36
ENDBRANCH   1  35
TORSDOF 21
ENDMDL
MODEL 2
REMARK VINA RESULT:      -9.6      4.161     13.390
REMARK SMILES COc1cc(/C=C2/C(=O)N(c3ccccc3)C(=O)[NH+]=C2NCCCCCCNC(=O)c2ccc(-c3c4nc(c(-c5c(F)cc(S(=O)(=O)[O-])cc5F)c5ccc([nH]5)c(-c5c(F)cc(S(=O)(=O)[O-])cc5F)c5nc(c(-c6c(F)cc(S(=O)(=O)[O-])cc6F)c6ccc3[nH]6)C=C5)C=C4)cc2)ccc1OCC(=O)[O-]
REMARK SMILES IDX 24 1 23 2 22 3 21 4 6 5 7 6 8 7 20 8 9 9 10 10 19 11 17 12
REMARK SMILES IDX 18 15 5 16 3 17 4 18 99 19 98 20 97 21 2 22 1 23 100 24
REMARK SMILES IDX 101 25 102 26 103 27 104 28 11 29 12 30 16 31 13 32 15 33
REMARK SMILES IDX 14 34 25 35 26 36 27 37 28 38 29 39 30 41 31 42 32 43 96 44
REMARK SMILES IDX 33 45 95 46 34 47 35 48 36 49 89 50 37 51 94 52 88 53 90 54
REMARK SMILES IDX 38 55 93 56 87 57 86 58 39 60 73 61 52 62 72 63 53 64 56 65
REMARK SMILES IDX 71 66 91 67 54 68 55 69 70 71 92 72 57 73 40 74 41 75 50 76
REMARK SMILES IDX 42 77 43 78 49 79 51 80 44 81 45 82 46 83 47 84 48 85 74 86
REMARK SMILES IDX 75 87 84 88 76 89 77 90 83 91 85 92 78 93 79 94 80 95 81 96
REMARK SMILES IDX 82 97 58 98 59 99 68 100 60 101 61 102 67 103 69 104 62 105
REMARK SMILES IDX 63 106 64 107 65 108 66 109
REMARK H PARENT 19 13 21 14 28 40 90 59 56 70
REMARK Flexibility Score: inf
ROOT
ATOM      1  C   UNL A   1      46.966  24.615  27.670  1.00  0.00     0.003 C 
ENDROOT
BRANCH   1   2
ATOM      2  C   UNL A   1      46.813  26.115  28.545  1.00  0.00     0.037 C 
BRANCH   2   3
ATOM      3  C   UNL A   1      46.184  28.156  28.035  1.00  0.00     0.194 C 
BRANCH   3   4
ATOM      4  N   UNL A   1      45.611  29.318  28.958  1.00  0.00    -0.305 N 
ATOM      5  C   UNL A   1      46.096  30.751  26.319  1.00  0.00     0.030 C 
ATOM      6  C   UNL A   1      45.333  31.245  27.310  1.00  0.00     0.129 C 
ATOM      7  C   UNL A   1      44.579  32.501  27.138  1.00  0.00     0.328 C 
ATOM      8  C   UNL A   1      45.300  30.628  28.665  1.00  0.00     0.236 C 
ATOM      9  O   UNL A   1      44.270  32.899  26.016  1.00  0.00    -0.249 OA
ATOM     10  N   UNL A   1      44.366  33.176  28.336  1.00  0.00    -0.155 N 
ATOM     11  N   UNL A   1      45.049  31.366  29.704  1.00  0.00    -0.209 N 
ATOM     12  C   UNL A   1      44.876  32.718  29.553  1.00  0.00     0.448 C 
ATOM     13  H   UNL A   1      44.982  30.957  30.597  1.00  0.00     0.270 HD
ATOM     14  H   UNL A   1      45.453  29.058  29.893  1.00  0.00     0.256 HD
ATOM     15  O   UNL A   1      45.153  33.464  30.490  1.00  0.00    -0.212 OA
BRANCH   5  16
ATOM     16  C   UNL A   1      46.865  29.559  26.641  1.00  0.00    -0.021 A 
ATOM     17  C   UNL A   1      48.109  27.057  25.206  1.00  0.00     0.161 A 
ATOM     18  C   UNL A   1      46.692  28.157  25.502  1.00  0.00     0.058 A 
ATOM     19  C   UNL A   1      49.614  27.235  26.170  1.00  0.00     0.161 A 
ATOM     20  C   UNL A   1      49.769  28.613  27.328  1.00  0.00     0.051 A 
ATOM     21  C   UNL A   1      48.386  29.742  27.610  1.00  0.00     0.012 A 
BRANCH  17  22
ATOM     22  O   UNL A   1      47.910  26.270  24.106  1.00  0.00    -0.493 OA
ATOM     23  C   UNL A   1      48.582  26.638  22.918  1.00  0.00     0.278 C 
ENDBRANCH  17  22
BRANCH  19  24
ATOM     24  O   UNL A   1      50.787  26.689  25.700  1.00  0.00    -0.484 OA
BRANCH  24  25
ATOM     25  C   UNL A   1      51.190  25.496  26.355  1.00  0.00     0.282 C 
BRANCH  25  26
ATOM     26  C   UNL A   1      52.615  25.108  25.993  1.00  0.00     0.079 C 
ATOM     27  O   UNL A   1      52.966  24.091  25.416  1.00  0.00    -0.546 OA
ATOM     28  O   UNL A   1      53.533  25.995  26.420  1.00  0.00    -0.546 OA
ENDBRANCH  25  26
ENDBRANCH  24  25
ENDBRANCH  19  24
ENDBRANCH   5  16
BRANCH  10  29
ATOM     29  C   UNL A   1      43.733  34.447  28.288  1.00  0.00     0.111 A 
ATOM     30  C   UNL A   1      42.422  34.634  28.743  1.00  0.00     0.044 A 
ATOM     31  C   UNL A   1      44.429  35.527  27.730  1.00  0.00     0.044 A 
ATOM     32  C   UNL A   1      41.822  35.890  28.652  1.00  0.00     0.004 A 
ATOM     33  C   UNL A   1      43.815  36.772  27.609  1.00  0.00     0.004 A 
ATOM     34  C   UNL A   1      42.515  36.954  28.077  1.00  0.00     0.000 A 
ENDBRANCH  10  29
ENDBRANCH   3   4
ENDBRANCH   2   3
ENDBRANCH   1   2
BRANCH   1  35
ATOM     35  C   UNL A   1      45.671  23.824  27.499  1.00  0.00     0.002 C 
BRANCH  35  36
ATOM     36  C   UNL A   1      45.134  23.919  26.082  1.00  0.00     0.021 C 
BRANCH  36  37
ATOM     37  C   UNL A   1      44.517  25.251  25.746  1.00  0.00     0.116 C 
BRANCH  37  38
ATOM     38  N   UNL A   1      43.161  25.184  25.223  1.00  0.00    -0.352 N 
ATOM     39  C   UNL A   1      42.003  25.778  25.674  1.00  0.00     0.251 C 
ATOM     40  H   UNL A   1      43.054  24.625  24.419  1.00  0.00     0.163 HD
ATOM     41  O   UNL A   1      40.937  25.555  25.106  1.00  0.00    -0.269 OA
BRANCH  39  42
ATOM     42  C   UNL A   1      42.044  26.601  26.904  1.00  0.00     0.039 A 
ATOM     43  C   UNL A   1      42.562  27.898  26.848  1.00  0.00     0.014 A 
ATOM     44  C   UNL A   1      41.453  26.142  28.076  1.00  0.00     0.014 A 
ATOM     45  C   UNL A   1      42.385  28.756  27.937  1.00  0.00     0.010 A 
ATOM     46  C   UNL A   1      41.097  27.050  29.056  1.00  0.00     0.010 A 
ATOM     47  C   UNL A   1      41.597  28.356  29.028  1.00  0.00    -0.014 A 
BRANCH  47  48
ATOM     48  C   UNL A   1      41.330  29.231  30.199  1.00  0.00     0.031 A 
ATOM     49  C   UNL A   1      42.206  29.090  31.423  1.00  0.00     0.074 A 
ATOM     50  C   UNL A   1      40.257  30.049  30.211  1.00  0.00     0.049 A 
ATOM     51  N   UNL A   1      42.040  29.579  32.623  1.00  0.00    -0.248 NA
ATOM     52  C   UNL A   1      43.383  28.206  31.306  1.00  0.00     0.031 C 
ATOM     53  C   UNL A   1      39.281  30.198  29.125  1.00  0.00     0.029 A 
ATOM     54  N   UNL A   1      39.799  30.905  31.178  1.00  0.00    -0.354 N 
ATOM     55  C   UNL A   1      43.035  29.000  33.405  1.00  0.00     0.074 A 
ATOM     56  C   UNL A   1      43.747  28.064  32.569  1.00  0.00     0.031 C 
ATOM     57  C   UNL A   1      38.371  31.123  29.472  1.00  0.00     0.029 A 
ATOM     58  C   UNL A   1      38.668  31.601  30.816  1.00  0.00     0.049 A 
ATOM     59  H   UNL A   1      40.237  31.012  32.053  1.00  0.00     0.167 HD
ATOM     60  C   UNL A   1      43.360  29.262  34.691  1.00  0.00     0.037 A 
ATOM     61  C   UNL A   1      37.960  32.522  31.497  1.00  0.00     0.037 A 
ATOM     62  C   UNL A   1      42.731  30.302  35.456  1.00  0.00     0.049 A 
ATOM     63  C   UNL A   1      38.425  32.899  32.879  1.00  0.00     0.074 A 
ATOM     64  C   UNL A   1      43.062  30.766  36.716  1.00  0.00     0.029 A 
ATOM     65  N   UNL A   1      41.661  31.064  35.011  1.00  0.00    -0.354 N 
ATOM     66  N   UNL A   1      39.418  32.398  33.578  1.00  0.00    -0.248 NA
ATOM     67  C   UNL A   1      37.689  33.971  33.562  1.00  0.00     0.031 C 
ATOM     68  C   UNL A   1      42.174  31.795  37.042  1.00  0.00     0.029 A 
ATOM     69  C   UNL A   1      41.315  31.995  35.972  1.00  0.00     0.049 A 
ATOM     70  H   UNL A   1      41.214  30.957  34.140  1.00  0.00     0.167 HD
ATOM     71  C   UNL A   1      39.440  33.109  34.771  1.00  0.00     0.074 A 
ATOM     72  C   UNL A   1      38.375  34.088  34.691  1.00  0.00     0.031 C 
ATOM     73  C   UNL A   1      40.260  32.967  35.843  1.00  0.00     0.037 A 
BRANCH  60  74
ATOM     74  C   UNL A   1      44.462  28.457  35.327  1.00  0.00     0.058 A 
ATOM     75  C   UNL A   1      44.205  27.274  36.040  1.00  0.00     0.135 A 
ATOM     76  C   UNL A   1      45.801  28.859  35.196  1.00  0.00     0.135 A 
ATOM     77  F   UNL A   1      42.943  26.849  36.215  1.00  0.00    -0.206 F 
ATOM     78  C   UNL A   1      45.228  26.540  36.629  1.00  0.00     0.059 A 
ATOM     79  C   UNL A   1      46.845  28.120  35.747  1.00  0.00     0.059 A 
ATOM     80  F   UNL A   1      46.108  29.982  34.528  1.00  0.00    -0.206 F 
ATOM     81  C   UNL A   1      46.546  26.968  36.474  1.00  0.00     0.060 A 
BRANCH  81  82
ATOM     82  S   UNL A   1      47.864  25.987  37.221  1.00  0.00     0.124 S 
ATOM     83  O   UNL A   1      49.044  26.532  36.558  1.00  0.00    -0.237 OA
ATOM     84  O   UNL A   1      47.728  26.310  38.638  1.00  0.00    -0.237 OA
ATOM     85  O   UNL A   1      47.515  24.617  36.857  1.00  0.00    -0.744 OA
ENDBRANCH  81  82
ENDBRANCH  60  74
BRANCH  61  86
ATOM     86  C   UNL A   1      36.777  33.179  30.876  1.00  0.00     0.058 A 
ATOM     87  C   UNL A   1      35.475  32.876  31.308  1.00  0.00     0.135 A 
ATOM     88  C   UNL A   1      36.915  34.123  29.848  1.00  0.00     0.135 A 
ATOM     89  F   UNL A   1      35.287  31.981  32.289  1.00  0.00    -0.206 F 
ATOM     90  C   UNL A   1      34.355  33.460  30.724  1.00  0.00     0.059 A 
ATOM     91  C   UNL A   1      35.812  34.742  29.265  1.00  0.00     0.059 A 
ATOM     92  F   UNL A   1      38.137  34.471  29.414  1.00  0.00    -0.206 F 
ATOM     93  C   UNL A   1      34.534  34.392  29.701  1.00  0.00     0.060 A 
BRANCH  93  94
ATOM     94  S   UNL A   1      33.075  35.169  28.970  1.00  0.00     0.124 S 
ATOM     95  O   UNL A   1      32.637  34.144  28.031  1.00  0.00    -0.237 OA
ATOM     96  O   UNL A   1      32.221  35.377  30.134  1.00  0.00    -0.237 OA
ATOM     97  O   UNL A   1      33.611  36.388  28.371  1.00  0.00    -0.744 OA
ENDBRANCH  93  94
ENDBRANCH  61  86
BRANCH  73  98
ATOM     98  C   UNL A   1      40.059  33.912  36.989  1.00  0.00     0.058 A 
ATOM     99  C   UNL A   1      40.719  35.149  37.040  1.00  0.00     0.135 A 
ATOM    100  C   UNL A   1      39.146  33.604  38.009  1.00  0.00     0.135 A 
ATOM    101  F   UNL A   1      41.604  35.484  36.088  1.00  0.00    -0.206 F 
ATOM    102  C   UNL A   1      40.496  36.042  38.081  1.00  0.00     0.059 A 
ATOM    103  C   UNL A   1      38.887  34.494  39.044  1.00  0.00     0.059 A 
ATOM    104  F   UNL A   1      38.480  32.437  37.992  1.00  0.00    -0.206 F 
ATOM    105  C   UNL A   1      39.577  35.705  39.076  1.00  0.00     0.060 A 
BRANCH 105 106
ATOM    106  S   UNL A   1      39.269  36.890  40.402  1.00  0.00     0.124 S 
ATOM    107  O   UNL A   1      40.626  37.282  40.764  1.00  0.00    -0.237 OA
ATOM    108  O   UNL A   1      38.471  37.910  39.731  1.00  0.00    -0.237 OA
ATOM    109  O   UNL A   1      38.554  36.101  41.402  1.00  0.00    -0.744 OA
ENDBRANCH 105 106
ENDBRANCH  73  98
ENDBRANCH  47  48
ENDBRANCH  39  42
ENDBRANCH  37  38
ENDBRANCH  36  37
ENDBRANCH  35  36
ENDBRANCH   1  35
TORSDOF 21
ENDMDL
MODEL 3
REMARK VINA RESULT:      -9.5      3.280      9.000
REMARK SMILES COc1cc(/C=C2/C(=O)N(c3ccccc3)C(=O)[NH+]=C2NCCCCCCNC(=O)c2ccc(-c3c4nc(c(-c5c(F)cc(S(=O)(=O)[O-])cc5F)c5ccc([nH]5)c(-c5c(F)cc(S(=O)(=O)[O-])cc5F)c5nc(c(-c6c(F)cc(S(=O)(=O)[O-])cc6F)c6ccc3[nH]6)C=C5)C=C4)cc2)ccc1OCC(=O)[O-]
REMARK SMILES IDX 24 1 23 2 22 3 21 4 6 5 7 6 8 7 20 8 9 9 10 10 19 11 17 12
REMARK SMILES IDX 18 15 5 16 3 17 4 18 99 19 98 20 97 21 2 22 1 23 100 24
REMARK SMILES IDX 101 25 102 26 103 27 104 28 11 29 12 30 16 31 13 32 15 33
REMARK SMILES IDX 14 34 25 35 26 36 27 37 28 38 29 39 30 41 31 42 32 43 96 44
REMARK SMILES IDX 33 45 95 46 34 47 35 48 36 49 89 50 37 51 94 52 88 53 90 54
REMARK SMILES IDX 38 55 93 56 87 57 86 58 39 60 73 61 52 62 72 63 53 64 56 65
REMARK SMILES IDX 71 66 91 67 54 68 55 69 70 71 92 72 57 73 40 74 41 75 50 76
REMARK SMILES IDX 42 77 43 78 49 79 51 80 44 81 45 82 46 83 47 84 48 85 74 86
REMARK SMILES IDX 75 87 84 88 76 89 77 90 83 91 85 92 78 93 79 94 80 95 81 96
REMARK SMILES IDX 82 97 58 98 59 99 68 100 60 101 61 102 67 103 69 104 62 105
REMARK SMILES IDX 63 106 64 107 65 108 66 109
REMARK H PARENT 19 13 21 14 28 40 90 59 56 70
REMARK Flexibility Score: inf
ROOT
ATOM      1  C   UNL A   1      40.514  34.307  34.872  1.00  0.00     0.003 C 
ENDROOT
BRANCH   1   2
ATOM      2  C   UNL A   1      40.079  34.362  33.184  1.00  0.00     0.037 C 
BRANCH   2   3
ATOM      3  C   UNL A   1      39.960  32.890  31.559  1.00  0.00     0.194 C 
BRANCH   3   4
ATOM      4  N   UNL A   1      41.109  32.063  30.833  1.00  0.00    -0.305 N 
ATOM      5  C   UNL A   1      38.640  30.366  30.304  1.00  0.00     0.030 C 
ATOM      6  C   UNL A   1      39.797  30.235  29.632  1.00  0.00     0.129 C 
ATOM      7  C   UNL A   1      39.916  29.304  28.494  1.00  0.00     0.328 C 
ATOM      8  C   UNL A   1      41.046  30.922  30.064  1.00  0.00     0.236 C 
ATOM      9  O   UNL A   1      38.920  28.956  27.861  1.00  0.00    -0.249 OA
ATOM     10  N   UNL A   1      41.211  28.830  28.312  1.00  0.00    -0.155 N 
ATOM     11  N   UNL A   1      42.201  30.390  29.795  1.00  0.00    -0.209 N 
ATOM     12  C   UNL A   1      42.260  29.173  29.169  1.00  0.00     0.448 C 
ATOM     13  H   UNL A   1      43.030  30.861  30.040  1.00  0.00     0.270 HD
ATOM     14  H   UNL A   1      42.014  32.429  30.952  1.00  0.00     0.256 HD
ATOM     15  O   UNL A   1      43.231  28.445  29.367  1.00  0.00    -0.212 OA
BRANCH   5  16
ATOM     16  C   UNL A   1      38.675  31.243  31.465  1.00  0.00    -0.021 A 
ATOM     17  C   UNL A   1      36.760  33.126  33.096  1.00  0.00     0.161 A 
ATOM     18  C   UNL A   1      37.444  32.576  31.503  1.00  0.00     0.058 A 
ATOM     19  C   UNL A   1      37.428  32.491  34.638  1.00  0.00     0.161 A 
ATOM     20  C   UNL A   1      38.677  31.187  34.595  1.00  0.00     0.051 A 
ATOM     21  C   UNL A   1      39.344  30.599  33.022  1.00  0.00     0.012 A 
BRANCH  17  22
ATOM     22  O   UNL A   1      35.641  33.890  32.922  1.00  0.00    -0.493 OA
ATOM     23  C   UNL A   1      35.759  35.277  33.170  1.00  0.00     0.278 C 
ENDBRANCH  17  22
BRANCH  19  24
ATOM     24  O   UNL A   1      36.681  32.594  35.790  1.00  0.00    -0.484 OA
BRANCH  24  25
ATOM     25  C   UNL A   1      37.259  33.407  36.801  1.00  0.00     0.282 C 
BRANCH  25  26
ATOM     26  C   UNL A   1      37.349  32.675  38.130  1.00  0.00     0.079 C 
ATOM     27  O   UNL A   1      38.350  32.174  38.617  1.00  0.00    -0.546 OA
ATOM     28  O   UNL A   1      36.164  32.566  38.759  1.00  0.00    -0.546 OA
ENDBRANCH  25  26
ENDBRANCH  24  25
ENDBRANCH  19  24
ENDBRANCH   5  16
BRANCH  10  29
ATOM     29  C   UNL A   1      41.434  27.852  27.306  1.00  0.00     0.111 A 
ATOM     30  C   UNL A   1      41.237  26.487  27.550  1.00  0.00     0.044 A 
ATOM     31  C   UNL A   1      41.903  28.267  26.053  1.00  0.00     0.044 A 
ATOM     32  C   UNL A   1      41.495  25.552  26.548  1.00  0.00     0.004 A 
ATOM     33  C   UNL A   1      42.193  27.329  25.065  1.00  0.00     0.004 A 
ATOM     34  C   UNL A   1      41.981  25.973  25.310  1.00  0.00     0.000 A 
ENDBRANCH  10  29
ENDBRANCH   3   4
ENDBRANCH   2   3
ENDBRANCH   1   2
BRANCH   1  35
ATOM     35  C   UNL A   1      41.595  35.298  35.300  1.00  0.00     0.002 C 
BRANCH  35  36
ATOM     36  C   UNL A   1      41.661  35.444  36.809  1.00  0.00     0.021 C 
BRANCH  36  37
ATOM     37  C   UNL A   1      40.537  34.762  37.544  1.00  0.00     0.116 C 
BRANCH  37  38
ATOM     38  N   UNL A   1      40.923  34.109  38.785  1.00  0.00    -0.352 N 
ATOM     39  C   UNL A   1      41.719  33.006  39.000  1.00  0.00     0.251 C 
ATOM     40  H   UNL A   1      40.557  34.521  39.601  1.00  0.00     0.163 HD
ATOM     41  O   UNL A   1      41.888  32.583  40.141  1.00  0.00    -0.269 OA
BRANCH  39  42
ATOM     42  C   UNL A   1      42.281  32.282  37.837  1.00  0.00     0.039 A 
ATOM     43  C   UNL A   1      41.422  31.613  36.961  1.00  0.00     0.014 A 
ATOM     44  C   UNL A   1      43.636  32.376  37.540  1.00  0.00     0.014 A 
ATOM     45  C   UNL A   1      41.916  31.137  35.744  1.00  0.00     0.010 A 
ATOM     46  C   UNL A   1      44.070  32.096  36.258  1.00  0.00     0.010 A 
ATOM     47  C   UNL A   1      43.233  31.428  35.356  1.00  0.00    -0.014 A 
BRANCH  47  48
ATOM     48  C   UNL A   1      43.812  30.993  34.059  1.00  0.00     0.031 A 
ATOM     49  C   UNL A   1      44.276  29.560  33.917  1.00  0.00     0.074 A 
ATOM     50  C   UNL A   1      44.025  31.886  33.071  1.00  0.00     0.049 A 
ATOM     51  N   UNL A   1      44.997  29.011  32.976  1.00  0.00    -0.248 NA
ATOM     52  C   UNL A   1      43.963  28.642  35.030  1.00  0.00     0.031 C 
ATOM     53  C   UNL A   1      43.709  33.318  33.127  1.00  0.00     0.029 A 
ATOM     54  N   UNL A   1      44.570  31.724  31.823  1.00  0.00    -0.354 N 
ATOM     55  C   UNL A   1      45.282  27.725  33.424  1.00  0.00     0.074 A 
ATOM     56  C   UNL A   1      44.731  27.602  34.752  1.00  0.00     0.031 C 
ATOM     57  C   UNL A   1      44.024  33.888  31.953  1.00  0.00     0.029 A 
ATOM     58  C   UNL A   1      44.602  32.878  31.075  1.00  0.00     0.049 A 
ATOM     59  H   UNL A   1      44.908  30.860  31.492  1.00  0.00     0.167 HD
ATOM     60  C   UNL A   1      45.902  26.718  32.769  1.00  0.00     0.037 A 
ATOM     61  C   UNL A   1      45.049  33.089  29.822  1.00  0.00     0.037 A 
ATOM     62  C   UNL A   1      46.311  26.820  31.396  1.00  0.00     0.049 A 
ATOM     63  C   UNL A   1      45.611  31.917  29.060  1.00  0.00     0.074 A 
ATOM     64  C   UNL A   1      46.818  25.832  30.572  1.00  0.00     0.029 A 
ATOM     65  N   UNL A   1      46.223  27.977  30.636  1.00  0.00    -0.354 N 
ATOM     66  N   UNL A   1      45.803  30.685  29.471  1.00  0.00    -0.248 NA
ATOM     67  C   UNL A   1      46.004  32.155  27.665  1.00  0.00     0.031 C 
ATOM     68  C   UNL A   1      47.060  26.400  29.318  1.00  0.00     0.029 A 
ATOM     69  C   UNL A   1      46.669  27.730  29.351  1.00  0.00     0.049 A 
ATOM     70  H   UNL A   1      45.892  28.844  30.963  1.00  0.00     0.167 HD
ATOM     71  C   UNL A   1      46.316  29.996  28.380  1.00  0.00     0.074 A 
ATOM     72  C   UNL A   1      46.386  30.943  27.285  1.00  0.00     0.031 C 
ATOM     73  C   UNL A   1      46.702  28.698  28.285  1.00  0.00     0.037 A 
BRANCH  60  74
ATOM     74  C   UNL A   1      46.129  25.423  33.501  1.00  0.00     0.058 A 
ATOM     75  C   UNL A   1      45.184  24.384  33.489  1.00  0.00     0.135 A 
ATOM     76  C   UNL A   1      47.325  25.204  34.203  1.00  0.00     0.135 A 
ATOM     77  F   UNL A   1      44.012  24.541  32.850  1.00  0.00    -0.206 F 
ATOM     78  C   UNL A   1      45.399  23.192  34.173  1.00  0.00     0.059 A 
ATOM     79  C   UNL A   1      47.578  24.006  34.866  1.00  0.00     0.059 A 
ATOM     80  F   UNL A   1      48.264  26.163  34.254  1.00  0.00    -0.206 F 
ATOM     81  C   UNL A   1      46.601  23.011  34.856  1.00  0.00     0.060 A 
BRANCH  81  82
ATOM     82  S   UNL A   1      46.876  21.447  35.715  1.00  0.00     0.124 S 
ATOM     83  O   UNL A   1      48.329  21.333  35.654  1.00  0.00    -0.237 OA
ATOM     84  O   UNL A   1      46.316  21.715  37.036  1.00  0.00    -0.237 OA
ATOM     85  O   UNL A   1      46.135  20.482  34.908  1.00  0.00    -0.744 OA
ENDBRANCH  81  82
ENDBRANCH  60  74
BRANCH  61  86
ATOM     86  C   UNL A   1      44.944  34.436  29.197  1.00  0.00     0.058 A 
ATOM     87  C   UNL A   1      43.721  34.900  28.685  1.00  0.00     0.135 A 
ATOM     88  C   UNL A   1      46.052  35.291  29.101  1.00  0.00     0.135 A 
ATOM     89  F   UNL A   1      42.630  34.123  28.753  1.00  0.00    -0.206 F 
ATOM     90  C   UNL A   1      43.607  36.146  28.076  1.00  0.00     0.059 A 
ATOM     91  C   UNL A   1      45.959  36.552  28.520  1.00  0.00     0.059 A 
ATOM     92  F   UNL A   1      47.240  34.910  29.598  1.00  0.00    -0.206 F 
ATOM     93  C   UNL A   1      44.733  36.965  27.996  1.00  0.00     0.060 A 
BRANCH  93  94
ATOM     94  S   UNL A   1      44.569  38.594  27.231  1.00  0.00     0.124 S 
ATOM     95  O   UNL A   1      43.273  38.480  26.574  1.00  0.00    -0.237 OA
ATOM     96  O   UNL A   1      44.625  39.484  28.386  1.00  0.00    -0.237 OA
ATOM     97  O   UNL A   1      45.725  38.663  26.341  1.00  0.00    -0.744 OA
ENDBRANCH  93  94
ENDBRANCH  61  86
BRANCH  73  98
ATOM     98  C   UNL A   1      47.195  28.226  26.950  1.00  0.00     0.058 A 
ATOM     99  C   UNL A   1      46.307  27.809  25.948  1.00  0.00     0.135 A 
ATOM    100  C   UNL A   1      48.566  28.257  26.651  1.00  0.00     0.135 A 
ATOM    101  F   UNL A   1      44.987  27.760  26.192  1.00  0.00    -0.206 F 
ATOM    102  C   UNL A   1      46.765  27.416  24.697  1.00  0.00     0.059 A 
ATOM    103  C   UNL A   1      49.043  27.894  25.398  1.00  0.00     0.059 A 
ATOM    104  F   UNL A   1      49.452  28.663  27.575  1.00  0.00    -0.206 F 
ATOM    105  C   UNL A   1      48.134  27.464  24.432  1.00  0.00     0.060 A 
BRANCH 105 106
ATOM    106  S   UNL A   1      48.712  26.985  22.791  1.00  0.00     0.124 S 
ATOM    107  O   UNL A   1      47.939  27.879  21.936  1.00  0.00    -0.237 OA
ATOM    108  O   UNL A   1      50.143  27.262  22.870  1.00  0.00    -0.237 OA
ATOM    109  O   UNL A   1      48.358  25.571  22.706  1.00  0.00    -0.744 OA
ENDBRANCH 105 106
ENDBRANCH  73  98
ENDBRANCH  47  48
ENDBRANCH  39  42
ENDBRANCH  37  38
ENDBRANCH  36  37
ENDBRANCH  35  36
ENDBRANCH   1  35
TORSDOF 21
ENDMDL
