MODEL 1
REMARK VINA RESULT:     -10.3      0.000      0.000
REMARK SMILES COc1ccccc1S(=O)(=O)[C@@H](C)[C@H](C)C(=O)NCCCCCCNC(=O)c1ccc(-c2c3nc(c(-c4c(F)cc(S(=O)(=O)[O-])cc4F)c4ccc([nH]4)c(-c4c(F)cc(S(=O)(=O)[O-])cc4F)c4nc(c(-c5c(F)cc(S(=O)(=O)[O-])cc5F)c5ccc2[nH]5)C=C4)C=C3)cc1
REMARK SMILES IDX 21 1 20 2 19 3 18 4 16 5 17 6 14 8 15 9 12 10 13 11 9 12
REMARK SMILES IDX 10 13 11 14 8 15 3 16 4 17 5 18 7 19 6 20 2 21 1 22 22 23
REMARK SMILES IDX 23 24 24 25 25 26 26 27 27 29 28 30 29 31 93 32 30 33 92 34
REMARK SMILES IDX 31 35 32 36 33 37 86 38 34 39 91 40 85 41 87 42 35 43 90 44
REMARK SMILES IDX 84 45 83 46 36 48 70 49 49 50 69 51 50 52 53 53 68 54 88 55
REMARK SMILES IDX 51 56 52 57 67 59 89 60 54 61 37 62 38 63 47 64 39 65 40 66
REMARK SMILES IDX 46 67 48 68 41 69 42 70 43 71 44 72 45 73 71 74 72 75 81 76
REMARK SMILES IDX 73 77 74 78 80 79 82 80 75 81 76 82 77 83 78 84 79 85 55 86
REMARK SMILES IDX 56 87 65 88 57 89 58 90 64 91 66 92 59 93 60 94 61 95 62 96
REMARK SMILES IDX 63 97
REMARK H PARENT 18 7 25 28 87 47 53 58
REMARK Flexibility Score: inf
ROOT
ATOM      1  C   UNL A   1      34.044  32.545  28.389  1.00  0.00     0.002 C 
ENDROOT
BRANCH   1   2
ATOM      2  C   UNL A   1      34.026  31.562  27.215  1.00  0.00     0.021 C 
BRANCH   2   3
ATOM      3  C   UNL A   1      34.192  30.091  27.576  1.00  0.00     0.116 C 
BRANCH   3   4
ATOM      4  N   UNL A   1      32.952  29.394  27.855  1.00  0.00    -0.356 N 
ATOM      5  C   UNL A   1      32.374  28.329  27.227  1.00  0.00     0.224 C 
ATOM      6  O   UNL A   1      31.444  27.769  27.814  1.00  0.00    -0.275 OA
ATOM      7  H   UNL A   1      32.444  29.744  28.623  1.00  0.00     0.163 HD
BRANCH   5   8
ATOM      8  C   UNL A   1      32.802  27.845  25.836  1.00  0.00     0.093 C 
ATOM      9  C   UNL A   1      33.524  26.507  25.954  1.00  0.00     0.019 C 
BRANCH   8  10
ATOM     10  C   UNL A   1      31.778  28.133  24.705  1.00  0.00     0.122 C 
ATOM     11  C   UNL A   1      31.096  29.491  24.577  1.00  0.00     0.026 C 
BRANCH  10  12
ATOM     12  S   UNL A   1      30.771  26.783  24.136  1.00  0.00     0.185 S 
ATOM     13  O   UNL A   1      29.939  27.331  23.072  1.00  0.00    -0.223 OA
ATOM     14  O   UNL A   1      30.112  26.239  25.314  1.00  0.00    -0.223 OA
BRANCH  12  15
ATOM     15  C   UNL A   1      31.554  25.370  23.398  1.00  0.00     0.109 A 
ATOM     16  C   UNL A   1      31.531  24.059  23.851  1.00  0.00     0.137 A 
ATOM     17  C   UNL A   1      32.392  23.115  23.257  1.00  0.00     0.048 A 
ATOM     18  C   UNL A   1      33.149  23.433  22.128  1.00  0.00     0.004 A 
ATOM     19  C   UNL A   1      32.296  25.674  22.234  1.00  0.00     0.024 A 
ATOM     20  C   UNL A   1      33.071  24.710  21.591  1.00  0.00     0.002 A 
BRANCH  16  21
ATOM     21  O   UNL A   1      30.741  23.692  24.895  1.00  0.00    -0.495 OA
ATOM     22  C   UNL A   1      31.274  22.609  25.664  1.00  0.00     0.278 C 
ENDBRANCH  16  21
ENDBRANCH  12  15
ENDBRANCH  10  12
ENDBRANCH   8  10
ENDBRANCH   5   8
ENDBRANCH   3   4
ENDBRANCH   2   3
ENDBRANCH   1   2
BRANCH   1  23
ATOM     23  C   UNL A   1      35.141  33.615  28.368  1.00  0.00     0.002 C 
BRANCH  23  24
ATOM     24  C   UNL A   1      36.569  33.139  28.653  1.00  0.00     0.021 C 
BRANCH  24  25
ATOM     25  C   UNL A   1      36.957  33.044  30.127  1.00  0.00     0.116 C 
BRANCH  25  26
ATOM     26  N   UNL A   1      36.363  31.895  30.787  1.00  0.00    -0.352 N 
ATOM     27  C   UNL A   1      36.780  30.588  30.826  1.00  0.00     0.251 C 
ATOM     28  H   UNL A   1      35.533  32.082  31.283  1.00  0.00     0.163 HD
ATOM     29  O   UNL A   1      36.031  29.728  31.290  1.00  0.00    -0.269 OA
BRANCH  27  30
ATOM     30  C   UNL A   1      38.110  30.200  30.304  1.00  0.00     0.039 A 
ATOM     31  C   UNL A   1      38.269  30.020  28.926  1.00  0.00     0.014 A 
ATOM     32  C   UNL A   1      39.187  29.970  31.165  1.00  0.00     0.014 A 
ATOM     33  C   UNL A   1      39.518  29.664  28.408  1.00  0.00     0.010 A 
ATOM     34  C   UNL A   1      40.446  29.673  30.643  1.00  0.00     0.010 A 
ATOM     35  C   UNL A   1      40.625  29.515  29.260  1.00  0.00    -0.014 A 
BRANCH  35  36
ATOM     36  C   UNL A   1      41.972  29.190  28.724  1.00  0.00     0.031 A 
ATOM     37  C   UNL A   1      42.284  27.796  28.251  1.00  0.00     0.074 A 
ATOM     38  C   UNL A   1      42.935  30.133  28.725  1.00  0.00     0.049 A 
ATOM     39  N   UNL A   1      43.420  27.301  27.828  1.00  0.00    -0.248 NA
ATOM     40  C   UNL A   1      41.182  26.821  28.282  1.00  0.00     0.031 C 
ATOM     41  C   UNL A   1      42.770  31.508  29.200  1.00  0.00     0.029 A 
ATOM     42  N   UNL A   1      44.248  30.075  28.329  1.00  0.00    -0.354 N 
ATOM     43  C   UNL A   1      43.174  25.959  27.561  1.00  0.00     0.074 A 
ATOM     44  C   UNL A   1      41.794  25.705  27.911  1.00  0.00     0.031 C 
ATOM     45  C   UNL A   1      43.930  32.168  29.053  1.00  0.00     0.029 A 
ATOM     46  C   UNL A   1      44.931  31.256  28.507  1.00  0.00     0.049 A 
ATOM     47  H   UNL A   1      44.661  29.266  27.952  1.00  0.00     0.167 HD
ATOM     48  C   UNL A   1      44.017  25.027  27.052  1.00  0.00     0.037 A 
ATOM     49  C   UNL A   1      46.219  31.568  28.267  1.00  0.00     0.037 A 
ATOM     50  C   UNL A   1      45.381  25.294  26.675  1.00  0.00     0.049 A 
ATOM     51  C   UNL A   1      47.133  30.521  27.688  1.00  0.00     0.074 A 
ATOM     52  C   UNL A   1      46.296  24.435  26.090  1.00  0.00     0.029 A 
ATOM     53  N   UNL A   1      46.028  26.510  26.842  1.00  0.00    -0.354 N 
ATOM     54  N   UNL A   1      46.867  29.272  27.388  1.00  0.00    -0.248 NA
ATOM     55  C   UNL A   1      48.517  30.926  27.410  1.00  0.00     0.031 C 
ATOM     56  C   UNL A   1      47.506  25.120  25.940  1.00  0.00     0.029 A 
ATOM     57  C   UNL A   1      47.334  26.419  26.390  1.00  0.00     0.049 A 
ATOM     58  H   UNL A   1      45.617  27.319  27.227  1.00  0.00     0.167 HD
ATOM     59  C   UNL A   1      48.042  28.750  26.861  1.00  0.00     0.074 A 
ATOM     60  C   UNL A   1      49.019  29.820  26.875  1.00  0.00     0.031 C 
ATOM     61  C   UNL A   1      48.291  27.497  26.405  1.00  0.00     0.037 A 
BRANCH  48  62
ATOM     62  C   UNL A   1      43.487  23.632  26.869  1.00  0.00     0.058 A 
ATOM     63  C   UNL A   1      43.293  22.767  27.958  1.00  0.00     0.135 A 
ATOM     64  C   UNL A   1      43.135  23.164  25.593  1.00  0.00     0.135 A 
ATOM     65  F   UNL A   1      43.626  23.158  29.199  1.00  0.00    -0.206 F 
ATOM     66  C   UNL A   1      42.799  21.478  27.785  1.00  0.00     0.059 A 
ATOM     67  C   UNL A   1      42.613  21.888  25.399  1.00  0.00     0.059 A 
ATOM     68  F   UNL A   1      43.299  23.949  24.515  1.00  0.00    -0.206 F 
ATOM     69  C   UNL A   1      42.464  21.047  26.500  1.00  0.00     0.060 A 
BRANCH  69  70
ATOM     70  S   UNL A   1      41.824  19.372  26.290  1.00  0.00     0.124 S 
ATOM     71  O   UNL A   1      42.554  18.932  25.103  1.00  0.00    -0.237 OA
ATOM     72  O   UNL A   1      42.210  18.729  27.544  1.00  0.00    -0.237 OA
ATOM     73  O   UNL A   1      40.394  19.574  26.107  1.00  0.00    -0.744 OA
ENDBRANCH  69  70
ENDBRANCH  48  62
BRANCH  49  74
ATOM     74  C   UNL A   1      46.714  32.941  28.550  1.00  0.00     0.058 A 
ATOM     75  C   UNL A   1      46.634  33.950  27.579  1.00  0.00     0.135 A 
ATOM     76  C   UNL A   1      47.256  33.277  29.801  1.00  0.00     0.135 A 
ATOM     77  F   UNL A   1      46.129  33.674  26.367  1.00  0.00    -0.206 F 
ATOM     78  C   UNL A   1      47.084  35.241  27.831  1.00  0.00     0.059 A 
ATOM     79  C   UNL A   1      47.690  34.568  30.085  1.00  0.00     0.059 A 
ATOM     80  F   UNL A   1      47.338  32.351  30.768  1.00  0.00    -0.206 F 
ATOM     81  C   UNL A   1      47.608  35.541  29.090  1.00  0.00     0.060 A 
BRANCH  81  82
ATOM     82  S   UNL A   1      48.136  37.236  29.428  1.00  0.00     0.124 S 
ATOM     83  O   UNL A   1      47.191  38.002  28.624  1.00  0.00    -0.237 OA
ATOM     84  O   UNL A   1      47.965  37.326  30.875  1.00  0.00    -0.237 OA
ATOM     85  O   UNL A   1      49.520  37.252  28.967  1.00  0.00    -0.744 OA
ENDBRANCH  81  82
ENDBRANCH  49  74
BRANCH  61  86
ATOM     86  C   UNL A   1      49.663  27.220  25.857  1.00  0.00     0.058 A 
ATOM     87  C   UNL A   1      50.706  26.764  26.677  1.00  0.00     0.135 A 
ATOM     88  C   UNL A   1      49.920  27.361  24.484  1.00  0.00     0.135 A 
ATOM     89  F   UNL A   1      50.513  26.619  27.997  1.00  0.00    -0.206 F 
ATOM     90  C   UNL A   1      51.964  26.477  26.158  1.00  0.00     0.059 A 
ATOM     91  C   UNL A   1      51.162  27.056  23.939  1.00  0.00     0.059 A 
ATOM     92  F   UNL A   1      48.952  27.784  23.655  1.00  0.00    -0.206 F 
ATOM     93  C   UNL A   1      52.182  26.624  24.787  1.00  0.00     0.060 A 
BRANCH  93  94
ATOM     94  S   UNL A   1      53.808  26.212  24.118  1.00  0.00     0.124 S 
ATOM     95  O   UNL A   1      54.585  27.390  24.490  1.00  0.00    -0.237 OA
ATOM     96  O   UNL A   1      54.139  24.983  24.834  1.00  0.00    -0.237 OA
ATOM     97  O   UNL A   1      53.556  26.050  22.689  1.00  0.00    -0.744 OA
ENDBRANCH  93  94
ENDBRANCH  61  86
ENDBRANCH  35  36
ENDBRANCH  27  30
ENDBRANCH  25  26
ENDBRANCH  24  25
ENDBRANCH  23  24
ENDBRANCH   1  23
TORSDOF 20
ENDMDL
MODEL 2
REMARK VINA RESULT:     -10.3      7.475     14.581
REMARK SMILES COc1ccccc1S(=O)(=O)[C@@H](C)[C@H](C)C(=O)NCCCCCCNC(=O)c1ccc(-c2c3nc(c(-c4c(F)cc(S(=O)(=O)[O-])cc4F)c4ccc([nH]4)c(-c4c(F)cc(S(=O)(=O)[O-])cc4F)c4nc(c(-c5c(F)cc(S(=O)(=O)[O-])cc5F)c5ccc2[nH]5)C=C4)C=C3)cc1
REMARK SMILES IDX 21 1 20 2 19 3 18 4 16 5 17 6 14 8 15 9 12 10 13 11 9 12
REMARK SMILES IDX 10 13 11 14 8 15 3 16 4 17 5 18 7 19 6 20 2 21 1 22 22 23
REMARK SMILES IDX 23 24 24 25 25 26 26 27 27 29 28 30 29 31 93 32 30 33 92 34
REMARK SMILES IDX 31 35 32 36 33 37 86 38 34 39 91 40 85 41 87 42 35 43 90 44
REMARK SMILES IDX 84 45 83 46 36 48 70 49 49 50 69 51 50 52 53 53 68 54 88 55
REMARK SMILES IDX 51 56 52 57 67 59 89 60 54 61 37 62 38 63 47 64 39 65 40 66
REMARK SMILES IDX 46 67 48 68 41 69 42 70 43 71 44 72 45 73 71 74 72 75 81 76
REMARK SMILES IDX 73 77 74 78 80 79 82 80 75 81 76 82 77 83 78 84 79 85 55 86
REMARK SMILES IDX 56 87 65 88 57 89 58 90 64 91 66 92 59 93 60 94 61 95 62 96
REMARK SMILES IDX 63 97
REMARK H PARENT 18 7 25 28 87 47 53 58
REMARK Flexibility Score: inf
ROOT
ATOM      1  C   UNL A   1      44.311  24.412  30.296  1.00  0.00     0.002 C 
ENDROOT
BRANCH   1   2
ATOM      2  C   UNL A   1      44.466  24.205  31.805  1.00  0.00     0.021 C 
BRANCH   2   3
ATOM      3  C   UNL A   1      43.821  22.946  32.374  1.00  0.00     0.116 C 
BRANCH   3   4
ATOM      4  N   UNL A   1      43.253  23.103  33.697  1.00  0.00    -0.356 N 
ATOM      5  C   UNL A   1      43.859  23.210  34.915  1.00  0.00     0.224 C 
ATOM      6  O   UNL A   1      43.160  23.587  35.859  1.00  0.00    -0.275 OA
ATOM      7  H   UNL A   1      42.269  23.138  33.723  1.00  0.00     0.163 HD
BRANCH   5   8
ATOM      8  C   UNL A   1      45.332  22.850  35.150  1.00  0.00     0.093 C 
ATOM      9  C   UNL A   1      46.207  24.078  34.925  1.00  0.00     0.019 C 
BRANCH   8  10
ATOM     10  C   UNL A   1      45.579  21.866  36.326  1.00  0.00     0.122 C 
ATOM     11  C   UNL A   1      45.842  22.369  37.742  1.00  0.00     0.026 C 
BRANCH  10  12
ATOM     12  S   UNL A   1      46.394  20.329  35.963  1.00  0.00     0.185 S 
ATOM     13  O   UNL A   1      45.658  19.743  34.850  1.00  0.00    -0.223 OA
ATOM     14  O   UNL A   1      46.452  19.590  37.215  1.00  0.00    -0.223 OA
BRANCH  12  15
ATOM     15  C   UNL A   1      48.081  20.354  35.408  1.00  0.00     0.109 A 
ATOM     16  C   UNL A   1      49.208  20.688  36.145  1.00  0.00     0.137 A 
ATOM     17  C   UNL A   1      50.435  20.864  35.476  1.00  0.00     0.048 A 
ATOM     18  C   UNL A   1      50.573  20.560  34.121  1.00  0.00     0.004 A 
ATOM     19  C   UNL A   1      48.237  20.015  34.045  1.00  0.00     0.024 A 
ATOM     20  C   UNL A   1      49.476  20.097  33.410  1.00  0.00     0.002 A 
BRANCH  16  21
ATOM     21  O   UNL A   1      49.129  20.908  37.485  1.00  0.00    -0.495 OA
ATOM     22  C   UNL A   1      50.372  20.722  38.170  1.00  0.00     0.278 C 
ENDBRANCH  16  21
ENDBRANCH  12  15
ENDBRANCH  10  12
ENDBRANCH   8  10
ENDBRANCH   5   8
ENDBRANCH   3   4
ENDBRANCH   2   3
ENDBRANCH   1   2
BRANCH   1  23
ATOM     23  C   UNL A   1      43.581  23.307  29.526  1.00  0.00     0.002 C 
BRANCH  23  24
ATOM     24  C   UNL A   1      44.108  22.987  28.123  1.00  0.00     0.021 C 
BRANCH  24  25
ATOM     25  C   UNL A   1      44.720  24.159  27.359  1.00  0.00     0.116 C 
BRANCH  25  26
ATOM     26  N   UNL A   1      43.937  24.537  26.195  1.00  0.00    -0.352 N 
ATOM     27  C   UNL A   1      42.905  25.434  26.081  1.00  0.00     0.251 C 
ATOM     28  H   UNL A   1      44.184  24.077  25.360  1.00  0.00     0.163 HD
ATOM     29  O   UNL A   1      42.250  25.473  25.039  1.00  0.00    -0.269 OA
BRANCH  27  30
ATOM     30  C   UNL A   1      42.563  26.344  27.197  1.00  0.00     0.039 A 
ATOM     31  C   UNL A   1      41.533  25.981  28.073  1.00  0.00     0.014 A 
ATOM     32  C   UNL A   1      43.217  27.568  27.361  1.00  0.00     0.014 A 
ATOM     33  C   UNL A   1      41.199  26.819  29.142  1.00  0.00     0.010 A 
ATOM     34  C   UNL A   1      42.923  28.374  28.461  1.00  0.00     0.010 A 
ATOM     35  C   UNL A   1      41.910  28.010  29.361  1.00  0.00    -0.014 A 
BRANCH  35  36
ATOM     36  C   UNL A   1      41.605  28.887  30.522  1.00  0.00     0.031 A 
ATOM     37  C   UNL A   1      42.407  28.771  31.790  1.00  0.00     0.074 A 
ATOM     38  C   UNL A   1      40.564  29.740  30.458  1.00  0.00     0.049 A 
ATOM     39  N   UNL A   1      42.241  29.388  32.932  1.00  0.00    -0.248 NA
ATOM     40  C   UNL A   1      43.527  27.816  31.783  1.00  0.00     0.031 C 
ATOM     41  C   UNL A   1      39.683  29.912  29.301  1.00  0.00     0.029 A 
ATOM     42  N   UNL A   1      40.060  30.612  31.390  1.00  0.00    -0.354 N 
ATOM     43  C   UNL A   1      43.220  28.886  33.782  1.00  0.00     0.074 A 
ATOM     44  C   UNL A   1      43.948  27.880  33.039  1.00  0.00     0.031 C 
ATOM     45  C   UNL A   1      38.758  30.842  29.586  1.00  0.00     0.029 A 
ATOM     46  C   UNL A   1      38.956  31.308  30.956  1.00  0.00     0.049 A 
ATOM     47  H   UNL A   1      40.451  30.728  32.285  1.00  0.00     0.167 HD
ATOM     48  C   UNL A   1      43.499  29.243  35.060  1.00  0.00     0.037 A 
ATOM     49  C   UNL A   1      38.185  32.213  31.589  1.00  0.00     0.037 A 
ATOM     50  C   UNL A   1      42.792  30.268  35.783  1.00  0.00     0.049 A 
ATOM     51  C   UNL A   1      38.523  32.605  33.002  1.00  0.00     0.074 A 
ATOM     52  C   UNL A   1      43.041  30.749  37.057  1.00  0.00     0.029 A 
ATOM     53  N   UNL A   1      41.700  30.972  35.298  1.00  0.00    -0.354 N 
ATOM     54  N   UNL A   1      39.489  32.161  33.771  1.00  0.00    -0.248 NA
ATOM     55  C   UNL A   1      37.673  33.624  33.632  1.00  0.00     0.031 C 
ATOM     56  C   UNL A   1      42.075  31.716  37.357  1.00  0.00     0.029 A 
ATOM     57  C   UNL A   1      41.251  31.869  36.253  1.00  0.00     0.049 A 
ATOM     58  H   UNL A   1      41.302  30.851  34.405  1.00  0.00     0.167 HD
ATOM     59  C   UNL A   1      39.378  32.864  34.964  1.00  0.00     0.074 A 
ATOM     60  C   UNL A   1      38.259  33.770  34.814  1.00  0.00     0.031 C 
ATOM     61  C   UNL A   1      40.138  32.769  36.085  1.00  0.00     0.037 A 
BRANCH  48  62
ATOM     62  C   UNL A   1      44.621  28.523  35.757  1.00  0.00     0.058 A 
ATOM     63  C   UNL A   1      45.953  28.955  35.650  1.00  0.00     0.135 A 
ATOM     64  C   UNL A   1      44.358  27.409  36.569  1.00  0.00     0.135 A 
ATOM     65  F   UNL A   1      46.263  30.006  34.875  1.00  0.00    -0.206 F 
ATOM     66  C   UNL A   1      46.988  28.288  36.299  1.00  0.00     0.059 A 
ATOM     67  C   UNL A   1      45.374  26.743  37.249  1.00  0.00     0.059 A 
ATOM     68  F   UNL A   1      43.102  26.953  36.707  1.00  0.00    -0.206 F 
ATOM     69  C   UNL A   1      46.687  27.181  37.095  1.00  0.00     0.060 A 
BRANCH  69  70
ATOM     70  S   UNL A   1      48.039  26.326  37.932  1.00  0.00     0.124 S 
ATOM     71  O   UNL A   1      48.772  25.767  36.798  1.00  0.00    -0.237 OA
ATOM     72  O   UNL A   1      48.708  27.414  38.641  1.00  0.00    -0.237 OA
ATOM     73  O   UNL A   1      47.358  25.356  38.777  1.00  0.00    -0.744 OA
ENDBRANCH  69  70
ENDBRANCH  48  62
BRANCH  49  74
ATOM     74  C   UNL A   1      37.032  32.829  30.881  1.00  0.00     0.058 A 
ATOM     75  C   UNL A   1      35.719  32.407  31.138  1.00  0.00     0.135 A 
ATOM     76  C   UNL A   1      37.217  33.865  29.952  1.00  0.00     0.135 A 
ATOM     77  F   UNL A   1      35.495  31.416  32.015  1.00  0.00    -0.206 F 
ATOM     78  C   UNL A   1      34.630  32.980  30.492  1.00  0.00     0.059 A 
ATOM     79  C   UNL A   1      36.141  34.470  29.310  1.00  0.00     0.059 A 
ATOM     80  F   UNL A   1      38.452  34.316  29.684  1.00  0.00    -0.206 F 
ATOM     81  C   UNL A   1      34.852  34.014  29.580  1.00  0.00     0.060 A 
BRANCH  81  82
ATOM     82  S   UNL A   1      33.426  34.792  28.788  1.00  0.00     0.124 S 
ATOM     83  O   UNL A   1      33.063  33.791  27.792  1.00  0.00    -0.237 OA
ATOM     84  O   UNL A   1      32.501  34.947  29.906  1.00  0.00    -0.237 OA
ATOM     85  O   UNL A   1      33.976  36.038  28.263  1.00  0.00    -0.744 OA
ENDBRANCH  81  82
ENDBRANCH  49  74
BRANCH  61  86
ATOM     86  C   UNL A   1      39.803  33.687  37.226  1.00  0.00     0.058 A 
ATOM     87  C   UNL A   1      38.925  33.301  38.250  1.00  0.00     0.135 A 
ATOM     88  C   UNL A   1      40.411  34.949  37.324  1.00  0.00     0.135 A 
ATOM     89  F   UNL A   1      38.313  32.107  38.200  1.00  0.00    -0.206 F 
ATOM     90  C   UNL A   1      38.646  34.141  39.322  1.00  0.00     0.059 A 
ATOM     91  C   UNL A   1      40.166  35.797  38.400  1.00  0.00     0.059 A 
ATOM     92  F   UNL A   1      41.266  35.363  36.375  1.00  0.00    -0.206 F 
ATOM     93  C   UNL A   1      39.272  35.387  39.389  1.00  0.00     0.060 A 
BRANCH  93  94
ATOM     94  S   UNL A   1      38.931  36.455  40.805  1.00  0.00     0.124 S 
ATOM     95  O   UNL A   1      37.903  35.692  41.505  1.00  0.00    -0.237 OA
ATOM     96  O   UNL A   1      40.231  36.523  41.466  1.00  0.00    -0.237 OA
ATOM     97  O   UNL A   1      38.481  37.700  40.190  1.00  0.00    -0.744 OA
ENDBRANCH  93  94
ENDBRANCH  61  86
ENDBRANCH  35  36
ENDBRANCH  27  30
ENDBRANCH  25  26
ENDBRANCH  24  25
ENDBRANCH  23  24
ENDBRANCH   1  23
TORSDOF 20
ENDMDL
MODEL 3
REMARK VINA RESULT:     -10.2      1.284      8.473
REMARK SMILES COc1ccccc1S(=O)(=O)[C@@H](C)[C@H](C)C(=O)NCCCCCCNC(=O)c1ccc(-c2c3nc(c(-c4c(F)cc(S(=O)(=O)[O-])cc4F)c4ccc([nH]4)c(-c4c(F)cc(S(=O)(=O)[O-])cc4F)c4nc(c(-c5c(F)cc(S(=O)(=O)[O-])cc5F)c5ccc2[nH]5)C=C4)C=C3)cc1
REMARK SMILES IDX 21 1 20 2 19 3 18 4 16 5 17 6 14 8 15 9 12 10 13 11 9 12
REMARK SMILES IDX 10 13 11 14 8 15 3 16 4 17 5 18 7 19 6 20 2 21 1 22 22 23
REMARK SMILES IDX 23 24 24 25 25 26 26 27 27 29 28 30 29 31 93 32 30 33 92 34
REMARK SMILES IDX 31 35 32 36 33 37 86 38 34 39 91 40 85 41 87 42 35 43 90 44
REMARK SMILES IDX 84 45 83 46 36 48 70 49 49 50 69 51 50 52 53 53 68 54 88 55
REMARK SMILES IDX 51 56 52 57 67 59 89 60 54 61 37 62 38 63 47 64 39 65 40 66
REMARK SMILES IDX 46 67 48 68 41 69 42 70 43 71 44 72 45 73 71 74 72 75 81 76
REMARK SMILES IDX 73 77 74 78 80 79 82 80 75 81 76 82 77 83 78 84 79 85 55 86
REMARK SMILES IDX 56 87 65 88 57 89 58 90 64 91 66 92 59 93 60 94 61 95 62 96
REMARK SMILES IDX 63 97
REMARK H PARENT 18 7 25 28 87 47 53 58
REMARK Flexibility Score: inf
ROOT
ATOM      1  C   UNL A   1      36.671  33.180  28.637  1.00  0.00     0.002 C 
ENDROOT
BRANCH   1   2
ATOM      2  C   UNL A   1      35.313  32.827  28.024  1.00  0.00     0.021 C 
BRANCH   2   3
ATOM      3  C   UNL A   1      34.711  31.497  28.462  1.00  0.00     0.116 C 
BRANCH   3   4
ATOM      4  N   UNL A   1      33.433  31.183  27.854  1.00  0.00    -0.356 N 
ATOM      5  C   UNL A   1      33.056  30.122  27.083  1.00  0.00     0.224 C 
ATOM      6  O   UNL A   1      31.846  29.963  26.901  1.00  0.00    -0.275 OA
ATOM      7  H   UNL A   1      32.721  31.841  28.026  1.00  0.00     0.163 HD
BRANCH   5   8
ATOM      8  C   UNL A   1      34.061  29.172  26.418  1.00  0.00     0.093 C 
ATOM      9  C   UNL A   1      35.334  29.101  27.254  1.00  0.00     0.019 C 
BRANCH   8  10
ATOM     10  C   UNL A   1      33.429  27.911  25.769  1.00  0.00     0.122 C 
ATOM     11  C   UNL A   1      33.951  26.511  26.077  1.00  0.00     0.026 C 
BRANCH  10  12
ATOM     12  S   UNL A   1      32.766  28.068  24.127  1.00  0.00     0.185 S 
ATOM     13  O   UNL A   1      33.242  26.902  23.394  1.00  0.00    -0.223 OA
ATOM     14  O   UNL A   1      33.158  29.387  23.652  1.00  0.00    -0.223 OA
BRANCH  12  15
ATOM     15  C   UNL A   1      31.005  28.042  23.898  1.00  0.00     0.109 A 
ATOM     16  C   UNL A   1      30.142  26.976  24.105  1.00  0.00     0.137 A 
ATOM     17  C   UNL A   1      28.809  27.078  23.660  1.00  0.00     0.048 A 
ATOM     18  C   UNL A   1      28.302  28.278  23.159  1.00  0.00     0.004 A 
ATOM     19  C   UNL A   1      30.475  29.263  23.423  1.00  0.00     0.024 A 
ATOM     20  C   UNL A   1      29.130  29.387  23.076  1.00  0.00     0.002 A 
BRANCH  16  21
ATOM     21  O   UNL A   1      30.581  25.819  24.669  1.00  0.00    -0.495 OA
ATOM     22  C   UNL A   1      29.941  25.509  25.912  1.00  0.00     0.278 C 
ENDBRANCH  16  21
ENDBRANCH  12  15
ENDBRANCH  10  12
ENDBRANCH   8  10
ENDBRANCH   5   8
ENDBRANCH   3   4
ENDBRANCH   2   3
ENDBRANCH   1   2
BRANCH   1  23
ATOM     23  C   UNL A   1      36.645  33.852  30.014  1.00  0.00     0.002 C 
BRANCH  23  24
ATOM     24  C   UNL A   1      37.857  33.606  30.919  1.00  0.00     0.021 C 
BRANCH  24  25
ATOM     25  C   UNL A   1      37.558  32.966  32.273  1.00  0.00     0.116 C 
BRANCH  25  26
ATOM     26  N   UNL A   1      36.698  31.799  32.160  1.00  0.00    -0.352 N 
ATOM     27  C   UNL A   1      36.905  30.612  31.504  1.00  0.00     0.251 C 
ATOM     28  H   UNL A   1      35.834  31.873  32.626  1.00  0.00     0.163 HD
ATOM     29  O   UNL A   1      35.971  29.821  31.377  1.00  0.00    -0.269 OA
BRANCH  27  30
ATOM     30  C   UNL A   1      38.232  30.280  30.938  1.00  0.00     0.039 A 
ATOM     31  C   UNL A   1      39.268  29.923  31.808  1.00  0.00     0.014 A 
ATOM     32  C   UNL A   1      38.475  30.360  29.563  1.00  0.00     0.014 A 
ATOM     33  C   UNL A   1      40.527  29.595  31.296  1.00  0.00     0.010 A 
ATOM     34  C   UNL A   1      39.713  29.975  29.050  1.00  0.00     0.010 A 
ATOM     35  C   UNL A   1      40.753  29.591  29.910  1.00  0.00    -0.014 A 
BRANCH  35  36
ATOM     36  C   UNL A   1      42.069  29.193  29.345  1.00  0.00     0.031 A 
ATOM     37  C   UNL A   1      43.177  30.202  29.219  1.00  0.00     0.074 A 
ATOM     38  C   UNL A   1      42.243  27.939  28.882  1.00  0.00     0.049 A 
ATOM     39  N   UNL A   1      44.362  30.067  28.680  1.00  0.00    -0.248 NA
ATOM     40  C   UNL A   1      42.910  31.551  29.745  1.00  0.00     0.031 C 
ATOM     41  C   UNL A   1      41.230  26.881  28.906  1.00  0.00     0.029 A 
ATOM     42  N   UNL A   1      43.328  27.344  28.288  1.00  0.00    -0.354 N 
ATOM     43  C   UNL A   1      44.972  31.311  28.785  1.00  0.00     0.074 A 
ATOM     44  C   UNL A   1      44.012  32.202  29.399  1.00  0.00     0.031 C 
ATOM     45  C   UNL A   1      41.746  25.765  28.367  1.00  0.00     0.029 A 
ATOM     46  C   UNL A   1      43.112  26.035  27.927  1.00  0.00     0.049 A 
ATOM     47  H   UNL A   1      44.180  27.811  28.135  1.00  0.00     0.167 HD
ATOM     48  C   UNL A   1      46.227  31.674  28.420  1.00  0.00     0.037 A 
ATOM     49  C   UNL A   1      43.918  25.153  27.306  1.00  0.00     0.037 A 
ATOM     50  C   UNL A   1      47.190  30.775  27.839  1.00  0.00     0.049 A 
ATOM     51  C   UNL A   1      45.312  25.574  26.923  1.00  0.00     0.074 A 
ATOM     52  C   UNL A   1      48.507  31.029  27.495  1.00  0.00     0.029 A 
ATOM     53  N   UNL A   1      46.943  29.448  27.517  1.00  0.00    -0.354 N 
ATOM     54  N   UNL A   1      45.892  26.739  27.083  1.00  0.00    -0.248 NA
ATOM     55  C   UNL A   1      46.161  24.561  26.283  1.00  0.00     0.031 C 
ATOM     56  C   UNL A   1      49.043  29.868  26.930  1.00  0.00     0.029 A 
ATOM     57  C   UNL A   1      48.076  28.877  26.962  1.00  0.00     0.049 A 
ATOM     58  H   UNL A   1      46.087  28.982  27.662  1.00  0.00     0.167 HD
ATOM     59  C   UNL A   1      47.182  26.592  26.587  1.00  0.00     0.074 A 
ATOM     60  C   UNL A   1      47.301  25.223  26.131  1.00  0.00     0.031 C 
ATOM     61  C   UNL A   1      48.180  27.509  26.518  1.00  0.00     0.037 A 
BRANCH  48  62
ATOM     62  C   UNL A   1      46.632  33.106  28.643  1.00  0.00     0.058 A 
ATOM     63  C   UNL A   1      46.399  34.097  27.677  1.00  0.00     0.135 A 
ATOM     64  C   UNL A   1      47.229  33.498  29.852  1.00  0.00     0.135 A 
ATOM     65  F   UNL A   1      45.844  33.775  26.497  1.00  0.00    -0.206 F 
ATOM     66  C   UNL A   1      46.772  35.421  27.888  1.00  0.00     0.059 A 
ATOM     67  C   UNL A   1      47.586  34.822  30.095  1.00  0.00     0.059 A 
ATOM     68  F   UNL A   1      47.474  32.591  30.811  1.00  0.00    -0.206 F 
ATOM     69  C   UNL A   1      47.367  35.773  29.101  1.00  0.00     0.060 A 
BRANCH  69  70
ATOM     70  S   UNL A   1      47.846  37.493  29.362  1.00  0.00     0.124 S 
ATOM     71  O   UNL A   1      49.287  37.364  29.566  1.00  0.00    -0.237 OA
ATOM     72  O   UNL A   1      47.441  38.125  28.108  1.00  0.00    -0.237 OA
ATOM     73  O   UNL A   1      47.079  37.887  30.535  1.00  0.00    -0.744 OA
ENDBRANCH  69  70
ENDBRANCH  48  62
BRANCH  49  74
ATOM     74  C   UNL A   1      43.435  23.774  27.030  1.00  0.00     0.058 A 
ATOM     75  C   UNL A   1      43.584  22.754  27.982  1.00  0.00     0.135 A 
ATOM     76  C   UNL A   1      42.796  23.454  25.822  1.00  0.00     0.135 A 
ATOM     77  F   UNL A   1      44.193  23.012  29.149  1.00  0.00    -0.206 F 
ATOM     78  C   UNL A   1      43.129  21.463  27.743  1.00  0.00     0.059 A 
ATOM     79  C   UNL A   1      42.311  22.175  25.569  1.00  0.00     0.059 A 
ATOM     80  F   UNL A   1      42.614  24.399  24.886  1.00  0.00    -0.206 F 
ATOM     81  C   UNL A   1      42.490  21.183  26.533  1.00  0.00     0.060 A 
BRANCH  81  82
ATOM     82  S   UNL A   1      41.849  19.517  26.255  1.00  0.00     0.124 S 
ATOM     83  O   UNL A   1      40.452  19.790  25.937  1.00  0.00    -0.237 OA
ATOM     84  O   UNL A   1      42.678  19.051  25.147  1.00  0.00    -0.237 OA
ATOM     85  O   UNL A   1      42.090  18.851  27.531  1.00  0.00    -0.744 OA
ENDBRANCH  81  82
ENDBRANCH  49  74
BRANCH  61  86
ATOM     86  C   UNL A   1      49.497  27.056  25.954  1.00  0.00     0.058 A 
ATOM     87  C   UNL A   1      49.814  27.221  24.597  1.00  0.00     0.135 A 
ATOM     88  C   UNL A   1      50.474  26.498  26.793  1.00  0.00     0.135 A 
ATOM     89  F   UNL A   1      48.911  27.743  23.752  1.00  0.00    -0.206 F 
ATOM     90  C   UNL A   1      51.048  26.831  24.088  1.00  0.00     0.059 A 
ATOM     91  C   UNL A   1      51.724  26.124  26.311  1.00  0.00     0.059 A 
ATOM     92  F   UNL A   1      50.224  26.327  28.102  1.00  0.00    -0.206 F 
ATOM     93  C   UNL A   1      51.997  26.285  24.953  1.00  0.00     0.060 A 
BRANCH  93  94
ATOM     94  S   UNL A   1      53.609  25.817  24.288  1.00  0.00     0.124 S 
ATOM     95  O   UNL A   1      53.815  24.512  24.908  1.00  0.00    -0.237 OA
ATOM     96  O   UNL A   1      53.363  25.803  22.849  1.00  0.00    -0.237 OA
ATOM     97  O   UNL A   1      54.492  26.882  24.756  1.00  0.00    -0.744 OA
ENDBRANCH  93  94
ENDBRANCH  61  86
ENDBRANCH  35  36
ENDBRANCH  27  30
ENDBRANCH  25  26
ENDBRANCH  24  25
ENDBRANCH  23  24
ENDBRANCH   1  23
TORSDOF 20
ENDMDL
