MODEL 1
REMARK VINA RESULT:     -12.1      0.000      0.000
REMARK SMILES COc1ccccc1-n1nnc(C(=O)NCCCCCCNC(=O)c2ccc(-c3c4nc(c(-c5c(F)cc(S(=O)(=O)[O-])cc5F)c5ccc([nH]5)c(-c5c(F)cc(S(=O)(=O)[O-])cc5F)c5nc(c(-c6c(F)cc(S(=O)(=O)[O-])cc6F)c6ccc3[nH]6)C=C5)C=C4)cc2)c1-c1ccc(Cl)cc1
REMARK SMILES IDX 19 1 18 2 17 3 16 4 15 5 13 6 14 7 12 9 9 10 10 11 91 12
REMARK SMILES IDX 11 13 8 14 3 15 4 16 5 17 7 18 6 19 2 20 1 21 92 22 93 23
REMARK SMILES IDX 98 24 94 25 97 26 95 27 96 28 20 29 21 30 22 31 23 32 24 34
REMARK SMILES IDX 25 35 26 36 90 37 27 38 89 39 28 40 29 41 30 42 83 43 31 44
REMARK SMILES IDX 88 45 82 46 84 47 32 48 87 49 81 50 80 51 33 53 67 54 46 55
REMARK SMILES IDX 66 56 47 57 50 58 65 59 85 60 48 61 49 62 64 64 86 65 51 66
REMARK SMILES IDX 34 67 35 68 44 69 36 70 37 71 43 72 45 73 38 74 39 75 40 76
REMARK SMILES IDX 41 77 42 78 68 79 69 80 78 81 70 82 71 83 77 84 79 85 72 86
REMARK SMILES IDX 73 87 74 88 75 89 76 90 52 91 53 92 62 93 54 94 55 95 61 96
REMARK SMILES IDX 63 97 56 98 57 99 58 100 59 101 60 102
REMARK H PARENT 15 8 22 33 84 52 50 63
REMARK Flexibility Score: inf
ROOT
ATOM      1  C   UNL A   1      32.590  29.381  27.456  1.00  0.00     0.002 C 
ENDROOT
BRANCH   1   2
ATOM      2  C   UNL A   1      31.532  28.645  26.616  1.00  0.00     0.002 C 
BRANCH   2   3
ATOM      3  C   UNL A   1      31.837  28.311  25.159  1.00  0.00     0.021 C 
BRANCH   3   4
ATOM      4  C   UNL A   1      33.172  27.670  24.834  1.00  0.00     0.116 C 
BRANCH   4   5
ATOM      5  N   UNL A   1      33.620  27.596  23.476  1.00  0.00    -0.351 N 
ATOM      6  C   UNL A   1      33.489  26.525  22.607  1.00  0.00     0.274 C 
ATOM      7  O   UNL A   1      33.874  26.725  21.451  1.00  0.00    -0.267 OA
ATOM      8  H   UNL A   1      34.071  28.395  23.120  1.00  0.00     0.163 HD
BRANCH   6   9
ATOM      9  C   UNL A   1      32.952  25.202  23.000  1.00  0.00     0.178 A 
ATOM     10  N   UNL A   1      32.382  23.198  23.709  1.00  0.00    -0.208 N 
ATOM     11  N   UNL A   1      31.342  23.682  23.009  1.00  0.00    -0.061 NA
ATOM     12  C   UNL A   1      33.463  24.082  23.665  1.00  0.00     0.108 A 
ATOM     13  N   UNL A   1      31.636  24.924  22.659  1.00  0.00    -0.124 NA
BRANCH  10  14
ATOM     14  C   UNL A   1      32.352  21.909  24.290  1.00  0.00     0.109 A 
ATOM     15  C   UNL A   1      32.511  21.715  25.672  1.00  0.00     0.144 A 
ATOM     16  C   UNL A   1      32.904  20.455  26.134  1.00  0.00     0.049 A 
ATOM     17  C   UNL A   1      33.081  19.393  25.247  1.00  0.00     0.004 A 
ATOM     18  C   UNL A   1      32.449  20.822  23.404  1.00  0.00     0.032 A 
ATOM     19  C   UNL A   1      32.830  19.569  23.888  1.00  0.00     0.003 A 
BRANCH  15  20
ATOM     20  O   UNL A   1      32.422  22.663  26.655  1.00  0.00    -0.494 OA
ATOM     21  C   UNL A   1      33.162  22.426  27.849  1.00  0.00     0.278 C 
ENDBRANCH  15  20
ENDBRANCH  10  14
BRANCH  12  22
ATOM     22  C   UNL A   1      34.767  23.671  24.183  1.00  0.00     0.003 A 
ATOM     23  C   UNL A   1      35.254  24.154  25.402  1.00  0.00     0.012 A 
ATOM     24  C   UNL A   1      35.526  22.726  23.463  1.00  0.00     0.012 A 
ATOM     25  C   UNL A   1      36.469  23.679  25.905  1.00  0.00     0.021 A 
ATOM     26  C   UNL A   1      36.750  22.274  23.954  1.00  0.00     0.021 A 
ATOM     27  C   UNL A   1      37.210  22.745  25.179  1.00  0.00     0.041 A 
ATOM     28  Cl  UNL A   1      38.717  22.191  25.794  1.00  0.00    -0.084 Cl
ENDBRANCH  12  22
ENDBRANCH   6   9
ENDBRANCH   4   5
ENDBRANCH   3   4
ENDBRANCH   2   3
ENDBRANCH   1   2
BRANCH   1  29
ATOM     29  C   UNL A   1      33.170  30.707  26.945  1.00  0.00     0.021 C 
BRANCH  29  30
ATOM     30  C   UNL A   1      34.461  31.160  27.598  1.00  0.00     0.116 C 
BRANCH  30  31
ATOM     31  N   UNL A   1      34.275  31.986  28.791  1.00  0.00    -0.352 N 
ATOM     32  C   UNL A   1      34.950  31.917  30.005  1.00  0.00     0.251 C 
ATOM     33  H   UNL A   1      33.580  32.681  28.726  1.00  0.00     0.163 HD
ATOM     34  O   UNL A   1      34.466  32.406  31.011  1.00  0.00    -0.269 OA
BRANCH  32  35
ATOM     35  C   UNL A   1      36.276  31.255  30.054  1.00  0.00     0.039 A 
ATOM     36  C   UNL A   1      36.437  29.865  30.022  1.00  0.00     0.014 A 
ATOM     37  C   UNL A   1      37.390  32.073  30.166  1.00  0.00     0.014 A 
ATOM     38  C   UNL A   1      37.730  29.335  30.091  1.00  0.00     0.010 A 
ATOM     39  C   UNL A   1      38.636  31.579  29.947  1.00  0.00     0.010 A 
ATOM     40  C   UNL A   1      38.820  30.214  30.069  1.00  0.00    -0.014 A 
BRANCH  40  41
ATOM     41  C   UNL A   1      40.210  29.792  30.122  1.00  0.00     0.031 A 
ATOM     42  C   UNL A   1      40.689  29.528  31.500  1.00  0.00     0.074 A 
ATOM     43  C   UNL A   1      40.840  29.350  29.007  1.00  0.00     0.049 A 
ATOM     44  N   UNL A   1      41.552  30.205  32.181  1.00  0.00    -0.248 NA
ATOM     45  C   UNL A   1      39.973  28.513  32.296  1.00  0.00     0.031 C 
ATOM     46  C   UNL A   1      40.293  29.233  27.644  1.00  0.00     0.029 A 
ATOM     47  N   UNL A   1      42.063  28.769  28.873  1.00  0.00    -0.354 N 
ATOM     48  C   UNL A   1      41.687  29.517  33.383  1.00  0.00     0.074 A 
ATOM     49  C   UNL A   1      40.513  28.697  33.501  1.00  0.00     0.031 C 
ATOM     50  C   UNL A   1      41.079  28.422  26.902  1.00  0.00     0.029 A 
ATOM     51  C   UNL A   1      42.258  28.080  27.674  1.00  0.00     0.049 A 
ATOM     52  H   UNL A   1      42.758  28.831  29.568  1.00  0.00     0.167 HD
ATOM     53  C   UNL A   1      42.895  29.430  34.009  1.00  0.00     0.037 A 
ATOM     54  C   UNL A   1      43.294  27.250  27.379  1.00  0.00     0.037 A 
ATOM     55  C   UNL A   1      43.824  30.387  33.452  1.00  0.00     0.049 A 
ATOM     56  C   UNL A   1      44.380  27.572  28.346  1.00  0.00     0.074 A 
ATOM     57  C   UNL A   1      43.828  31.760  33.292  1.00  0.00     0.029 A 
ATOM     58  N   UNL A   1      44.777  29.906  32.585  1.00  0.00    -0.354 N 
ATOM     59  N   UNL A   1      45.001  28.721  28.379  1.00  0.00    -0.248 NA
ATOM     60  C   UNL A   1      44.417  26.810  29.586  1.00  0.00     0.031 C 
ATOM     61  C   UNL A   1      44.421  31.981  32.014  1.00  0.00     0.029 A 
ATOM     62  C   UNL A   1      44.827  30.746  31.503  1.00  0.00     0.049 A 
ATOM     63  H   UNL A   1      45.328  29.100  32.717  1.00  0.00     0.167 HD
ATOM     64  C   UNL A   1      45.124  29.021  29.730  1.00  0.00     0.074 A 
ATOM     65  C   UNL A   1      44.807  27.774  30.424  1.00  0.00     0.031 C 
ATOM     66  C   UNL A   1      45.170  30.317  30.164  1.00  0.00     0.037 A 
BRANCH  53  67
ATOM     67  C   UNL A   1      43.370  28.231  34.807  1.00  0.00     0.058 A 
ATOM     68  C   UNL A   1      43.861  28.446  36.113  1.00  0.00     0.135 A 
ATOM     69  C   UNL A   1      43.631  26.949  34.271  1.00  0.00     0.135 A 
ATOM     70  F   UNL A   1      43.662  29.620  36.734  1.00  0.00    -0.206 F 
ATOM     71  C   UNL A   1      44.640  27.506  36.786  1.00  0.00     0.059 A 
ATOM     72  C   UNL A   1      44.357  25.977  34.948  1.00  0.00     0.059 A 
ATOM     73  F   UNL A   1      43.286  26.593  33.030  1.00  0.00    -0.206 F 
ATOM     74  C   UNL A   1      44.899  26.280  36.183  1.00  0.00     0.060 A 
BRANCH  74  75
ATOM     75  S   UNL A   1      45.995  25.106  36.994  1.00  0.00     0.124 S 
ATOM     76  O   UNL A   1      45.044  24.306  37.759  1.00  0.00    -0.237 OA
ATOM     77  O   UNL A   1      46.622  24.445  35.855  1.00  0.00    -0.237 OA
ATOM     78  O   UNL A   1      46.878  25.961  37.782  1.00  0.00    -0.744 OA
ENDBRANCH  74  75
ENDBRANCH  53  67
BRANCH  54  79
ATOM     79  C   UNL A   1      43.265  25.978  26.597  1.00  0.00     0.058 A 
ATOM     80  C   UNL A   1      44.092  25.785  25.472  1.00  0.00     0.135 A 
ATOM     81  C   UNL A   1      42.639  24.820  27.100  1.00  0.00     0.135 A 
ATOM     82  F   UNL A   1      44.746  26.825  24.931  1.00  0.00    -0.206 F 
ATOM     83  C   UNL A   1      44.325  24.518  24.917  1.00  0.00     0.059 A 
ATOM     84  C   UNL A   1      42.847  23.550  26.559  1.00  0.00     0.059 A 
ATOM     85  F   UNL A   1      41.875  24.868  28.202  1.00  0.00    -0.206 F 
ATOM     86  C   UNL A   1      43.713  23.401  25.484  1.00  0.00     0.060 A 
BRANCH  86  87
ATOM     87  S   UNL A   1      44.147  21.741  24.902  1.00  0.00     0.124 S 
ATOM     88  O   UNL A   1      42.987  20.961  25.318  1.00  0.00    -0.237 OA
ATOM     89  O   UNL A   1      44.298  21.946  23.465  1.00  0.00    -0.237 OA
ATOM     90  O   UNL A   1      45.387  21.447  25.617  1.00  0.00    -0.744 OA
ENDBRANCH  86  87
ENDBRANCH  54  79
BRANCH  66  91
ATOM     91  C   UNL A   1      45.385  31.410  29.145  1.00  0.00     0.058 A 
ATOM     92  C   UNL A   1      46.633  31.767  28.600  1.00  0.00     0.135 A 
ATOM     93  C   UNL A   1      44.249  32.003  28.577  1.00  0.00     0.135 A 
ATOM     94  F   UNL A   1      47.761  31.175  29.013  1.00  0.00    -0.206 F 
ATOM     95  C   UNL A   1      46.745  32.697  27.563  1.00  0.00     0.059 A 
ATOM     96  C   UNL A   1      44.334  32.908  27.523  1.00  0.00     0.059 A 
ATOM     97  F   UNL A   1      43.025  31.658  29.010  1.00  0.00    -0.206 F 
ATOM     98  C   UNL A   1      45.587  33.262  27.029  1.00  0.00     0.060 A 
BRANCH  98  99
ATOM     99  S   UNL A   1      45.722  34.413  25.645  1.00  0.00     0.124 S 
ATOM    100  O   UNL A   1      47.152  34.381  25.357  1.00  0.00    -0.237 OA
ATOM    101  O   UNL A   1      44.859  33.802  24.638  1.00  0.00    -0.237 OA
ATOM    102  O   UNL A   1      45.224  35.671  26.197  1.00  0.00    -0.744 OA
ENDBRANCH  98  99
ENDBRANCH  66  91
ENDBRANCH  40  41
ENDBRANCH  32  35
ENDBRANCH  30  31
ENDBRANCH  29  30
ENDBRANCH   1  29
TORSDOF 19
ENDMDL
MODEL 2
REMARK VINA RESULT:     -12.1      1.811      2.820
REMARK SMILES COc1ccccc1-n1nnc(C(=O)NCCCCCCNC(=O)c2ccc(-c3c4nc(c(-c5c(F)cc(S(=O)(=O)[O-])cc5F)c5ccc([nH]5)c(-c5c(F)cc(S(=O)(=O)[O-])cc5F)c5nc(c(-c6c(F)cc(S(=O)(=O)[O-])cc6F)c6ccc3[nH]6)C=C5)C=C4)cc2)c1-c1ccc(Cl)cc1
REMARK SMILES IDX 19 1 18 2 17 3 16 4 15 5 13 6 14 7 12 9 9 10 10 11 91 12
REMARK SMILES IDX 11 13 8 14 3 15 4 16 5 17 7 18 6 19 2 20 1 21 92 22 93 23
REMARK SMILES IDX 98 24 94 25 97 26 95 27 96 28 20 29 21 30 22 31 23 32 24 34
REMARK SMILES IDX 25 35 26 36 90 37 27 38 89 39 28 40 29 41 30 42 83 43 31 44
REMARK SMILES IDX 88 45 82 46 84 47 32 48 87 49 81 50 80 51 33 53 67 54 46 55
REMARK SMILES IDX 66 56 47 57 50 58 65 59 85 60 48 61 49 62 64 64 86 65 51 66
REMARK SMILES IDX 34 67 35 68 44 69 36 70 37 71 43 72 45 73 38 74 39 75 40 76
REMARK SMILES IDX 41 77 42 78 68 79 69 80 78 81 70 82 71 83 77 84 79 85 72 86
REMARK SMILES IDX 73 87 74 88 75 89 76 90 52 91 53 92 62 93 54 94 55 95 61 96
REMARK SMILES IDX 63 97 56 98 57 99 58 100 59 101 60 102
REMARK H PARENT 15 8 22 33 84 52 50 63
REMARK Flexibility Score: inf
ROOT
ATOM      1  C   UNL A   1      31.712  29.236  25.451  1.00  0.00     0.002 C 
ENDROOT
BRANCH   1   2
ATOM      2  C   UNL A   1      31.091  28.386  24.329  1.00  0.00     0.002 C 
BRANCH   2   3
ATOM      3  C   UNL A   1      30.347  27.103  24.690  1.00  0.00     0.021 C 
BRANCH   3   4
ATOM      4  C   UNL A   1      30.822  26.312  25.893  1.00  0.00     0.116 C 
BRANCH   4   5
ATOM      5  N   UNL A   1      30.000  25.276  26.441  1.00  0.00    -0.351 N 
ATOM      6  C   UNL A   1      30.407  24.028  26.883  1.00  0.00     0.274 C 
ATOM      7  O   UNL A   1      29.528  23.333  27.402  1.00  0.00    -0.267 OA
ATOM      8  H   UNL A   1      29.038  25.473  26.513  1.00  0.00     0.163 HD
BRANCH   6   9
ATOM      9  C   UNL A   1      31.785  23.509  26.741  1.00  0.00     0.178 A 
ATOM     10  N   UNL A   1      33.844  22.865  26.300  1.00  0.00    -0.208 N 
ATOM     11  N   UNL A   1      33.515  22.351  27.497  1.00  0.00    -0.061 NA
ATOM     12  C   UNL A   1      32.757  23.536  25.734  1.00  0.00     0.108 A 
ATOM     13  N   UNL A   1      32.316  22.811  27.817  1.00  0.00    -0.124 NA
BRANCH  10  14
ATOM     14  C   UNL A   1      35.104  22.620  25.706  1.00  0.00     0.109 A 
ATOM     15  C   UNL A   1      35.505  21.330  25.325  1.00  0.00     0.144 A 
ATOM     16  C   UNL A   1      36.869  21.070  25.160  1.00  0.00     0.049 A 
ATOM     17  C   UNL A   1      37.813  22.086  25.314  1.00  0.00     0.004 A 
ATOM     18  C   UNL A   1      36.044  23.663  25.782  1.00  0.00     0.032 A 
ATOM     19  C   UNL A   1      37.399  23.385  25.601  1.00  0.00     0.003 A 
BRANCH  15  20
ATOM     20  O   UNL A   1      34.709  20.224  25.184  1.00  0.00    -0.494 OA
ATOM     21  C   UNL A   1      33.726  20.265  24.154  1.00  0.00     0.278 C 
ENDBRANCH  15  20
ENDBRANCH  10  14
BRANCH  12  22
ATOM     22  C   UNL A   1      32.821  23.997  24.347  1.00  0.00     0.003 A 
ATOM     23  C   UNL A   1      32.197  23.290  23.314  1.00  0.00     0.012 A 
ATOM     24  C   UNL A   1      33.482  25.206  24.054  1.00  0.00     0.012 A 
ATOM     25  C   UNL A   1      32.211  23.800  22.013  1.00  0.00     0.021 A 
ATOM     26  C   UNL A   1      33.518  25.700  22.751  1.00  0.00     0.021 A 
ATOM     27  C   UNL A   1      32.872  24.999  21.738  1.00  0.00     0.041 A 
ATOM     28  Cl  UNL A   1      32.908  25.600  20.128  1.00  0.00    -0.084 Cl
ENDBRANCH  12  22
ENDBRANCH   6   9
ENDBRANCH   4   5
ENDBRANCH   3   4
ENDBRANCH   2   3
ENDBRANCH   1   2
BRANCH   1  29
ATOM     29  C   UNL A   1      33.235  29.415  25.506  1.00  0.00     0.021 C 
BRANCH  29  30
ATOM     30  C   UNL A   1      33.842  29.503  26.892  1.00  0.00     0.116 C 
BRANCH  30  31
ATOM     31  N   UNL A   1      33.835  30.847  27.469  1.00  0.00    -0.352 N 
ATOM     32  C   UNL A   1      34.718  31.397  28.393  1.00  0.00     0.251 C 
ATOM     33  H   UNL A   1      33.109  31.440  27.165  1.00  0.00     0.163 HD
ATOM     34  O   UNL A   1      34.398  32.375  29.047  1.00  0.00    -0.269 OA
BRANCH  32  35
ATOM     35  C   UNL A   1      36.058  30.787  28.558  1.00  0.00     0.039 A 
ATOM     36  C   UNL A   1      36.342  29.460  28.214  1.00  0.00     0.014 A 
ATOM     37  C   UNL A   1      37.053  31.582  29.107  1.00  0.00     0.014 A 
ATOM     38  C   UNL A   1      37.636  28.972  28.424  1.00  0.00     0.010 A 
ATOM     39  C   UNL A   1      38.356  31.201  29.045  1.00  0.00     0.010 A 
ATOM     40  C   UNL A   1      38.629  29.859  28.857  1.00  0.00    -0.014 A 
BRANCH  40  41
ATOM     41  C   UNL A   1      40.012  29.482  29.100  1.00  0.00     0.031 A 
ATOM     42  C   UNL A   1      40.334  29.339  30.540  1.00  0.00     0.074 A 
ATOM     43  C   UNL A   1      40.773  28.972  28.102  1.00  0.00     0.049 A 
ATOM     44  N   UNL A   1      41.101  30.091  31.257  1.00  0.00    -0.248 NA
ATOM     45  C   UNL A   1      39.551  28.369  31.329  1.00  0.00     0.031 C 
ATOM     46  C   UNL A   1      40.388  28.735  26.700  1.00  0.00     0.029 A 
ATOM     47  N   UNL A   1      42.014  28.417  28.154  1.00  0.00    -0.354 N 
ATOM     48  C   UNL A   1      41.110  29.502  32.518  1.00  0.00     0.074 A 
ATOM     49  C   UNL A   1      39.946  28.661  32.569  1.00  0.00     0.031 C 
ATOM     50  C   UNL A   1      41.269  27.891  26.119  1.00  0.00     0.029 A 
ATOM     51  C   UNL A   1      42.358  27.643  27.043  1.00  0.00     0.049 A 
ATOM     52  H   UNL A   1      42.623  28.552  28.916  1.00  0.00     0.167 HD
ATOM     53  C   UNL A   1      42.240  29.497  33.281  1.00  0.00     0.037 A 
ATOM     54  C   UNL A   1      43.437  26.821  26.935  1.00  0.00     0.037 A 
ATOM     55  C   UNL A   1      43.209  30.434  32.757  1.00  0.00     0.049 A 
ATOM     56  C   UNL A   1      44.398  27.248  27.989  1.00  0.00     0.074 A 
ATOM     57  C   UNL A   1      43.205  31.789  32.489  1.00  0.00     0.029 A 
ATOM     58  N   UNL A   1      44.264  29.914  32.045  1.00  0.00    -0.354 N 
ATOM     59  N   UNL A   1      44.990  28.413  27.999  1.00  0.00    -0.248 NA
ATOM     60  C   UNL A   1      44.307  26.586  29.282  1.00  0.00     0.031 C 
ATOM     61  C   UNL A   1      43.936  31.927  31.272  1.00  0.00     0.029 A 
ATOM     62  C   UNL A   1      44.421  30.669  30.911  1.00  0.00     0.049 A 
ATOM     63  H   UNL A   1      44.810  29.136  32.302  1.00  0.00     0.167 HD
ATOM     64  C   UNL A   1      44.952  28.820  29.327  1.00  0.00     0.074 A 
ATOM     65  C   UNL A   1      44.581  27.622  30.079  1.00  0.00     0.031 C 
ATOM     66  C   UNL A   1      44.923  30.147  29.658  1.00  0.00     0.037 A 
BRANCH  53  67
ATOM     67  C   UNL A   1      42.643  28.377  34.221  1.00  0.00     0.058 A 
ATOM     68  C   UNL A   1      42.856  28.688  35.581  1.00  0.00     0.135 A 
ATOM     69  C   UNL A   1      43.099  27.102  33.817  1.00  0.00     0.135 A 
ATOM     70  F   UNL A   1      42.453  29.865  36.086  1.00  0.00    -0.206 F 
ATOM     71  C   UNL A   1      43.562  27.847  36.442  1.00  0.00     0.059 A 
ATOM     72  C   UNL A   1      43.753  26.224  34.673  1.00  0.00     0.059 A 
ATOM     73  F   UNL A   1      43.027  26.666  32.556  1.00  0.00    -0.206 F 
ATOM     74  C   UNL A   1      44.024  26.623  35.969  1.00  0.00     0.060 A 
BRANCH  74  75
ATOM     75  S   UNL A   1      45.030  25.582  37.037  1.00  0.00     0.124 S 
ATOM     76  O   UNL A   1      44.020  25.027  37.931  1.00  0.00    -0.237 OA
ATOM     77  O   UNL A   1      45.622  24.654  36.079  1.00  0.00    -0.237 OA
ATOM     78  O   UNL A   1      45.962  26.527  37.645  1.00  0.00    -0.744 OA
ENDBRANCH  74  75
ENDBRANCH  53  67
BRANCH  54  79
ATOM     79  C   UNL A   1      43.521  25.492  26.259  1.00  0.00     0.058 A 
ATOM     80  C   UNL A   1      44.489  25.229  25.267  1.00  0.00     0.135 A 
ATOM     81  C   UNL A   1      42.847  24.364  26.768  1.00  0.00     0.135 A 
ATOM     82  F   UNL A   1      45.196  26.238  24.734  1.00  0.00    -0.206 F 
ATOM     83  C   UNL A   1      44.804  23.928  24.849  1.00  0.00     0.059 A 
ATOM     84  C   UNL A   1      43.136  23.061  26.361  1.00  0.00     0.059 A 
ATOM     85  F   UNL A   1      41.947  24.483  27.756  1.00  0.00    -0.206 F 
ATOM     86  C   UNL A   1      44.135  22.846  25.420  1.00  0.00     0.060 A 
BRANCH  86  87
ATOM     87  S   UNL A   1      44.657  21.156  25.033  1.00  0.00     0.124 S 
ATOM     88  O   UNL A   1      46.027  21.139  25.535  1.00  0.00    -0.237 OA
ATOM     89  O   UNL A   1      43.693  20.354  25.779  1.00  0.00    -0.237 OA
ATOM     90  O   UNL A   1      44.524  21.087  23.579  1.00  0.00    -0.744 OA
ENDBRANCH  86  87
ENDBRANCH  54  79
BRANCH  66  91
ATOM     91  C   UNL A   1      45.233  31.163  28.586  1.00  0.00     0.058 A 
ATOM     92  C   UNL A   1      44.297  31.674  27.666  1.00  0.00     0.135 A 
ATOM     93  C   UNL A   1      46.498  31.766  28.608  1.00  0.00     0.135 A 
ATOM     94  F   UNL A   1      43.035  31.226  27.646  1.00  0.00    -0.206 F 
ATOM     95  C   UNL A   1      44.619  32.711  26.787  1.00  0.00     0.059 A 
ATOM     96  C   UNL A   1      46.830  32.822  27.763  1.00  0.00     0.059 A 
ATOM     97  F   UNL A   1      47.416  31.368  29.504  1.00  0.00    -0.206 F 
ATOM     98  C   UNL A   1      45.891  33.280  26.845  1.00  0.00     0.060 A 
BRANCH  98  99
ATOM     99  S   UNL A   1      46.289  34.665  25.757  1.00  0.00     0.124 S 
ATOM    100  O   UNL A   1      45.340  34.480  24.664  1.00  0.00    -0.237 OA
ATOM    101  O   UNL A   1      46.051  35.822  26.614  1.00  0.00    -0.237 OA
ATOM    102  O   UNL A   1      47.690  34.435  25.411  1.00  0.00    -0.744 OA
ENDBRANCH  98  99
ENDBRANCH  66  91
ENDBRANCH  40  41
ENDBRANCH  32  35
ENDBRANCH  30  31
ENDBRANCH  29  30
ENDBRANCH   1  29
TORSDOF 19
ENDMDL
MODEL 3
REMARK VINA RESULT:     -12.1      2.868      9.065
REMARK SMILES COc1ccccc1-n1nnc(C(=O)NCCCCCCNC(=O)c2ccc(-c3c4nc(c(-c5c(F)cc(S(=O)(=O)[O-])cc5F)c5ccc([nH]5)c(-c5c(F)cc(S(=O)(=O)[O-])cc5F)c5nc(c(-c6c(F)cc(S(=O)(=O)[O-])cc6F)c6ccc3[nH]6)C=C5)C=C4)cc2)c1-c1ccc(Cl)cc1
REMARK SMILES IDX 19 1 18 2 17 3 16 4 15 5 13 6 14 7 12 9 9 10 10 11 91 12
REMARK SMILES IDX 11 13 8 14 3 15 4 16 5 17 7 18 6 19 2 20 1 21 92 22 93 23
REMARK SMILES IDX 98 24 94 25 97 26 95 27 96 28 20 29 21 30 22 31 23 32 24 34
REMARK SMILES IDX 25 35 26 36 90 37 27 38 89 39 28 40 29 41 30 42 83 43 31 44
REMARK SMILES IDX 88 45 82 46 84 47 32 48 87 49 81 50 80 51 33 53 67 54 46 55
REMARK SMILES IDX 66 56 47 57 50 58 65 59 85 60 48 61 49 62 64 64 86 65 51 66
REMARK SMILES IDX 34 67 35 68 44 69 36 70 37 71 43 72 45 73 38 74 39 75 40 76
REMARK SMILES IDX 41 77 42 78 68 79 69 80 78 81 70 82 71 83 77 84 79 85 72 86
REMARK SMILES IDX 73 87 74 88 75 89 76 90 52 91 53 92 62 93 54 94 55 95 61 96
REMARK SMILES IDX 63 97 56 98 57 99 58 100 59 101 60 102
REMARK H PARENT 15 8 22 33 84 52 50 63
REMARK Flexibility Score: inf
ROOT
ATOM      1  C   UNL A   1      39.159  23.843  27.509  1.00  0.00     0.002 C 
ENDROOT
BRANCH   1   2
ATOM      2  C   UNL A   1      38.108  24.182  26.438  1.00  0.00     0.002 C 
BRANCH   2   3
ATOM      3  C   UNL A   1      37.066  23.134  26.057  1.00  0.00     0.021 C 
BRANCH   3   4
ATOM      4  C   UNL A   1      35.603  23.526  26.105  1.00  0.00     0.116 C 
BRANCH   4   5
ATOM      5  N   UNL A   1      34.758  23.020  27.144  1.00  0.00    -0.351 N 
ATOM      6  C   UNL A   1      33.374  22.964  27.147  1.00  0.00     0.274 C 
ATOM      7  O   UNL A   1      32.864  22.400  28.120  1.00  0.00    -0.267 OA
ATOM      8  H   UNL A   1      35.211  22.672  27.946  1.00  0.00     0.163 HD
BRANCH   6   9
ATOM      9  C   UNL A   1      32.520  23.550  26.089  1.00  0.00     0.178 A 
ATOM     10  N   UNL A   1      31.353  24.653  24.583  1.00  0.00    -0.208 N 
ATOM     11  N   UNL A   1      31.037  23.353  24.456  1.00  0.00    -0.061 NA
ATOM     12  C   UNL A   1      32.223  24.847  25.659  1.00  0.00     0.108 A 
ATOM     13  N   UNL A   1      31.804  22.669  25.290  1.00  0.00    -0.124 NA
BRANCH  10  14
ATOM     14  C   UNL A   1      30.756  25.646  23.772  1.00  0.00     0.109 A 
ATOM     15  C   UNL A   1      31.502  26.390  22.843  1.00  0.00     0.144 A 
ATOM     16  C   UNL A   1      30.993  27.613  22.397  1.00  0.00     0.049 A 
ATOM     17  C   UNL A   1      29.743  28.064  22.821  1.00  0.00     0.004 A 
ATOM     18  C   UNL A   1      29.462  26.057  24.137  1.00  0.00     0.032 A 
ATOM     19  C   UNL A   1      28.968  27.275  23.670  1.00  0.00     0.003 A 
BRANCH  15  20
ATOM     20  O   UNL A   1      32.757  26.107  22.374  1.00  0.00    -0.494 OA
ATOM     21  C   UNL A   1      32.842  25.276  21.221  1.00  0.00     0.278 C 
ENDBRANCH  15  20
ENDBRANCH  10  14
BRANCH  12  22
ATOM     22  C   UNL A   1      32.537  26.203  26.111  1.00  0.00     0.003 A 
ATOM     23  C   UNL A   1      33.756  26.813  25.797  1.00  0.00     0.012 A 
ATOM     24  C   UNL A   1      31.568  26.928  26.833  1.00  0.00     0.012 A 
ATOM     25  C   UNL A   1      33.991  28.137  26.178  1.00  0.00     0.021 A 
ATOM     26  C   UNL A   1      31.815  28.240  27.235  1.00  0.00     0.021 A 
ATOM     27  C   UNL A   1      33.022  28.842  26.895  1.00  0.00     0.041 A 
ATOM     28  Cl  UNL A   1      33.334  30.460  27.383  1.00  0.00    -0.084 Cl
ENDBRANCH  12  22
ENDBRANCH   6   9
ENDBRANCH   4   5
ENDBRANCH   3   4
ENDBRANCH   2   3
ENDBRANCH   1   2
BRANCH   1  29
ATOM     29  C   UNL A   1      40.052  22.609  27.325  1.00  0.00     0.021 C 
BRANCH  29  30
ATOM     30  C   UNL A   1      40.229  22.127  25.898  1.00  0.00     0.116 C 
BRANCH  30  31
ATOM     31  N   UNL A   1      41.621  21.930  25.497  1.00  0.00    -0.352 N 
ATOM     32  C   UNL A   1      42.631  22.880  25.379  1.00  0.00     0.251 C 
ATOM     33  H   UNL A   1      41.877  21.004  25.279  1.00  0.00     0.163 HD
ATOM     34  O   UNL A   1      43.621  22.650  24.705  1.00  0.00    -0.269 OA
BRANCH  32  35
ATOM     35  C   UNL A   1      42.494  24.168  26.099  1.00  0.00     0.039 A 
ATOM     36  C   UNL A   1      41.797  25.265  25.578  1.00  0.00     0.014 A 
ATOM     37  C   UNL A   1      43.119  24.274  27.333  1.00  0.00     0.014 A 
ATOM     38  C   UNL A   1      41.739  26.444  26.328  1.00  0.00     0.010 A 
ATOM     39  C   UNL A   1      42.825  25.303  28.171  1.00  0.00     0.010 A 
ATOM     40  C   UNL A   1      42.275  26.447  27.621  1.00  0.00    -0.014 A 
BRANCH  40  41
ATOM     41  C   UNL A   1      42.268  27.600  28.506  1.00  0.00     0.031 A 
ATOM     42  C   UNL A   1      43.360  28.562  28.223  1.00  0.00     0.074 A 
ATOM     43  C   UNL A   1      41.167  27.902  29.236  1.00  0.00     0.049 A 
ATOM     44  N   UNL A   1      44.388  28.831  28.956  1.00  0.00    -0.248 NA
ATOM     45  C   UNL A   1      43.430  29.145  26.869  1.00  0.00     0.031 C 
ATOM     46  C   UNL A   1      39.885  27.179  29.282  1.00  0.00     0.029 A 
ATOM     47  N   UNL A   1      40.900  29.004  29.988  1.00  0.00    -0.354 N 
ATOM     48  C   UNL A   1      45.072  29.830  28.270  1.00  0.00     0.074 A 
ATOM     49  C   UNL A   1      44.612  29.761  26.911  1.00  0.00     0.031 C 
ATOM     50  C   UNL A   1      38.930  27.972  29.818  1.00  0.00     0.029 A 
ATOM     51  C   UNL A   1      39.549  29.194  30.291  1.00  0.00     0.049 A 
ATOM     52  H   UNL A   1      41.604  29.620  30.295  1.00  0.00     0.167 HD
ATOM     53  C   UNL A   1      45.701  30.836  28.942  1.00  0.00     0.037 A 
ATOM     54  C   UNL A   1      38.994  30.308  30.841  1.00  0.00     0.037 A 
ATOM     55  C   UNL A   1      45.829  30.506  30.344  1.00  0.00     0.049 A 
ATOM     56  C   UNL A   1      40.109  31.066  31.473  1.00  0.00     0.074 A 
ATOM     57  C   UNL A   1      46.399  29.464  31.050  1.00  0.00     0.029 A 
ATOM     58  N   UNL A   1      44.957  31.117  31.215  1.00  0.00    -0.354 N 
ATOM     59  N   UNL A   1      40.801  30.621  32.489  1.00  0.00    -0.248 NA
ATOM     60  C   UNL A   1      40.776  32.073  30.660  1.00  0.00     0.031 C 
ATOM     61  C   UNL A   1      45.496  29.209  32.125  1.00  0.00     0.029 A 
ATOM     62  C   UNL A   1      44.476  30.160  32.071  1.00  0.00     0.049 A 
ATOM     63  H   UNL A   1      44.721  32.072  31.224  1.00  0.00     0.167 HD
ATOM     64  C   UNL A   1      42.118  30.955  32.197  1.00  0.00     0.074 A 
ATOM     65  C   UNL A   1      42.029  31.908  31.091  1.00  0.00     0.031 C 
ATOM     66  C   UNL A   1      43.157  30.202  32.667  1.00  0.00     0.037 A 
BRANCH  53  67
ATOM     67  C   UNL A   1      45.819  32.264  28.447  1.00  0.00     0.058 A 
ATOM     68  C   UNL A   1      47.092  32.876  28.460  1.00  0.00     0.135 A 
ATOM     69  C   UNL A   1      44.733  33.143  28.233  1.00  0.00     0.135 A 
ATOM     70  F   UNL A   1      48.201  32.142  28.640  1.00  0.00    -0.206 F 
ATOM     71  C   UNL A   1      47.261  34.257  28.377  1.00  0.00     0.059 A 
ATOM     72  C   UNL A   1      44.885  34.517  28.090  1.00  0.00     0.059 A 
ATOM     73  F   UNL A   1      43.458  32.744  28.244  1.00  0.00    -0.206 F 
ATOM     74  C   UNL A   1      46.146  35.071  28.213  1.00  0.00     0.060 A 
BRANCH  74  75
ATOM     75  S   UNL A   1      46.343  36.859  28.217  1.00  0.00     0.124 S 
ATOM     76  O   UNL A   1      47.145  37.063  27.017  1.00  0.00    -0.237 OA
ATOM     77  O   UNL A   1      44.958  37.314  28.152  1.00  0.00    -0.237 OA
ATOM     78  O   UNL A   1      47.023  37.118  29.483  1.00  0.00    -0.744 OA
ENDBRANCH  74  75
ENDBRANCH  53  67
BRANCH  54  79
ATOM     79  C   UNL A   1      37.673  30.931  30.531  1.00  0.00     0.058 A 
ATOM     80  C   UNL A   1      36.836  31.431  31.549  1.00  0.00     0.135 A 
ATOM     81  C   UNL A   1      37.328  31.308  29.217  1.00  0.00     0.135 A 
ATOM     82  F   UNL A   1      37.094  31.141  32.834  1.00  0.00    -0.206 F 
ATOM     83  C   UNL A   1      35.762  32.293  31.285  1.00  0.00     0.059 A 
ATOM     84  C   UNL A   1      36.257  32.156  28.929  1.00  0.00     0.059 A 
ATOM     85  F   UNL A   1      38.083  30.941  28.170  1.00  0.00    -0.206 F 
ATOM     86  C   UNL A   1      35.494  32.668  29.969  1.00  0.00     0.060 A 
BRANCH  86  87
ATOM     87  S   UNL A   1      34.234  33.923  29.628  1.00  0.00     0.124 S 
ATOM     88  O   UNL A   1      34.994  34.921  28.882  1.00  0.00    -0.237 OA
ATOM     89  O   UNL A   1      33.245  33.170  28.863  1.00  0.00    -0.237 OA
ATOM     90  O   UNL A   1      33.800  34.337  30.960  1.00  0.00    -0.744 OA
ENDBRANCH  86  87
ENDBRANCH  54  79
BRANCH  66  91
ATOM     91  C   UNL A   1      42.879  29.185  33.747  1.00  0.00     0.058 A 
ATOM     92  C   UNL A   1      42.778  29.476  35.121  1.00  0.00     0.135 A 
ATOM     93  C   UNL A   1      42.533  27.887  33.345  1.00  0.00     0.135 A 
ATOM     94  F   UNL A   1      42.991  30.717  35.579  1.00  0.00    -0.206 F 
ATOM     95  C   UNL A   1      42.386  28.512  36.052  1.00  0.00     0.059 A 
ATOM     96  C   UNL A   1      42.109  26.919  34.251  1.00  0.00     0.059 A 
ATOM     97  F   UNL A   1      42.548  27.562  32.042  1.00  0.00    -0.206 F 
ATOM     98  C   UNL A   1      42.051  27.233  35.606  1.00  0.00     0.060 A 
BRANCH  98  99
ATOM     99  S   UNL A   1      41.480  26.003  36.797  1.00  0.00     0.124 S 
ATOM    100  O   UNL A   1      40.935  24.965  35.928  1.00  0.00    -0.237 OA
ATOM    101  O   UNL A   1      42.708  25.654  37.507  1.00  0.00    -0.237 OA
ATOM    102  O   UNL A   1      40.495  26.730  37.594  1.00  0.00    -0.744 OA
ENDBRANCH  98  99
ENDBRANCH  66  91
ENDBRANCH  40  41
ENDBRANCH  32  35
ENDBRANCH  30  31
ENDBRANCH  29  30
ENDBRANCH   1  29
TORSDOF 19
ENDMDL
