MODEL 1
REMARK VINA RESULT:      -9.2      0.000      0.000
REMARK SMILES Cc1cc(C)cc(CSCc2cc(C(=O)NCCCCCCNC(=O)c3ccc(-c4c5nc(c(-c6c(F)cc(S(=O)(=O)[O-])cc6F)c6ccc([nH]6)c(-c6c(F)cc(S(=O)(=O)[O-])cc6F)c6nc(c(-c7c(F)cc(S(=O)(=O)[O-])cc7F)c7ccc4[nH]7)C=C6)C=C5)cc3)c(C)o2)c1
REMARK SMILES IDX 19 1 18 2 17 3 16 4 14 5 15 6 13 8 11 9 12 10 94 11 92 12
REMARK SMILES IDX 93 13 10 14 9 15 8 16 7 17 1 18 2 19 3 20 95 21 4 22 5 23
REMARK SMILES IDX 6 24 20 25 21 26 22 27 23 28 24 29 25 31 26 32 27 33 91 34
REMARK SMILES IDX 28 35 90 36 29 37 30 38 31 39 84 40 32 41 89 42 83 43 85 44
REMARK SMILES IDX 33 45 88 46 82 47 81 48 34 50 68 51 47 52 67 53 48 54 51 55
REMARK SMILES IDX 66 56 86 57 49 58 50 59 65 61 87 62 52 63 35 64 36 65 45 66
REMARK SMILES IDX 37 67 38 68 44 69 46 70 39 71 40 72 41 73 42 74 43 75 69 76
REMARK SMILES IDX 70 77 79 78 71 79 72 80 78 81 80 82 73 83 74 84 75 85 76 86
REMARK SMILES IDX 77 87 53 88 54 89 63 90 55 91 56 92 62 93 64 94 57 95 58 96
REMARK SMILES IDX 59 97 60 98 61 99
REMARK H PARENT 16 7 23 30 85 49 51 60
REMARK Flexibility Score: inf
ROOT
ATOM      1  C   UNL A   1      37.295  33.173  29.120  1.00  0.00     0.002 C 
ENDROOT
BRANCH   1   2
ATOM      2  C   UNL A   1      38.238  34.359  29.346  1.00  0.00     0.021 C 
BRANCH   2   3
ATOM      3  C   UNL A   1      38.830  34.604  30.735  1.00  0.00     0.116 C 
BRANCH   3   4
ATOM      4  N   UNL A   1      37.896  34.986  31.776  1.00  0.00    -0.352 N 
ATOM      5  C   UNL A   1      37.703  34.464  33.044  1.00  0.00     0.254 C 
ATOM      6  O   UNL A   1      36.837  35.005  33.732  1.00  0.00    -0.269 OA
ATOM      7  H   UNL A   1      37.304  35.738  31.544  1.00  0.00     0.163 HD
BRANCH   5   8
ATOM      8  C   UNL A   1      38.494  33.339  33.547  1.00  0.00     0.081 A 
ATOM      9  C   UNL A   1      39.440  31.302  33.887  1.00  0.00     0.114 A 
ATOM     10  C   UNL A   1      38.375  31.946  33.302  1.00  0.00     0.060 A 
ATOM     11  O   UNL A   1      40.175  32.206  34.586  1.00  0.00    -0.465 OA
ATOM     12  C   UNL A   1      39.606  33.434  34.385  1.00  0.00     0.113 A 
ATOM     13  C   UNL A   1      40.291  34.542  35.089  1.00  0.00     0.088 C 
BRANCH   9  14
ATOM     14  C   UNL A   1      39.912  29.893  33.875  1.00  0.00     0.145 C 
BRANCH  14  15
ATOM     15  S   UNL A   1      41.438  29.660  34.859  1.00  0.00    -0.149 SA
BRANCH  15  16
ATOM     16  C   UNL A   1      42.515  28.799  33.669  1.00  0.00     0.105 C 
BRANCH  16  17
ATOM     17  C   UNL A   1      42.840  27.353  33.958  1.00  0.00    -0.038 A 
ATOM     18  C   UNL A   1      41.554  24.493  36.152  1.00  0.00     0.044 C 
ATOM     19  C   UNL A   1      42.358  25.284  35.169  1.00  0.00    -0.051 A 
ATOM     20  C   UNL A   1      43.394  24.649  34.494  1.00  0.00     0.006 A 
ATOM     21  C   UNL A   1      42.098  26.637  34.913  1.00  0.00     0.008 A 
ATOM     22  C   UNL A   1      44.113  25.325  33.512  1.00  0.00    -0.051 A 
ATOM     23  C   UNL A   1      45.174  24.573  32.786  1.00  0.00     0.044 C 
ATOM     24  C   UNL A   1      43.844  26.676  33.249  1.00  0.00     0.008 A 
ENDBRANCH  16  17
ENDBRANCH  15  16
ENDBRANCH  14  15
ENDBRANCH   9  14
ENDBRANCH   5   8
ENDBRANCH   3   4
ENDBRANCH   2   3
ENDBRANCH   1   2
BRANCH   1  25
ATOM     25  C   UNL A   1      36.199  32.866  30.142  1.00  0.00     0.002 C 
BRANCH  25  26
ATOM     26  C   UNL A   1      34.752  32.878  29.653  1.00  0.00     0.021 C 
BRANCH  26  27
ATOM     27  C   UNL A   1      34.560  32.608  28.170  1.00  0.00     0.116 C 
BRANCH  27  28
ATOM     28  N   UNL A   1      33.884  31.347  27.912  1.00  0.00    -0.352 N 
ATOM     29  C   UNL A   1      34.402  30.076  27.834  1.00  0.00     0.251 C 
ATOM     30  H   UNL A   1      32.911  31.413  27.774  1.00  0.00     0.163 HD
ATOM     31  O   UNL A   1      33.699  29.155  27.430  1.00  0.00    -0.269 OA
BRANCH  29  32
ATOM     32  C   UNL A   1      35.810  29.827  28.218  1.00  0.00     0.039 A 
ATOM     33  C   UNL A   1      36.097  29.370  29.507  1.00  0.00     0.014 A 
ATOM     34  C   UNL A   1      36.846  30.046  27.307  1.00  0.00     0.014 A 
ATOM     35  C   UNL A   1      37.417  29.077  29.861  1.00  0.00     0.010 A 
ATOM     36  C   UNL A   1      38.140  29.657  27.625  1.00  0.00     0.010 A 
ATOM     37  C   UNL A   1      38.445  29.187  28.910  1.00  0.00    -0.014 A 
BRANCH  37  38
ATOM     38  C   UNL A   1      39.855  28.855  29.234  1.00  0.00     0.031 A 
ATOM     39  C   UNL A   1      40.734  29.900  29.871  1.00  0.00     0.074 A 
ATOM     40  C   UNL A   1      40.363  27.659  28.878  1.00  0.00     0.049 A 
ATOM     41  N   UNL A   1      42.018  29.865  30.113  1.00  0.00    -0.248 NA
ATOM     42  C   UNL A   1      40.088  31.168  30.250  1.00  0.00     0.031 C 
ATOM     43  C   UNL A   1      39.619  26.585  28.215  1.00  0.00     0.029 A 
ATOM     44  N   UNL A   1      41.631  27.150  29.007  1.00  0.00    -0.354 N 
ATOM     45  C   UNL A   1      42.335  31.109  30.647  1.00  0.00     0.074 A 
ATOM     46  C   UNL A   1      41.124  31.897  30.637  1.00  0.00     0.031 C 
ATOM     47  C   UNL A   1      40.438  25.540  28.014  1.00  0.00     0.029 A 
ATOM     48  C   UNL A   1      41.774  25.884  28.490  1.00  0.00     0.049 A 
ATOM     49  H   UNL A   1      42.369  27.645  29.431  1.00  0.00     0.167 HD
ATOM     50  C   UNL A   1      43.523  31.545  31.128  1.00  0.00     0.037 A 
ATOM     51  C   UNL A   1      42.863  25.096  28.395  1.00  0.00     0.037 A 
ATOM     52  C   UNL A   1      44.714  30.737  31.163  1.00  0.00     0.049 A 
ATOM     53  C   UNL A   1      44.174  25.602  28.935  1.00  0.00     0.074 A 
ATOM     54  C   UNL A   1      45.956  31.058  31.679  1.00  0.00     0.029 A 
ATOM     55  N   UNL A   1      44.809  29.448  30.660  1.00  0.00    -0.354 N 
ATOM     56  N   UNL A   1      44.446  26.762  29.488  1.00  0.00    -0.248 NA
ATOM     57  C   UNL A   1      45.326  24.694  28.848  1.00  0.00     0.031 C 
ATOM     58  C   UNL A   1      46.816  29.982  31.443  1.00  0.00     0.029 A 
ATOM     59  C   UNL A   1      46.094  28.965  30.838  1.00  0.00     0.049 A 
ATOM     60  H   UNL A   1      44.071  28.949  30.240  1.00  0.00     0.167 HD
ATOM     61  C   UNL A   1      45.787  26.707  29.848  1.00  0.00     0.074 A 
ATOM     62  C   UNL A   1      46.272  25.400  29.454  1.00  0.00     0.031 C 
ATOM     63  C   UNL A   1      46.550  27.651  30.453  1.00  0.00     0.037 A 
BRANCH  50  64
ATOM     64  C   UNL A   1      43.592  32.954  31.658  1.00  0.00     0.058 A 
ATOM     65  C   UNL A   1      43.459  33.237  33.027  1.00  0.00     0.135 A 
ATOM     66  C   UNL A   1      43.825  34.032  30.789  1.00  0.00     0.135 A 
ATOM     67  F   UNL A   1      43.219  32.248  33.903  1.00  0.00    -0.206 F 
ATOM     68  C   UNL A   1      43.522  34.539  33.511  1.00  0.00     0.059 A 
ATOM     69  C   UNL A   1      43.925  35.340  31.255  1.00  0.00     0.059 A 
ATOM     70  F   UNL A   1      43.957  33.822  29.470  1.00  0.00    -0.206 F 
ATOM     71  C   UNL A   1      43.757  35.584  32.617  1.00  0.00     0.060 A 
BRANCH  71  72
ATOM     72  S   UNL A   1      43.845  37.267  33.265  1.00  0.00     0.124 S 
ATOM     73  O   UNL A   1      42.621  37.339  34.057  1.00  0.00    -0.237 OA
ATOM     74  O   UNL A   1      45.091  37.243  34.024  1.00  0.00    -0.237 OA
ATOM     75  O   UNL A   1      43.862  38.094  32.063  1.00  0.00    -0.744 OA
ENDBRANCH  71  72
ENDBRANCH  50  64
BRANCH  51  76
ATOM     76  C   UNL A   1      42.754  23.743  27.785  1.00  0.00     0.058 A 
ATOM     77  C   UNL A   1      42.644  22.597  28.587  1.00  0.00     0.135 A 
ATOM     78  C   UNL A   1      42.741  23.567  26.392  1.00  0.00     0.135 A 
ATOM     79  F   UNL A   1      42.656  22.712  29.925  1.00  0.00    -0.206 F 
ATOM     80  C   UNL A   1      42.545  21.324  28.034  1.00  0.00     0.059 A 
ATOM     81  C   UNL A   1      42.613  22.307  25.815  1.00  0.00     0.059 A 
ATOM     82  F   UNL A   1      42.824  24.631  25.579  1.00  0.00    -0.206 F 
ATOM     83  C   UNL A   1      42.526  21.191  26.644  1.00  0.00     0.060 A 
BRANCH  83  84
ATOM     84  S   UNL A   1      42.352  19.537  25.937  1.00  0.00     0.124 S 
ATOM     85  O   UNL A   1      43.384  19.549  24.906  1.00  0.00    -0.237 OA
ATOM     86  O   UNL A   1      42.612  18.683  27.092  1.00  0.00    -0.237 OA
ATOM     87  O   UNL A   1      40.975  19.523  25.453  1.00  0.00    -0.744 OA
ENDBRANCH  83  84
ENDBRANCH  51  76
BRANCH  63  88
ATOM     88  C   UNL A   1      47.973  27.292  30.783  1.00  0.00     0.058 A 
ATOM     89  C   UNL A   1      48.360  26.899  32.072  1.00  0.00     0.135 A 
ATOM     90  C   UNL A   1      48.946  27.272  29.770  1.00  0.00     0.135 A 
ATOM     91  F   UNL A   1      47.471  26.905  33.078  1.00  0.00    -0.206 F 
ATOM     92  C   UNL A   1      49.668  26.516  32.351  1.00  0.00     0.059 A 
ATOM     93  C   UNL A   1      50.251  26.864  30.018  1.00  0.00     0.059 A 
ATOM     94  F   UNL A   1      48.624  27.630  28.515  1.00  0.00    -0.206 F 
ATOM     95  C   UNL A   1      50.605  26.497  31.316  1.00  0.00     0.060 A 
BRANCH  95  96
ATOM     96  S   UNL A   1      52.286  25.951  31.681  1.00  0.00     0.124 S 
ATOM     97  O   UNL A   1      52.105  24.510  31.818  1.00  0.00    -0.237 OA
ATOM     98  O   UNL A   1      53.020  26.389  30.497  1.00  0.00    -0.237 OA
ATOM     99  O   UNL A   1      52.615  26.662  32.913  1.00  0.00    -0.744 OA
ENDBRANCH  95  96
ENDBRANCH  63  88
ENDBRANCH  37  38
ENDBRANCH  29  32
ENDBRANCH  27  28
ENDBRANCH  26  27
ENDBRANCH  25  26
ENDBRANCH   1  25
TORSDOF 20
ENDMDL
MODEL 2
REMARK VINA RESULT:      -9.0      5.213     12.416
REMARK SMILES Cc1cc(C)cc(CSCc2cc(C(=O)NCCCCCCNC(=O)c3ccc(-c4c5nc(c(-c6c(F)cc(S(=O)(=O)[O-])cc6F)c6ccc([nH]6)c(-c6c(F)cc(S(=O)(=O)[O-])cc6F)c6nc(c(-c7c(F)cc(S(=O)(=O)[O-])cc7F)c7ccc4[nH]7)C=C6)C=C5)cc3)c(C)o2)c1
REMARK SMILES IDX 19 1 18 2 17 3 16 4 14 5 15 6 13 8 11 9 12 10 94 11 92 12
REMARK SMILES IDX 93 13 10 14 9 15 8 16 7 17 1 18 2 19 3 20 95 21 4 22 5 23
REMARK SMILES IDX 6 24 20 25 21 26 22 27 23 28 24 29 25 31 26 32 27 33 91 34
REMARK SMILES IDX 28 35 90 36 29 37 30 38 31 39 84 40 32 41 89 42 83 43 85 44
REMARK SMILES IDX 33 45 88 46 82 47 81 48 34 50 68 51 47 52 67 53 48 54 51 55
REMARK SMILES IDX 66 56 86 57 49 58 50 59 65 61 87 62 52 63 35 64 36 65 45 66
REMARK SMILES IDX 37 67 38 68 44 69 46 70 39 71 40 72 41 73 42 74 43 75 69 76
REMARK SMILES IDX 70 77 79 78 71 79 72 80 78 81 80 82 73 83 74 84 75 85 76 86
REMARK SMILES IDX 77 87 53 88 54 89 63 90 55 91 56 92 62 93 64 94 57 95 58 96
REMARK SMILES IDX 59 97 60 98 61 99
REMARK H PARENT 16 7 23 30 85 49 51 60
REMARK Flexibility Score: inf
ROOT
ATOM      1  C   UNL A   1      35.882  22.653  24.083  1.00  0.00     0.002 C 
ENDROOT
BRANCH   1   2
ATOM      2  C   UNL A   1      35.823  21.233  24.654  1.00  0.00     0.021 C 
BRANCH   2   3
ATOM      3  C   UNL A   1      34.920  20.933  25.852  1.00  0.00     0.116 C 
BRANCH   3   4
ATOM      4  N   UNL A   1      33.943  19.876  25.675  1.00  0.00    -0.352 N 
ATOM      5  C   UNL A   1      32.645  19.926  25.198  1.00  0.00     0.254 C 
ATOM      6  O   UNL A   1      32.042  18.854  25.139  1.00  0.00    -0.269 OA
ATOM      7  H   UNL A   1      34.254  18.979  25.936  1.00  0.00     0.163 HD
BRANCH   5   8
ATOM      8  C   UNL A   1      32.024  21.183  24.773  1.00  0.00     0.081 A 
ATOM      9  C   UNL A   1      31.159  23.281  24.685  1.00  0.00     0.114 A 
ATOM     10  C   UNL A   1      31.507  22.261  25.539  1.00  0.00     0.060 A 
ATOM     11  O   UNL A   1      31.326  22.864  23.403  1.00  0.00    -0.465 OA
ATOM     12  C   UNL A   1      31.845  21.599  23.453  1.00  0.00     0.113 A 
ATOM     13  C   UNL A   1      32.087  20.990  22.125  1.00  0.00     0.088 C 
BRANCH   9  14
ATOM     14  C   UNL A   1      30.683  24.673  24.899  1.00  0.00     0.145 C 
BRANCH  14  15
ATOM     15  S   UNL A   1      31.700  25.579  26.122  1.00  0.00    -0.149 SA
BRANCH  15  16
ATOM     16  C   UNL A   1      32.354  26.947  25.114  1.00  0.00     0.105 C 
BRANCH  16  17
ATOM     17  C   UNL A   1      32.650  28.245  25.827  1.00  0.00    -0.038 A 
ATOM     18  C   UNL A   1      35.462  29.827  27.886  1.00  0.00     0.044 C 
ATOM     19  C   UNL A   1      34.167  29.618  27.167  1.00  0.00    -0.051 A 
ATOM     20  C   UNL A   1      33.249  30.662  27.134  1.00  0.00     0.006 A 
ATOM     21  C   UNL A   1      33.855  28.408  26.531  1.00  0.00     0.008 A 
ATOM     22  C   UNL A   1      32.069  30.538  26.407  1.00  0.00    -0.051 A 
ATOM     23  C   UNL A   1      31.152  31.711  26.365  1.00  0.00     0.044 C 
ATOM     24  C   UNL A   1      31.764  29.331  25.761  1.00  0.00     0.008 A 
ENDBRANCH  16  17
ENDBRANCH  15  16
ENDBRANCH  14  15
ENDBRANCH   9  14
ENDBRANCH   5   8
ENDBRANCH   3   4
ENDBRANCH   2   3
ENDBRANCH   1   2
BRANCH   1  25
ATOM     25  C   UNL A   1      36.657  23.742  24.828  1.00  0.00     0.002 C 
BRANCH  25  26
ATOM     26  C   UNL A   1      37.744  23.294  25.802  1.00  0.00     0.021 C 
BRANCH  26  27
ATOM     27  C   UNL A   1      38.640  24.399  26.336  1.00  0.00     0.116 C 
BRANCH  27  28
ATOM     28  N   UNL A   1      40.054  24.087  26.204  1.00  0.00    -0.352 N 
ATOM     29  C   UNL A   1      41.146  24.728  26.742  1.00  0.00     0.251 C 
ATOM     30  H   UNL A   1      40.261  23.301  25.648  1.00  0.00     0.163 HD
ATOM     31  O   UNL A   1      42.275  24.422  26.372  1.00  0.00    -0.269 OA
BRANCH  29  32
ATOM     32  C   UNL A   1      40.954  25.795  27.749  1.00  0.00     0.039 A 
ATOM     33  C   UNL A   1      39.901  25.693  28.663  1.00  0.00     0.014 A 
ATOM     34  C   UNL A   1      41.811  26.897  27.791  1.00  0.00     0.014 A 
ATOM     35  C   UNL A   1      39.747  26.666  29.654  1.00  0.00     0.010 A 
ATOM     36  C   UNL A   1      41.719  27.806  28.837  1.00  0.00     0.010 A 
ATOM     37  C   UNL A   1      40.676  27.713  29.769  1.00  0.00    -0.014 A 
BRANCH  37  38
ATOM     38  C   UNL A   1      40.568  28.748  30.826  1.00  0.00     0.031 A 
ATOM     39  C   UNL A   1      41.427  28.639  32.060  1.00  0.00     0.074 A 
ATOM     40  C   UNL A   1      39.645  29.724  30.721  1.00  0.00     0.049 A 
ATOM     41  N   UNL A   1      41.397  29.353  33.154  1.00  0.00    -0.248 NA
ATOM     42  C   UNL A   1      42.426  27.557  32.079  1.00  0.00     0.031 C 
ATOM     43  C   UNL A   1      38.727  29.904  29.594  1.00  0.00     0.029 A 
ATOM     44  N   UNL A   1      39.313  30.741  31.581  1.00  0.00    -0.354 N 
ATOM     45  C   UNL A   1      42.351  28.793  33.997  1.00  0.00     0.074 A 
ATOM     46  C   UNL A   1      42.899  27.643  33.313  1.00  0.00     0.031 C 
ATOM     47  C   UNL A   1      37.951  30.976  29.822  1.00  0.00     0.029 A 
ATOM     48  C   UNL A   1      38.283  31.532  31.130  1.00  0.00     0.049 A 
ATOM     49  H   UNL A   1      39.772  30.890  32.439  1.00  0.00     0.167 HD
ATOM     50  C   UNL A   1      42.754  29.215  35.218  1.00  0.00     0.037 A 
ATOM     51  C   UNL A   1      37.664  32.578  31.713  1.00  0.00     0.037 A 
ATOM     52  C   UNL A   1      42.223  30.382  35.873  1.00  0.00     0.049 A 
ATOM     53  C   UNL A   1      38.128  33.030  33.072  1.00  0.00     0.074 A 
ATOM     54  C   UNL A   1      42.598  30.933  37.085  1.00  0.00     0.029 A 
ATOM     55  N   UNL A   1      41.204  31.176  35.368  1.00  0.00    -0.354 N 
ATOM     56  N   UNL A   1      39.070  32.522  33.833  1.00  0.00    -0.248 NA
ATOM     57  C   UNL A   1      37.453  34.198  33.652  1.00  0.00     0.031 C 
ATOM     58  C   UNL A   1      41.770  32.032  37.337  1.00  0.00     0.029 A 
ATOM     59  C   UNL A   1      40.924  32.203  36.253  1.00  0.00     0.049 A 
ATOM     60  H   UNL A   1      40.748  31.032  34.508  1.00  0.00     0.167 HD
ATOM     61  C   UNL A   1      39.126  33.331  34.962  1.00  0.00     0.074 A 
ATOM     62  C   UNL A   1      38.126  34.364  34.783  1.00  0.00     0.031 C 
ATOM     63  C   UNL A   1      39.934  33.233  36.046  1.00  0.00     0.037 A 
BRANCH  50  64
ATOM     64  C   UNL A   1      43.819  28.416  35.922  1.00  0.00     0.058 A 
ATOM     65  C   UNL A   1      45.186  28.691  35.749  1.00  0.00     0.135 A 
ATOM     66  C   UNL A   1      43.469  27.382  36.804  1.00  0.00     0.135 A 
ATOM     67  F   UNL A   1      45.581  29.658  34.905  1.00  0.00    -0.206 F 
ATOM     68  C   UNL A   1      46.166  27.949  36.400  1.00  0.00     0.059 A 
ATOM     69  C   UNL A   1      44.432  26.648  37.492  1.00  0.00     0.059 A 
ATOM     70  F   UNL A   1      42.178  27.072  37.006  1.00  0.00    -0.206 F 
ATOM     71  C   UNL A   1      45.779  26.930  37.271  1.00  0.00     0.060 A 
BRANCH  71  72
ATOM     72  S   UNL A   1      47.065  25.985  38.114  1.00  0.00     0.124 S 
ATOM     73  O   UNL A   1      48.034  27.028  38.432  1.00  0.00    -0.237 OA
ATOM     74  O   UNL A   1      46.343  25.422  39.250  1.00  0.00    -0.237 OA
ATOM     75  O   UNL A   1      47.493  25.019  37.107  1.00  0.00    -0.744 OA
ENDBRANCH  71  72
ENDBRANCH  50  64
BRANCH  51  76
ATOM     76  C   UNL A   1      36.559  33.280  31.005  1.00  0.00     0.058 A 
ATOM     77  C   UNL A   1      35.228  33.132  31.421  1.00  0.00     0.135 A 
ATOM     78  C   UNL A   1      36.811  34.125  29.912  1.00  0.00     0.135 A 
ATOM     79  F   UNL A   1      34.934  32.333  32.458  1.00  0.00    -0.206 F 
ATOM     80  C   UNL A   1      34.182  33.779  30.768  1.00  0.00     0.059 A 
ATOM     81  C   UNL A   1      35.785  34.804  29.261  1.00  0.00     0.059 A 
ATOM     82  F   UNL A   1      38.069  34.316  29.486  1.00  0.00    -0.206 F 
ATOM     83  C   UNL A   1      34.473  34.617  29.690  1.00  0.00     0.060 A 
BRANCH  83  84
ATOM     84  S   UNL A   1      33.113  35.485  28.878  1.00  0.00     0.124 S 
ATOM     85  O   UNL A   1      33.829  36.479  28.088  1.00  0.00    -0.237 OA
ATOM     86  O   UNL A   1      32.472  34.411  28.126  1.00  0.00    -0.237 OA
ATOM     87  O   UNL A   1      32.334  36.008  29.997  1.00  0.00    -0.744 OA
ENDBRANCH  83  84
ENDBRANCH  51  76
BRANCH  63  88
ATOM     88  C   UNL A   1      39.817  34.298  37.101  1.00  0.00     0.058 A 
ATOM     89  C   UNL A   1      39.036  34.121  38.253  1.00  0.00     0.135 A 
ATOM     90  C   UNL A   1      40.560  35.486  36.988  1.00  0.00     0.135 A 
ATOM     91  F   UNL A   1      38.303  33.007  38.408  1.00  0.00    -0.206 F 
ATOM     92  C   UNL A   1      38.981  35.091  39.248  1.00  0.00     0.059 A 
ATOM     93  C   UNL A   1      40.543  36.455  37.984  1.00  0.00     0.059 A 
ATOM     94  F   UNL A   1      41.331  35.701  35.910  1.00  0.00    -0.206 F 
ATOM     95  C   UNL A   1      39.742  36.253  39.106  1.00  0.00     0.060 A 
BRANCH  95  96
ATOM     96  S   UNL A   1      39.698  37.482  40.427  1.00  0.00     0.124 S 
ATOM     97  O   UNL A   1      38.982  36.763  41.475  1.00  0.00    -0.237 OA
ATOM     98  O   UNL A   1      41.116  37.721  40.677  1.00  0.00    -0.237 OA
ATOM     99  O   UNL A   1      38.976  38.601  39.828  1.00  0.00    -0.744 OA
ENDBRANCH  95  96
ENDBRANCH  63  88
ENDBRANCH  37  38
ENDBRANCH  29  32
ENDBRANCH  27  28
ENDBRANCH  26  27
ENDBRANCH  25  26
ENDBRANCH   1  25
TORSDOF 20
ENDMDL
MODEL 3
REMARK VINA RESULT:      -8.9      4.784     12.227
REMARK SMILES Cc1cc(C)cc(CSCc2cc(C(=O)NCCCCCCNC(=O)c3ccc(-c4c5nc(c(-c6c(F)cc(S(=O)(=O)[O-])cc6F)c6ccc([nH]6)c(-c6c(F)cc(S(=O)(=O)[O-])cc6F)c6nc(c(-c7c(F)cc(S(=O)(=O)[O-])cc7F)c7ccc4[nH]7)C=C6)C=C5)cc3)c(C)o2)c1
REMARK SMILES IDX 19 1 18 2 17 3 16 4 14 5 15 6 13 8 11 9 12 10 94 11 92 12
REMARK SMILES IDX 93 13 10 14 9 15 8 16 7 17 1 18 2 19 3 20 95 21 4 22 5 23
REMARK SMILES IDX 6 24 20 25 21 26 22 27 23 28 24 29 25 31 26 32 27 33 91 34
REMARK SMILES IDX 28 35 90 36 29 37 30 38 31 39 84 40 32 41 89 42 83 43 85 44
REMARK SMILES IDX 33 45 88 46 82 47 81 48 34 50 68 51 47 52 67 53 48 54 51 55
REMARK SMILES IDX 66 56 86 57 49 58 50 59 65 61 87 62 52 63 35 64 36 65 45 66
REMARK SMILES IDX 37 67 38 68 44 69 46 70 39 71 40 72 41 73 42 74 43 75 69 76
REMARK SMILES IDX 70 77 79 78 71 79 72 80 78 81 80 82 73 83 74 84 75 85 76 86
REMARK SMILES IDX 77 87 53 88 54 89 63 90 55 91 56 92 62 93 64 94 57 95 58 96
REMARK SMILES IDX 59 97 60 98 61 99
REMARK H PARENT 16 7 23 30 85 49 51 60
REMARK Flexibility Score: inf
ROOT
ATOM      1  C   UNL A   1      39.256  21.739  26.185  1.00  0.00     0.002 C 
ENDROOT
BRANCH   1   2
ATOM      2  C   UNL A   1      38.738  23.140  26.524  1.00  0.00     0.021 C 
BRANCH   2   3
ATOM      3  C   UNL A   1      37.515  23.696  25.790  1.00  0.00     0.116 C 
BRANCH   3   4
ATOM      4  N   UNL A   1      37.464  23.468  24.359  1.00  0.00    -0.352 N 
ATOM      5  C   UNL A   1      36.412  23.071  23.551  1.00  0.00     0.254 C 
ATOM      6  O   UNL A   1      36.653  22.973  22.348  1.00  0.00    -0.269 OA
ATOM      7  H   UNL A   1      38.314  23.620  23.887  1.00  0.00     0.163 HD
BRANCH   5   8
ATOM      8  C   UNL A   1      35.080  22.796  24.095  1.00  0.00     0.081 A 
ATOM      9  C   UNL A   1      32.870  22.855  24.616  1.00  0.00     0.114 A 
ATOM     10  C   UNL A   1      33.915  23.607  24.132  1.00  0.00     0.060 A 
ATOM     11  O   UNL A   1      33.337  21.636  24.992  1.00  0.00    -0.465 OA
ATOM     12  C   UNL A   1      34.669  21.599  24.681  1.00  0.00     0.113 A 
ATOM     13  C   UNL A   1      35.339  20.326  25.033  1.00  0.00     0.088 C 
BRANCH   9  14
ATOM     14  C   UNL A   1      31.415  23.112  24.773  1.00  0.00     0.145 C 
BRANCH  14  15
ATOM     15  S   UNL A   1      30.983  23.676  26.460  1.00  0.00    -0.149 SA
BRANCH  15  16
ATOM     16  C   UNL A   1      30.025  25.185  26.110  1.00  0.00     0.105 C 
BRANCH  16  17
ATOM     17  C   UNL A   1      30.803  26.413  25.700  1.00  0.00    -0.038 A 
ATOM     18  C   UNL A   1      33.809  28.455  26.901  1.00  0.00     0.044 C 
ATOM     19  C   UNL A   1      32.636  27.981  26.102  1.00  0.00    -0.051 A 
ATOM     20  C   UNL A   1      32.295  28.674  24.946  1.00  0.00     0.006 A 
ATOM     21  C   UNL A   1      31.877  26.866  26.484  1.00  0.00     0.008 A 
ATOM     22  C   UNL A   1      31.264  28.217  24.130  1.00  0.00    -0.051 A 
ATOM     23  C   UNL A   1      30.984  28.972  22.877  1.00  0.00     0.044 C 
ATOM     24  C   UNL A   1      30.512  27.095  24.508  1.00  0.00     0.008 A 
ENDBRANCH  16  17
ENDBRANCH  15  16
ENDBRANCH  14  15
ENDBRANCH   9  14
ENDBRANCH   5   8
ENDBRANCH   3   4
ENDBRANCH   2   3
ENDBRANCH   1   2
BRANCH   1  25
ATOM     25  C   UNL A   1      40.634  21.297  26.681  1.00  0.00     0.002 C 
BRANCH  25  26
ATOM     26  C   UNL A   1      41.175  21.957  27.947  1.00  0.00     0.021 C 
BRANCH  26  27
ATOM     27  C   UNL A   1      42.400  22.836  27.755  1.00  0.00     0.116 C 
BRANCH  27  28
ATOM     28  N   UNL A   1      42.365  23.581  26.508  1.00  0.00    -0.352 N 
ATOM     29  C   UNL A   1      42.074  24.907  26.288  1.00  0.00     0.251 C 
ATOM     30  H   UNL A   1      42.583  23.060  25.701  1.00  0.00     0.163 HD
ATOM     31  O   UNL A   1      41.921  25.316  25.141  1.00  0.00    -0.269 OA
BRANCH  29  32
ATOM     32  C   UNL A   1      41.926  25.831  27.435  1.00  0.00     0.039 A 
ATOM     33  C   UNL A   1      42.972  26.703  27.750  1.00  0.00     0.014 A 
ATOM     34  C   UNL A   1      40.758  25.835  28.201  1.00  0.00     0.014 A 
ATOM     35  C   UNL A   1      42.820  27.619  28.794  1.00  0.00     0.010 A 
ATOM     36  C   UNL A   1      40.569  26.812  29.169  1.00  0.00     0.010 A 
ATOM     37  C   UNL A   1      41.603  27.703  29.490  1.00  0.00    -0.014 A 
BRANCH  37  38
ATOM     38  C   UNL A   1      41.388  28.683  30.584  1.00  0.00     0.031 A 
ATOM     39  C   UNL A   1      42.243  28.609  31.823  1.00  0.00     0.074 A 
ATOM     40  C   UNL A   1      40.378  29.571  30.504  1.00  0.00     0.049 A 
ATOM     41  N   UNL A   1      42.136  29.274  32.943  1.00  0.00    -0.248 NA
ATOM     42  C   UNL A   1      43.340  27.625  31.814  1.00  0.00     0.031 C 
ATOM     43  C   UNL A   1      39.457  29.706  29.373  1.00  0.00     0.029 A 
ATOM     44  N   UNL A   1      39.944  30.518  31.397  1.00  0.00    -0.354 N 
ATOM     45  C   UNL A   1      43.132  28.775  33.776  1.00  0.00     0.074 A 
ATOM     46  C   UNL A   1      43.792  27.709  33.056  1.00  0.00     0.031 C 
ATOM     47  C   UNL A   1      38.581  30.690  29.632  1.00  0.00     0.029 A 
ATOM     48  C   UNL A   1      38.847  31.225  30.963  1.00  0.00     0.049 A 
ATOM     49  H   UNL A   1      40.379  30.677  32.266  1.00  0.00     0.167 HD
ATOM     50  C   UNL A   1      43.482  29.186  35.017  1.00  0.00     0.037 A 
ATOM     51  C   UNL A   1      38.127  32.185  31.577  1.00  0.00     0.037 A 
ATOM     52  C   UNL A   1      42.837  30.272  35.708  1.00  0.00     0.049 A 
ATOM     53  C   UNL A   1      38.534  32.626  32.958  1.00  0.00     0.074 A 
ATOM     54  C   UNL A   1      43.148  30.809  36.944  1.00  0.00     0.029 A 
ATOM     55  N   UNL A   1      41.752  30.985  35.220  1.00  0.00    -0.354 N 
ATOM     56  N   UNL A   1      39.514  32.181  33.710  1.00  0.00    -0.248 NA
ATOM     57  C   UNL A   1      37.746  33.703  33.572  1.00  0.00     0.031 C 
ATOM     58  C   UNL A   1      42.218  31.814  37.226  1.00  0.00     0.029 A 
ATOM     59  C   UNL A   1      41.368  31.946  36.140  1.00  0.00     0.049 A 
ATOM     60  H   UNL A   1      41.319  30.831  34.350  1.00  0.00     0.167 HD
ATOM     61  C   UNL A   1      39.483  32.948  34.869  1.00  0.00     0.074 A 
ATOM     62  C   UNL A   1      38.391  33.888  34.717  1.00  0.00     0.031 C 
ATOM     63  C   UNL A   1      40.287  32.885  35.959  1.00  0.00     0.037 A 
BRANCH  50  64
ATOM     64  C   UNL A   1      44.612  28.465  35.703  1.00  0.00     0.058 A 
ATOM     65  C   UNL A   1      44.380  27.437  36.633  1.00  0.00     0.135 A 
ATOM     66  C   UNL A   1      45.947  28.783  35.404  1.00  0.00     0.135 A 
ATOM     67  F   UNL A   1      43.124  27.102  36.971  1.00  0.00    -0.206 F 
ATOM     68  C   UNL A   1      45.427  26.775  37.264  1.00  0.00     0.059 A 
ATOM     69  C   UNL A   1      47.011  28.110  35.999  1.00  0.00     0.059 A 
ATOM     70  F   UNL A   1      46.230  29.757  34.525  1.00  0.00    -0.206 F 
ATOM     71  C   UNL A   1      46.740  27.118  36.939  1.00  0.00     0.060 A 
BRANCH  71  72
ATOM     72  S   UNL A   1      48.086  26.241  37.762  1.00  0.00     0.124 S 
ATOM     73  O   UNL A   1      48.633  27.286  38.621  1.00  0.00    -0.237 OA
ATOM     74  O   UNL A   1      47.382  25.162  38.447  1.00  0.00    -0.237 OA
ATOM     75  O   UNL A   1      48.945  25.823  36.659  1.00  0.00    -0.744 OA
ENDBRANCH  71  72
ENDBRANCH  50  64
BRANCH  51  76
ATOM     76  C   UNL A   1      36.967  32.806  30.882  1.00  0.00     0.058 A 
ATOM     77  C   UNL A   1      37.151  33.851  29.965  1.00  0.00     0.135 A 
ATOM     78  C   UNL A   1      35.655  32.359  31.106  1.00  0.00     0.135 A 
ATOM     79  F   UNL A   1      38.385  34.318  29.719  1.00  0.00    -0.206 F 
ATOM     80  C   UNL A   1      36.076  34.445  29.310  1.00  0.00     0.059 A 
ATOM     81  C   UNL A   1      34.567  32.917  30.442  1.00  0.00     0.059 A 
ATOM     82  F   UNL A   1      35.426  31.348  31.960  1.00  0.00    -0.206 F 
ATOM     83  C   UNL A   1      34.788  33.967  29.553  1.00  0.00     0.060 A 
BRANCH  83  84
ATOM     84  S   UNL A   1      33.405  34.717  28.663  1.00  0.00     0.124 S 
ATOM     85  O   UNL A   1      32.500  35.054  29.756  1.00  0.00    -0.237 OA
ATOM     86  O   UNL A   1      34.049  35.844  27.994  1.00  0.00    -0.237 OA
ATOM     87  O   UNL A   1      32.956  33.646  27.778  1.00  0.00    -0.744 OA
ENDBRANCH  83  84
ENDBRANCH  51  76
BRANCH  63  88
ATOM     88  C   UNL A   1      40.061  33.893  37.052  1.00  0.00     0.058 A 
ATOM     89  C   UNL A   1      40.640  35.170  37.017  1.00  0.00     0.135 A 
ATOM     90  C   UNL A   1      39.189  33.596  38.113  1.00  0.00     0.135 A 
ATOM     91  F   UNL A   1      41.484  35.503  36.028  1.00  0.00    -0.206 F 
ATOM     92  C   UNL A   1      40.377  36.112  38.006  1.00  0.00     0.059 A 
ATOM     93  C   UNL A   1      38.888  34.532  39.096  1.00  0.00     0.059 A 
ATOM     94  F   UNL A   1      38.600  32.390  38.188  1.00  0.00    -0.206 F 
ATOM     95  C   UNL A   1      39.496  35.785  39.039  1.00  0.00     0.060 A 
BRANCH  95  96
ATOM     96  S   UNL A   1      39.127  37.034  40.289  1.00  0.00     0.124 S 
ATOM     97  O   UNL A   1      38.249  36.297  41.191  1.00  0.00    -0.237 OA
ATOM     98  O   UNL A   1      40.453  37.351  40.812  1.00  0.00    -0.237 OA
ATOM     99  O   UNL A   1      38.489  38.103  39.526  1.00  0.00    -0.744 OA
ENDBRANCH  95  96
ENDBRANCH  63  88
ENDBRANCH  37  38
ENDBRANCH  29  32
ENDBRANCH  27  28
ENDBRANCH  26  27
ENDBRANCH  25  26
ENDBRANCH   1  25
TORSDOF 20
ENDMDL
