MODEL 1
REMARK VINA RESULT:     -11.9      0.000      0.000
REMARK SMILES COc1cc(C(=O)NC2(C(=O)NCCCCCCNC(=O)c3ccc(-c4c5nc(c(-c6c(F)cc(S(=O)(=O)[O-])cc6F)c6ccc([nH]6)c(-c6c(F)cc(S(=O)(=O)[O-])cc6F)c6nc(c(-c7c(F)cc(S(=O)(=O)[O-])cc7F)c7ccc4[nH]7)C=C6)C=C5)cc3)CCCCC2)cc2c1OCCO2
REMARK SMILES IDX 15 1 14 2 13 3 12 4 10 5 11 6 9 8 88 9 92 10 89 11 91 12
REMARK SMILES IDX 90 13 8 14 6 15 7 16 5 18 3 19 4 20 95 21 94 22 96 23 93 24
REMARK SMILES IDX 99 25 97 26 98 27 2 28 1 29 16 30 17 31 18 32 19 33 20 34
REMARK SMILES IDX 21 36 22 37 23 38 87 39 24 40 86 41 25 42 26 43 27 44 80 45
REMARK SMILES IDX 28 46 85 47 79 48 81 49 29 50 84 51 78 52 77 53 30 55 64 56
REMARK SMILES IDX 43 57 63 58 44 59 47 60 62 61 82 62 45 63 46 64 61 66 83 67
REMARK SMILES IDX 48 68 31 69 32 70 41 71 33 72 34 73 40 74 42 75 35 76 36 77
REMARK SMILES IDX 37 78 38 79 39 80 65 81 66 82 75 83 67 84 68 85 74 86 76 87
REMARK SMILES IDX 69 88 70 89 71 90 72 91 73 92 49 93 50 94 59 95 51 96 52 97
REMARK SMILES IDX 58 98 60 99 53 100 54 101 55 102 56 103 57 104
REMARK H PARENT 12 7 8 17 19 35 81 54 47 65
REMARK Flexibility Score: inf
ROOT
ATOM      1  C   UNL A   1      34.077  32.399  27.834  1.00  0.00     0.002 C 
ENDROOT
BRANCH   1   2
ATOM      2  C   UNL A   1      34.554  30.958  27.650  1.00  0.00     0.021 C 
BRANCH   2   3
ATOM      3  C   UNL A   1      33.621  30.111  26.785  1.00  0.00     0.116 C 
BRANCH   3   4
ATOM      4  N   UNL A   1      32.459  29.577  27.473  1.00  0.00    -0.354 N 
ATOM      5  C   UNL A   1      31.848  28.353  27.412  1.00  0.00     0.245 C 
ATOM      6  O   UNL A   1      31.046  28.099  28.322  1.00  0.00    -0.272 OA
ATOM      7  H   UNL A   1      32.034  30.210  28.095  1.00  0.00     0.163 HD
BRANCH   5   8
ATOM      8  C   UNL A   1      32.054  27.330  26.219  1.00  0.00     0.119 C 
ATOM      9  C   UNL A   1      33.557  27.203  25.914  1.00  0.00     0.038 C 
ATOM     10  C   UNL A   1      31.085  27.776  25.111  1.00  0.00     0.038 C 
ATOM     11  C   UNL A   1      34.090  27.758  24.588  1.00  0.00     0.003 C 
ATOM     12  C   UNL A   1      31.662  28.566  23.955  1.00  0.00     0.003 C 
ATOM     13  C   UNL A   1      33.102  28.292  23.549  1.00  0.00     0.000 C 
BRANCH   8  14
ATOM     14  N   UNL A   1      31.528  26.011  26.754  1.00  0.00    -0.338 N 
ATOM     15  C   UNL A   1      31.740  24.663  26.532  1.00  0.00     0.252 C 
ATOM     16  O   UNL A   1      30.996  23.872  27.116  1.00  0.00    -0.269 OA
ATOM     17  H   UNL A   1      30.849  26.155  27.452  1.00  0.00     0.164 HD
BRANCH  15  18
ATOM     18  C   UNL A   1      32.845  24.087  25.698  1.00  0.00     0.047 A 
ATOM     19  C   UNL A   1      34.011  23.861  23.571  1.00  0.00     0.165 A 
ATOM     20  C   UNL A   1      32.873  24.163  24.315  1.00  0.00     0.064 A 
ATOM     21  C   UNL A   1      35.116  23.310  24.194  1.00  0.00     0.203 A 
ATOM     22  C   UNL A   1      35.069  23.090  25.575  1.00  0.00     0.166 A 
ATOM     23  O   UNL A   1      36.213  23.037  23.425  1.00  0.00    -0.483 OA
ATOM     24  C   UNL A   1      33.951  23.491  26.325  1.00  0.00     0.064 A 
ATOM     25  O   UNL A   1      36.104  22.509  26.266  1.00  0.00    -0.486 OA
ATOM     26  C   UNL A   1      37.024  22.046  24.045  1.00  0.00     0.271 C 
ATOM     27  C   UNL A   1      37.307  22.433  25.487  1.00  0.00     0.271 C 
BRANCH  19  28
ATOM     28  O   UNL A   1      34.038  24.327  22.284  1.00  0.00    -0.493 OA
ATOM     29  C   UNL A   1      32.845  24.987  21.883  1.00  0.00     0.278 C 
ENDBRANCH  19  28
ENDBRANCH  15  18
ENDBRANCH   8  14
ENDBRANCH   5   8
ENDBRANCH   3   4
ENDBRANCH   2   3
ENDBRANCH   1   2
BRANCH   1  30
ATOM     30  C   UNL A   1      34.481  33.071  29.154  1.00  0.00     0.002 C 
BRANCH  30  31
ATOM     31  C   UNL A   1      35.892  33.664  29.219  1.00  0.00     0.021 C 
BRANCH  31  32
ATOM     32  C   UNL A   1      36.720  33.274  30.442  1.00  0.00     0.116 C 
BRANCH  32  33
ATOM     33  N   UNL A   1      36.179  32.112  31.131  1.00  0.00    -0.352 N 
ATOM     34  C   UNL A   1      36.628  30.821  31.180  1.00  0.00     0.251 C 
ATOM     35  H   UNL A   1      35.357  32.281  31.644  1.00  0.00     0.163 HD
ATOM     36  O   UNL A   1      35.898  29.946  31.663  1.00  0.00    -0.269 OA
BRANCH  34  37
ATOM     37  C   UNL A   1      37.962  30.459  30.662  1.00  0.00     0.039 A 
ATOM     38  C   UNL A   1      38.992  30.189  31.570  1.00  0.00     0.014 A 
ATOM     39  C   UNL A   1      38.218  30.429  29.288  1.00  0.00     0.014 A 
ATOM     40  C   UNL A   1      40.260  29.840  31.101  1.00  0.00     0.010 A 
ATOM     41  C   UNL A   1      39.464  30.015  28.821  1.00  0.00     0.010 A 
ATOM     42  C   UNL A   1      40.499  29.724  29.722  1.00  0.00    -0.014 A 
BRANCH  42  43
ATOM     43  C   UNL A   1      41.829  29.310  29.203  1.00  0.00     0.031 A 
ATOM     44  C   UNL A   1      42.941  30.319  29.093  1.00  0.00     0.074 A 
ATOM     45  C   UNL A   1      42.016  28.045  28.780  1.00  0.00     0.049 A 
ATOM     46  N   UNL A   1      44.142  30.173  28.595  1.00  0.00    -0.248 NA
ATOM     47  C   UNL A   1      42.658  31.677  29.586  1.00  0.00     0.031 C 
ATOM     48  C   UNL A   1      41.004  26.987  28.804  1.00  0.00     0.029 A 
ATOM     49  N   UNL A   1      43.120  27.433  28.240  1.00  0.00    -0.354 N 
ATOM     50  C   UNL A   1      44.753  31.417  28.707  1.00  0.00     0.074 A 
ATOM     51  C   UNL A   1      43.772  32.320  29.266  1.00  0.00     0.031 C 
ATOM     52  C   UNL A   1      41.538  25.853  28.323  1.00  0.00     0.029 A 
ATOM     53  C   UNL A   1      42.917  26.111  27.919  1.00  0.00     0.049 A 
ATOM     54  H   UNL A   1      43.975  27.897  28.096  1.00  0.00     0.167 HD
ATOM     55  C   UNL A   1      46.025  31.767  28.396  1.00  0.00     0.037 A 
ATOM     56  C   UNL A   1      43.748  25.212  27.356  1.00  0.00     0.037 A 
ATOM     57  C   UNL A   1      47.003  30.857  27.859  1.00  0.00     0.049 A 
ATOM     58  C   UNL A   1      45.148  25.632  27.001  1.00  0.00     0.074 A 
ATOM     59  C   UNL A   1      48.328  31.104  27.543  1.00  0.00     0.029 A 
ATOM     60  N   UNL A   1      46.763  29.523  27.561  1.00  0.00    -0.354 N 
ATOM     61  N   UNL A   1      45.723  26.802  27.154  1.00  0.00    -0.248 NA
ATOM     62  C   UNL A   1      46.017  24.610  26.402  1.00  0.00     0.031 C 
ATOM     63  C   UNL A   1      48.878  29.931  27.016  1.00  0.00     0.029 A 
ATOM     64  C   UNL A   1      47.911  28.939  27.051  1.00  0.00     0.049 A 
ATOM     65  H   UNL A   1      45.904  29.061  27.691  1.00  0.00     0.167 HD
ATOM     66  C   UNL A   1      47.030  26.645  26.704  1.00  0.00     0.074 A 
ATOM     67  C   UNL A   1      47.163  25.267  26.280  1.00  0.00     0.031 C 
ATOM     68  C   UNL A   1      48.030  27.560  26.649  1.00  0.00     0.037 A 
BRANCH  55  69
ATOM     69  C   UNL A   1      46.435  33.195  28.641  1.00  0.00     0.058 A 
ATOM     70  C   UNL A   1      46.975  33.604  29.871  1.00  0.00     0.135 A 
ATOM     71  C   UNL A   1      46.324  34.158  27.625  1.00  0.00     0.135 A 
ATOM     72  F   UNL A   1      47.090  32.729  30.884  1.00  0.00    -0.206 F 
ATOM     73  C   UNL A   1      47.362  34.921  30.096  1.00  0.00     0.059 A 
ATOM     74  C   UNL A   1      46.733  35.475  27.818  1.00  0.00     0.059 A 
ATOM     75  F   UNL A   1      45.816  33.823  26.428  1.00  0.00    -0.206 F 
ATOM     76  C   UNL A   1      47.237  35.850  29.062  1.00  0.00     0.060 A 
BRANCH  76  77
ATOM     77  S   UNL A   1      47.750  37.553  29.369  1.00  0.00     0.124 S 
ATOM     78  O   UNL A   1      48.555  37.401  30.577  1.00  0.00    -0.237 OA
ATOM     79  O   UNL A   1      48.487  37.881  28.153  1.00  0.00    -0.237 OA
ATOM     80  O   UNL A   1      46.487  38.263  29.543  1.00  0.00    -0.744 OA
ENDBRANCH  76  77
ENDBRANCH  55  69
BRANCH  56  81
ATOM     81  C   UNL A   1      43.286  23.818  27.110  1.00  0.00     0.058 A 
ATOM     82  C   UNL A   1      42.806  23.431  25.850  1.00  0.00     0.135 A 
ATOM     83  C   UNL A   1      43.307  22.851  28.126  1.00  0.00     0.135 A 
ATOM     84  F   UNL A   1      42.761  24.321  24.848  1.00  0.00    -0.206 F 
ATOM     85  C   UNL A   1      42.339  22.143  25.612  1.00  0.00     0.059 A 
ATOM     86  C   UNL A   1      42.872  21.548  27.905  1.00  0.00     0.059 A 
ATOM     87  F   UNL A   1      43.774  23.164  29.345  1.00  0.00    -0.206 F 
ATOM     88  C   UNL A   1      42.375  21.208  26.647  1.00  0.00     0.060 A 
BRANCH  88  89
ATOM     89  S   UNL A   1      41.791  19.530  26.321  1.00  0.00     0.124 S 
ATOM     90  O   UNL A   1      42.162  18.846  27.554  1.00  0.00    -0.237 OA
ATOM     91  O   UNL A   1      40.361  19.740  26.111  1.00  0.00    -0.237 OA
ATOM     92  O   UNL A   1      42.540  19.141  25.131  1.00  0.00    -0.744 OA
ENDBRANCH  88  89
ENDBRANCH  56  81
BRANCH  68  93
ATOM     93  C   UNL A   1      49.370  27.090  26.154  1.00  0.00     0.058 A 
ATOM     94  C   UNL A   1      50.327  26.539  27.018  1.00  0.00     0.135 A 
ATOM     95  C   UNL A   1      49.677  27.145  24.784  1.00  0.00     0.135 A 
ATOM     96  F   UNL A   1      50.088  26.470  28.338  1.00  0.00    -0.206 F 
ATOM     97  C   UNL A   1      51.553  26.081  26.546  1.00  0.00     0.059 A 
ATOM     98  C   UNL A   1      50.884  26.665  24.286  1.00  0.00     0.059 A 
ATOM     99  F   UNL A   1      48.791  27.653  23.912  1.00  0.00    -0.206 F 
ATOM    100  C   UNL A   1      51.822  26.146  25.177  1.00  0.00     0.060 A 
BRANCH 100 101
ATOM    101  S   UNL A   1      53.401  25.515  24.574  1.00  0.00     0.124 S 
ATOM    102  O   UNL A   1      53.348  24.123  25.010  1.00  0.00    -0.237 OA
ATOM    103  O   UNL A   1      53.295  25.732  23.134  1.00  0.00    -0.237 OA
ATOM    104  O   UNL A   1      54.384  26.351  25.257  1.00  0.00    -0.744 OA
ENDBRANCH 100 101
ENDBRANCH  68  93
ENDBRANCH  42  43
ENDBRANCH  34  37
ENDBRANCH  32  33
ENDBRANCH  31  32
ENDBRANCH  30  31
ENDBRANCH   1  30
TORSDOF 19
ENDMDL
MODEL 2
REMARK VINA RESULT:     -11.8      6.153     11.745
REMARK SMILES COc1cc(C(=O)NC2(C(=O)NCCCCCCNC(=O)c3ccc(-c4c5nc(c(-c6c(F)cc(S(=O)(=O)[O-])cc6F)c6ccc([nH]6)c(-c6c(F)cc(S(=O)(=O)[O-])cc6F)c6nc(c(-c7c(F)cc(S(=O)(=O)[O-])cc7F)c7ccc4[nH]7)C=C6)C=C5)cc3)CCCCC2)cc2c1OCCO2
REMARK SMILES IDX 15 1 14 2 13 3 12 4 10 5 11 6 9 8 88 9 92 10 89 11 91 12
REMARK SMILES IDX 90 13 8 14 6 15 7 16 5 18 3 19 4 20 95 21 94 22 96 23 93 24
REMARK SMILES IDX 99 25 97 26 98 27 2 28 1 29 16 30 17 31 18 32 19 33 20 34
REMARK SMILES IDX 21 36 22 37 23 38 87 39 24 40 86 41 25 42 26 43 27 44 80 45
REMARK SMILES IDX 28 46 85 47 79 48 81 49 29 50 84 51 78 52 77 53 30 55 64 56
REMARK SMILES IDX 43 57 63 58 44 59 47 60 62 61 82 62 45 63 46 64 61 66 83 67
REMARK SMILES IDX 48 68 31 69 32 70 41 71 33 72 34 73 40 74 42 75 35 76 36 77
REMARK SMILES IDX 37 78 38 79 39 80 65 81 66 82 75 83 67 84 68 85 74 86 76 87
REMARK SMILES IDX 69 88 70 89 71 90 72 91 73 92 49 93 50 94 59 95 51 96 52 97
REMARK SMILES IDX 58 98 60 99 53 100 54 101 55 102 56 103 57 104
REMARK H PARENT 12 7 8 17 19 35 81 54 47 65
REMARK Flexibility Score: inf
ROOT
ATOM      1  C   UNL A   1      38.229  21.862  25.404  1.00  0.00     0.002 C 
ENDROOT
BRANCH   1   2
ATOM      2  C   UNL A   1      37.369  20.620  25.177  1.00  0.00     0.021 C 
BRANCH   2   3
ATOM      3  C   UNL A   1      35.951  20.937  24.700  1.00  0.00     0.116 C 
BRANCH   3   4
ATOM      4  N   UNL A   1      34.887  20.409  25.535  1.00  0.00    -0.354 N 
ATOM      5  C   UNL A   1      33.649  20.898  25.850  1.00  0.00     0.245 C 
ATOM      6  O   UNL A   1      32.857  20.093  26.359  1.00  0.00    -0.272 OA
ATOM      7  H   UNL A   1      35.095  19.540  25.950  1.00  0.00     0.163 HD
BRANCH   5   8
ATOM      8  C   UNL A   1      33.240  22.421  25.677  1.00  0.00     0.119 C 
ATOM      9  C   UNL A   1      33.079  22.736  24.180  1.00  0.00     0.038 C 
ATOM     10  C   UNL A   1      34.242  23.223  26.523  1.00  0.00     0.038 C 
ATOM     11  C   UNL A   1      34.093  23.670  23.510  1.00  0.00     0.003 C 
ATOM     12  C   UNL A   1      35.385  23.901  25.795  1.00  0.00     0.003 C 
ATOM     13  C   UNL A   1      35.146  24.373  24.370  1.00  0.00     0.000 C 
BRANCH   8  14
ATOM     14  N   UNL A   1      31.895  22.534  26.371  1.00  0.00    -0.338 N 
ATOM     15  C   UNL A   1      30.989  23.530  26.682  1.00  0.00     0.252 C 
ATOM     16  O   UNL A   1      30.027  23.217  27.387  1.00  0.00    -0.269 OA
ATOM     17  H   UNL A   1      31.581  21.655  26.686  1.00  0.00     0.164 HD
BRANCH  15  18
ATOM     18  C   UNL A   1      31.044  24.940  26.172  1.00  0.00     0.047 A 
ATOM     19  C   UNL A   1      32.209  27.063  25.904  1.00  0.00     0.165 A 
ATOM     20  C   UNL A   1      32.008  25.854  26.566  1.00  0.00     0.064 A 
ATOM     21  C   UNL A   1      31.326  27.464  24.918  1.00  0.00     0.203 A 
ATOM     22  C   UNL A   1      30.256  26.623  24.591  1.00  0.00     0.166 A 
ATOM     23  O   UNL A   1      31.566  28.654  24.291  1.00  0.00    -0.483 OA
ATOM     24  C   UNL A   1      30.124  25.364  25.200  1.00  0.00     0.064 A 
ATOM     25  O   UNL A   1      29.309  26.961  23.655  1.00  0.00    -0.486 OA
ATOM     26  C   UNL A   1      30.370  29.167  23.715  1.00  0.00     0.271 C 
ATOM     27  C   UNL A   1      29.700  28.098  22.870  1.00  0.00     0.271 C 
BRANCH  19  28
ATOM     28  O   UNL A   1      33.402  27.691  26.134  1.00  0.00    -0.493 OA
ATOM     29  C   UNL A   1      33.378  28.595  27.230  1.00  0.00     0.278 C 
ENDBRANCH  19  28
ENDBRANCH  15  18
ENDBRANCH   8  14
ENDBRANCH   5   8
ENDBRANCH   3   4
ENDBRANCH   2   3
ENDBRANCH   1   2
BRANCH   1  30
ATOM     30  C   UNL A   1      39.603  21.612  26.043  1.00  0.00     0.002 C 
BRANCH  30  31
ATOM     31  C   UNL A   1      39.964  22.476  27.256  1.00  0.00     0.021 C 
BRANCH  31  32
ATOM     32  C   UNL A   1      41.407  22.976  27.308  1.00  0.00     0.116 C 
BRANCH  32  33
ATOM     33  N   UNL A   1      41.749  23.804  26.161  1.00  0.00    -0.352 N 
ATOM     34  C   UNL A   1      41.743  25.163  26.015  1.00  0.00     0.251 C 
ATOM     35  H   UNL A   1      42.030  23.305  25.361  1.00  0.00     0.163 HD
ATOM     36  O   UNL A   1      41.876  25.650  24.885  1.00  0.00    -0.269 OA
BRANCH  34  37
ATOM     37  C   UNL A   1      41.574  26.054  27.180  1.00  0.00     0.039 A 
ATOM     38  C   UNL A   1      42.551  27.020  27.443  1.00  0.00     0.014 A 
ATOM     39  C   UNL A   1      40.482  25.913  28.042  1.00  0.00     0.014 A 
ATOM     40  C   UNL A   1      42.408  27.874  28.538  1.00  0.00     0.010 A 
ATOM     41  C   UNL A   1      40.306  26.810  29.094  1.00  0.00     0.010 A 
ATOM     42  C   UNL A   1      41.270  27.795  29.357  1.00  0.00    -0.014 A 
BRANCH  42  43
ATOM     43  C   UNL A   1      41.078  28.724  30.500  1.00  0.00     0.031 A 
ATOM     44  C   UNL A   1      41.951  28.609  31.721  1.00  0.00     0.074 A 
ATOM     45  C   UNL A   1      40.083  29.633  30.461  1.00  0.00     0.049 A 
ATOM     46  N   UNL A   1      41.887  29.271  32.848  1.00  0.00    -0.248 NA
ATOM     47  C   UNL A   1      43.020  27.597  31.680  1.00  0.00     0.031 C 
ATOM     48  C   UNL A   1      39.149  29.817  29.348  1.00  0.00     0.029 A 
ATOM     49  N   UNL A   1      39.684  30.567  31.384  1.00  0.00    -0.354 N 
ATOM     50  C   UNL A   1      42.900  28.754  33.649  1.00  0.00     0.074 A 
ATOM     51  C   UNL A   1      43.524  27.684  32.903  1.00  0.00     0.031 C 
ATOM     52  C   UNL A   1      38.303  30.817  29.642  1.00  0.00     0.029 A 
ATOM     53  C   UNL A   1      38.605  31.318  30.979  1.00  0.00     0.049 A 
ATOM     54  H   UNL A   1      40.129  30.688  32.253  1.00  0.00     0.167 HD
ATOM     55  C   UNL A   1      43.290  29.153  34.884  1.00  0.00     0.037 A 
ATOM     56  C   UNL A   1      37.931  32.294  31.619  1.00  0.00     0.037 A 
ATOM     57  C   UNL A   1      42.677  30.233  35.613  1.00  0.00     0.049 A 
ATOM     58  C   UNL A   1      38.372  32.704  32.998  1.00  0.00     0.074 A 
ATOM     59  C   UNL A   1      43.020  30.739  36.855  1.00  0.00     0.029 A 
ATOM     60  N   UNL A   1      41.596  30.978  35.163  1.00  0.00    -0.354 N 
ATOM     61  N   UNL A   1      39.359  32.234  33.723  1.00  0.00    -0.248 NA
ATOM     62  C   UNL A   1      37.612  33.783  33.645  1.00  0.00     0.031 C 
ATOM     63  C   UNL A   1      42.122  31.761  37.174  1.00  0.00     0.029 A 
ATOM     64  C   UNL A   1      41.250  31.928  36.110  1.00  0.00     0.049 A 
ATOM     65  H   UNL A   1      41.141  30.849  34.300  1.00  0.00     0.167 HD
ATOM     66  C   UNL A   1      39.360  32.983  34.895  1.00  0.00     0.074 A 
ATOM     67  C   UNL A   1      38.281  33.941  34.779  1.00  0.00     0.031 C 
ATOM     68  C   UNL A   1      40.182  32.886  35.970  1.00  0.00     0.037 A 
BRANCH  55  69
ATOM     69  C   UNL A   1      44.442  28.424  35.521  1.00  0.00     0.058 A 
ATOM     70  C   UNL A   1      45.770  28.841  35.334  1.00  0.00     0.135 A 
ATOM     71  C   UNL A   1      44.218  27.319  36.359  1.00  0.00     0.135 A 
ATOM     72  F   UNL A   1      46.045  29.882  34.531  1.00  0.00    -0.206 F 
ATOM     73  C   UNL A   1      46.835  28.174  35.929  1.00  0.00     0.059 A 
ATOM     74  C   UNL A   1      45.266  26.653  36.989  1.00  0.00     0.059 A 
ATOM     75  F   UNL A   1      42.969  26.876  36.574  1.00  0.00    -0.206 F 
ATOM     76  C   UNL A   1      46.573  27.079  36.755  1.00  0.00     0.060 A 
BRANCH  76  77
ATOM     77  S   UNL A   1      47.967  26.228  37.524  1.00  0.00     0.124 S 
ATOM     78  O   UNL A   1      47.350  24.970  37.933  1.00  0.00    -0.237 OA
ATOM     79  O   UNL A   1      48.922  26.137  36.424  1.00  0.00    -0.237 OA
ATOM     80  O   UNL A   1      48.353  27.121  38.612  1.00  0.00    -0.744 OA
ENDBRANCH  76  77
ENDBRANCH  55  69
BRANCH  56  81
ATOM     81  C   UNL A   1      36.782  32.967  30.955  1.00  0.00     0.058 A 
ATOM     82  C   UNL A   1      36.991  33.953  29.980  1.00  0.00     0.135 A 
ATOM     83  C   UNL A   1      35.456  32.646  31.285  1.00  0.00     0.135 A 
ATOM     84  F   UNL A   1      38.240  34.299  29.633  1.00  0.00    -0.206 F 
ATOM     85  C   UNL A   1      35.929  34.617  29.374  1.00  0.00     0.059 A 
ATOM     86  C   UNL A   1      34.377  33.276  30.672  1.00  0.00     0.059 A 
ATOM     87  F   UNL A   1      35.201  31.696  32.198  1.00  0.00    -0.206 F 
ATOM     88  C   UNL A   1      34.625  34.271  29.728  1.00  0.00     0.060 A 
BRANCH  88  89
ATOM     89  S   UNL A   1      33.252  35.120  28.917  1.00  0.00     0.124 S 
ATOM     90  O   UNL A   1      32.753  34.081  28.023  1.00  0.00    -0.237 OA
ATOM     91  O   UNL A   1      32.392  35.459  30.047  1.00  0.00    -0.237 OA
ATOM     92  O   UNL A   1      33.898  36.255  28.267  1.00  0.00    -0.744 OA
ENDBRANCH  88  89
ENDBRANCH  56  81
BRANCH  68  93
ATOM     93  C   UNL A   1      39.977  33.871  37.087  1.00  0.00     0.058 A 
ATOM     94  C   UNL A   1      40.654  35.099  37.126  1.00  0.00     0.135 A 
ATOM     95  C   UNL A   1      39.048  33.601  38.107  1.00  0.00     0.135 A 
ATOM     96  F   UNL A   1      41.557  35.404  36.181  1.00  0.00    -0.206 F 
ATOM     97  C   UNL A   1      40.436  36.016  38.150  1.00  0.00     0.059 A 
ATOM     98  C   UNL A   1      38.792  34.516  39.123  1.00  0.00     0.059 A 
ATOM     99  F   UNL A   1      38.365  32.445  38.110  1.00  0.00    -0.206 F 
ATOM    100  C   UNL A   1      39.501  35.716  39.143  1.00  0.00     0.060 A 
BRANCH 100 101
ATOM    101  S   UNL A   1      39.202  36.931  40.444  1.00  0.00     0.124 S 
ATOM    102  O   UNL A   1      38.619  36.100  41.493  1.00  0.00    -0.237 OA
ATOM    103  O   UNL A   1      40.543  37.440  40.711  1.00  0.00    -0.237 OA
ATOM    104  O   UNL A   1      38.290  37.883  39.817  1.00  0.00    -0.744 OA
ENDBRANCH 100 101
ENDBRANCH  68  93
ENDBRANCH  42  43
ENDBRANCH  34  37
ENDBRANCH  32  33
ENDBRANCH  31  32
ENDBRANCH  30  31
ENDBRANCH   1  30
TORSDOF 19
ENDMDL
MODEL 3
REMARK VINA RESULT:     -11.7      6.142     11.746
REMARK SMILES COc1cc(C(=O)NC2(C(=O)NCCCCCCNC(=O)c3ccc(-c4c5nc(c(-c6c(F)cc(S(=O)(=O)[O-])cc6F)c6ccc([nH]6)c(-c6c(F)cc(S(=O)(=O)[O-])cc6F)c6nc(c(-c7c(F)cc(S(=O)(=O)[O-])cc7F)c7ccc4[nH]7)C=C6)C=C5)cc3)CCCCC2)cc2c1OCCO2
REMARK SMILES IDX 15 1 14 2 13 3 12 4 10 5 11 6 9 8 88 9 92 10 89 11 91 12
REMARK SMILES IDX 90 13 8 14 6 15 7 16 5 18 3 19 4 20 95 21 94 22 96 23 93 24
REMARK SMILES IDX 99 25 97 26 98 27 2 28 1 29 16 30 17 31 18 32 19 33 20 34
REMARK SMILES IDX 21 36 22 37 23 38 87 39 24 40 86 41 25 42 26 43 27 44 80 45
REMARK SMILES IDX 28 46 85 47 79 48 81 49 29 50 84 51 78 52 77 53 30 55 64 56
REMARK SMILES IDX 43 57 63 58 44 59 47 60 62 61 82 62 45 63 46 64 61 66 83 67
REMARK SMILES IDX 48 68 31 69 32 70 41 71 33 72 34 73 40 74 42 75 35 76 36 77
REMARK SMILES IDX 37 78 38 79 39 80 65 81 66 82 75 83 67 84 68 85 74 86 76 87
REMARK SMILES IDX 69 88 70 89 71 90 72 91 73 92 49 93 50 94 59 95 51 96 52 97
REMARK SMILES IDX 58 98 60 99 53 100 54 101 55 102 56 103 57 104
REMARK H PARENT 12 7 8 17 19 35 81 54 47 65
REMARK Flexibility Score: inf
ROOT
ATOM      1  C   UNL A   1      38.519  22.069  25.741  1.00  0.00     0.002 C 
ENDROOT
BRANCH   1   2
ATOM      2  C   UNL A   1      37.693  20.883  25.243  1.00  0.00     0.021 C 
BRANCH   2   3
ATOM      3  C   UNL A   1      36.237  21.238  24.940  1.00  0.00     0.116 C 
BRANCH   3   4
ATOM      4  N   UNL A   1      35.296  20.942  26.006  1.00  0.00    -0.354 N 
ATOM      5  C   UNL A   1      34.004  21.343  26.218  1.00  0.00     0.245 C 
ATOM      6  O   UNL A   1      33.367  20.703  27.066  1.00  0.00    -0.272 OA
ATOM      7  H   UNL A   1      35.651  20.344  26.703  1.00  0.00     0.163 HD
BRANCH   5   8
ATOM      8  C   UNL A   1      33.352  22.603  25.510  1.00  0.00     0.119 C 
ATOM      9  C   UNL A   1      33.118  22.285  24.022  1.00  0.00     0.038 C 
ATOM     10  C   UNL A   1      34.225  23.805  25.906  1.00  0.00     0.038 C 
ATOM     11  C   UNL A   1      33.958  23.021  22.971  1.00  0.00     0.003 C 
ATOM     12  C   UNL A   1      35.232  24.303  24.889  1.00  0.00     0.003 C 
ATOM     13  C   UNL A   1      34.897  24.144  23.414  1.00  0.00     0.000 C 
BRANCH   8  14
ATOM     14  N   UNL A   1      32.018  22.783  26.210  1.00  0.00    -0.338 N 
ATOM     15  C   UNL A   1      31.172  23.826  26.540  1.00  0.00     0.252 C 
ATOM     16  O   UNL A   1      30.195  23.558  27.243  1.00  0.00    -0.269 OA
ATOM     17  H   UNL A   1      31.654  21.919  26.511  1.00  0.00     0.164 HD
BRANCH  15  18
ATOM     18  C   UNL A   1      31.310  25.239  26.055  1.00  0.00     0.047 A 
ATOM     19  C   UNL A   1      30.677  27.043  24.545  1.00  0.00     0.165 A 
ATOM     20  C   UNL A   1      30.769  25.690  24.862  1.00  0.00     0.064 A 
ATOM     21  C   UNL A   1      31.284  27.983  25.357  1.00  0.00     0.203 A 
ATOM     22  C   UNL A   1      31.961  27.548  26.501  1.00  0.00     0.166 A 
ATOM     23  O   UNL A   1      31.161  29.300  25.012  1.00  0.00    -0.483 OA
ATOM     24  C   UNL A   1      31.961  26.188  26.858  1.00  0.00     0.064 A 
ATOM     25  O   UNL A   1      32.626  28.408  27.340  1.00  0.00    -0.486 OA
ATOM     26  C   UNL A   1      32.210  30.069  25.590  1.00  0.00     0.271 C 
ATOM     27  C   UNL A   1      32.305  29.783  27.078  1.00  0.00     0.271 C 
BRANCH  19  28
ATOM     28  O   UNL A   1      29.804  27.376  23.546  1.00  0.00    -0.493 OA
ATOM     29  C   UNL A   1      28.499  26.838  23.716  1.00  0.00     0.278 C 
ENDBRANCH  19  28
ENDBRANCH  15  18
ENDBRANCH   8  14
ENDBRANCH   5   8
ENDBRANCH   3   4
ENDBRANCH   2   3
ENDBRANCH   1   2
BRANCH   1  30
ATOM     30  C   UNL A   1      39.960  21.745  26.164  1.00  0.00     0.002 C 
BRANCH  30  31
ATOM     31  C   UNL A   1      40.409  22.271  27.531  1.00  0.00     0.021 C 
BRANCH  31  32
ATOM     32  C   UNL A   1      41.771  22.962  27.561  1.00  0.00     0.116 C 
BRANCH  32  33
ATOM     33  N   UNL A   1      42.004  23.781  26.380  1.00  0.00    -0.352 N 
ATOM     34  C   UNL A   1      41.881  25.131  26.200  1.00  0.00     0.251 C 
ATOM     35  H   UNL A   1      42.296  23.284  25.583  1.00  0.00     0.163 HD
ATOM     36  O   UNL A   1      41.934  25.594  25.053  1.00  0.00    -0.269 OA
BRANCH  34  37
ATOM     37  C   UNL A   1      41.682  26.038  27.347  1.00  0.00     0.039 A 
ATOM     38  C   UNL A   1      42.645  27.019  27.611  1.00  0.00     0.014 A 
ATOM     39  C   UNL A   1      40.577  25.899  28.192  1.00  0.00     0.014 A 
ATOM     40  C   UNL A   1      42.473  27.889  28.689  1.00  0.00     0.010 A 
ATOM     41  C   UNL A   1      40.373  26.811  29.226  1.00  0.00     0.010 A 
ATOM     42  C   UNL A   1      41.322  27.810  29.490  1.00  0.00    -0.014 A 
BRANCH  42  43
ATOM     43  C   UNL A   1      41.099  28.756  30.614  1.00  0.00     0.031 A 
ATOM     44  C   UNL A   1      41.932  28.652  31.863  1.00  0.00     0.074 A 
ATOM     45  C   UNL A   1      40.111  29.669  30.532  1.00  0.00     0.049 A 
ATOM     46  N   UNL A   1      41.838  29.329  32.978  1.00  0.00    -0.248 NA
ATOM     47  C   UNL A   1      42.997  27.634  31.869  1.00  0.00     0.031 C 
ATOM     48  C   UNL A   1      39.214  29.844  29.387  1.00  0.00     0.029 A 
ATOM     49  N   UNL A   1      39.689  30.618  31.429  1.00  0.00    -0.354 N 
ATOM     50  C   UNL A   1      42.821  28.817  33.818  1.00  0.00     0.074 A 
ATOM     51  C   UNL A   1      43.462  27.734  33.106  1.00  0.00     0.031 C 
ATOM     52  C   UNL A   1      38.365  30.852  29.642  1.00  0.00     0.029 A 
ATOM     53  C   UNL A   1      38.628  31.369  30.981  1.00  0.00     0.049 A 
ATOM     54  H   UNL A   1      40.108  30.748  32.310  1.00  0.00     0.167 HD
ATOM     55  C   UNL A   1      43.175  29.230  35.059  1.00  0.00     0.037 A 
ATOM     56  C   UNL A   1      37.940  32.358  31.586  1.00  0.00     0.037 A 
ATOM     57  C   UNL A   1      42.546  30.324  35.754  1.00  0.00     0.049 A 
ATOM     58  C   UNL A   1      38.339  32.784  32.973  1.00  0.00     0.074 A 
ATOM     59  C   UNL A   1      42.853  30.844  36.999  1.00  0.00     0.029 A 
ATOM     60  N   UNL A   1      41.484  31.068  35.261  1.00  0.00    -0.354 N 
ATOM     61  N   UNL A   1      39.301  32.318  33.735  1.00  0.00    -0.248 NA
ATOM     62  C   UNL A   1      37.566  33.875  33.581  1.00  0.00     0.031 C 
ATOM     63  C   UNL A   1      41.951  31.876  37.277  1.00  0.00     0.029 A 
ATOM     64  C   UNL A   1      41.114  32.033  36.184  1.00  0.00     0.049 A 
ATOM     65  H   UNL A   1      41.055  30.931  34.386  1.00  0.00     0.167 HD
ATOM     66  C   UNL A   1      39.269  33.082  34.896  1.00  0.00     0.074 A 
ATOM     67  C   UNL A   1      38.200  34.045  34.733  1.00  0.00     0.031 C 
ATOM     68  C   UNL A   1      40.057  32.995  35.998  1.00  0.00     0.037 A 
BRANCH  55  69
ATOM     69  C   UNL A   1      44.302  28.503  35.741  1.00  0.00     0.058 A 
ATOM     70  C   UNL A   1      44.065  27.402  36.580  1.00  0.00     0.135 A 
ATOM     71  C   UNL A   1      45.637  28.884  35.528  1.00  0.00     0.135 A 
ATOM     72  F   UNL A   1      42.808  27.002  36.833  1.00  0.00    -0.206 F 
ATOM     73  C   UNL A   1      45.105  26.723  37.205  1.00  0.00     0.059 A 
ATOM     74  C   UNL A   1      46.696  28.201  36.120  1.00  0.00     0.059 A 
ATOM     75  F   UNL A   1      45.923  29.930  34.735  1.00  0.00    -0.206 F 
ATOM     76  C   UNL A   1      46.419  27.131  36.969  1.00  0.00     0.060 A 
BRANCH  76  77
ATOM     77  S   UNL A   1      47.758  26.236  37.784  1.00  0.00     0.124 S 
ATOM     78  O   UNL A   1      47.583  24.893  37.239  1.00  0.00    -0.237 OA
ATOM     79  O   UNL A   1      48.941  26.957  37.323  1.00  0.00    -0.237 OA
ATOM     80  O   UNL A   1      47.452  26.383  39.203  1.00  0.00    -0.744 OA
ENDBRANCH  76  77
ENDBRANCH  55  69
BRANCH  56  81
ATOM     81  C   UNL A   1      36.816  33.028  30.878  1.00  0.00     0.058 A 
ATOM     82  C   UNL A   1      35.484  32.696  31.167  1.00  0.00     0.135 A 
ATOM     83  C   UNL A   1      37.047  34.005  29.897  1.00  0.00     0.135 A 
ATOM     84  F   UNL A   1      35.211  31.765  32.093  1.00  0.00    -0.206 F 
ATOM     85  C   UNL A   1      34.421  33.288  30.492  1.00  0.00     0.059 A 
ATOM     86  C   UNL A   1      36.000  34.632  29.228  1.00  0.00     0.059 A 
ATOM     87  F   UNL A   1      38.302  34.373  29.596  1.00  0.00    -0.206 F 
ATOM     88  C   UNL A   1      34.691  34.255  29.522  1.00  0.00     0.060 A 
BRANCH  88  89
ATOM     89  S   UNL A   1      33.304  35.037  28.669  1.00  0.00     0.124 S 
ATOM     90  O   UNL A   1      32.512  35.531  29.789  1.00  0.00    -0.237 OA
ATOM     91  O   UNL A   1      33.974  36.053  27.864  1.00  0.00    -0.237 OA
ATOM     92  O   UNL A   1      32.713  33.938  27.913  1.00  0.00    -0.744 OA
ENDBRANCH  88  89
ENDBRANCH  56  81
BRANCH  68  93
ATOM     93  C   UNL A   1      39.823  33.996  37.095  1.00  0.00     0.058 A 
ATOM     94  C   UNL A   1      39.055  33.688  38.228  1.00  0.00     0.135 A 
ATOM     95  C   UNL A   1      40.421  35.266  37.033  1.00  0.00     0.135 A 
ATOM     96  F   UNL A   1      38.455  32.492  38.334  1.00  0.00    -0.206 F 
ATOM     97  C   UNL A   1      38.868  34.612  39.251  1.00  0.00     0.059 A 
ATOM     98  C   UNL A   1      40.272  36.194  38.058  1.00  0.00     0.059 A 
ATOM     99  F   UNL A   1      41.175  35.608  35.976  1.00  0.00    -0.206 F 
ATOM    100  C   UNL A   1      39.483  35.863  39.158  1.00  0.00     0.060 A 
BRANCH 100 101
ATOM    101  S   UNL A   1      39.261  37.038  40.510  1.00  0.00     0.124 S 
ATOM    102  O   UNL A   1      38.652  38.170  39.819  1.00  0.00    -0.237 OA
ATOM    103  O   UNL A   1      38.387  36.306  41.421  1.00  0.00    -0.237 OA
ATOM    104  O   UNL A   1      40.621  37.256  40.996  1.00  0.00    -0.744 OA
ENDBRANCH 100 101
ENDBRANCH  68  93
ENDBRANCH  42  43
ENDBRANCH  34  37
ENDBRANCH  32  33
ENDBRANCH  31  32
ENDBRANCH  30  31
ENDBRANCH   1  30
TORSDOF 19
ENDMDL
