MODEL 1
REMARK VINA RESULT:     -12.0      0.000      0.000
REMARK SMILES O=C(NCCCCCCNC(=O)[C@H]1CCCCN1S(=O)(=O)c1cc[nH]c1)c1ccc(-c2c3nc(c(-c4c(F)cc(S(=O)(=O)[O-])cc4F)c4ccc([nH]4)c(-c4c(F)cc(S(=O)(=O)[O-])cc4F)c4nc(c(-c5c(F)cc(S(=O)(=O)[O-])cc5F)c5ccc2[nH]5)C=C4)C=C3)cc1
REMARK SMILES IDX 6 1 5 2 4 3 3 4 1 5 2 6 27 8 28 9 92 10 29 11 91 12 30 13
REMARK SMILES IDX 31 14 32 15 85 16 33 17 90 18 84 19 86 20 34 21 89 22 83 23
REMARK SMILES IDX 82 24 35 26 69 27 48 28 68 29 49 30 52 31 67 32 87 33 50 34
REMARK SMILES IDX 51 35 66 37 88 38 53 39 36 40 37 41 46 42 38 43 39 44 45 45
REMARK SMILES IDX 47 46 40 47 41 48 42 49 43 50 44 51 70 52 71 53 80 54 72 55
REMARK SMILES IDX 73 56 79 57 81 58 74 59 75 60 76 61 77 62 78 63 54 64 55 65
REMARK SMILES IDX 64 66 56 67 57 68 63 69 65 70 58 71 59 72 60 73 61 74 62 75
REMARK SMILES IDX 7 76 8 77 9 78 10 79 11 80 12 82 13 83 14 84 18 85 15 86
REMARK SMILES IDX 17 87 16 88 19 89 20 90 21 91 22 92 23 93 26 94 24 95 25 96
REMARK H PARENT 3 7 86 25 52 36 10 81 25 97
REMARK Flexibility Score: inf
ROOT
ATOM      1  C   UNL A   1      41.893  39.135  27.899  1.00  0.00     0.002 C 
ENDROOT
BRANCH   1   2
ATOM      2  C   UNL A   1      42.920  39.965  28.669  1.00  0.00     0.021 C 
BRANCH   2   3
ATOM      3  C   UNL A   1      43.332  39.377  30.024  1.00  0.00     0.116 C 
BRANCH   3   4
ATOM      4  N   UNL A   1      44.742  39.049  30.138  1.00  0.00    -0.352 N 
ATOM      5  O   UNL A   1      46.592  37.772  30.262  1.00  0.00    -0.269 OA
ATOM      6  C   UNL A   1      45.372  37.827  30.138  1.00  0.00     0.251 C 
ATOM      7  H   UNL A   1      45.343  39.824  30.228  1.00  0.00     0.163 HD
BRANCH   6   8
ATOM      8  C   UNL A   1      44.580  36.580  30.062  1.00  0.00     0.039 A 
ATOM      9  C   UNL A   1      44.394  35.766  31.181  1.00  0.00     0.014 A 
ATOM     10  C   UNL A   1      44.026  36.216  28.826  1.00  0.00     0.014 A 
ATOM     11  C   UNL A   1      43.758  34.543  31.049  1.00  0.00     0.010 A 
ATOM     12  C   UNL A   1      43.328  35.015  28.703  1.00  0.00     0.010 A 
ATOM     13  C   UNL A   1      43.199  34.179  29.818  1.00  0.00    -0.014 A 
BRANCH  13  14
ATOM     14  C   UNL A   1      42.270  33.026  29.843  1.00  0.00     0.031 A 
ATOM     15  C   UNL A   1      42.879  31.802  29.141  1.00  0.00     0.074 A 
ATOM     16  C   UNL A   1      41.020  33.226  30.351  1.00  0.00     0.049 A 
ATOM     17  N   UNL A   1      42.311  30.865  28.444  1.00  0.00    -0.248 NA
ATOM     18  C   UNL A   1      44.364  31.676  29.108  1.00  0.00     0.031 C 
ATOM     19  C   UNL A   1      40.574  34.478  30.986  1.00  0.00     0.029 A 
ATOM     20  N   UNL A   1      39.881  32.450  30.429  1.00  0.00    -0.354 N 
ATOM     21  C   UNL A   1      43.322  29.959  28.061  1.00  0.00     0.074 A 
ATOM     22  C   UNL A   1      44.572  30.583  28.375  1.00  0.00     0.031 C 
ATOM     23  C   UNL A   1      39.268  34.403  31.318  1.00  0.00     0.029 A 
ATOM     24  C   UNL A   1      38.734  33.108  30.941  1.00  0.00     0.049 A 
ATOM     25  H   UNL A   1      39.867  31.506  30.150  1.00  0.00     0.167 HD
ATOM     26  C   UNL A   1      43.084  28.692  27.616  1.00  0.00     0.037 A 
ATOM     27  C   UNL A   1      37.440  32.662  31.013  1.00  0.00     0.037 A 
ATOM     28  C   UNL A   1      41.687  28.416  27.602  1.00  0.00     0.049 A 
ATOM     29  C   UNL A   1      37.474  31.261  30.548  1.00  0.00     0.074 A 
ATOM     30  C   UNL A   1      40.677  28.729  26.734  1.00  0.00     0.029 A 
ATOM     31  N   UNL A   1      41.137  27.924  28.761  1.00  0.00    -0.354 N 
ATOM     32  N   UNL A   1      37.982  30.265  31.209  1.00  0.00    -0.248 NA
ATOM     33  C   UNL A   1      36.957  30.952  29.208  1.00  0.00     0.031 C 
ATOM     34  C   UNL A   1      39.513  28.752  27.533  1.00  0.00     0.029 A 
ATOM     35  C   UNL A   1      39.847  28.393  28.842  1.00  0.00     0.049 A 
ATOM     36  H   UNL A   1      41.587  27.342  29.415  1.00  0.00     0.167 HD
ATOM     37  C   UNL A   1      38.128  29.296  30.244  1.00  0.00     0.074 A 
ATOM     38  C   UNL A   1      37.238  29.653  29.164  1.00  0.00     0.031 C 
ATOM     39  C   UNL A   1      39.283  28.589  30.164  1.00  0.00     0.037 A 
BRANCH  26  40
ATOM     40  C   UNL A   1      44.018  27.540  27.358  1.00  0.00     0.058 A 
ATOM     41  C   UNL A   1      44.389  27.263  26.020  1.00  0.00     0.135 A 
ATOM     42  C   UNL A   1      44.313  26.541  28.300  1.00  0.00     0.135 A 
ATOM     43  F   UNL A   1      44.204  28.178  25.053  1.00  0.00    -0.206 F 
ATOM     44  C   UNL A   1      44.899  26.033  25.621  1.00  0.00     0.059 A 
ATOM     45  C   UNL A   1      44.867  25.312  27.926  1.00  0.00     0.059 A 
ATOM     46  F   UNL A   1      44.001  26.698  29.593  1.00  0.00    -0.206 F 
ATOM     47  C   UNL A   1      45.103  25.047  26.578  1.00  0.00     0.060 A 
BRANCH  47  48
ATOM     48  S   UNL A   1      45.633  23.413  26.026  1.00  0.00     0.124 S 
ATOM     49  O   UNL A   1      45.136  23.388  24.655  1.00  0.00    -0.237 OA
ATOM     50  O   UNL A   1      47.084  23.490  26.170  1.00  0.00    -0.237 OA
ATOM     51  O   UNL A   1      44.968  22.510  26.960  1.00  0.00    -0.744 OA
ENDBRANCH  47  48
ENDBRANCH  26  40
BRANCH  27  52
ATOM     52  C   UNL A   1      36.063  33.245  31.297  1.00  0.00     0.058 A 
ATOM     53  C   UNL A   1      35.378  33.206  32.521  1.00  0.00     0.135 A 
ATOM     54  C   UNL A   1      35.411  34.033  30.303  1.00  0.00     0.135 A 
ATOM     55  F   UNL A   1      35.768  32.405  33.516  1.00  0.00    -0.206 F 
ATOM     56  C   UNL A   1      34.252  34.006  32.788  1.00  0.00     0.059 A 
ATOM     57  C   UNL A   1      34.326  34.871  30.556  1.00  0.00     0.059 A 
ATOM     58  F   UNL A   1      35.835  34.054  29.031  1.00  0.00    -0.206 F 
ATOM     59  C   UNL A   1      33.770  34.880  31.818  1.00  0.00     0.060 A 
BRANCH  59  60
ATOM     60  S   UNL A   1      32.518  36.114  32.226  1.00  0.00     0.124 S 
ATOM     61  O   UNL A   1      33.172  36.874  33.285  1.00  0.00    -0.237 OA
ATOM     62  O   UNL A   1      32.337  36.816  30.958  1.00  0.00    -0.237 OA
ATOM     63  O   UNL A   1      31.379  35.300  32.641  1.00  0.00    -0.744 OA
ENDBRANCH  59  60
ENDBRANCH  27  52
BRANCH  39  64
ATOM     64  C   UNL A   1      40.038  28.499  31.477  1.00  0.00     0.058 A 
ATOM     65  C   UNL A   1      39.544  27.712  32.528  1.00  0.00     0.135 A 
ATOM     66  C   UNL A   1      41.186  29.256  31.761  1.00  0.00     0.135 A 
ATOM     67  F   UNL A   1      38.442  26.968  32.345  1.00  0.00    -0.206 F 
ATOM     68  C   UNL A   1      40.165  27.672  33.780  1.00  0.00     0.059 A 
ATOM     69  C   UNL A   1      41.837  29.225  32.995  1.00  0.00     0.059 A 
ATOM     70  F   UNL A   1      41.705  30.064  30.838  1.00  0.00    -0.206 F 
ATOM     71  C   UNL A   1      41.316  28.430  34.005  1.00  0.00     0.060 A 
BRANCH  71  72
ATOM     72  S   UNL A   1      42.122  28.352  35.620  1.00  0.00     0.124 S 
ATOM     73  O   UNL A   1      43.044  29.482  35.562  1.00  0.00    -0.237 OA
ATOM     74  O   UNL A   1      40.992  28.506  36.531  1.00  0.00    -0.237 OA
ATOM     75  O   UNL A   1      42.753  27.036  35.630  1.00  0.00    -0.744 OA
ENDBRANCH  71  72
ENDBRANCH  39  64
ENDBRANCH  13  14
ENDBRANCH   6   8
ENDBRANCH   3   4
ENDBRANCH   2   3
ENDBRANCH   1   2
BRANCH   1  76
ATOM     76  C   UNL A   1      41.712  39.536  26.438  1.00  0.00     0.002 C 
BRANCH  76  77
ATOM     77  C   UNL A   1      41.144  40.942  26.235  1.00  0.00     0.021 C 
BRANCH  77  78
ATOM     78  C   UNL A   1      41.514  41.605  24.907  1.00  0.00     0.116 C 
BRANCH  78  79
ATOM     79  N   UNL A   1      42.949  41.552  24.673  1.00  0.00    -0.355 N 
ATOM     80  C   UNL A   1      43.802  42.386  24.020  1.00  0.00     0.238 C 
ATOM     81  H   UNL A   1      43.385  40.760  25.063  1.00  0.00     0.163 HD
ATOM     82  O   UNL A   1      44.966  41.988  23.896  1.00  0.00    -0.273 OA
BRANCH  80  83
ATOM     83  C   UNL A   1      43.359  43.762  23.478  1.00  0.00     0.162 C 
ATOM     84  C   UNL A   1      44.213  44.881  24.112  1.00  0.00     0.030 C 
ATOM     85  N   UNL A   1      43.402  43.909  21.969  1.00  0.00    -0.185 NA
ATOM     86  C   UNL A   1      45.627  44.984  23.540  1.00  0.00     0.004 C 
ATOM     87  C   UNL A   1      44.791  43.864  21.441  1.00  0.00     0.103 C 
ATOM     88  C   UNL A   1      45.604  45.015  22.018  1.00  0.00     0.017 C 
BRANCH  85  89
ATOM     89  S   UNL A   1      42.323  42.843  21.200  1.00  0.00     0.245 S 
ATOM     90  O   UNL A   1      43.023  41.586  20.992  1.00  0.00    -0.207 OA
ATOM     91  O   UNL A   1      41.064  42.921  21.897  1.00  0.00    -0.207 OA
BRANCH  89  92
ATOM     92  C   UNL A   1      41.904  43.319  19.592  1.00  0.00     0.100 A 
ATOM     93  C   UNL A   1      40.721  43.996  19.203  1.00  0.00     0.041 A 
ATOM     94  C   UNL A   1      42.745  43.299  18.494  1.00  0.00     0.104 A 
ATOM     95  C   UNL A   1      40.888  44.390  17.892  1.00  0.00     0.083 A 
ATOM     96  N   UNL A   1      42.124  43.966  17.473  1.00  0.00    -0.366 N 
ATOM     97  H   UNL A   1      42.505  44.119  16.578  1.00  0.00     0.165 HD
ENDBRANCH  89  92
ENDBRANCH  85  89
ENDBRANCH  80  83
ENDBRANCH  78  79
ENDBRANCH  77  78
ENDBRANCH  76  77
ENDBRANCH   1  76
TORSDOF 18
ENDMDL
MODEL 2
REMARK VINA RESULT:     -11.9      6.807     13.990
REMARK SMILES O=C(NCCCCCCNC(=O)[C@H]1CCCCN1S(=O)(=O)c1cc[nH]c1)c1ccc(-c2c3nc(c(-c4c(F)cc(S(=O)(=O)[O-])cc4F)c4ccc([nH]4)c(-c4c(F)cc(S(=O)(=O)[O-])cc4F)c4nc(c(-c5c(F)cc(S(=O)(=O)[O-])cc5F)c5ccc2[nH]5)C=C4)C=C3)cc1
REMARK SMILES IDX 6 1 5 2 4 3 3 4 1 5 2 6 27 8 28 9 92 10 29 11 91 12 30 13
REMARK SMILES IDX 31 14 32 15 85 16 33 17 90 18 84 19 86 20 34 21 89 22 83 23
REMARK SMILES IDX 82 24 35 26 69 27 48 28 68 29 49 30 52 31 67 32 87 33 50 34
REMARK SMILES IDX 51 35 66 37 88 38 53 39 36 40 37 41 46 42 38 43 39 44 45 45
REMARK SMILES IDX 47 46 40 47 41 48 42 49 43 50 44 51 70 52 71 53 80 54 72 55
REMARK SMILES IDX 73 56 79 57 81 58 74 59 75 60 76 61 77 62 78 63 54 64 55 65
REMARK SMILES IDX 64 66 56 67 57 68 63 69 65 70 58 71 59 72 60 73 61 74 62 75
REMARK SMILES IDX 7 76 8 77 9 78 10 79 11 80 12 82 13 83 14 84 18 85 15 86
REMARK SMILES IDX 17 87 16 88 19 89 20 90 21 91 22 92 23 93 26 94 24 95 25 96
REMARK H PARENT 3 7 86 25 52 36 10 81 25 97
REMARK Flexibility Score: inf
ROOT
ATOM      1  C   UNL A   1      33.256  28.868  24.701  1.00  0.00     0.002 C 
ENDROOT
BRANCH   1   2
ATOM      2  C   UNL A   1      34.015  28.240  25.870  1.00  0.00     0.021 C 
BRANCH   2   3
ATOM      3  C   UNL A   1      33.455  28.585  27.256  1.00  0.00     0.116 C 
BRANCH   3   4
ATOM      4  N   UNL A   1      33.391  30.006  27.546  1.00  0.00    -0.352 N 
ATOM      5  O   UNL A   1      34.090  32.045  28.195  1.00  0.00    -0.269 OA
ATOM      6  C   UNL A   1      34.364  30.864  28.000  1.00  0.00     0.251 C 
ATOM      7  H   UNL A   1      32.511  30.421  27.393  1.00  0.00     0.163 HD
BRANCH   6   8
ATOM      8  C   UNL A   1      35.716  30.356  28.319  1.00  0.00     0.039 A 
ATOM      9  C   UNL A   1      36.746  30.385  27.377  1.00  0.00     0.014 A 
ATOM     10  C   UNL A   1      35.943  29.822  29.596  1.00  0.00     0.014 A 
ATOM     11  C   UNL A   1      37.961  29.787  27.662  1.00  0.00     0.010 A 
ATOM     12  C   UNL A   1      37.187  29.276  29.910  1.00  0.00     0.010 A 
ATOM     13  C   UNL A   1      38.194  29.257  28.937  1.00  0.00    -0.014 A 
BRANCH  13  14
ATOM     14  C   UNL A   1      39.603  28.935  29.260  1.00  0.00     0.031 A 
ATOM     15  C   UNL A   1      40.380  30.191  29.686  1.00  0.00     0.074 A 
ATOM     16  C   UNL A   1      40.032  27.660  29.035  1.00  0.00     0.049 A 
ATOM     17  N   UNL A   1      41.625  30.511  29.500  1.00  0.00    -0.248 NA
ATOM     18  C   UNL A   1      39.619  31.314  30.303  1.00  0.00     0.031 C 
ATOM     19  C   UNL A   1      39.159  26.554  28.606  1.00  0.00     0.029 A 
ATOM     20  N   UNL A   1      41.263  27.038  29.100  1.00  0.00    -0.354 N 
ATOM     21  C   UNL A   1      41.834  31.756  30.130  1.00  0.00     0.074 A 
ATOM     22  C   UNL A   1      40.540  32.261  30.477  1.00  0.00     0.031 C 
ATOM     23  C   UNL A   1      39.881  25.435  28.389  1.00  0.00     0.029 A 
ATOM     24  C   UNL A   1      41.284  25.691  28.654  1.00  0.00     0.049 A 
ATOM     25  H   UNL A   1      42.068  27.495  29.432  1.00  0.00     0.167 HD
ATOM     26  C   UNL A   1      43.063  32.258  30.442  1.00  0.00     0.037 A 
ATOM     27  C   UNL A   1      42.356  24.858  28.467  1.00  0.00     0.037 A 
ATOM     28  C   UNL A   1      44.091  31.352  30.055  1.00  0.00     0.049 A 
ATOM     29  C   UNL A   1      43.533  25.609  28.945  1.00  0.00     0.074 A 
ATOM     30  C   UNL A   1      44.696  31.074  28.859  1.00  0.00     0.029 A 
ATOM     31  N   UNL A   1      44.447  30.387  30.965  1.00  0.00    -0.354 N 
ATOM     32  N   UNL A   1      43.800  25.870  30.190  1.00  0.00    -0.248 NA
ATOM     33  C   UNL A   1      44.460  26.172  27.953  1.00  0.00     0.031 C 
ATOM     34  C   UNL A   1      45.125  29.734  28.979  1.00  0.00     0.029 A 
ATOM     35  C   UNL A   1      44.821  29.266  30.261  1.00  0.00     0.049 A 
ATOM     36  H   UNL A   1      44.436  30.482  31.945  1.00  0.00     0.167 HD
ATOM     37  C   UNL A   1      44.731  26.879  30.101  1.00  0.00     0.074 A 
ATOM     38  C   UNL A   1      45.294  26.804  28.773  1.00  0.00     0.031 C 
ATOM     39  C   UNL A   1      44.616  27.975  30.891  1.00  0.00     0.037 A 
BRANCH  26  40
ATOM     40  C   UNL A   1      43.466  33.446  31.273  1.00  0.00     0.058 A 
ATOM     41  C   UNL A   1      43.335  33.357  32.680  1.00  0.00     0.135 A 
ATOM     42  C   UNL A   1      43.679  34.733  30.753  1.00  0.00     0.135 A 
ATOM     43  F   UNL A   1      43.188  32.164  33.282  1.00  0.00    -0.206 F 
ATOM     44  C   UNL A   1      43.291  34.477  33.503  1.00  0.00     0.059 A 
ATOM     45  C   UNL A   1      43.681  35.870  31.569  1.00  0.00     0.059 A 
ATOM     46  F   UNL A   1      43.812  34.932  29.435  1.00  0.00    -0.206 F 
ATOM     47  C   UNL A   1      43.430  35.736  32.933  1.00  0.00     0.060 A 
BRANCH  47  48
ATOM     48  S   UNL A   1      43.230  37.183  33.992  1.00  0.00     0.124 S 
ATOM     49  O   UNL A   1      43.235  38.267  33.016  1.00  0.00    -0.237 OA
ATOM     50  O   UNL A   1      41.948  36.923  34.639  1.00  0.00    -0.237 OA
ATOM     51  O   UNL A   1      44.391  37.117  34.874  1.00  0.00    -0.744 OA
ENDBRANCH  47  48
ENDBRANCH  26  40
BRANCH  27  52
ATOM     52  C   UNL A   1      42.635  23.513  27.811  1.00  0.00     0.058 A 
ATOM     53  C   UNL A   1      43.069  22.346  28.456  1.00  0.00     0.135 A 
ATOM     54  C   UNL A   1      42.317  23.320  26.433  1.00  0.00     0.135 A 
ATOM     55  F   UNL A   1      43.542  22.371  29.705  1.00  0.00    -0.206 F 
ATOM     56  C   UNL A   1      43.028  21.079  27.846  1.00  0.00     0.059 A 
ATOM     57  C   UNL A   1      42.222  22.071  25.821  1.00  0.00     0.059 A 
ATOM     58  F   UNL A   1      42.041  24.351  25.622  1.00  0.00    -0.206 F 
ATOM     59  C   UNL A   1      42.546  20.945  26.548  1.00  0.00     0.060 A 
BRANCH  59  60
ATOM     60  S   UNL A   1      42.215  19.314  25.848  1.00  0.00     0.124 S 
ATOM     61  O   UNL A   1      40.770  19.351  25.659  1.00  0.00    -0.237 OA
ATOM     62  O   UNL A   1      43.017  19.321  24.627  1.00  0.00    -0.237 OA
ATOM     63  O   UNL A   1      42.696  18.408  26.888  1.00  0.00    -0.744 OA
ENDBRANCH  59  60
ENDBRANCH  27  52
BRANCH  39  64
ATOM     64  C   UNL A   1      43.862  27.725  32.183  1.00  0.00     0.058 A 
ATOM     65  C   UNL A   1      42.556  28.210  32.348  1.00  0.00     0.135 A 
ATOM     66  C   UNL A   1      44.437  27.109  33.306  1.00  0.00     0.135 A 
ATOM     67  F   UNL A   1      41.937  28.827  31.329  1.00  0.00    -0.206 F 
ATOM     68  C   UNL A   1      41.861  28.076  33.555  1.00  0.00     0.059 A 
ATOM     69  C   UNL A   1      43.764  26.945  34.518  1.00  0.00     0.059 A 
ATOM     70  F   UNL A   1      45.687  26.653  33.257  1.00  0.00    -0.206 F 
ATOM     71  C   UNL A   1      42.472  27.437  34.635  1.00  0.00     0.060 A 
BRANCH  71  72
ATOM     72  S   UNL A   1      41.556  27.248  36.181  1.00  0.00     0.124 S 
ATOM     73  O   UNL A   1      42.627  27.142  37.167  1.00  0.00    -0.237 OA
ATOM     74  O   UNL A   1      40.778  28.482  36.226  1.00  0.00    -0.237 OA
ATOM     75  O   UNL A   1      40.778  26.030  35.977  1.00  0.00    -0.744 OA
ENDBRANCH  71  72
ENDBRANCH  39  64
ENDBRANCH  13  14
ENDBRANCH   6   8
ENDBRANCH   3   4
ENDBRANCH   2   3
ENDBRANCH   1   2
BRANCH   1  76
ATOM     76  C   UNL A   1      33.897  28.652  23.333  1.00  0.00     0.002 C 
BRANCH  76  77
ATOM     77  C   UNL A   1      33.075  27.778  22.382  1.00  0.00     0.021 C 
BRANCH  77  78
ATOM     78  C   UNL A   1      33.542  26.327  22.269  1.00  0.00     0.116 C 
BRANCH  78  79
ATOM     79  N   UNL A   1      32.425  25.403  22.391  1.00  0.00    -0.355 N 
ATOM     80  C   UNL A   1      32.036  24.562  23.387  1.00  0.00     0.238 C 
ATOM     81  H   UNL A   1      31.839  25.382  21.600  1.00  0.00     0.163 HD
ATOM     82  O   UNL A   1      31.091  23.808  23.127  1.00  0.00    -0.273 OA
BRANCH  80  83
ATOM     83  C   UNL A   1      32.715  24.555  24.774  1.00  0.00     0.162 C 
ATOM     84  C   UNL A   1      31.845  25.321  25.794  1.00  0.00     0.030 C 
ATOM     85  N   UNL A   1      33.031  23.180  25.334  1.00  0.00    -0.185 NA
ATOM     86  C   UNL A   1      30.614  24.546  26.265  1.00  0.00     0.004 C 
ATOM     87  C   UNL A   1      31.801  22.407  25.650  1.00  0.00     0.103 C 
ATOM     88  C   UNL A   1      30.986  23.138  26.709  1.00  0.00     0.017 C 
BRANCH  85  89
ATOM     89  S   UNL A   1      34.155  22.347  24.367  1.00  0.00     0.245 S 
ATOM     90  O   UNL A   1      33.696  20.974  24.247  1.00  0.00    -0.207 OA
ATOM     91  O   UNL A   1      34.435  23.172  23.218  1.00  0.00    -0.207 OA
BRANCH  89  92
ATOM     92  C   UNL A   1      35.708  22.170  25.104  1.00  0.00     0.100 A 
ATOM     93  C   UNL A   1      36.755  21.327  24.653  1.00  0.00     0.041 A 
ATOM     94  C   UNL A   1      36.228  22.969  26.107  1.00  0.00     0.104 A 
ATOM     95  C   UNL A   1      37.884  21.657  25.373  1.00  0.00     0.083 A 
ATOM     96  N   UNL A   1      37.553  22.661  26.250  1.00  0.00    -0.366 N 
ATOM     97  H   UNL A   1      38.173  23.091  26.882  1.00  0.00     0.165 HD
ENDBRANCH  89  92
ENDBRANCH  85  89
ENDBRANCH  80  83
ENDBRANCH  78  79
ENDBRANCH  77  78
ENDBRANCH  76  77
ENDBRANCH   1  76
TORSDOF 18
ENDMDL
MODEL 3
REMARK VINA RESULT:     -11.8      6.882     14.588
REMARK SMILES O=C(NCCCCCCNC(=O)[C@H]1CCCCN1S(=O)(=O)c1cc[nH]c1)c1ccc(-c2c3nc(c(-c4c(F)cc(S(=O)(=O)[O-])cc4F)c4ccc([nH]4)c(-c4c(F)cc(S(=O)(=O)[O-])cc4F)c4nc(c(-c5c(F)cc(S(=O)(=O)[O-])cc5F)c5ccc2[nH]5)C=C4)C=C3)cc1
REMARK SMILES IDX 6 1 5 2 4 3 3 4 1 5 2 6 27 8 28 9 92 10 29 11 91 12 30 13
REMARK SMILES IDX 31 14 32 15 85 16 33 17 90 18 84 19 86 20 34 21 89 22 83 23
REMARK SMILES IDX 82 24 35 26 69 27 48 28 68 29 49 30 52 31 67 32 87 33 50 34
REMARK SMILES IDX 51 35 66 37 88 38 53 39 36 40 37 41 46 42 38 43 39 44 45 45
REMARK SMILES IDX 47 46 40 47 41 48 42 49 43 50 44 51 70 52 71 53 80 54 72 55
REMARK SMILES IDX 73 56 79 57 81 58 74 59 75 60 76 61 77 62 78 63 54 64 55 65
REMARK SMILES IDX 64 66 56 67 57 68 63 69 65 70 58 71 59 72 60 73 61 74 62 75
REMARK SMILES IDX 7 76 8 77 9 78 10 79 11 80 12 82 13 83 14 84 18 85 15 86
REMARK SMILES IDX 17 87 16 88 19 89 20 90 21 91 22 92 23 93 26 94 24 95 25 96
REMARK H PARENT 3 7 86 25 52 36 10 81 25 97
REMARK Flexibility Score: inf
ROOT
ATOM      1  C   UNL A   1      32.348  28.628  24.954  1.00  0.00     0.002 C 
ENDROOT
BRANCH   1   2
ATOM      2  C   UNL A   1      33.668  28.813  25.704  1.00  0.00     0.021 C 
BRANCH   2   3
ATOM      3  C   UNL A   1      33.526  28.940  27.226  1.00  0.00     0.116 C 
BRANCH   3   4
ATOM      4  N   UNL A   1      33.379  30.302  27.707  1.00  0.00    -0.352 N 
ATOM      5  O   UNL A   1      33.953  32.260  28.658  1.00  0.00    -0.269 OA
ATOM      6  C   UNL A   1      34.293  31.133  28.310  1.00  0.00     0.251 C 
ATOM      7  H   UNL A   1      32.483  30.692  27.583  1.00  0.00     0.163 HD
BRANCH   6   8
ATOM      8  C   UNL A   1      35.661  30.651  28.603  1.00  0.00     0.039 A 
ATOM      9  C   UNL A   1      36.658  30.652  27.625  1.00  0.00     0.014 A 
ATOM     10  C   UNL A   1      35.937  30.171  29.891  1.00  0.00     0.014 A 
ATOM     11  C   UNL A   1      37.888  30.077  27.892  1.00  0.00     0.010 A 
ATOM     12  C   UNL A   1      37.197  29.649  30.184  1.00  0.00     0.010 A 
ATOM     13  C   UNL A   1      38.170  29.601  29.178  1.00  0.00    -0.014 A 
BRANCH  13  14
ATOM     14  C   UNL A   1      39.593  29.305  29.465  1.00  0.00     0.031 A 
ATOM     15  C   UNL A   1      40.324  30.544  30.006  1.00  0.00     0.074 A 
ATOM     16  C   UNL A   1      40.069  28.075  29.119  1.00  0.00     0.049 A 
ATOM     17  N   UNL A   1      41.554  30.929  29.847  1.00  0.00    -0.248 NA
ATOM     18  C   UNL A   1      39.523  31.573  30.728  1.00  0.00     0.031 C 
ATOM     19  C   UNL A   1      39.236  26.981  28.590  1.00  0.00     0.029 A 
ATOM     20  N   UNL A   1      41.323  27.497  29.122  1.00  0.00    -0.354 N 
ATOM     21  C   UNL A   1      41.719  32.116  30.591  1.00  0.00     0.074 A 
ATOM     22  C   UNL A   1      40.409  32.535  30.989  1.00  0.00     0.031 C 
ATOM     23  C   UNL A   1      39.999  25.916  28.267  1.00  0.00     0.029 A 
ATOM     24  C   UNL A   1      41.393  26.201  28.550  1.00  0.00     0.049 A 
ATOM     25  H   UNL A   1      42.112  27.952  29.493  1.00  0.00     0.167 HD
ATOM     26  C   UNL A   1      42.929  32.633  30.946  1.00  0.00     0.037 A 
ATOM     27  C   UNL A   1      42.495  25.431  28.282  1.00  0.00     0.037 A 
ATOM     28  C   UNL A   1      43.989  31.809  30.472  1.00  0.00     0.049 A 
ATOM     29  C   UNL A   1      43.646  26.179  28.826  1.00  0.00     0.074 A 
ATOM     30  C   UNL A   1      44.596  31.668  29.253  1.00  0.00     0.029 A 
ATOM     31  N   UNL A   1      44.388  30.777  31.286  1.00  0.00    -0.354 N 
ATOM     32  N   UNL A   1      43.910  26.332  30.089  1.00  0.00    -0.248 NA
ATOM     33  C   UNL A   1      44.543  26.868  27.889  1.00  0.00     0.031 C 
ATOM     34  C   UNL A   1      45.077  30.341  29.245  1.00  0.00     0.029 A 
ATOM     35  C   UNL A   1      44.800  29.743  30.478  1.00  0.00     0.049 A 
ATOM     36  H   UNL A   1      44.380  30.778  32.271  1.00  0.00     0.167 HD
ATOM     37  C   UNL A   1      44.801  27.379  30.093  1.00  0.00     0.074 A 
ATOM     38  C   UNL A   1      45.357  27.453  28.762  1.00  0.00     0.031 C 
ATOM     39  C   UNL A   1      44.649  28.392  30.983  1.00  0.00     0.037 A 
BRANCH  26  40
ATOM     40  C   UNL A   1      43.292  33.753  31.884  1.00  0.00     0.058 A 
ATOM     41  C   UNL A   1      43.121  33.545  33.274  1.00  0.00     0.135 A 
ATOM     42  C   UNL A   1      43.503  35.080  31.480  1.00  0.00     0.135 A 
ATOM     43  F   UNL A   1      42.972  32.305  33.771  1.00  0.00    -0.206 F 
ATOM     44  C   UNL A   1      43.037  34.592  34.186  1.00  0.00     0.059 A 
ATOM     45  C   UNL A   1      43.466  36.146  32.386  1.00  0.00     0.059 A 
ATOM     46  F   UNL A   1      43.672  35.390  30.187  1.00  0.00    -0.206 F 
ATOM     47  C   UNL A   1      43.176  35.896  33.726  1.00  0.00     0.060 A 
BRANCH  47  48
ATOM     48  S   UNL A   1      42.926  37.248  34.896  1.00  0.00     0.124 S 
ATOM     49  O   UNL A   1      42.662  38.369  34.000  1.00  0.00    -0.237 OA
ATOM     50  O   UNL A   1      41.783  36.780  35.674  1.00  0.00    -0.237 OA
ATOM     51  O   UNL A   1      44.189  37.301  35.624  1.00  0.00    -0.744 OA
ENDBRANCH  47  48
ENDBRANCH  26  40
BRANCH  27  52
ATOM     52  C   UNL A   1      42.821  24.166  27.501  1.00  0.00     0.058 A 
ATOM     53  C   UNL A   1      42.417  23.869  26.191  1.00  0.00     0.135 A 
ATOM     54  C   UNL A   1      43.730  23.213  28.048  1.00  0.00     0.135 A 
ATOM     55  F   UNL A   1      41.463  24.573  25.575  1.00  0.00    -0.206 F 
ATOM     56  C   UNL A   1      42.988  22.828  25.436  1.00  0.00     0.059 A 
ATOM     57  C   UNL A   1      44.345  22.205  27.308  1.00  0.00     0.059 A 
ATOM     58  F   UNL A   1      44.095  23.247  29.337  1.00  0.00    -0.206 F 
ATOM     59  C   UNL A   1      43.994  22.039  25.984  1.00  0.00     0.060 A 
BRANCH  59  60
ATOM     60  S   UNL A   1      44.936  20.894  24.954  1.00  0.00     0.124 S 
ATOM     61  O   UNL A   1      44.399  19.602  25.365  1.00  0.00    -0.237 OA
ATOM     62  O   UNL A   1      44.593  21.325  23.601  1.00  0.00    -0.237 OA
ATOM     63  O   UNL A   1      46.317  21.160  25.348  1.00  0.00    -0.744 OA
ENDBRANCH  59  60
ENDBRANCH  27  52
BRANCH  39  64
ATOM     64  C   UNL A   1      43.914  27.991  32.248  1.00  0.00     0.058 A 
ATOM     65  C   UNL A   1      44.558  27.228  33.233  1.00  0.00     0.135 A 
ATOM     66  C   UNL A   1      42.551  28.251  32.465  1.00  0.00     0.135 A 
ATOM     67  F   UNL A   1      45.858  26.921  33.097  1.00  0.00    -0.206 F 
ATOM     68  C   UNL A   1      43.889  26.766  34.371  1.00  0.00     0.059 A 
ATOM     69  C   UNL A   1      41.859  27.818  33.597  1.00  0.00     0.059 A 
ATOM     70  F   UNL A   1      41.845  28.934  31.564  1.00  0.00    -0.206 F 
ATOM     71  C   UNL A   1      42.538  27.070  34.547  1.00  0.00     0.060 A 
BRANCH  71  72
ATOM     72  S   UNL A   1      41.689  26.487  36.032  1.00  0.00     0.124 S 
ATOM     73  O   UNL A   1      40.692  25.573  35.483  1.00  0.00    -0.237 OA
ATOM     74  O   UNL A   1      42.776  25.860  36.777  1.00  0.00    -0.237 OA
ATOM     75  O   UNL A   1      41.152  27.708  36.626  1.00  0.00    -0.744 OA
ENDBRANCH  71  72
ENDBRANCH  39  64
ENDBRANCH  13  14
ENDBRANCH   6   8
ENDBRANCH   3   4
ENDBRANCH   2   3
ENDBRANCH   1   2
BRANCH   1  76
ATOM     76  C   UNL A   1      32.333  27.468  23.963  1.00  0.00     0.002 C 
BRANCH  76  77
ATOM     77  C   UNL A   1      33.182  26.266  24.384  1.00  0.00     0.021 C 
BRANCH  77  78
ATOM     78  C   UNL A   1      32.426  25.170  25.135  1.00  0.00     0.116 C 
BRANCH  78  79
ATOM     79  N   UNL A   1      33.284  24.506  26.104  1.00  0.00    -0.355 N 
ATOM     80  C   UNL A   1      34.201  23.507  25.984  1.00  0.00     0.238 C 
ATOM     81  H   UNL A   1      33.181  24.845  27.023  1.00  0.00     0.163 HD
ATOM     82  O   UNL A   1      34.683  23.080  27.039  1.00  0.00    -0.273 OA
BRANCH  80  83
ATOM     83  C   UNL A   1      34.636  22.946  24.613  1.00  0.00     0.162 C 
ATOM     84  C   UNL A   1      35.921  23.656  24.134  1.00  0.00     0.030 C 
ATOM     85  N   UNL A   1      34.859  21.446  24.568  1.00  0.00    -0.185 NA
ATOM     86  C   UNL A   1      37.189  23.196  24.853  1.00  0.00     0.004 C 
ATOM     87  C   UNL A   1      36.022  21.027  25.395  1.00  0.00     0.103 C 
ATOM     88  C   UNL A   1      37.295  21.678  24.868  1.00  0.00     0.017 C 
BRANCH  85  89
ATOM     89  S   UNL A   1      33.426  20.585  24.883  1.00  0.00     0.245 S 
ATOM     90  O   UNL A   1      33.425  20.239  26.294  1.00  0.00    -0.207 OA
ATOM     91  O   UNL A   1      32.342  21.304  24.262  1.00  0.00    -0.207 OA
BRANCH  89  92
ATOM     92  C   UNL A   1      33.361  19.041  24.109  1.00  0.00     0.100 A 
ATOM     93  C   UNL A   1      34.308  17.995  24.250  1.00  0.00     0.041 A 
ATOM     94  C   UNL A   1      32.282  18.527  23.413  1.00  0.00     0.104 A 
ATOM     95  C   UNL A   1      33.766  16.872  23.662  1.00  0.00     0.083 A 
ATOM     96  N   UNL A   1      32.532  17.205  23.161  1.00  0.00    -0.366 N 
ATOM     97  H   UNL A   1      31.922  16.589  22.695  1.00  0.00     0.165 HD
ENDBRANCH  89  92
ENDBRANCH  85  89
ENDBRANCH  80  83
ENDBRANCH  78  79
ENDBRANCH  77  78
ENDBRANCH  76  77
ENDBRANCH   1  76
TORSDOF 18
ENDMDL
