MODEL 1
REMARK VINA RESULT:     -10.1      0.000      0.000
REMARK SMILES C[C@@H](CC(=O)NCCCCCCNC(=O)c1ccc(-c2c3nc(c(-c4c(F)cc(S(=O)(=O)[O-])cc4F)c4ccc([nH]4)c(-c4c(F)cc(S(=O)(=O)[O-])cc4F)c4nc(c(-c5c(F)cc(S(=O)(=O)[O-])cc5F)c5ccc2[nH]5)C=C4)C=C3)cc1)CC(=O)N1C[C@H](C)[C@@H](C)C1
REMARK SMILES IDX 9 1 8 2 7 3 6 4 4 5 5 6 3 8 2 9 1 10 82 11 83 12 84 13 85 14
REMARK SMILES IDX 86 15 91 16 87 17 89 18 88 19 90 20 10 21 11 22 12 23 13 24
REMARK SMILES IDX 14 25 15 27 16 28 17 29 81 30 18 31 80 32 19 33 20 34 21 35
REMARK SMILES IDX 74 36 22 37 79 38 73 39 75 40 23 41 78 42 72 43 71 44 24 46
REMARK SMILES IDX 58 47 37 48 57 49 38 50 41 51 56 52 76 53 39 54 40 55 55 57
REMARK SMILES IDX 77 58 42 59 25 60 26 61 35 62 27 63 28 64 34 65 36 66 29 67
REMARK SMILES IDX 30 68 31 69 32 70 33 71 59 72 60 73 69 74 61 75 62 76 68 77
REMARK SMILES IDX 70 78 63 79 64 80 65 81 66 82 67 83 43 84 44 85 53 86 45 87
REMARK SMILES IDX 46 88 52 89 54 90 47 91 48 92 49 93 50 94 51 95
REMARK H PARENT 6 7 13 26 75 45 41 56
REMARK Flexibility Score: inf
ROOT
ATOM      1  C   UNL A   1      34.063  25.346  25.995  1.00  0.00     0.002 C 
ENDROOT
BRANCH   1   2
ATOM      2  C   UNL A   1      34.944  24.406  25.168  1.00  0.00     0.021 C 
BRANCH   2   3
ATOM      3  C   UNL A   1      35.000  22.968  25.686  1.00  0.00     0.116 C 
BRANCH   3   4
ATOM      4  N   UNL A   1      34.444  22.046  24.715  1.00  0.00    -0.356 N 
ATOM      5  C   UNL A   1      33.220  21.453  24.661  1.00  0.00     0.220 C 
ATOM      6  O   UNL A   1      33.018  20.624  23.771  1.00  0.00    -0.275 OA
ATOM      7  H   UNL A   1      35.049  21.811  23.976  1.00  0.00     0.163 HD
BRANCH   5   8
ATOM      8  C   UNL A   1      32.120  21.819  25.647  1.00  0.00     0.103 C 
BRANCH   8   9
ATOM      9  C   UNL A   1      31.379  23.172  25.466  1.00  0.00     0.004 C 
ATOM     10  C   UNL A   1      30.234  23.278  26.473  1.00  0.00     0.009 C 
BRANCH   9  11
ATOM     11  C   UNL A   1      30.979  23.443  24.010  1.00  0.00     0.104 C 
BRANCH  11  12
ATOM     12  C   UNL A   1      31.642  24.577  23.236  1.00  0.00     0.222 C 
ATOM     13  O   UNL A   1      32.707  24.392  22.648  1.00  0.00    -0.275 OA
ATOM     14  N   UNL A   1      30.897  25.733  23.077  1.00  0.00    -0.342 N 
ATOM     15  C   UNL A   1      31.000  26.546  21.879  1.00  0.00     0.123 C 
ATOM     16  C   UNL A   1      30.285  26.483  24.159  1.00  0.00     0.123 C 
ATOM     17  C   UNL A   1      30.859  27.989  22.362  1.00  0.00     0.010 C 
ATOM     18  C   UNL A   1      29.953  27.869  23.601  1.00  0.00     0.010 C 
ATOM     19  C   UNL A   1      32.233  28.559  22.717  1.00  0.00     0.010 C 
ATOM     20  C   UNL A   1      28.468  27.999  23.272  1.00  0.00     0.010 C 
ENDBRANCH  11  12
ENDBRANCH   9  11
ENDBRANCH   8   9
ENDBRANCH   5   8
ENDBRANCH   3   4
ENDBRANCH   2   3
ENDBRANCH   1   2
BRANCH   1  21
ATOM     21  C   UNL A   1      33.710  26.661  25.299  1.00  0.00     0.002 C 
BRANCH  21  22
ATOM     22  C   UNL A   1      34.199  27.928  26.010  1.00  0.00     0.021 C 
BRANCH  22  23
ATOM     23  C   UNL A   1      33.457  28.272  27.300  1.00  0.00     0.116 C 
BRANCH  23  24
ATOM     24  N   UNL A   1      33.355  29.707  27.502  1.00  0.00    -0.352 N 
ATOM     25  C   UNL A   1      34.254  30.578  28.067  1.00  0.00     0.251 C 
ATOM     26  H   UNL A   1      32.517  30.116  27.186  1.00  0.00     0.163 HD
ATOM     27  O   UNL A   1      33.898  31.715  28.360  1.00  0.00    -0.269 OA
BRANCH  25  28
ATOM     28  C   UNL A   1      35.644  30.145  28.334  1.00  0.00     0.039 A 
ATOM     29  C   UNL A   1      36.582  30.214  27.300  1.00  0.00     0.014 A 
ATOM     30  C   UNL A   1      36.016  29.645  29.585  1.00  0.00     0.014 A 
ATOM     31  C   UNL A   1      37.906  29.836  27.538  1.00  0.00     0.010 A 
ATOM     32  C   UNL A   1      37.349  29.328  29.839  1.00  0.00     0.010 A 
ATOM     33  C   UNL A   1      38.308  29.419  28.817  1.00  0.00    -0.014 A 
BRANCH  33  34
ATOM     34  C   UNL A   1      39.728  29.082  29.106  1.00  0.00     0.031 A 
ATOM     35  C   UNL A   1      40.652  30.117  29.689  1.00  0.00     0.074 A 
ATOM     36  C   UNL A   1      40.199  27.862  28.784  1.00  0.00     0.049 A 
ATOM     37  N   UNL A   1      41.931  30.029  29.948  1.00  0.00    -0.248 NA
ATOM     38  C   UNL A   1      40.066  31.431  29.999  1.00  0.00     0.031 C 
ATOM     39  C   UNL A   1      39.415  26.788  28.169  1.00  0.00     0.029 A 
ATOM     40  N   UNL A   1      41.454  27.320  28.918  1.00  0.00    -0.354 N 
ATOM     41  C   UNL A   1      42.307  31.275  30.436  1.00  0.00     0.074 A 
ATOM     42  C   UNL A   1      41.130  32.116  30.393  1.00  0.00     0.031 C 
ATOM     43  C   UNL A   1      40.201  25.713  27.995  1.00  0.00     0.029 A 
ATOM     44  C   UNL A   1      41.550  26.030  28.452  1.00  0.00     0.049 A 
ATOM     45  H   UNL A   1      42.212  27.809  29.310  1.00  0.00     0.167 HD
ATOM     46  C   UNL A   1      43.517  31.676  30.898  1.00  0.00     0.037 A 
ATOM     47  C   UNL A   1      42.608  25.197  28.392  1.00  0.00     0.037 A 
ATOM     48  C   UNL A   1      44.678  30.824  30.964  1.00  0.00     0.049 A 
ATOM     49  C   UNL A   1      43.939  25.661  28.918  1.00  0.00     0.074 A 
ATOM     50  C   UNL A   1      45.930  31.118  31.474  1.00  0.00     0.029 A 
ATOM     51  N   UNL A   1      44.729  29.516  30.507  1.00  0.00    -0.354 N 
ATOM     52  N   UNL A   1      44.260  26.823  29.436  1.00  0.00    -0.248 NA
ATOM     53  C   UNL A   1      45.050  24.700  28.861  1.00  0.00     0.031 C 
ATOM     54  C   UNL A   1      46.752  30.001  31.287  1.00  0.00     0.029 A 
ATOM     55  C   UNL A   1      45.998  28.995  30.704  1.00  0.00     0.049 A 
ATOM     56  H   UNL A   1      43.975  29.029  30.102  1.00  0.00     0.167 HD
ATOM     57  C   UNL A   1      45.602  26.724  29.787  1.00  0.00     0.074 A 
ATOM     58  C   UNL A   1      46.028  25.386  29.435  1.00  0.00     0.031 C 
ATOM     59  C   UNL A   1      46.407  27.658  30.352  1.00  0.00     0.037 A 
BRANCH  46  60
ATOM     60  C   UNL A   1      43.647  33.096  31.373  1.00  0.00     0.058 A 
ATOM     61  C   UNL A   1      43.360  33.460  32.698  1.00  0.00     0.135 A 
ATOM     62  C   UNL A   1      44.102  34.102  30.504  1.00  0.00     0.135 A 
ATOM     63  F   UNL A   1      42.907  32.542  33.568  1.00  0.00    -0.206 F 
ATOM     64  C   UNL A   1      43.489  34.773  33.137  1.00  0.00     0.059 A 
ATOM     65  C   UNL A   1      44.267  35.417  30.929  1.00  0.00     0.059 A 
ATOM     66  F   UNL A   1      44.393  33.810  29.226  1.00  0.00    -0.206 F 
ATOM     67  C   UNL A   1      43.942  35.746  32.244  1.00  0.00     0.060 A 
BRANCH  67  68
ATOM     68  S   UNL A   1      44.106  37.446  32.830  1.00  0.00     0.124 S 
ATOM     69  O   UNL A   1      43.820  38.200  31.613  1.00  0.00    -0.237 OA
ATOM     70  O   UNL A   1      43.088  37.516  33.872  1.00  0.00    -0.237 OA
ATOM     71  O   UNL A   1      45.486  37.512  33.299  1.00  0.00    -0.744 OA
ENDBRANCH  67  68
ENDBRANCH  46  60
BRANCH  47  72
ATOM     72  C   UNL A   1      42.444  23.830  27.829  1.00  0.00     0.058 A 
ATOM     73  C   UNL A   1      42.415  23.620  26.443  1.00  0.00     0.135 A 
ATOM     74  C   UNL A   1      42.333  22.708  28.663  1.00  0.00     0.135 A 
ATOM     75  F   UNL A   1      42.514  24.663  25.604  1.00  0.00    -0.206 F 
ATOM     76  C   UNL A   1      42.266  22.347  25.902  1.00  0.00     0.059 A 
ATOM     77  C   UNL A   1      42.207  21.423  28.147  1.00  0.00     0.059 A 
ATOM     78  F   UNL A   1      42.373  22.854  29.997  1.00  0.00    -0.206 F 
ATOM     79  C   UNL A   1      42.166  21.254  26.763  1.00  0.00     0.060 A 
BRANCH  79  80
ATOM     80  S   UNL A   1      42.027  19.599  26.052  1.00  0.00     0.124 S 
ATOM     81  O   UNL A   1      42.445  18.763  27.170  1.00  0.00    -0.237 OA
ATOM     82  O   UNL A   1      40.612  19.534  25.698  1.00  0.00    -0.237 OA
ATOM     83  O   UNL A   1      42.945  19.645  24.918  1.00  0.00    -0.744 OA
ENDBRANCH  79  80
ENDBRANCH  47  72
BRANCH  59  84
ATOM     84  C   UNL A   1      47.824  27.258  30.652  1.00  0.00     0.058 A 
ATOM     85  C   UNL A   1      48.174  26.635  31.860  1.00  0.00     0.135 A 
ATOM     86  C   UNL A   1      48.835  27.454  29.698  1.00  0.00     0.135 A 
ATOM     87  F   UNL A   1      47.246  26.431  32.808  1.00  0.00    -0.206 F 
ATOM     88  C   UNL A   1      49.482  26.241  32.121  1.00  0.00     0.059 A 
ATOM     89  C   UNL A   1      50.145  27.044  29.927  1.00  0.00     0.059 A 
ATOM     90  F   UNL A   1      48.553  28.036  28.522  1.00  0.00    -0.206 F 
ATOM     91  C   UNL A   1      50.460  26.448  31.148  1.00  0.00     0.060 A 
BRANCH  91  92
ATOM     92  S   UNL A   1      52.148  25.901  31.485  1.00  0.00     0.124 S 
ATOM     93  O   UNL A   1      52.582  26.882  32.474  1.00  0.00    -0.237 OA
ATOM     94  O   UNL A   1      51.944  24.545  31.985  1.00  0.00    -0.237 OA
ATOM     95  O   UNL A   1      52.801  25.991  30.183  1.00  0.00    -0.744 OA
ENDBRANCH  91  92
ENDBRANCH  59  84
ENDBRANCH  33  34
ENDBRANCH  25  28
ENDBRANCH  23  24
ENDBRANCH  22  23
ENDBRANCH  21  22
ENDBRANCH   1  21
TORSDOF 19
ENDMDL
MODEL 2
REMARK VINA RESULT:     -10.0      3.804      6.335
REMARK SMILES C[C@@H](CC(=O)NCCCCCCNC(=O)c1ccc(-c2c3nc(c(-c4c(F)cc(S(=O)(=O)[O-])cc4F)c4ccc([nH]4)c(-c4c(F)cc(S(=O)(=O)[O-])cc4F)c4nc(c(-c5c(F)cc(S(=O)(=O)[O-])cc5F)c5ccc2[nH]5)C=C4)C=C3)cc1)CC(=O)N1C[C@H](C)[C@@H](C)C1
REMARK SMILES IDX 9 1 8 2 7 3 6 4 4 5 5 6 3 8 2 9 1 10 82 11 83 12 84 13 85 14
REMARK SMILES IDX 86 15 91 16 87 17 89 18 88 19 90 20 10 21 11 22 12 23 13 24
REMARK SMILES IDX 14 25 15 27 16 28 17 29 81 30 18 31 80 32 19 33 20 34 21 35
REMARK SMILES IDX 74 36 22 37 79 38 73 39 75 40 23 41 78 42 72 43 71 44 24 46
REMARK SMILES IDX 58 47 37 48 57 49 38 50 41 51 56 52 76 53 39 54 40 55 55 57
REMARK SMILES IDX 77 58 42 59 25 60 26 61 35 62 27 63 28 64 34 65 36 66 29 67
REMARK SMILES IDX 30 68 31 69 32 70 33 71 59 72 60 73 69 74 61 75 62 76 68 77
REMARK SMILES IDX 70 78 63 79 64 80 65 81 66 82 67 83 43 84 44 85 53 86 45 87
REMARK SMILES IDX 46 88 52 89 54 90 47 91 48 92 49 93 50 94 51 95
REMARK H PARENT 6 7 13 26 75 45 41 56
REMARK Flexibility Score: inf
ROOT
ATOM      1  C   UNL A   1      35.110  35.361  33.523  1.00  0.00     0.002 C 
ENDROOT
BRANCH   1   2
ATOM      2  C   UNL A   1      34.025  36.266  32.936  1.00  0.00     0.021 C 
BRANCH   2   3
ATOM      3  C   UNL A   1      32.929  35.527  32.165  1.00  0.00     0.116 C 
BRANCH   3   4
ATOM      4  N   UNL A   1      32.652  36.184  30.903  1.00  0.00    -0.356 N 
ATOM      5  C   UNL A   1      33.227  36.027  29.680  1.00  0.00     0.220 C 
ATOM      6  O   UNL A   1      32.873  36.782  28.773  1.00  0.00    -0.275 OA
ATOM      7  H   UNL A   1      31.930  36.853  30.936  1.00  0.00     0.163 HD
BRANCH   5   8
ATOM      8  C   UNL A   1      34.258  34.936  29.426  1.00  0.00     0.103 C 
BRANCH   8   9
ATOM      9  C   UNL A   1      33.940  33.845  28.367  1.00  0.00     0.004 C 
ATOM     10  C   UNL A   1      32.517  34.028  27.841  1.00  0.00     0.009 C 
BRANCH   9  11
ATOM     11  C   UNL A   1      34.266  32.428  28.854  1.00  0.00     0.104 C 
BRANCH  11  12
ATOM     12  C   UNL A   1      34.803  31.390  27.875  1.00  0.00     0.222 C 
ATOM     13  O   UNL A   1      35.956  31.469  27.451  1.00  0.00    -0.275 OA
ATOM     14  N   UNL A   1      34.004  30.281  27.653  1.00  0.00    -0.342 N 
ATOM     15  C   UNL A   1      34.574  28.971  27.396  1.00  0.00     0.123 C 
ATOM     16  C   UNL A   1      32.612  30.328  27.243  1.00  0.00     0.123 C 
ATOM     17  C   UNL A   1      33.638  28.320  26.380  1.00  0.00     0.010 C 
ATOM     18  C   UNL A   1      32.265  28.937  26.706  1.00  0.00     0.010 C 
ATOM     19  C   UNL A   1      34.089  28.658  24.958  1.00  0.00     0.010 C 
ATOM     20  C   UNL A   1      31.470  28.125  27.725  1.00  0.00     0.010 C 
ENDBRANCH  11  12
ENDBRANCH   9  11
ENDBRANCH   8   9
ENDBRANCH   5   8
ENDBRANCH   3   4
ENDBRANCH   2   3
ENDBRANCH   1   2
BRANCH   1  21
ATOM     21  C   UNL A   1      35.606  34.268  32.575  1.00  0.00     0.002 C 
BRANCH  21  22
ATOM     22  C   UNL A   1      37.089  34.352  32.200  1.00  0.00     0.021 C 
BRANCH  22  23
ATOM     23  C   UNL A   1      37.699  33.053  31.676  1.00  0.00     0.116 C 
BRANCH  23  24
ATOM     24  N   UNL A   1      36.752  31.953  31.717  1.00  0.00    -0.352 N 
ATOM     25  C   UNL A   1      36.851  30.691  31.181  1.00  0.00     0.251 C 
ATOM     26  H   UNL A   1      35.914  32.138  32.200  1.00  0.00     0.163 HD
ATOM     27  O   UNL A   1      35.856  29.976  31.119  1.00  0.00    -0.269 OA
BRANCH  25  28
ATOM     28  C   UNL A   1      38.150  30.199  30.671  1.00  0.00     0.039 A 
ATOM     29  C   UNL A   1      38.413  30.286  29.302  1.00  0.00     0.014 A 
ATOM     30  C   UNL A   1      39.093  29.629  31.531  1.00  0.00     0.014 A 
ATOM     31  C   UNL A   1      39.645  29.853  28.803  1.00  0.00     0.010 A 
ATOM     32  C   UNL A   1      40.344  29.256  31.043  1.00  0.00     0.010 A 
ATOM     33  C   UNL A   1      40.632  29.362  29.673  1.00  0.00    -0.014 A 
BRANCH  33  34
ATOM     34  C   UNL A   1      41.974  28.965  29.168  1.00  0.00     0.031 A 
ATOM     35  C   UNL A   1      43.083  29.978  29.078  1.00  0.00     0.074 A 
ATOM     36  C   UNL A   1      42.173  27.705  28.733  1.00  0.00     0.049 A 
ATOM     37  N   UNL A   1      44.295  29.834  28.607  1.00  0.00    -0.248 NA
ATOM     38  C   UNL A   1      42.783  31.336  29.559  1.00  0.00     0.031 C 
ATOM     39  C   UNL A   1      41.163  26.645  28.724  1.00  0.00     0.029 A 
ATOM     40  N   UNL A   1      43.288  27.104  28.204  1.00  0.00    -0.354 N 
ATOM     41  C   UNL A   1      44.897  31.082  28.719  1.00  0.00     0.074 A 
ATOM     42  C   UNL A   1      43.901  31.982  29.260  1.00  0.00     0.031 C 
ATOM     43  C   UNL A   1      41.708  25.522  28.230  1.00  0.00     0.029 A 
ATOM     44  C   UNL A   1      43.093  25.788  27.856  1.00  0.00     0.049 A 
ATOM     45  H   UNL A   1      44.146  27.572  28.084  1.00  0.00     0.167 HD
ATOM     46  C   UNL A   1      46.170  31.440  28.420  1.00  0.00     0.037 A 
ATOM     47  C   UNL A   1      43.934  24.898  27.293  1.00  0.00     0.037 A 
ATOM     48  C   UNL A   1      47.164  30.532  27.907  1.00  0.00     0.049 A 
ATOM     49  C   UNL A   1      45.343  25.315  26.977  1.00  0.00     0.074 A 
ATOM     50  C   UNL A   1      48.497  30.784  27.632  1.00  0.00     0.029 A 
ATOM     51  N   UNL A   1      46.936  29.201  27.593  1.00  0.00    -0.354 N 
ATOM     52  N   UNL A   1      45.914  26.484  27.150  1.00  0.00    -0.248 NA
ATOM     53  C   UNL A   1      46.227  24.294  26.396  1.00  0.00     0.031 C 
ATOM     54  C   UNL A   1      49.065  29.615  27.112  1.00  0.00     0.029 A 
ATOM     55  C   UNL A   1      48.098  28.623  27.107  1.00  0.00     0.049 A 
ATOM     56  H   UNL A   1      46.075  28.735  27.700  1.00  0.00     0.167 HD
ATOM     57  C   UNL A   1      47.229  26.332  26.723  1.00  0.00     0.074 A 
ATOM     58  C   UNL A   1      47.371  24.955  26.295  1.00  0.00     0.031 C 
ATOM     59  C   UNL A   1      48.227  27.249  26.689  1.00  0.00     0.037 A 
BRANCH  46  60
ATOM     60  C   UNL A   1      46.562  32.875  28.641  1.00  0.00     0.058 A 
ATOM     61  C   UNL A   1      47.092  33.313  29.865  1.00  0.00     0.135 A 
ATOM     62  C   UNL A   1      46.443  33.817  27.607  1.00  0.00     0.135 A 
ATOM     63  F   UNL A   1      47.214  32.459  30.894  1.00  0.00    -0.206 F 
ATOM     64  C   UNL A   1      47.461  34.639  30.065  1.00  0.00     0.059 A 
ATOM     65  C   UNL A   1      46.833  35.142  27.775  1.00  0.00     0.059 A 
ATOM     66  F   UNL A   1      45.943  33.452  26.414  1.00  0.00    -0.206 F 
ATOM     67  C   UNL A   1      47.327  35.547  29.014  1.00  0.00     0.060 A 
BRANCH  67  68
ATOM     68  S   UNL A   1      47.812  37.264  29.289  1.00  0.00     0.124 S 
ATOM     69  O   UNL A   1      46.544  37.959  29.091  1.00  0.00    -0.237 OA
ATOM     70  O   UNL A   1      48.309  37.232  30.661  1.00  0.00    -0.237 OA
ATOM     71  O   UNL A   1      48.824  37.500  28.264  1.00  0.00    -0.744 OA
ENDBRANCH  67  68
ENDBRANCH  46  60
BRANCH  47  72
ATOM     72  C   UNL A   1      43.466  23.514  27.012  1.00  0.00     0.058 A 
ATOM     73  C   UNL A   1      43.187  23.099  25.701  1.00  0.00     0.135 A 
ATOM     74  C   UNL A   1      43.309  22.575  28.042  1.00  0.00     0.135 A 
ATOM     75  F   UNL A   1      43.318  23.963  24.682  1.00  0.00    -0.206 F 
ATOM     76  C   UNL A   1      42.753  21.808  25.423  1.00  0.00     0.059 A 
ATOM     77  C   UNL A   1      42.899  21.271  27.787  1.00  0.00     0.059 A 
ATOM     78  F   UNL A   1      43.580  22.917  29.311  1.00  0.00    -0.206 F 
ATOM     79  C   UNL A   1      42.615  20.899  26.473  1.00  0.00     0.060 A 
BRANCH  79  80
ATOM     80  S   UNL A   1      42.102  19.209  26.096  1.00  0.00     0.124 S 
ATOM     81  O   UNL A   1      42.923  18.907  24.928  1.00  0.00    -0.237 OA
ATOM     82  O   UNL A   1      42.451  18.501  27.323  1.00  0.00    -0.237 OA
ATOM     83  O   UNL A   1      40.670  19.342  25.845  1.00  0.00    -0.744 OA
ENDBRANCH  79  80
ENDBRANCH  47  72
BRANCH  59  84
ATOM     84  C   UNL A   1      49.572  26.789  26.200  1.00  0.00     0.058 A 
ATOM     85  C   UNL A   1      49.914  26.827  24.840  1.00  0.00     0.135 A 
ATOM     86  C   UNL A   1      50.548  26.353  27.111  1.00  0.00     0.135 A 
ATOM     87  F   UNL A   1      49.015  27.229  23.928  1.00  0.00    -0.206 F 
ATOM     88  C   UNL A   1      51.170  26.427  24.396  1.00  0.00     0.059 A 
ATOM     89  C   UNL A   1      51.819  25.973  26.692  1.00  0.00     0.059 A 
ATOM     90  F   UNL A   1      50.276  26.308  28.424  1.00  0.00    -0.206 F 
ATOM     91  C   UNL A   1      52.116  26.003  25.330  1.00  0.00     0.060 A 
BRANCH  91  92
ATOM     92  S   UNL A   1      53.755  25.518  24.745  1.00  0.00     0.124 S 
ATOM     93  O   UNL A   1      54.612  26.056  25.796  1.00  0.00    -0.237 OA
ATOM     94  O   UNL A   1      53.651  24.063  24.693  1.00  0.00    -0.237 OA
ATOM     95  O   UNL A   1      53.861  26.180  23.448  1.00  0.00    -0.744 OA
ENDBRANCH  91  92
ENDBRANCH  59  84
ENDBRANCH  33  34
ENDBRANCH  25  28
ENDBRANCH  23  24
ENDBRANCH  22  23
ENDBRANCH  21  22
ENDBRANCH   1  21
TORSDOF 19
ENDMDL
MODEL 3
REMARK VINA RESULT:     -10.0      4.689     10.119
REMARK SMILES C[C@@H](CC(=O)NCCCCCCNC(=O)c1ccc(-c2c3nc(c(-c4c(F)cc(S(=O)(=O)[O-])cc4F)c4ccc([nH]4)c(-c4c(F)cc(S(=O)(=O)[O-])cc4F)c4nc(c(-c5c(F)cc(S(=O)(=O)[O-])cc5F)c5ccc2[nH]5)C=C4)C=C3)cc1)CC(=O)N1C[C@H](C)[C@@H](C)C1
REMARK SMILES IDX 9 1 8 2 7 3 6 4 4 5 5 6 3 8 2 9 1 10 82 11 83 12 84 13 85 14
REMARK SMILES IDX 86 15 91 16 87 17 89 18 88 19 90 20 10 21 11 22 12 23 13 24
REMARK SMILES IDX 14 25 15 27 16 28 17 29 81 30 18 31 80 32 19 33 20 34 21 35
REMARK SMILES IDX 74 36 22 37 79 38 73 39 75 40 23 41 78 42 72 43 71 44 24 46
REMARK SMILES IDX 58 47 37 48 57 49 38 50 41 51 56 52 76 53 39 54 40 55 55 57
REMARK SMILES IDX 77 58 42 59 25 60 26 61 35 62 27 63 28 64 34 65 36 66 29 67
REMARK SMILES IDX 30 68 31 69 32 70 33 71 59 72 60 73 69 74 61 75 62 76 68 77
REMARK SMILES IDX 70 78 63 79 64 80 65 81 66 82 67 83 43 84 44 85 53 86 45 87
REMARK SMILES IDX 46 88 52 89 54 90 47 91 48 92 49 93 50 94 51 95
REMARK H PARENT 6 7 13 26 75 45 41 56
REMARK Flexibility Score: inf
ROOT
ATOM      1  C   UNL A   1      37.998  22.727  25.972  1.00  0.00     0.002 C 
ENDROOT
BRANCH   1   2
ATOM      2  C   UNL A   1      36.796  22.618  25.031  1.00  0.00     0.021 C 
BRANCH   2   3
ATOM      3  C   UNL A   1      36.411  21.186  24.653  1.00  0.00     0.116 C 
BRANCH   3   4
ATOM      4  N   UNL A   1      35.343  20.696  25.503  1.00  0.00    -0.356 N 
ATOM      5  C   UNL A   1      33.994  20.730  25.333  1.00  0.00     0.220 C 
ATOM      6  O   UNL A   1      33.284  20.325  26.256  1.00  0.00    -0.275 OA
ATOM      7  H   UNL A   1      35.643  20.269  26.337  1.00  0.00     0.163 HD
BRANCH   5   8
ATOM      8  C   UNL A   1      33.372  21.226  24.035  1.00  0.00     0.103 C 
BRANCH   8   9
ATOM      9  C   UNL A   1      32.958  22.719  23.931  1.00  0.00     0.004 C 
ATOM     10  C   UNL A   1      31.481  22.825  23.552  1.00  0.00     0.009 C 
BRANCH   9  11
ATOM     11  C   UNL A   1      33.906  23.542  23.051  1.00  0.00     0.104 C 
BRANCH  11  12
ATOM     12  C   UNL A   1      33.491  24.927  22.569  1.00  0.00     0.222 C 
ATOM     13  O   UNL A   1      33.292  25.138  21.373  1.00  0.00    -0.275 OA
ATOM     14  N   UNL A   1      33.170  25.850  23.549  1.00  0.00    -0.342 N 
ATOM     15  C   UNL A   1      32.143  26.855  23.343  1.00  0.00     0.123 C 
ATOM     16  C   UNL A   1      34.027  26.211  24.664  1.00  0.00     0.123 C 
ATOM     17  C   UNL A   1      32.651  28.101  24.064  1.00  0.00     0.010 C 
ATOM     18  C   UNL A   1      33.491  27.532  25.222  1.00  0.00     0.010 C 
ATOM     19  C   UNL A   1      33.497  28.950  23.113  1.00  0.00     0.010 C 
ATOM     20  C   UNL A   1      32.684  27.313  26.498  1.00  0.00     0.010 C 
ENDBRANCH  11  12
ENDBRANCH   9  11
ENDBRANCH   8   9
ENDBRANCH   5   8
ENDBRANCH   3   4
ENDBRANCH   2   3
ENDBRANCH   1   2
BRANCH   1  21
ATOM     21  C   UNL A   1      38.918  21.505  25.969  1.00  0.00     0.002 C 
BRANCH  21  22
ATOM     22  C   UNL A   1      40.229  21.674  26.744  1.00  0.00     0.021 C 
BRANCH  22  23
ATOM     23  C   UNL A   1      40.550  23.106  27.169  1.00  0.00     0.116 C 
BRANCH  23  24
ATOM     24  N   UNL A   1      41.243  23.840  26.125  1.00  0.00    -0.352 N 
ATOM     25  C   UNL A   1      41.555  25.177  26.053  1.00  0.00     0.251 C 
ATOM     26  H   UNL A   1      41.533  23.301  25.354  1.00  0.00     0.163 HD
ATOM     27  O   UNL A   1      41.938  25.656  24.991  1.00  0.00    -0.269 OA
BRANCH  25  28
ATOM     28  C   UNL A   1      41.418  26.038  27.249  1.00  0.00     0.039 A 
ATOM     29  C   UNL A   1      42.401  26.998  27.505  1.00  0.00     0.014 A 
ATOM     30  C   UNL A   1      40.344  25.882  28.130  1.00  0.00     0.014 A 
ATOM     31  C   UNL A   1      42.276  27.840  28.613  1.00  0.00     0.010 A 
ATOM     32  C   UNL A   1      40.189  26.763  29.199  1.00  0.00     0.010 A 
ATOM     33  C   UNL A   1      41.154  27.750  29.453  1.00  0.00    -0.014 A 
BRANCH  33  34
ATOM     34  C   UNL A   1      40.971  28.686  30.594  1.00  0.00     0.031 A 
ATOM     35  C   UNL A   1      41.810  28.547  31.835  1.00  0.00     0.074 A 
ATOM     36  C   UNL A   1      40.004  29.623  30.534  1.00  0.00     0.049 A 
ATOM     37  N   UNL A   1      41.750  29.225  32.952  1.00  0.00    -0.248 NA
ATOM     38  C   UNL A   1      42.833  27.489  31.830  1.00  0.00     0.031 C 
ATOM     39  C   UNL A   1      39.093  29.828  29.405  1.00  0.00     0.029 A 
ATOM     40  N   UNL A   1      39.617  30.573  31.447  1.00  0.00    -0.354 N 
ATOM     41  C   UNL A   1      42.714  28.671  33.786  1.00  0.00     0.074 A 
ATOM     42  C   UNL A   1      43.312  27.569  33.063  1.00  0.00     0.031 C 
ATOM     43  C   UNL A   1      38.266  30.848  29.686  1.00  0.00     0.029 A 
ATOM     44  C   UNL A   1      38.563  31.348  31.024  1.00  0.00     0.049 A 
ATOM     45  H   UNL A   1      40.054  30.688  32.322  1.00  0.00     0.167 HD
ATOM     46  C   UNL A   1      43.083  29.058  35.032  1.00  0.00     0.037 A 
ATOM     47  C   UNL A   1      37.904  32.345  31.648  1.00  0.00     0.037 A 
ATOM     48  C   UNL A   1      42.502  30.174  35.735  1.00  0.00     0.049 A 
ATOM     49  C   UNL A   1      38.336  32.762  33.026  1.00  0.00     0.074 A 
ATOM     50  C   UNL A   1      42.850  30.683  36.974  1.00  0.00     0.029 A 
ATOM     51  N   UNL A   1      41.454  30.950  35.263  1.00  0.00    -0.354 N 
ATOM     52  N   UNL A   1      39.293  32.267  33.774  1.00  0.00    -0.248 NA
ATOM     53  C   UNL A   1      37.605  33.878  33.644  1.00  0.00     0.031 C 
ATOM     54  C   UNL A   1      41.985  31.743  37.270  1.00  0.00     0.029 A 
ATOM     55  C   UNL A   1      41.128  31.923  36.195  1.00  0.00     0.049 A 
ATOM     56  H   UNL A   1      41.008  30.828  34.394  1.00  0.00     0.167 HD
ATOM     57  C   UNL A   1      39.295  33.026  34.940  1.00  0.00     0.074 A 
ATOM     58  C   UNL A   1      38.252  34.020  34.792  1.00  0.00     0.031 C 
ATOM     59  C   UNL A   1      40.090  32.909  36.032  1.00  0.00     0.037 A 
BRANCH  46  60
ATOM     60  C   UNL A   1      44.168  28.272  35.715  1.00  0.00     0.058 A 
ATOM     61  C   UNL A   1      43.876  27.161  36.522  1.00  0.00     0.135 A 
ATOM     62  C   UNL A   1      45.518  28.609  35.531  1.00  0.00     0.135 A 
ATOM     63  F   UNL A   1      42.601  26.803  36.744  1.00  0.00    -0.206 F 
ATOM     64  C   UNL A   1      44.881  26.431  37.146  1.00  0.00     0.059 A 
ATOM     65  C   UNL A   1      46.543  27.876  36.123  1.00  0.00     0.059 A 
ATOM     66  F   UNL A   1      45.855  29.662  34.768  1.00  0.00    -0.206 F 
ATOM     67  C   UNL A   1      46.213  26.797  36.942  1.00  0.00     0.060 A 
BRANCH  67  68
ATOM     68  S   UNL A   1      47.506  25.838  37.759  1.00  0.00     0.124 S 
ATOM     69  O   UNL A   1      47.422  26.343  39.126  1.00  0.00    -0.237 OA
ATOM     70  O   UNL A   1      47.051  24.466  37.561  1.00  0.00    -0.237 OA
ATOM     71  O   UNL A   1      48.715  26.207  37.029  1.00  0.00    -0.744 OA
ENDBRANCH  67  68
ENDBRANCH  46  60
BRANCH  47  72
ATOM     72  C   UNL A   1      36.777  33.030  30.960  1.00  0.00     0.058 A 
ATOM     73  C   UNL A   1      35.449  32.802  31.349  1.00  0.00     0.135 A 
ATOM     74  C   UNL A   1      37.006  33.940  29.917  1.00  0.00     0.135 A 
ATOM     75  F   UNL A   1      35.179  31.938  32.339  1.00  0.00    -0.206 F 
ATOM     76  C   UNL A   1      34.386  33.439  30.718  1.00  0.00     0.059 A 
ATOM     77  C   UNL A   1      35.961  34.607  29.286  1.00  0.00     0.059 A 
ATOM     78  F   UNL A   1      38.260  34.206  29.519  1.00  0.00    -0.206 F 
ATOM     79  C   UNL A   1      34.653  34.342  29.689  1.00  0.00     0.060 A 
BRANCH  79  80
ATOM     80  S   UNL A   1      33.269  35.206  28.911  1.00  0.00     0.124 S 
ATOM     81  O   UNL A   1      32.766  34.189  27.995  1.00  0.00    -0.237 OA
ATOM     82  O   UNL A   1      32.417  35.514  30.055  1.00  0.00    -0.237 OA
ATOM     83  O   UNL A   1      33.905  36.361  28.286  1.00  0.00    -0.744 OA
ENDBRANCH  79  80
ENDBRANCH  47  72
BRANCH  59  84
ATOM     84  C   UNL A   1      39.885  33.900  37.144  1.00  0.00     0.058 A 
ATOM     85  C   UNL A   1      40.553  35.134  37.165  1.00  0.00     0.135 A 
ATOM     86  C   UNL A   1      38.971  33.631  38.175  1.00  0.00     0.135 A 
ATOM     87  F   UNL A   1      41.443  35.436  36.206  1.00  0.00    -0.206 F 
ATOM     88  C   UNL A   1      40.338  36.059  38.182  1.00  0.00     0.059 A 
ATOM     89  C   UNL A   1      38.720  34.552  39.188  1.00  0.00     0.059 A 
ATOM     90  F   UNL A   1      38.298  32.470  38.198  1.00  0.00    -0.206 F 
ATOM     91  C   UNL A   1      39.419  35.759  39.188  1.00  0.00     0.060 A 
BRANCH  91  92
ATOM     92  S   UNL A   1      39.123  36.982  40.484  1.00  0.00     0.124 S 
ATOM     93  O   UNL A   1      38.518  36.163  41.528  1.00  0.00    -0.237 OA
ATOM     94  O   UNL A   1      40.469  37.474  40.763  1.00  0.00    -0.237 OA
ATOM     95  O   UNL A   1      38.231  37.945  39.844  1.00  0.00    -0.744 OA
ENDBRANCH  91  92
ENDBRANCH  59  84
ENDBRANCH  33  34
ENDBRANCH  25  28
ENDBRANCH  23  24
ENDBRANCH  22  23
ENDBRANCH  21  22
ENDBRANCH   1  21
TORSDOF 19
ENDMDL
