MODEL 1
REMARK VINA RESULT:      -8.9      0.000      0.000
REMARK SMILES CCC1C[NH+]([C@H](C(=O)NCCCCCCNC(=O)c2ccc(-c3c4nc(c(-c5c(F)cc(S(=O)(=O)[O-])cc5F)c5ccc([nH]5)c(-c5c(F)cc(S(=O)(=O)[O-])cc5F)c5nc(c(-c6c(F)cc(S(=O)(=O)[O-])cc6F)c6ccc3[nH]6)C=C5)C=C4)cc2)C(C)C)C1
REMARK SMILES IDX 13 1 12 2 11 3 10 4 9 5 7 6 8 7 6 9 5 10 3 11 4 12 88 13
REMARK SMILES IDX 2 15 1 16 85 17 86 18 87 19 14 20 15 21 16 22 17 23 18 25
REMARK SMILES IDX 19 26 20 27 84 28 21 29 83 30 22 31 23 32 24 33 77 34 25 35
REMARK SMILES IDX 82 36 76 37 78 38 26 39 81 40 75 41 74 42 27 44 61 45 40 46
REMARK SMILES IDX 60 47 41 48 44 49 59 50 79 51 42 52 43 53 58 55 80 56 45 57
REMARK SMILES IDX 28 58 29 59 38 60 30 61 31 62 37 63 39 64 32 65 33 66 34 67
REMARK SMILES IDX 35 68 36 69 62 70 63 71 72 72 64 73 65 74 71 75 73 76 66 77
REMARK SMILES IDX 67 78 68 79 69 80 70 81 46 82 47 83 56 84 48 85 49 86 55 87
REMARK SMILES IDX 57 88 50 89 51 90 52 91 53 92 54 93
REMARK H PARENT 9 8 5 14 16 24 78 43 44 54
REMARK Flexibility Score: inf
ROOT
ATOM      1  C   UNL A   1      36.233  33.041  29.975  1.00  0.00     0.002 C 
ENDROOT
BRANCH   1   2
ATOM      2  C   UNL A   1      37.425  33.834  29.437  1.00  0.00     0.002 C 
BRANCH   2   3
ATOM      3  C   UNL A   1      38.067  34.780  30.449  1.00  0.00     0.021 C 
BRANCH   3   4
ATOM      4  C   UNL A   1      39.199  34.173  31.279  1.00  0.00     0.116 C 
BRANCH   4   5
ATOM      5  N   UNL A   1      39.026  34.545  32.671  1.00  0.00    -0.351 N 
ATOM      6  C   UNL A   1      37.972  34.450  33.525  1.00  0.00     0.278 C 
ATOM      7  O   UNL A   1      38.061  35.153  34.544  1.00  0.00    -0.268 OA
ATOM      8  H   UNL A   1      39.830  34.944  33.077  1.00  0.00     0.163 HD
BRANCH   6   9
ATOM      9  C   UNL A   1      36.745  33.512  33.351  1.00  0.00     0.276 C 
BRANCH   9  10
ATOM     10  N   UNL A   1      36.907  32.088  33.736  1.00  0.00    -0.324 N 
ATOM     11  C   UNL A   1      38.186  30.417  33.695  1.00  0.00     0.099 C 
ATOM     12  C   UNL A   1      38.080  31.724  34.527  1.00  0.00     0.272 C 
ATOM     13  C   UNL A   1      37.315  31.176  32.654  1.00  0.00     0.272 C 
ATOM     14  H   UNL A   1      35.986  32.001  34.164  1.00  0.00     0.348 HD
BRANCH  11  15
ATOM     15  C   UNL A   1      39.582  29.996  33.251  1.00  0.00     0.012 C 
ATOM     16  C   UNL A   1      39.610  28.543  32.814  1.00  0.00     0.004 C 
ENDBRANCH  11  15
ENDBRANCH   9  10
BRANCH   9  17
ATOM     17  C   UNL A   1      35.378  34.148  33.737  1.00  0.00     0.051 C 
ATOM     18  C   UNL A   1      35.144  35.460  32.970  1.00  0.00     0.014 C 
ATOM     19  C   UNL A   1      34.199  33.207  33.449  1.00  0.00     0.014 C 
ENDBRANCH   9  17
ENDBRANCH   6   9
ENDBRANCH   4   5
ENDBRANCH   3   4
ENDBRANCH   2   3
ENDBRANCH   1   2
BRANCH   1  20
ATOM     20  C   UNL A   1      34.896  33.284  29.263  1.00  0.00     0.021 C 
BRANCH  20  21
ATOM     21  C   UNL A   1      34.781  32.679  27.864  1.00  0.00     0.116 C 
BRANCH  21  22
ATOM     22  N   UNL A   1      34.029  31.433  27.875  1.00  0.00    -0.352 N 
ATOM     23  C   UNL A   1      34.483  30.139  27.874  1.00  0.00     0.251 C 
ATOM     24  H   UNL A   1      33.050  31.535  27.884  1.00  0.00     0.163 HD
ATOM     25  O   UNL A   1      33.702  29.221  27.623  1.00  0.00    -0.269 OA
BRANCH  23  26
ATOM     26  C   UNL A   1      35.902  29.842  28.166  1.00  0.00     0.039 A 
ATOM     27  C   UNL A   1      36.253  29.393  29.443  1.00  0.00     0.014 A 
ATOM     28  C   UNL A   1      36.892  30.048  27.200  1.00  0.00     0.014 A 
ATOM     29  C   UNL A   1      37.588  29.102  29.735  1.00  0.00     0.010 A 
ATOM     30  C   UNL A   1      38.213  29.698  27.474  1.00  0.00     0.010 A 
ATOM     31  C   UNL A   1      38.577  29.230  28.745  1.00  0.00    -0.014 A 
BRANCH  31  32
ATOM     32  C   UNL A   1      39.994  28.883  29.024  1.00  0.00     0.031 A 
ATOM     33  C   UNL A   1      40.930  29.912  29.598  1.00  0.00     0.074 A 
ATOM     34  C   UNL A   1      40.459  27.662  28.694  1.00  0.00     0.049 A 
ATOM     35  N   UNL A   1      42.210  29.817  29.849  1.00  0.00    -0.248 NA
ATOM     36  C   UNL A   1      40.354  31.231  29.904  1.00  0.00     0.031 C 
ATOM     37  C   UNL A   1      39.666  26.596  28.078  1.00  0.00     0.029 A 
ATOM     38  N   UNL A   1      41.713  27.117  28.813  1.00  0.00    -0.354 N 
ATOM     39  C   UNL A   1      42.599  31.067  30.318  1.00  0.00     0.074 A 
ATOM     40  C   UNL A   1      41.427  31.914  30.276  1.00  0.00     0.031 C 
ATOM     41  C   UNL A   1      40.449  25.522  27.884  1.00  0.00     0.029 A 
ATOM     42  C   UNL A   1      41.804  25.832  28.333  1.00  0.00     0.049 A 
ATOM     43  H   UNL A   1      42.475  27.601  29.204  1.00  0.00     0.167 HD
ATOM     44  C   UNL A   1      43.817  31.465  30.761  1.00  0.00     0.037 A 
ATOM     45  C   UNL A   1      42.859  24.998  28.256  1.00  0.00     0.037 A 
ATOM     46  C   UNL A   1      44.971  30.608  30.828  1.00  0.00     0.049 A 
ATOM     47  C   UNL A   1      44.193  25.449  28.781  1.00  0.00     0.074 A 
ATOM     48  C   UNL A   1      46.228  30.893  31.335  1.00  0.00     0.029 A 
ATOM     49  N   UNL A   1      45.014  29.300  30.370  1.00  0.00    -0.354 N 
ATOM     50  N   UNL A   1      44.526  26.610  29.294  1.00  0.00    -0.248 NA
ATOM     51  C   UNL A   1      45.292  24.476  28.728  1.00  0.00     0.031 C 
ATOM     52  C   UNL A   1      47.041  29.770  31.147  1.00  0.00     0.029 A 
ATOM     53  C   UNL A   1      46.280  28.770  30.561  1.00  0.00     0.049 A 
ATOM     54  H   UNL A   1      44.256  28.818  29.967  1.00  0.00     0.167 HD
ATOM     55  C   UNL A   1      45.867  26.501  29.642  1.00  0.00     0.074 A 
ATOM     56  C   UNL A   1      46.281  25.158  29.293  1.00  0.00     0.031 C 
ATOM     57  C   UNL A   1      46.680  27.431  30.204  1.00  0.00     0.037 A 
BRANCH  44  58
ATOM     58  C   UNL A   1      43.956  32.898  31.202  1.00  0.00     0.058 A 
ATOM     59  C   UNL A   1      43.640  33.303  32.509  1.00  0.00     0.135 A 
ATOM     60  C   UNL A   1      44.415  33.878  30.307  1.00  0.00     0.135 A 
ATOM     61  F   UNL A   1      43.187  32.410  33.404  1.00  0.00    -0.206 F 
ATOM     62  C   UNL A   1      43.728  34.635  32.900  1.00  0.00     0.059 A 
ATOM     63  C   UNL A   1      44.539  35.212  30.685  1.00  0.00     0.059 A 
ATOM     64  F   UNL A   1      44.735  33.545  29.047  1.00  0.00    -0.206 F 
ATOM     65  C   UNL A   1      44.170  35.585  31.976  1.00  0.00     0.060 A 
BRANCH  65  66
ATOM     66  S   UNL A   1      44.252  37.314  32.487  1.00  0.00     0.124 S 
ATOM     67  O   UNL A   1      43.338  37.324  33.625  1.00  0.00    -0.237 OA
ATOM     68  O   UNL A   1      45.666  37.482  32.809  1.00  0.00    -0.237 OA
ATOM     69  O   UNL A   1      43.792  38.038  31.306  1.00  0.00    -0.744 OA
ENDBRANCH  65  66
ENDBRANCH  44  58
BRANCH  45  70
ATOM     70  C   UNL A   1      42.675  23.640  27.682  1.00  0.00     0.058 A 
ATOM     71  C   UNL A   1      42.795  23.418  26.303  1.00  0.00     0.135 A 
ATOM     72  C   UNL A   1      42.436  22.530  28.507  1.00  0.00     0.135 A 
ATOM     73  F   UNL A   1      43.017  24.451  25.475  1.00  0.00    -0.206 F 
ATOM     74  C   UNL A   1      42.685  22.144  25.758  1.00  0.00     0.059 A 
ATOM     75  C   UNL A   1      42.343  21.241  27.987  1.00  0.00     0.059 A 
ATOM     76  F   UNL A   1      42.331  22.688  29.835  1.00  0.00    -0.206 F 
ATOM     77  C   UNL A   1      42.469  21.059  26.611  1.00  0.00     0.060 A 
BRANCH  77  78
ATOM     78  S   UNL A   1      42.421  19.397  25.904  1.00  0.00     0.124 S 
ATOM     79  O   UNL A   1      41.000  19.240  25.618  1.00  0.00    -0.237 OA
ATOM     80  O   UNL A   1      43.296  19.532  24.744  1.00  0.00    -0.237 OA
ATOM     81  O   UNL A   1      42.945  18.562  26.981  1.00  0.00    -0.744 OA
ENDBRANCH  77  78
ENDBRANCH  45  70
BRANCH  57  82
ATOM     82  C   UNL A   1      48.097  27.023  30.495  1.00  0.00     0.058 A 
ATOM     83  C   UNL A   1      49.139  27.286  29.592  1.00  0.00     0.135 A 
ATOM     84  C   UNL A   1      48.424  26.406  31.713  1.00  0.00     0.135 A 
ATOM     85  F   UNL A   1      48.878  27.867  28.411  1.00  0.00    -0.206 F 
ATOM     86  C   UNL A   1      50.454  26.934  29.879  1.00  0.00     0.059 A 
ATOM     87  C   UNL A   1      49.736  26.067  32.031  1.00  0.00     0.059 A 
ATOM     88  F   UNL A   1      47.467  26.140  32.616  1.00  0.00    -0.206 F 
ATOM     89  C   UNL A   1      50.743  26.326  31.102  1.00  0.00     0.060 A 
BRANCH  89  90
ATOM     90  S   UNL A   1      52.458  25.904  31.477  1.00  0.00     0.124 S 
ATOM     91  O   UNL A   1      53.071  25.966  30.154  1.00  0.00    -0.237 OA
ATOM     92  O   UNL A   1      52.845  26.959  32.407  1.00  0.00    -0.237 OA
ATOM     93  O   UNL A   1      52.358  24.568  32.061  1.00  0.00    -0.744 OA
ENDBRANCH  89  90
ENDBRANCH  57  82
ENDBRANCH  31  32
ENDBRANCH  23  26
ENDBRANCH  21  22
ENDBRANCH  20  21
ENDBRANCH   1  20
TORSDOF 19
ENDMDL
MODEL 2
REMARK VINA RESULT:      -8.6      4.122      6.671
REMARK SMILES CCC1C[NH+]([C@H](C(=O)NCCCCCCNC(=O)c2ccc(-c3c4nc(c(-c5c(F)cc(S(=O)(=O)[O-])cc5F)c5ccc([nH]5)c(-c5c(F)cc(S(=O)(=O)[O-])cc5F)c5nc(c(-c6c(F)cc(S(=O)(=O)[O-])cc6F)c6ccc3[nH]6)C=C5)C=C4)cc2)C(C)C)C1
REMARK SMILES IDX 13 1 12 2 11 3 10 4 9 5 7 6 8 7 6 9 5 10 3 11 4 12 88 13
REMARK SMILES IDX 2 15 1 16 85 17 86 18 87 19 14 20 15 21 16 22 17 23 18 25
REMARK SMILES IDX 19 26 20 27 84 28 21 29 83 30 22 31 23 32 24 33 77 34 25 35
REMARK SMILES IDX 82 36 76 37 78 38 26 39 81 40 75 41 74 42 27 44 61 45 40 46
REMARK SMILES IDX 60 47 41 48 44 49 59 50 79 51 42 52 43 53 58 55 80 56 45 57
REMARK SMILES IDX 28 58 29 59 38 60 30 61 31 62 37 63 39 64 32 65 33 66 34 67
REMARK SMILES IDX 35 68 36 69 62 70 63 71 72 72 64 73 65 74 71 75 73 76 66 77
REMARK SMILES IDX 67 78 68 79 69 80 70 81 46 82 47 83 56 84 48 85 49 86 55 87
REMARK SMILES IDX 57 88 50 89 51 90 52 91 53 92 54 93
REMARK H PARENT 9 8 5 14 16 24 78 43 44 54
REMARK Flexibility Score: inf
ROOT
ATOM      1  C   UNL A   1      32.679  29.622  27.404  1.00  0.00     0.002 C 
ENDROOT
BRANCH   1   2
ATOM      2  C   UNL A   1      31.584  28.554  27.417  1.00  0.00     0.002 C 
BRANCH   2   3
ATOM      3  C   UNL A   1      31.600  27.613  26.214  1.00  0.00     0.021 C 
BRANCH   3   4
ATOM      4  C   UNL A   1      32.444  26.350  26.390  1.00  0.00     0.116 C 
BRANCH   4   5
ATOM      5  N   UNL A   1      31.621  25.299  26.962  1.00  0.00    -0.351 N 
ATOM      6  C   UNL A   1      31.401  24.006  26.605  1.00  0.00     0.278 C 
ATOM      7  O   UNL A   1      30.398  23.486  27.120  1.00  0.00    -0.268 OA
ATOM      8  H   UNL A   1      31.126  25.578  27.766  1.00  0.00     0.163 HD
BRANCH   6   9
ATOM      9  C   UNL A   1      32.316  23.149  25.687  1.00  0.00     0.276 C 
BRANCH   9  10
ATOM     10  N   UNL A   1      32.547  21.735  26.072  1.00  0.00    -0.324 N 
ATOM     11  C   UNL A   1      33.199  19.845  25.415  1.00  0.00     0.099 C 
ATOM     12  C   UNL A   1      33.877  21.175  25.845  1.00  0.00     0.272 C 
ATOM     13  C   UNL A   1      31.936  20.725  25.192  1.00  0.00     0.272 C 
ATOM     14  H   UNL A   1      32.224  21.846  27.032  1.00  0.00     0.348 HD
BRANCH  11  15
ATOM     15  C   UNL A   1      33.777  19.143  24.191  1.00  0.00     0.012 C 
ATOM     16  C   UNL A   1      34.447  17.834  24.569  1.00  0.00     0.004 C 
ENDBRANCH  11  15
ENDBRANCH   9  10
BRANCH   9  17
ATOM     17  C   UNL A   1      32.125  23.395  24.162  1.00  0.00     0.051 C 
ATOM     18  C   UNL A   1      30.747  24.014  23.873  1.00  0.00     0.014 C 
ATOM     19  C   UNL A   1      33.200  24.328  23.586  1.00  0.00     0.014 C 
ENDBRANCH   9  17
ENDBRANCH   6   9
ENDBRANCH   4   5
ENDBRANCH   3   4
ENDBRANCH   2   3
ENDBRANCH   1   2
BRANCH   1  20
ATOM     20  C   UNL A   1      33.921  29.291  26.566  1.00  0.00     0.021 C 
BRANCH  20  21
ATOM     21  C   UNL A   1      35.232  29.202  27.348  1.00  0.00     0.116 C 
BRANCH  21  22
ATOM     22  N   UNL A   1      35.175  29.962  28.587  1.00  0.00    -0.352 N 
ATOM     23  C   UNL A   1      36.142  30.149  29.541  1.00  0.00     0.251 C 
ATOM     24  H   UNL A   1      34.315  30.407  28.766  1.00  0.00     0.163 HD
ATOM     25  O   UNL A   1      35.829  30.607  30.641  1.00  0.00    -0.269 OA
BRANCH  23  26
ATOM     26  C   UNL A   1      37.551  29.803  29.260  1.00  0.00     0.039 A 
ATOM     27  C   UNL A   1      38.388  29.445  30.321  1.00  0.00     0.014 A 
ATOM     28  C   UNL A   1      38.061  29.873  27.960  1.00  0.00     0.014 A 
ATOM     29  C   UNL A   1      39.721  29.109  30.073  1.00  0.00     0.010 A 
ATOM     30  C   UNL A   1      39.374  29.478  27.706  1.00  0.00     0.010 A 
ATOM     31  C   UNL A   1      40.219  29.100  28.759  1.00  0.00    -0.014 A 
BRANCH  31  32
ATOM     32  C   UNL A   1      41.622  28.703  28.471  1.00  0.00     0.031 A 
ATOM     33  C   UNL A   1      42.718  29.734  28.466  1.00  0.00     0.074 A 
ATOM     34  C   UNL A   1      41.898  27.425  28.143  1.00  0.00     0.049 A 
ATOM     35  N   UNL A   1      43.986  29.591  28.175  1.00  0.00    -0.248 NA
ATOM     36  C   UNL A   1      42.330  31.112  28.804  1.00  0.00     0.031 C 
ATOM     37  C   UNL A   1      40.914  26.345  28.057  1.00  0.00     0.029 A 
ATOM     38  N   UNL A   1      43.084  26.823  27.805  1.00  0.00    -0.354 N 
ATOM     39  C   UNL A   1      44.542  30.861  28.272  1.00  0.00     0.074 A 
ATOM     40  C   UNL A   1      43.465  31.768  28.606  1.00  0.00     0.031 C 
ATOM     41  C   UNL A   1      41.538  25.210  27.701  1.00  0.00     0.029 A 
ATOM     42  C   UNL A   1      42.959  25.488  27.505  1.00  0.00     0.049 A 
ATOM     43  H   UNL A   1      43.943  27.303  27.779  1.00  0.00     0.167 HD
ATOM     44  C   UNL A   1      45.836  31.235  28.116  1.00  0.00     0.037 A 
ATOM     45  C   UNL A   1      43.880  24.588  27.111  1.00  0.00     0.037 A 
ATOM     46  C   UNL A   1      46.908  30.323  27.813  1.00  0.00     0.049 A 
ATOM     47  C   UNL A   1      45.315  25.015  26.973  1.00  0.00     0.074 A 
ATOM     48  C   UNL A   1      48.263  30.589  27.713  1.00  0.00     0.029 A 
ATOM     49  N   UNL A   1      46.748  28.969  27.556  1.00  0.00    -0.354 N 
ATOM     50  N   UNL A   1      45.838  26.206  27.144  1.00  0.00    -0.248 NA
ATOM     51  C   UNL A   1      46.286  23.978  26.601  1.00  0.00     0.031 C 
ATOM     52  C   UNL A   1      48.916  29.404  27.356  1.00  0.00     0.029 A 
ATOM     53  C   UNL A   1      47.974  28.390  27.275  1.00  0.00     0.049 A 
ATOM     54  H   UNL A   1      45.888  28.490  27.570  1.00  0.00     0.167 HD
ATOM     55  C   UNL A   1      47.202  26.058  26.919  1.00  0.00     0.074 A 
ATOM     56  C   UNL A   1      47.424  24.660  26.610  1.00  0.00     0.031 C 
ATOM     57  C   UNL A   1      48.181  26.996  26.966  1.00  0.00     0.037 A 
BRANCH  44  58
ATOM     58  C   UNL A   1      46.155  32.698  28.266  1.00  0.00     0.058 A 
ATOM     59  C   UNL A   1      46.536  33.249  29.500  1.00  0.00     0.135 A 
ATOM     60  C   UNL A   1      46.083  33.560  27.159  1.00  0.00     0.135 A 
ATOM     61  F   UNL A   1      46.611  32.473  30.594  1.00  0.00    -0.206 F 
ATOM     62  C   UNL A   1      46.787  34.610  29.644  1.00  0.00     0.059 A 
ATOM     63  C   UNL A   1      46.359  34.920  27.274  1.00  0.00     0.059 A 
ATOM     64  F   UNL A   1      45.729  33.087  25.955  1.00  0.00    -0.206 F 
ATOM     65  C   UNL A   1      46.687  35.439  28.525  1.00  0.00     0.060 A 
BRANCH  65  66
ATOM     66  S   UNL A   1      46.987  37.208  28.731  1.00  0.00     0.124 S 
ATOM     67  O   UNL A   1      48.442  37.268  28.626  1.00  0.00    -0.237 OA
ATOM     68  O   UNL A   1      46.247  37.785  27.614  1.00  0.00    -0.237 OA
ATOM     69  O   UNL A   1      46.441  37.492  30.054  1.00  0.00    -0.744 OA
ENDBRANCH  65  66
ENDBRANCH  44  58
BRANCH  45  70
ATOM     70  C   UNL A   1      43.466  23.185  26.849  1.00  0.00     0.058 A 
ATOM     71  C   UNL A   1      43.424  22.678  25.544  1.00  0.00     0.135 A 
ATOM     72  C   UNL A   1      43.161  22.310  27.903  1.00  0.00     0.135 A 
ATOM     73  F   UNL A   1      43.702  23.479  24.504  1.00  0.00    -0.206 F 
ATOM     74  C   UNL A   1      43.097  21.351  25.288  1.00  0.00     0.059 A 
ATOM     75  C   UNL A   1      42.851  20.972  27.675  1.00  0.00     0.059 A 
ATOM     76  F   UNL A   1      43.204  22.744  29.172  1.00  0.00    -0.206 F 
ATOM     77  C   UNL A   1      42.820  20.502  26.363  1.00  0.00     0.060 A 
BRANCH  77  78
ATOM     78  S   UNL A   1      42.487  18.759  26.026  1.00  0.00     0.124 S 
ATOM     79  O   UNL A   1      42.834  18.141  27.301  1.00  0.00    -0.237 OA
ATOM     80  O   UNL A   1      41.067  18.778  25.689  1.00  0.00    -0.237 OA
ATOM     81  O   UNL A   1      43.383  18.457  24.913  1.00  0.00    -0.744 OA
ENDBRANCH  77  78
ENDBRANCH  45  70
BRANCH  57  82
ATOM     82  C   UNL A   1      49.587  26.540  26.696  1.00  0.00     0.058 A 
ATOM     83  C   UNL A   1      50.428  26.098  27.729  1.00  0.00     0.135 A 
ATOM     84  C   UNL A   1      50.082  26.498  25.383  1.00  0.00     0.135 A 
ATOM     85  F   UNL A   1      50.006  26.124  29.003  1.00  0.00    -0.206 F 
ATOM     86  C   UNL A   1      51.720  25.648  27.471  1.00  0.00     0.059 A 
ATOM     87  C   UNL A   1      51.362  26.029  25.100  1.00  0.00     0.059 A 
ATOM     88  F   UNL A   1      49.316  26.901  24.357  1.00  0.00    -0.206 F 
ATOM     89  C   UNL A   1      52.177  25.616  26.153  1.00  0.00     0.060 A 
BRANCH  89  90
ATOM     90  S   UNL A   1      53.842  24.999  25.827  1.00  0.00     0.124 S 
ATOM     91  O   UNL A   1      53.568  23.639  25.373  1.00  0.00    -0.237 OA
ATOM     92  O   UNL A   1      54.327  25.924  24.808  1.00  0.00    -0.237 OA
ATOM     93  O   UNL A   1      54.502  25.105  27.126  1.00  0.00    -0.744 OA
ENDBRANCH  89  90
ENDBRANCH  57  82
ENDBRANCH  31  32
ENDBRANCH  23  26
ENDBRANCH  21  22
ENDBRANCH  20  21
ENDBRANCH   1  20
TORSDOF 19
ENDMDL
MODEL 3
REMARK VINA RESULT:      -8.6      4.951     11.559
REMARK SMILES CCC1C[NH+]([C@H](C(=O)NCCCCCCNC(=O)c2ccc(-c3c4nc(c(-c5c(F)cc(S(=O)(=O)[O-])cc5F)c5ccc([nH]5)c(-c5c(F)cc(S(=O)(=O)[O-])cc5F)c5nc(c(-c6c(F)cc(S(=O)(=O)[O-])cc6F)c6ccc3[nH]6)C=C5)C=C4)cc2)C(C)C)C1
REMARK SMILES IDX 13 1 12 2 11 3 10 4 9 5 7 6 8 7 6 9 5 10 3 11 4 12 88 13
REMARK SMILES IDX 2 15 1 16 85 17 86 18 87 19 14 20 15 21 16 22 17 23 18 25
REMARK SMILES IDX 19 26 20 27 84 28 21 29 83 30 22 31 23 32 24 33 77 34 25 35
REMARK SMILES IDX 82 36 76 37 78 38 26 39 81 40 75 41 74 42 27 44 61 45 40 46
REMARK SMILES IDX 60 47 41 48 44 49 59 50 79 51 42 52 43 53 58 55 80 56 45 57
REMARK SMILES IDX 28 58 29 59 38 60 30 61 31 62 37 63 39 64 32 65 33 66 34 67
REMARK SMILES IDX 35 68 36 69 62 70 63 71 72 72 64 73 65 74 71 75 73 76 66 77
REMARK SMILES IDX 67 78 68 79 69 80 70 81 46 82 47 83 56 84 48 85 49 86 55 87
REMARK SMILES IDX 57 88 50 89 51 90 52 91 53 92 54 93
REMARK H PARENT 9 8 5 14 16 24 78 43 44 54
REMARK Flexibility Score: inf
ROOT
ATOM      1  C   UNL A   1      36.410  23.732  25.933  1.00  0.00     0.002 C 
ENDROOT
BRANCH   1   2
ATOM      2  C   UNL A   1      35.450  23.433  24.780  1.00  0.00     0.002 C 
BRANCH   2   3
ATOM      3  C   UNL A   1      34.010  23.158  25.208  1.00  0.00     0.021 C 
BRANCH   3   4
ATOM      4  C   UNL A   1      33.513  23.992  26.389  1.00  0.00     0.116 C 
BRANCH   4   5
ATOM      5  N   UNL A   1      32.089  24.233  26.241  1.00  0.00    -0.351 N 
ATOM      6  C   UNL A   1      31.360  25.369  26.077  1.00  0.00     0.278 C 
ATOM      7  O   UNL A   1      30.147  25.247  26.306  1.00  0.00    -0.268 OA
ATOM      8  H   UNL A   1      31.545  23.413  26.263  1.00  0.00     0.163 HD
BRANCH   6   9
ATOM      9  C   UNL A   1      31.909  26.736  25.582  1.00  0.00     0.276 C 
BRANCH   9  10
ATOM     10  N   UNL A   1      33.013  27.356  26.356  1.00  0.00    -0.324 N 
ATOM     11  C   UNL A   1      33.826  29.160  27.073  1.00  0.00     0.099 C 
ATOM     12  C   UNL A   1      32.657  28.221  27.478  1.00  0.00     0.272 C 
ATOM     13  C   UNL A   1      33.721  28.460  25.688  1.00  0.00     0.272 C 
ATOM     14  H   UNL A   1      33.494  26.479  26.553  1.00  0.00     0.348 HD
BRANCH  11  15
ATOM     15  C   UNL A   1      33.550  30.658  27.113  1.00  0.00     0.012 C 
ATOM     16  C   UNL A   1      34.666  31.408  27.817  1.00  0.00     0.004 C 
ENDBRANCH  11  15
ENDBRANCH   9  10
BRANCH   9  17
ATOM     17  C   UNL A   1      32.033  26.868  24.036  1.00  0.00     0.051 C 
ATOM     18  C   UNL A   1      33.369  26.292  23.539  1.00  0.00     0.014 C 
ATOM     19  C   UNL A   1      30.895  26.145  23.300  1.00  0.00     0.014 C 
ENDBRANCH   9  17
ENDBRANCH   6   9
ENDBRANCH   4   5
ENDBRANCH   3   4
ENDBRANCH   2   3
ENDBRANCH   1   2
BRANCH   1  20
ATOM     20  C   UNL A   1      37.850  23.238  25.744  1.00  0.00     0.021 C 
BRANCH  20  21
ATOM     21  C   UNL A   1      38.852  23.728  26.791  1.00  0.00     0.116 C 
BRANCH  21  22
ATOM     22  N   UNL A   1      40.201  23.801  26.254  1.00  0.00    -0.352 N 
ATOM     23  C   UNL A   1      41.156  24.771  26.424  1.00  0.00     0.251 C 
ATOM     24  H   UNL A   1      40.469  23.043  25.685  1.00  0.00     0.163 HD
ATOM     25  O   UNL A   1      42.143  24.789  25.686  1.00  0.00    -0.269 OA
BRANCH  23  26
ATOM     26  C   UNL A   1      41.007  25.794  27.480  1.00  0.00     0.039 A 
ATOM     27  C   UNL A   1      39.952  25.682  28.391  1.00  0.00     0.014 A 
ATOM     28  C   UNL A   1      41.876  26.888  27.548  1.00  0.00     0.014 A 
ATOM     29  C   UNL A   1      39.799  26.637  29.399  1.00  0.00     0.010 A 
ATOM     30  C   UNL A   1      41.759  27.805  28.591  1.00  0.00     0.010 A 
ATOM     31  C   UNL A   1      40.716  27.695  29.522  1.00  0.00    -0.014 A 
BRANCH  31  32
ATOM     32  C   UNL A   1      40.596  28.695  30.614  1.00  0.00     0.031 A 
ATOM     33  C   UNL A   1      41.458  28.586  31.842  1.00  0.00     0.074 A 
ATOM     34  C   UNL A   1      39.661  29.661  30.533  1.00  0.00     0.049 A 
ATOM     35  N   UNL A   1      41.453  29.322  32.924  1.00  0.00    -0.248 NA
ATOM     36  C   UNL A   1      42.434  27.486  31.869  1.00  0.00     0.031 C 
ATOM     37  C   UNL A   1      38.725  29.838  29.420  1.00  0.00     0.029 A 
ATOM     38  N   UNL A   1      39.330  30.665  31.408  1.00  0.00    -0.354 N 
ATOM     39  C   UNL A   1      42.405  28.762  33.769  1.00  0.00     0.074 A 
ATOM     40  C   UNL A   1      42.937  27.600  33.091  1.00  0.00     0.031 C 
ATOM     41  C   UNL A   1      37.934  30.893  29.675  1.00  0.00     0.029 A 
ATOM     42  C   UNL A   1      38.285  31.449  30.980  1.00  0.00     0.049 A 
ATOM     43  H   UNL A   1      39.797  30.809  32.263  1.00  0.00     0.167 HD
ATOM     44  C   UNL A   1      42.813  29.190  34.989  1.00  0.00     0.037 A 
ATOM     45  C   UNL A   1      37.673  32.494  31.570  1.00  0.00     0.037 A 
ATOM     46  C   UNL A   1      42.301  30.364  35.645  1.00  0.00     0.049 A 
ATOM     47  C   UNL A   1      38.161  32.971  32.909  1.00  0.00     0.074 A 
ATOM     48  C   UNL A   1      42.704  30.926  36.845  1.00  0.00     0.029 A 
ATOM     49  N   UNL A   1      41.271  31.157  35.161  1.00  0.00    -0.354 N 
ATOM     50  N   UNL A   1      39.116  32.476  33.661  1.00  0.00    -0.248 NA
ATOM     51  C   UNL A   1      37.497  34.152  33.477  1.00  0.00     0.031 C 
ATOM     52  C   UNL A   1      41.890  32.034  37.104  1.00  0.00     0.029 A 
ATOM     53  C   UNL A   1      41.008  32.189  36.046  1.00  0.00     0.049 A 
ATOM     54  H   UNL A   1      40.795  31.007  34.312  1.00  0.00     0.167 HD
ATOM     55  C   UNL A   1      39.181  33.296  34.781  1.00  0.00     0.074 A 
ATOM     56  C   UNL A   1      38.177  34.325  34.604  1.00  0.00     0.031 C 
ATOM     57  C   UNL A   1      40.002  33.205  35.858  1.00  0.00     0.037 A 
BRANCH  44  58
ATOM     58  C   UNL A   1      43.863  28.371  35.692  1.00  0.00     0.058 A 
ATOM     59  C   UNL A   1      43.523  27.338  36.581  1.00  0.00     0.135 A 
ATOM     60  C   UNL A   1      45.227  28.620  35.470  1.00  0.00     0.135 A 
ATOM     61  F   UNL A   1      42.233  27.065  36.838  1.00  0.00    -0.206 F 
ATOM     62  C   UNL A   1      44.495  26.614  37.262  1.00  0.00     0.059 A 
ATOM     63  C   UNL A   1      46.218  27.887  36.118  1.00  0.00     0.059 A 
ATOM     64  F   UNL A   1      45.609  29.592  34.627  1.00  0.00    -0.206 F 
ATOM     65  C   UNL A   1      45.842  26.902  37.030  1.00  0.00     0.060 A 
BRANCH  65  66
ATOM     66  S   UNL A   1      47.094  25.975  37.942  1.00  0.00     0.124 S 
ATOM     67  O   UNL A   1      46.749  24.601  37.590  1.00  0.00    -0.237 OA
ATOM     68  O   UNL A   1      48.339  26.481  37.371  1.00  0.00    -0.237 OA
ATOM     69  O   UNL A   1      46.847  26.348  39.331  1.00  0.00    -0.744 OA
ENDBRANCH  65  66
ENDBRANCH  44  58
BRANCH  45  70
ATOM     70  C   UNL A   1      36.551  33.171  30.872  1.00  0.00     0.058 A 
ATOM     71  C   UNL A   1      35.232  33.037  31.329  1.00  0.00     0.135 A 
ATOM     72  C   UNL A   1      36.781  34.014  29.774  1.00  0.00     0.135 A 
ATOM     73  F   UNL A   1      34.963  32.237  32.373  1.00  0.00    -0.206 F 
ATOM     74  C   UNL A   1      34.179  33.713  30.724  1.00  0.00     0.059 A 
ATOM     75  C   UNL A   1      35.746  34.718  29.163  1.00  0.00     0.059 A 
ATOM     76  F   UNL A   1      38.028  34.189  29.310  1.00  0.00    -0.206 F 
ATOM     77  C   UNL A   1      34.448  34.560  29.646  1.00  0.00     0.060 A 
BRANCH  77  78
ATOM     78  S   UNL A   1      33.087  35.504  28.926  1.00  0.00     0.124 S 
ATOM     79  O   UNL A   1      33.803  36.555  28.213  1.00  0.00    -0.237 OA
ATOM     80  O   UNL A   1      32.425  34.503  28.095  1.00  0.00    -0.237 OA
ATOM     81  O   UNL A   1      32.327  35.937  30.095  1.00  0.00    -0.744 OA
ENDBRANCH  77  78
ENDBRANCH  45  70
BRANCH  57  82
ATOM     82  C   UNL A   1      39.863  34.258  36.922  1.00  0.00     0.058 A 
ATOM     83  C   UNL A   1      40.472  35.515  36.798  1.00  0.00     0.135 A 
ATOM     84  C   UNL A   1      39.070  34.022  38.057  1.00  0.00     0.135 A 
ATOM     85  F   UNL A   1      41.247  35.789  35.736  1.00  0.00    -0.206 F 
ATOM     86  C   UNL A   1      40.316  36.498  37.771  1.00  0.00     0.059 A 
ATOM     87  C   UNL A   1      38.880  34.998  39.031  1.00  0.00     0.059 A 
ATOM     88  F   UNL A   1      38.457  32.839  38.221  1.00  0.00    -0.206 F 
ATOM     89  C   UNL A   1      39.517  36.229  38.884  1.00  0.00     0.060 A 
BRANCH  89  90
ATOM     90  S   UNL A   1      39.295  37.523  40.124  1.00  0.00     0.124 S 
ATOM     91  O   UNL A   1      38.929  36.742  41.301  1.00  0.00    -0.237 OA
ATOM     92  O   UNL A   1      40.611  38.151  40.162  1.00  0.00    -0.237 OA
ATOM     93  O   UNL A   1      38.229  38.350  39.563  1.00  0.00    -0.744 OA
ENDBRANCH  89  90
ENDBRANCH  57  82
ENDBRANCH  31  32
ENDBRANCH  23  26
ENDBRANCH  21  22
ENDBRANCH  20  21
ENDBRANCH   1  20
TORSDOF 19
ENDMDL
