MODEL 1
REMARK VINA RESULT:     -11.6      0.000      0.000
REMARK SMILES CC(C)(C)OC(=O)N1CCC[C@](Cc2ccccc2)(C(=O)NCCCCCCNC(=O)c2ccc(-c3c4nc(c(-c5c(F)cc(S(=O)(=O)[O-])cc5F)c5ccc([nH]5)c(-c5c(F)cc(S(=O)(=O)[O-])cc5F)c5nc(c(-c6c(F)cc(S(=O)(=O)[O-])cc6F)c6ccc3[nH]6)C=C5)C=C4)cc2)C1
REMARK SMILES IDX 25 1 24 2 23 3 22 4 20 5 21 6 12 8 8 9 9 10 98 11 10 12
REMARK SMILES IDX 11 13 6 14 7 15 5 16 2 17 1 18 3 19 4 20 13 21 14 22 15 23
REMARK SMILES IDX 19 24 16 25 18 26 17 27 26 28 27 29 28 30 29 31 30 32 31 34
REMARK SMILES IDX 32 35 33 36 97 37 34 38 96 39 35 40 36 41 37 42 90 43 38 44
REMARK SMILES IDX 95 45 89 46 91 47 39 48 94 49 88 50 87 51 40 53 74 54 53 55
REMARK SMILES IDX 73 56 54 57 57 58 72 59 92 60 55 61 56 62 71 64 93 65 58 66
REMARK SMILES IDX 41 67 42 68 51 69 43 70 44 71 50 72 52 73 45 74 46 75 47 76
REMARK SMILES IDX 48 77 49 78 75 79 76 80 85 81 77 82 78 83 84 84 86 85 79 86
REMARK SMILES IDX 80 87 81 88 82 89 83 90 59 91 60 92 69 93 61 94 62 95 68 96
REMARK SMILES IDX 70 97 63 98 64 99 65 100 66 101 67 102
REMARK H PARENT 22 7 29 33 91 52 57 63
REMARK Flexibility Score: inf
ROOT
ATOM      1  C   UNL A   1      39.156  21.461  26.122  1.00  0.00     0.002 C 
ENDROOT
BRANCH   1   2
ATOM      2  C   UNL A   1      38.564  22.871  26.219  1.00  0.00     0.021 C 
BRANCH   2   3
ATOM      3  C   UNL A   1      37.306  23.067  25.382  1.00  0.00     0.116 C 
BRANCH   3   4
ATOM      4  N   UNL A   1      36.133  23.275  26.212  1.00  0.00    -0.356 N 
ATOM      5  C   UNL A   1      34.877  22.777  26.303  1.00  0.00     0.228 C 
ATOM      6  O   UNL A   1      34.281  23.185  27.310  1.00  0.00    -0.274 OA
ATOM      7  H   UNL A   1      36.295  23.965  26.896  1.00  0.00     0.163 HD
BRANCH   5   8
ATOM      8  C   UNL A   1      34.153  21.861  25.266  1.00  0.00     0.071 C 
ATOM      9  N   UNL A   1      33.299  23.729  23.802  1.00  0.00    -0.307 N 
ATOM     10  C   UNL A   1      31.913  23.508  24.180  1.00  0.00     0.123 C 
ATOM     11  C   UNL A   1      34.198  22.580  23.895  1.00  0.00     0.140 C 
ATOM     12  C   UNL A   1      31.787  22.909  25.568  1.00  0.00     0.023 C 
ATOM     13  C   UNL A   1      32.679  21.674  25.737  1.00  0.00     0.021 C 
BRANCH   9  14
ATOM     14  C   UNL A   1      33.658  24.949  23.249  1.00  0.00     0.410 C 
ATOM     15  O   UNL A   1      33.651  25.176  22.053  1.00  0.00    -0.224 OA
BRANCH  14  16
ATOM     16  O   UNL A   1      34.079  25.831  24.198  1.00  0.00    -0.444 OA
BRANCH  16  17
ATOM     17  C   UNL A   1      33.423  27.112  24.397  1.00  0.00     0.106 C 
ATOM     18  C   UNL A   1      33.625  27.431  25.887  1.00  0.00     0.056 C 
ATOM     19  C   UNL A   1      31.930  26.941  24.112  1.00  0.00     0.056 C 
ATOM     20  C   UNL A   1      34.021  28.271  23.586  1.00  0.00     0.056 C 
ENDBRANCH  16  17
ENDBRANCH  14  16
ENDBRANCH   9  14
BRANCH   8  21
ATOM     21  C   UNL A   1      34.846  20.480  25.169  1.00  0.00     0.054 C 
BRANCH  21  22
ATOM     22  C   UNL A   1      34.197  19.278  24.519  1.00  0.00    -0.047 A 
ATOM     23  C   UNL A   1      34.883  18.054  24.475  1.00  0.00     0.004 A 
ATOM     24  C   UNL A   1      32.995  19.399  23.808  1.00  0.00     0.004 A 
ATOM     25  C   UNL A   1      34.385  16.985  23.727  1.00  0.00     0.000 A 
ATOM     26  C   UNL A   1      32.490  18.325  23.073  1.00  0.00     0.000 A 
ATOM     27  C   UNL A   1      33.190  17.122  23.025  1.00  0.00     0.000 A 
ENDBRANCH  21  22
ENDBRANCH   8  21
ENDBRANCH   5   8
ENDBRANCH   3   4
ENDBRANCH   2   3
ENDBRANCH   1   2
BRANCH   1  28
ATOM     28  C   UNL A   1      40.613  21.325  26.588  1.00  0.00     0.002 C 
BRANCH  28  29
ATOM     29  C   UNL A   1      40.943  21.999  27.924  1.00  0.00     0.021 C 
BRANCH  29  30
ATOM     30  C   UNL A   1      42.016  23.081  27.849  1.00  0.00     0.116 C 
BRANCH  30  31
ATOM     31  N   UNL A   1      42.023  23.745  26.557  1.00  0.00    -0.352 N 
ATOM     32  C   UNL A   1      41.682  25.033  26.233  1.00  0.00     0.251 C 
ATOM     33  H   UNL A   1      42.318  23.187  25.800  1.00  0.00     0.163 HD
ATOM     34  O   UNL A   1      41.547  25.346  25.053  1.00  0.00    -0.269 OA
BRANCH  32  35
ATOM     35  C   UNL A   1      41.462  26.037  27.296  1.00  0.00     0.039 A 
ATOM     36  C   UNL A   1      40.358  25.892  28.139  1.00  0.00     0.014 A 
ATOM     37  C   UNL A   1      42.319  27.133  27.446  1.00  0.00     0.014 A 
ATOM     38  C   UNL A   1      40.138  26.817  29.160  1.00  0.00     0.010 A 
ATOM     39  C   UNL A   1      42.136  28.018  28.507  1.00  0.00     0.010 A 
ATOM     40  C   UNL A   1      41.042  27.873  29.371  1.00  0.00    -0.014 A 
BRANCH  40  41
ATOM     41  C   UNL A   1      40.856  28.811  30.507  1.00  0.00     0.031 A 
ATOM     42  C   UNL A   1      41.710  28.705  31.739  1.00  0.00     0.074 A 
ATOM     43  C   UNL A   1      39.875  29.731  30.442  1.00  0.00     0.049 A 
ATOM     44  N   UNL A   1      41.694  29.445  32.819  1.00  0.00    -0.248 NA
ATOM     45  C   UNL A   1      42.690  27.610  31.777  1.00  0.00     0.031 C 
ATOM     46  C   UNL A   1      38.934  29.883  29.331  1.00  0.00     0.029 A 
ATOM     47  N   UNL A   1      39.504  30.709  31.329  1.00  0.00    -0.354 N 
ATOM     48  C   UNL A   1      42.653  28.902  33.666  1.00  0.00     0.074 A 
ATOM     49  C   UNL A   1      43.191  27.736  32.997  1.00  0.00     0.031 C 
ATOM     50  C   UNL A   1      38.109  30.908  29.592  1.00  0.00     0.029 A 
ATOM     51  C   UNL A   1      38.445  31.471  30.897  1.00  0.00     0.049 A 
ATOM     52  H   UNL A   1      39.952  30.851  32.194  1.00  0.00     0.167 HD
ATOM     53  C   UNL A   1      43.062  29.345  34.880  1.00  0.00     0.037 A 
ATOM     54  C   UNL A   1      37.817  32.509  31.480  1.00  0.00     0.037 A 
ATOM     55  C   UNL A   1      42.528  30.513  35.533  1.00  0.00     0.049 A 
ATOM     56  C   UNL A   1      38.307  33.008  32.809  1.00  0.00     0.074 A 
ATOM     57  C   UNL A   1      42.923  31.091  36.727  1.00  0.00     0.029 A 
ATOM     58  N   UNL A   1      41.474  31.277  35.053  1.00  0.00    -0.354 N 
ATOM     59  N   UNL A   1      39.277  32.538  33.558  1.00  0.00    -0.248 NA
ATOM     60  C   UNL A   1      37.630  34.185  33.366  1.00  0.00     0.031 C 
ATOM     61  C   UNL A   1      42.080  32.177  36.990  1.00  0.00     0.029 A 
ATOM     62  C   UNL A   1      41.187  32.305  35.938  1.00  0.00     0.049 A 
ATOM     63  H   UNL A   1      40.998  31.113  34.207  1.00  0.00     0.167 HD
ATOM     64  C   UNL A   1      39.333  33.367  34.672  1.00  0.00     0.074 A 
ATOM     65  C   UNL A   1      38.314  34.381  34.486  1.00  0.00     0.031 C 
ATOM     66  C   UNL A   1      40.153  33.294  35.750  1.00  0.00     0.037 A 
BRANCH  53  67
ATOM     67  C   UNL A   1      44.136  28.553  35.576  1.00  0.00     0.058 A 
ATOM     68  C   UNL A   1      45.501  28.791  35.338  1.00  0.00     0.135 A 
ATOM     69  C   UNL A   1      43.801  27.538  36.486  1.00  0.00     0.135 A 
ATOM     70  F   UNL A   1      45.880  29.741  34.469  1.00  0.00    -0.206 F 
ATOM     71  C   UNL A   1      46.490  28.018  35.936  1.00  0.00     0.059 A 
ATOM     72  C   UNL A   1      44.776  26.771  37.119  1.00  0.00     0.059 A 
ATOM     73  F   UNL A   1      42.514  27.270  36.756  1.00  0.00    -0.206 F 
ATOM     74  C   UNL A   1      46.118  27.003  36.818  1.00  0.00     0.060 A 
BRANCH  74  75
ATOM     75  S   UNL A   1      47.409  25.980  37.558  1.00  0.00     0.124 S 
ATOM     76  O   UNL A   1      46.658  24.782  37.919  1.00  0.00    -0.237 OA
ATOM     77  O   UNL A   1      48.356  25.826  36.457  1.00  0.00    -0.237 OA
ATOM     78  O   UNL A   1      47.881  26.788  38.678  1.00  0.00    -0.744 OA
ENDBRANCH  74  75
ENDBRANCH  53  67
BRANCH  54  79
ATOM     79  C   UNL A   1      36.683  33.160  30.776  1.00  0.00     0.058 A 
ATOM     80  C   UNL A   1      35.357  32.897  31.147  1.00  0.00     0.135 A 
ATOM     81  C   UNL A   1      36.907  34.116  29.772  1.00  0.00     0.135 A 
ATOM     82  F   UNL A   1      35.094  31.989  32.098  1.00  0.00    -0.206 F 
ATOM     83  C   UNL A   1      34.290  33.564  30.553  1.00  0.00     0.059 A 
ATOM     84  C   UNL A   1      35.858  34.809  29.177  1.00  0.00     0.059 A 
ATOM     85  F   UNL A   1      38.160  34.414  29.396  1.00  0.00    -0.206 F 
ATOM     86  C   UNL A   1      34.552  34.527  29.576  1.00  0.00     0.060 A 
BRANCH  86  87
ATOM     87  S   UNL A   1      33.168  35.460  28.886  1.00  0.00     0.124 S 
ATOM     88  O   UNL A   1      32.517  35.957  30.092  1.00  0.00    -0.237 OA
ATOM     89  O   UNL A   1      33.849  36.458  28.068  1.00  0.00    -0.237 OA
ATOM     90  O   UNL A   1      32.426  34.450  28.137  1.00  0.00    -0.744 OA
ENDBRANCH  86  87
ENDBRANCH  54  79
BRANCH  66  91
ATOM     91  C   UNL A   1      39.975  34.343  36.813  1.00  0.00     0.058 A 
ATOM     92  C   UNL A   1      39.078  34.164  37.879  1.00  0.00     0.135 A 
ATOM     93  C   UNL A   1      40.723  35.530  36.779  1.00  0.00     0.135 A 
ATOM     94  F   UNL A   1      38.334  33.049  37.956  1.00  0.00    -0.206 F 
ATOM     95  C   UNL A   1      38.901  35.142  38.852  1.00  0.00     0.059 A 
ATOM     96  C   UNL A   1      40.582  36.510  37.757  1.00  0.00     0.059 A 
ATOM     97  F   UNL A   1      41.604  35.747  35.789  1.00  0.00    -0.206 F 
ATOM     98  C   UNL A   1      39.655  36.315  38.780  1.00  0.00     0.060 A 
BRANCH  98  99
ATOM     99  S   UNL A   1      39.422  37.574  40.051  1.00  0.00     0.124 S 
ATOM    100  O   UNL A   1      39.445  36.770  41.268  1.00  0.00    -0.237 OA
ATOM    101  O   UNL A   1      40.573  38.448  39.847  1.00  0.00    -0.237 OA
ATOM    102  O   UNL A   1      38.129  38.162  39.712  1.00  0.00    -0.744 OA
ENDBRANCH  98  99
ENDBRANCH  66  91
ENDBRANCH  40  41
ENDBRANCH  32  35
ENDBRANCH  30  31
ENDBRANCH  29  30
ENDBRANCH  28  29
ENDBRANCH   1  28
TORSDOF 21
ENDMDL
MODEL 2
REMARK VINA RESULT:     -11.5      6.315     11.820
REMARK SMILES CC(C)(C)OC(=O)N1CCC[C@](Cc2ccccc2)(C(=O)NCCCCCCNC(=O)c2ccc(-c3c4nc(c(-c5c(F)cc(S(=O)(=O)[O-])cc5F)c5ccc([nH]5)c(-c5c(F)cc(S(=O)(=O)[O-])cc5F)c5nc(c(-c6c(F)cc(S(=O)(=O)[O-])cc6F)c6ccc3[nH]6)C=C5)C=C4)cc2)C1
REMARK SMILES IDX 25 1 24 2 23 3 22 4 20 5 21 6 12 8 8 9 9 10 98 11 10 12
REMARK SMILES IDX 11 13 6 14 7 15 5 16 2 17 1 18 3 19 4 20 13 21 14 22 15 23
REMARK SMILES IDX 19 24 16 25 18 26 17 27 26 28 27 29 28 30 29 31 30 32 31 34
REMARK SMILES IDX 32 35 33 36 97 37 34 38 96 39 35 40 36 41 37 42 90 43 38 44
REMARK SMILES IDX 95 45 89 46 91 47 39 48 94 49 88 50 87 51 40 53 74 54 53 55
REMARK SMILES IDX 73 56 54 57 57 58 72 59 92 60 55 61 56 62 71 64 93 65 58 66
REMARK SMILES IDX 41 67 42 68 51 69 43 70 44 71 50 72 52 73 45 74 46 75 47 76
REMARK SMILES IDX 48 77 49 78 75 79 76 80 85 81 77 82 78 83 84 84 86 85 79 86
REMARK SMILES IDX 80 87 81 88 82 89 83 90 59 91 60 92 69 93 61 94 62 95 68 96
REMARK SMILES IDX 70 97 63 98 64 99 65 100 66 101 67 102
REMARK H PARENT 22 7 29 33 91 52 57 63
REMARK Flexibility Score: inf
ROOT
ATOM      1  C   UNL A   1      33.549  31.482  27.574  1.00  0.00     0.002 C 
ENDROOT
BRANCH   1   2
ATOM      2  C   UNL A   1      34.520  30.364  27.180  1.00  0.00     0.021 C 
BRANCH   2   3
ATOM      3  C   UNL A   1      33.958  29.401  26.141  1.00  0.00     0.116 C 
BRANCH   3   4
ATOM      4  N   UNL A   1      32.778  28.710  26.629  1.00  0.00    -0.356 N 
ATOM      5  C   UNL A   1      32.222  27.481  26.506  1.00  0.00     0.228 C 
ATOM      6  O   UNL A   1      31.256  27.324  27.264  1.00  0.00    -0.274 OA
ATOM      7  H   UNL A   1      32.235  29.293  27.208  1.00  0.00     0.163 HD
BRANCH   5   8
ATOM      8  C   UNL A   1      32.631  26.363  25.494  1.00  0.00     0.071 C 
ATOM      9  N   UNL A   1      31.299  27.258  23.548  1.00  0.00    -0.307 N 
ATOM     10  C   UNL A   1      30.350  26.157  23.578  1.00  0.00     0.123 C 
ATOM     11  C   UNL A   1      32.634  26.992  24.079  1.00  0.00     0.140 C 
ATOM     12  C   UNL A   1      30.208  25.563  24.968  1.00  0.00     0.023 C 
ATOM     13  C   UNL A   1      31.569  25.225  25.584  1.00  0.00     0.021 C 
BRANCH   9  14
ATOM     14  C   UNL A   1      30.943  28.433  22.902  1.00  0.00     0.410 C 
ATOM     15  O   UNL A   1      31.724  29.335  22.666  1.00  0.00    -0.224 OA
BRANCH  14  16
ATOM     16  O   UNL A   1      29.610  28.476  22.628  1.00  0.00    -0.444 OA
BRANCH  16  17
ATOM     17  C   UNL A   1      28.872  29.727  22.606  1.00  0.00     0.106 C 
ATOM     18  C   UNL A   1      29.405  30.520  23.811  1.00  0.00     0.056 C 
ATOM     19  C   UNL A   1      27.389  29.419  22.817  1.00  0.00     0.056 C 
ATOM     20  C   UNL A   1      29.095  30.581  21.350  1.00  0.00     0.056 C 
ENDBRANCH  16  17
ENDBRANCH  14  16
ENDBRANCH   9  14
BRANCH   8  21
ATOM     21  C   UNL A   1      34.031  25.796  25.832  1.00  0.00     0.054 C 
BRANCH  21  22
ATOM     22  C   UNL A   1      34.452  24.385  25.486  1.00  0.00    -0.047 A 
ATOM     23  C   UNL A   1      34.523  23.989  24.141  1.00  0.00     0.004 A 
ATOM     24  C   UNL A   1      34.610  23.411  26.482  1.00  0.00     0.004 A 
ATOM     25  C   UNL A   1      34.732  22.651  23.803  1.00  0.00     0.000 A 
ATOM     26  C   UNL A   1      34.834  22.076  26.142  1.00  0.00     0.000 A 
ATOM     27  C   UNL A   1      34.886  21.694  24.804  1.00  0.00     0.000 A 
ENDBRANCH  21  22
ENDBRANCH   8  21
ENDBRANCH   5   8
ENDBRANCH   3   4
ENDBRANCH   2   3
ENDBRANCH   1   2
BRANCH   1  28
ATOM     28  C   UNL A   1      34.198  32.730  28.189  1.00  0.00     0.002 C 
BRANCH  28  29
ATOM     29  C   UNL A   1      35.725  32.800  28.084  1.00  0.00     0.021 C 
BRANCH  29  30
ATOM     30  C   UNL A   1      36.459  32.820  29.421  1.00  0.00     0.116 C 
BRANCH  30  31
ATOM     31  N   UNL A   1      35.996  31.768  30.308  1.00  0.00    -0.352 N 
ATOM     32  C   UNL A   1      36.536  30.531  30.556  1.00  0.00     0.251 C 
ATOM     33  H   UNL A   1      35.171  31.971  30.806  1.00  0.00     0.163 HD
ATOM     34  O   UNL A   1      35.882  29.697  31.175  1.00  0.00    -0.269 OA
BRANCH  32  35
ATOM     35  C   UNL A   1      37.892  30.198  30.069  1.00  0.00     0.039 A 
ATOM     36  C   UNL A   1      38.931  30.091  30.997  1.00  0.00     0.014 A 
ATOM     37  C   UNL A   1      38.149  30.023  28.705  1.00  0.00     0.014 A 
ATOM     38  C   UNL A   1      40.216  29.761  30.564  1.00  0.00     0.010 A 
ATOM     39  C   UNL A   1      39.418  29.628  28.282  1.00  0.00     0.010 A 
ATOM     40  C   UNL A   1      40.465  29.499  29.205  1.00  0.00    -0.014 A 
BRANCH  40  41
ATOM     41  C   UNL A   1      41.811  29.069  28.754  1.00  0.00     0.031 A 
ATOM     42  C   UNL A   1      42.944  30.052  28.665  1.00  0.00     0.074 A 
ATOM     43  C   UNL A   1      41.997  27.790  28.374  1.00  0.00     0.049 A 
ATOM     44  N   UNL A   1      44.186  29.849  28.304  1.00  0.00    -0.248 NA
ATOM     45  C   UNL A   1      42.638  31.451  28.998  1.00  0.00     0.031 C 
ATOM     46  C   UNL A   1      40.955  26.760  28.345  1.00  0.00     0.029 A 
ATOM     47  N   UNL A   1      43.121  27.138  27.937  1.00  0.00    -0.354 N 
ATOM     48  C   UNL A   1      44.806  31.091  28.358  1.00  0.00     0.074 A 
ATOM     49  C   UNL A   1      43.789  32.051  28.733  1.00  0.00     0.031 C 
ATOM     50  C   UNL A   1      41.495  25.602  27.936  1.00  0.00     0.029 A 
ATOM     51  C   UNL A   1      42.912  25.810  27.651  1.00  0.00     0.049 A 
ATOM     52  H   UNL A   1      43.996  27.580  27.837  1.00  0.00     0.167 HD
ATOM     53  C   UNL A   1      46.107  31.402  28.137  1.00  0.00     0.037 A 
ATOM     54  C   UNL A   1      43.763  24.864  27.213  1.00  0.00     0.037 A 
ATOM     55  C   UNL A   1      47.115  30.438  27.775  1.00  0.00     0.049 A 
ATOM     56  C   UNL A   1      45.209  25.218  27.007  1.00  0.00     0.074 A 
ATOM     57  C   UNL A   1      48.474  30.633  27.602  1.00  0.00     0.029 A 
ATOM     58  N   UNL A   1      46.872  29.095  27.520  1.00  0.00    -0.354 N 
ATOM     59  N   UNL A   1      45.800  26.382  27.151  1.00  0.00    -0.248 NA
ATOM     60  C   UNL A   1      46.105  24.132  26.596  1.00  0.00     0.031 C 
ATOM     61  C   UNL A   1      49.044  29.420  27.199  1.00  0.00     0.029 A 
ATOM     62  C   UNL A   1      48.050  28.456  27.165  1.00  0.00     0.049 A 
ATOM     63  H   UNL A   1      45.991  28.659  27.581  1.00  0.00     0.167 HD
ATOM     64  C   UNL A   1      47.140  26.166  26.855  1.00  0.00     0.074 A 
ATOM     65  C   UNL A   1      47.276  24.755  26.547  1.00  0.00     0.031 C 
ATOM     66  C   UNL A   1      48.165  27.055  26.839  1.00  0.00     0.037 A 
BRANCH  53  67
ATOM     67  C   UNL A   1      46.504  32.847  28.276  1.00  0.00     0.058 A 
ATOM     68  C   UNL A   1      46.929  33.381  29.505  1.00  0.00     0.135 A 
ATOM     69  C   UNL A   1      46.451  33.713  27.172  1.00  0.00     0.135 A 
ATOM     70  F   UNL A   1      46.988  32.601  30.597  1.00  0.00    -0.206 F 
ATOM     71  C   UNL A   1      47.237  34.730  29.646  1.00  0.00     0.059 A 
ATOM     72  C   UNL A   1      46.783  35.061  27.284  1.00  0.00     0.059 A 
ATOM     73  F   UNL A   1      46.056  33.257  25.973  1.00  0.00    -0.206 F 
ATOM     74  C   UNL A   1      47.152  35.565  28.531  1.00  0.00     0.060 A 
BRANCH  74  75
ATOM     75  S   UNL A   1      47.516  37.322  28.734  1.00  0.00     0.124 S 
ATOM     76  O   UNL A   1      48.966  37.299  28.903  1.00  0.00    -0.237 OA
ATOM     77  O   UNL A   1      47.034  37.890  27.480  1.00  0.00    -0.237 OA
ATOM     78  O   UNL A   1      46.751  37.691  29.921  1.00  0.00    -0.744 OA
ENDBRANCH  74  75
ENDBRANCH  53  67
BRANCH  54  79
ATOM     79  C   UNL A   1      43.261  23.485  26.984  1.00  0.00     0.058 A 
ATOM     80  C   UNL A   1      43.018  23.012  25.687  1.00  0.00     0.135 A 
ATOM     81  C   UNL A   1      43.090  22.591  28.053  1.00  0.00     0.135 A 
ATOM     82  F   UNL A   1      43.165  23.832  24.636  1.00  0.00    -0.206 F 
ATOM     83  C   UNL A   1      42.629  21.697  25.454  1.00  0.00     0.059 A 
ATOM     84  C   UNL A   1      42.721  21.266  27.843  1.00  0.00     0.059 A 
ATOM     85  F   UNL A   1      43.329  22.993  29.310  1.00  0.00    -0.206 F 
ATOM     86  C   UNL A   1      42.494  20.828  26.539  1.00  0.00     0.060 A 
BRANCH  86  87
ATOM     87  S   UNL A   1      42.090  19.097  26.218  1.00  0.00     0.124 S 
ATOM     88  O   UNL A   1      42.279  18.501  27.535  1.00  0.00    -0.237 OA
ATOM     89  O   UNL A   1      40.712  19.186  25.747  1.00  0.00    -0.237 OA
ATOM     90  O   UNL A   1      43.066  18.709  25.203  1.00  0.00    -0.744 OA
ENDBRANCH  86  87
ENDBRANCH  54  79
BRANCH  66  91
ATOM     91  C   UNL A   1      49.523  26.523  26.473  1.00  0.00     0.058 A 
ATOM     92  C   UNL A   1      49.955  26.467  25.137  1.00  0.00     0.135 A 
ATOM     93  C   UNL A   1      50.410  26.081  27.467  1.00  0.00     0.135 A 
ATOM     94  F   UNL A   1      49.142  26.871  24.147  1.00  0.00    -0.206 F 
ATOM     95  C   UNL A   1      51.204  25.958  24.798  1.00  0.00     0.059 A 
ATOM     96  C   UNL A   1      51.675  25.595  27.152  1.00  0.00     0.059 A 
ATOM     97  F   UNL A   1      50.053  26.124  28.760  1.00  0.00    -0.206 F 
ATOM     98  C   UNL A   1      52.056  25.519  25.813  1.00  0.00     0.060 A 
BRANCH  98  99
ATOM     99  S   UNL A   1      53.677  24.866  25.362  1.00  0.00     0.124 S 
ATOM    100  O   UNL A   1      54.057  25.757  24.270  1.00  0.00    -0.237 OA
ATOM    101  O   UNL A   1      54.436  25.021  26.599  1.00  0.00    -0.237 OA
ATOM    102  O   UNL A   1      53.391  23.487  24.977  1.00  0.00    -0.744 OA
ENDBRANCH  98  99
ENDBRANCH  66  91
ENDBRANCH  40  41
ENDBRANCH  32  35
ENDBRANCH  30  31
ENDBRANCH  29  30
ENDBRANCH  28  29
ENDBRANCH   1  28
TORSDOF 21
ENDMDL
MODEL 3
REMARK VINA RESULT:     -11.4      1.048      2.037
REMARK SMILES CC(C)(C)OC(=O)N1CCC[C@](Cc2ccccc2)(C(=O)NCCCCCCNC(=O)c2ccc(-c3c4nc(c(-c5c(F)cc(S(=O)(=O)[O-])cc5F)c5ccc([nH]5)c(-c5c(F)cc(S(=O)(=O)[O-])cc5F)c5nc(c(-c6c(F)cc(S(=O)(=O)[O-])cc6F)c6ccc3[nH]6)C=C5)C=C4)cc2)C1
REMARK SMILES IDX 25 1 24 2 23 3 22 4 20 5 21 6 12 8 8 9 9 10 98 11 10 12
REMARK SMILES IDX 11 13 6 14 7 15 5 16 2 17 1 18 3 19 4 20 13 21 14 22 15 23
REMARK SMILES IDX 19 24 16 25 18 26 17 27 26 28 27 29 28 30 29 31 30 32 31 34
REMARK SMILES IDX 32 35 33 36 97 37 34 38 96 39 35 40 36 41 37 42 90 43 38 44
REMARK SMILES IDX 95 45 89 46 91 47 39 48 94 49 88 50 87 51 40 53 74 54 53 55
REMARK SMILES IDX 73 56 54 57 57 58 72 59 92 60 55 61 56 62 71 64 93 65 58 66
REMARK SMILES IDX 41 67 42 68 51 69 43 70 44 71 50 72 52 73 45 74 46 75 47 76
REMARK SMILES IDX 48 77 49 78 75 79 76 80 85 81 77 82 78 83 84 84 86 85 79 86
REMARK SMILES IDX 80 87 81 88 82 89 83 90 59 91 60 92 69 93 61 94 62 95 68 96
REMARK SMILES IDX 70 97 63 98 64 99 65 100 66 101 67 102
REMARK H PARENT 22 7 29 33 91 52 57 63
REMARK Flexibility Score: inf
ROOT
ATOM      1  C   UNL A   1      38.892  20.896  25.730  1.00  0.00     0.002 C 
ENDROOT
BRANCH   1   2
ATOM      2  C   UNL A   1      37.745  21.133  24.742  1.00  0.00     0.021 C 
BRANCH   2   3
ATOM      3  C   UNL A   1      36.433  21.527  25.409  1.00  0.00     0.116 C 
BRANCH   3   4
ATOM      4  N   UNL A   1      35.509  22.132  24.466  1.00  0.00    -0.356 N 
ATOM      5  C   UNL A   1      34.169  22.174  24.273  1.00  0.00     0.228 C 
ATOM      6  O   UNL A   1      33.847  22.976  23.386  1.00  0.00    -0.274 OA
ATOM      7  H   UNL A   1      35.987  22.653  23.781  1.00  0.00     0.163 HD
BRANCH   5   8
ATOM      8  C   UNL A   1      33.091  21.292  24.979  1.00  0.00     0.071 C 
ATOM      9  N   UNL A   1      31.839  23.201  26.051  1.00  0.00    -0.307 N 
ATOM     10  C   UNL A   1      32.260  22.838  27.394  1.00  0.00     0.123 C 
ATOM     11  C   UNL A   1      31.788  22.125  25.063  1.00  0.00     0.140 C 
ATOM     12  C   UNL A   1      33.595  22.116  27.399  1.00  0.00     0.023 C 
ATOM     13  C   UNL A   1      33.613  20.948  26.407  1.00  0.00     0.021 C 
BRANCH   9  14
ATOM     14  C   UNL A   1      31.379  24.489  25.817  1.00  0.00     0.410 C 
ATOM     15  O   UNL A   1      30.405  24.743  25.132  1.00  0.00    -0.224 OA
BRANCH  14  16
ATOM     16  O   UNL A   1      32.184  25.426  26.388  1.00  0.00    -0.444 OA
BRANCH  16  17
ATOM     17  C   UNL A   1      33.091  26.241  25.597  1.00  0.00     0.106 C 
ATOM     18  C   UNL A   1      32.531  26.180  24.167  1.00  0.00     0.056 C 
ATOM     19  C   UNL A   1      34.477  25.593  25.628  1.00  0.00     0.056 C 
ATOM     20  C   UNL A   1      33.152  27.718  26.013  1.00  0.00     0.056 C 
ENDBRANCH  16  17
ENDBRANCH  14  16
ENDBRANCH   9  14
BRANCH   8  21
ATOM     21  C   UNL A   1      32.840  19.985  24.188  1.00  0.00     0.054 C 
BRANCH  21  22
ATOM     22  C   UNL A   1      33.298  18.628  24.676  1.00  0.00    -0.047 A 
ATOM     23  C   UNL A   1      34.586  18.170  24.358  1.00  0.00     0.004 A 
ATOM     24  C   UNL A   1      32.405  17.743  25.298  1.00  0.00     0.004 A 
ATOM     25  C   UNL A   1      34.964  16.857  24.640  1.00  0.00     0.000 A 
ATOM     26  C   UNL A   1      32.791  16.434  25.594  1.00  0.00     0.000 A 
ATOM     27  C   UNL A   1      34.066  15.989  25.257  1.00  0.00     0.000 A 
ENDBRANCH  21  22
ENDBRANCH   8  21
ENDBRANCH   5   8
ENDBRANCH   3   4
ENDBRANCH   2   3
ENDBRANCH   1   2
BRANCH   1  28
ATOM     28  C   UNL A   1      39.366  22.138  26.498  1.00  0.00     0.002 C 
BRANCH  28  29
ATOM     29  C   UNL A   1      40.561  21.920  27.432  1.00  0.00     0.021 C 
BRANCH  29  30
ATOM     30  C   UNL A   1      41.464  23.136  27.613  1.00  0.00     0.116 C 
BRANCH  30  31
ATOM     31  N   UNL A   1      41.480  23.978  26.429  1.00  0.00    -0.352 N 
ATOM     32  C   UNL A   1      41.208  25.317  26.304  1.00  0.00     0.251 C 
ATOM     33  H   UNL A   1      41.721  23.520  25.592  1.00  0.00     0.163 HD
ATOM     34  O   UNL A   1      41.063  25.804  25.186  1.00  0.00    -0.269 OA
BRANCH  32  35
ATOM     35  C   UNL A   1      41.075  26.167  27.506  1.00  0.00     0.039 A 
ATOM     36  C   UNL A   1      42.068  27.114  27.771  1.00  0.00     0.014 A 
ATOM     37  C   UNL A   1      39.998  26.016  28.386  1.00  0.00     0.014 A 
ATOM     38  C   UNL A   1      41.957  27.940  28.891  1.00  0.00     0.010 A 
ATOM     39  C   UNL A   1      39.855  26.885  29.466  1.00  0.00     0.010 A 
ATOM     40  C   UNL A   1      40.835  27.852  29.733  1.00  0.00    -0.014 A 
BRANCH  40  41
ATOM     41  C   UNL A   1      40.674  28.783  30.877  1.00  0.00     0.031 A 
ATOM     42  C   UNL A   1      41.511  28.632  32.116  1.00  0.00     0.074 A 
ATOM     43  C   UNL A   1      39.730  29.742  30.813  1.00  0.00     0.049 A 
ATOM     44  N   UNL A   1      41.513  29.362  33.203  1.00  0.00    -0.248 NA
ATOM     45  C   UNL A   1      42.448  27.500  32.151  1.00  0.00     0.031 C 
ATOM     46  C   UNL A   1      38.806  29.941  29.694  1.00  0.00     0.029 A 
ATOM     47  N   UNL A   1      39.387  30.724  31.707  1.00  0.00    -0.354 N 
ATOM     48  C   UNL A   1      42.442  28.773  34.053  1.00  0.00     0.074 A 
ATOM     49  C   UNL A   1      42.942  27.595  33.377  1.00  0.00     0.031 C 
ATOM     50  C   UNL A   1      38.018  30.994  29.958  1.00  0.00     0.029 A 
ATOM     51  C   UNL A   1      38.363  31.530  31.272  1.00  0.00     0.049 A 
ATOM     52  H   UNL A   1      39.833  30.840  32.577  1.00  0.00     0.167 HD
ATOM     53  C   UNL A   1      42.856  29.188  35.276  1.00  0.00     0.037 A 
ATOM     54  C   UNL A   1      37.769  32.586  31.861  1.00  0.00     0.037 A 
ATOM     55  C   UNL A   1      42.361  30.368  35.937  1.00  0.00     0.049 A 
ATOM     56  C   UNL A   1      38.265  33.052  33.200  1.00  0.00     0.074 A 
ATOM     57  C   UNL A   1      42.766  30.919  37.140  1.00  0.00     0.029 A 
ATOM     58  N   UNL A   1      41.341  31.178  35.454  1.00  0.00    -0.354 N 
ATOM     59  N   UNL A   1      39.209  32.537  33.953  1.00  0.00    -0.248 NA
ATOM     60  C   UNL A   1      37.629  34.248  33.763  1.00  0.00     0.031 C 
ATOM     61  C   UNL A   1      41.963  32.033  37.407  1.00  0.00     0.029 A 
ATOM     62  C   UNL A   1      41.085  32.206  36.347  1.00  0.00     0.049 A 
ATOM     63  H   UNL A   1      40.868  31.041  34.602  1.00  0.00     0.167 HD
ATOM     64  C   UNL A   1      39.286  33.352  35.076  1.00  0.00     0.074 A 
ATOM     65  C   UNL A   1      38.308  34.407  34.891  1.00  0.00     0.031 C 
ATOM     66  C   UNL A   1      40.092  33.237  36.161  1.00  0.00     0.037 A 
BRANCH  53  67
ATOM     67  C   UNL A   1      43.892  28.348  35.973  1.00  0.00     0.058 A 
ATOM     68  C   UNL A   1      45.268  28.579  35.802  1.00  0.00     0.135 A 
ATOM     69  C   UNL A   1      43.509  27.293  36.818  1.00  0.00     0.135 A 
ATOM     70  F   UNL A   1      45.692  29.566  34.997  1.00  0.00    -0.206 F 
ATOM     71  C   UNL A   1      46.224  27.764  36.399  1.00  0.00     0.059 A 
ATOM     72  C   UNL A   1      44.449  26.483  37.449  1.00  0.00     0.059 A 
ATOM     73  F   UNL A   1      42.209  27.029  37.022  1.00  0.00    -0.206 F 
ATOM     74  C   UNL A   1      45.804  26.711  37.214  1.00  0.00     0.060 A 
BRANCH  74  75
ATOM     75  S   UNL A   1      47.053  25.637  37.952  1.00  0.00     0.124 S 
ATOM     76  O   UNL A   1      48.250  26.037  37.217  1.00  0.00    -0.237 OA
ATOM     77  O   UNL A   1      47.014  26.028  39.358  1.00  0.00    -0.237 OA
ATOM     78  O   UNL A   1      46.558  24.294  37.664  1.00  0.00    -0.744 OA
ENDBRANCH  74  75
ENDBRANCH  53  67
BRANCH  54  79
ATOM     79  C   UNL A   1      36.668  33.287  31.153  1.00  0.00     0.058 A 
ATOM     80  C   UNL A   1      36.923  34.077  30.024  1.00  0.00     0.135 A 
ATOM     81  C   UNL A   1      35.331  33.117  31.548  1.00  0.00     0.135 A 
ATOM     82  F   UNL A   1      38.185  34.271  29.612  1.00  0.00    -0.206 F 
ATOM     83  C   UNL A   1      35.891  34.670  29.303  1.00  0.00     0.059 A 
ATOM     84  C   UNL A   1      34.282  33.684  30.832  1.00  0.00     0.059 A 
ATOM     85  F   UNL A   1      35.036  32.355  32.612  1.00  0.00    -0.206 F 
ATOM     86  C   UNL A   1      34.572  34.458  29.709  1.00  0.00     0.060 A 
BRANCH  86  87
ATOM     87  S   UNL A   1      33.236  35.146  28.707  1.00  0.00     0.124 S 
ATOM     88  O   UNL A   1      32.751  33.961  28.009  1.00  0.00    -0.237 OA
ATOM     89  O   UNL A   1      32.347  35.700  29.722  1.00  0.00    -0.237 OA
ATOM     90  O   UNL A   1      33.917  36.135  27.876  1.00  0.00    -0.744 OA
ENDBRANCH  86  87
ENDBRANCH  54  79
BRANCH  66  91
ATOM     91  C   UNL A   1      39.944  34.280  37.234  1.00  0.00     0.058 A 
ATOM     92  C   UNL A   1      40.708  35.459  37.222  1.00  0.00     0.135 A 
ATOM     93  C   UNL A   1      39.017  34.110  38.274  1.00  0.00     0.135 A 
ATOM     94  F   UNL A   1      41.613  35.668  36.254  1.00  0.00    -0.206 F 
ATOM     95  C   UNL A   1      40.583  36.416  38.225  1.00  0.00     0.059 A 
ATOM     96  C   UNL A   1      38.856  35.067  39.271  1.00  0.00     0.059 A 
ATOM     97  F   UNL A   1      38.253  33.007  38.326  1.00  0.00    -0.206 F 
ATOM     98  C   UNL A   1      39.657  36.208  39.249  1.00  0.00     0.060 A 
BRANCH  98  99
ATOM     99  S   UNL A   1      39.499  37.458  40.541  1.00  0.00     0.124 S 
ATOM    100  O   UNL A   1      38.324  38.197  40.091  1.00  0.00    -0.237 OA
ATOM    101  O   UNL A   1      39.317  36.649  41.743  1.00  0.00    -0.237 OA
ATOM    102  O   UNL A   1      40.764  38.183  40.467  1.00  0.00    -0.744 OA
ENDBRANCH  98  99
ENDBRANCH  66  91
ENDBRANCH  40  41
ENDBRANCH  32  35
ENDBRANCH  30  31
ENDBRANCH  29  30
ENDBRANCH  28  29
ENDBRANCH   1  28
TORSDOF 21
ENDMDL
