MODEL 1
REMARK VINA RESULT:     -11.4      0.000      0.000
REMARK SMILES COc1ccc2c(CC(=O)NCCCCCCNC(=O)c3ccc(-c4c5nc(c(-c6c(F)cc(S(=O)(=O)[O-])cc6F)c6ccc([nH]6)c(-c6c(F)cc(S(=O)(=O)[O-])cc6F)c6nc(c(-c7c(F)cc(S(=O)(=O)[O-])cc7F)c7ccc4[nH]7)C=C6)C=C5)cc3)c(C(=O)c3cc(C)ccn3)[nH]c2c1
REMARK SMILES IDX 14 1 13 2 12 3 11 4 9 5 10 6 8 8 7 9 3 10 4 11 99 12 5 13
REMARK SMILES IDX 98 14 6 15 97 16 87 17 2 19 1 20 88 21 89 22 90 23 91 24
REMARK SMILES IDX 96 25 92 26 95 27 93 28 94 29 15 30 16 31 17 32 18 33 19 34
REMARK SMILES IDX 20 36 21 37 22 38 86 39 23 40 85 41 24 42 25 43 26 44 79 45
REMARK SMILES IDX 27 46 84 47 78 48 80 49 28 50 83 51 77 52 76 53 29 55 63 56
REMARK SMILES IDX 42 57 62 58 43 59 46 60 61 61 81 62 44 63 45 64 60 66 82 67
REMARK SMILES IDX 47 68 30 69 31 70 40 71 32 72 33 73 39 74 41 75 34 76 35 77
REMARK SMILES IDX 36 78 37 79 38 80 64 81 65 82 74 83 66 84 67 85 73 86 75 87
REMARK SMILES IDX 68 88 69 89 70 90 71 91 72 92 48 93 49 94 58 95 50 96 51 97
REMARK SMILES IDX 57 98 59 99 52 100 53 101 54 102 55 103 56 104
REMARK H PARENT 11 7 97 18 18 35 80 54 46 65
REMARK Flexibility Score: inf
ROOT
ATOM      1  C   UNL A   1      34.043  24.927  23.143  1.00  0.00     0.002 C 
ENDROOT
BRANCH   1   2
ATOM      2  C   UNL A   1      33.234  26.196  22.840  1.00  0.00     0.021 C 
BRANCH   2   3
ATOM      3  C   UNL A   1      31.919  25.939  22.105  1.00  0.00     0.116 C 
BRANCH   3   4
ATOM      4  N   UNL A   1      31.111  27.135  22.005  1.00  0.00    -0.356 N 
ATOM      5  C   UNL A   1      30.204  27.657  22.880  1.00  0.00     0.224 C 
ATOM      6  O   UNL A   1      29.769  28.785  22.625  1.00  0.00    -0.275 OA
ATOM      7  H   UNL A   1      31.235  27.653  21.176  1.00  0.00     0.163 HD
BRANCH   5   8
ATOM      8  C   UNL A   1      29.858  26.953  24.187  1.00  0.00     0.138 C 
BRANCH   8   9
ATOM      9  C   UNL A   1      30.938  26.942  25.238  1.00  0.00    -0.002 A 
ATOM     10  C   UNL A   1      33.555  29.860  26.799  1.00  0.00     0.120 A 
ATOM     11  C   UNL A   1      32.660  30.319  25.835  1.00  0.00     0.047 A 
ATOM     12  C   UNL A   1      33.580  28.510  27.164  1.00  0.00     0.073 A 
ATOM     13  C   UNL A   1      31.735  29.444  25.253  1.00  0.00     0.014 A 
ATOM     14  C   UNL A   1      32.640  27.653  26.578  1.00  0.00     0.050 A 
ATOM     15  C   UNL A   1      31.715  28.085  25.634  1.00  0.00     0.004 A 
ATOM     16  N   UNL A   1      32.428  26.310  26.763  1.00  0.00    -0.351 N 
ATOM     17  C   UNL A   1      31.333  25.874  26.046  1.00  0.00     0.093 A 
ATOM     18  H   UNL A   1      32.986  25.732  27.334  1.00  0.00     0.167 HD
BRANCH  10  19
ATOM     19  O   UNL A   1      34.489  30.652  27.413  1.00  0.00    -0.497 OA
ATOM     20  C   UNL A   1      33.970  31.874  27.933  1.00  0.00     0.278 C 
ENDBRANCH  10  19
BRANCH  17  21
ATOM     21  C   UNL A   1      30.751  24.539  26.129  1.00  0.00     0.227 C 
ATOM     22  O   UNL A   1      29.653  24.312  26.642  1.00  0.00    -0.285 OA
BRANCH  21  23
ATOM     23  C   UNL A   1      31.530  23.369  25.645  1.00  0.00     0.113 A 
ATOM     24  C   UNL A   1      31.389  22.939  24.328  1.00  0.00     0.036 A 
ATOM     25  N   UNL A   1      32.380  22.803  26.536  1.00  0.00    -0.253 NA
ATOM     26  C   UNL A   1      32.161  21.858  23.896  1.00  0.00    -0.047 A 
ATOM     27  C   UNL A   1      33.131  21.778  26.088  1.00  0.00     0.112 A 
ATOM     28  C   UNL A   1      32.062  21.339  22.494  1.00  0.00     0.044 C 
ATOM     29  C   UNL A   1      33.056  21.275  24.798  1.00  0.00     0.023 A 
ENDBRANCH  21  23
ENDBRANCH  17  21
ENDBRANCH   8   9
ENDBRANCH   5   8
ENDBRANCH   3   4
ENDBRANCH   2   3
ENDBRANCH   1   2
BRANCH   1  30
ATOM     30  C   UNL A   1      34.747  24.905  24.504  1.00  0.00     0.002 C 
BRANCH  30  31
ATOM     31  C   UNL A   1      35.874  23.877  24.643  1.00  0.00     0.021 C 
BRANCH  31  32
ATOM     32  C   UNL A   1      36.291  23.572  26.080  1.00  0.00     0.116 C 
BRANCH  32  33
ATOM     33  N   UNL A   1      37.320  22.545  26.144  1.00  0.00    -0.352 N 
ATOM     34  C   UNL A   1      38.668  22.675  26.363  1.00  0.00     0.251 C 
ATOM     35  H   UNL A   1      37.003  21.622  26.013  1.00  0.00     0.163 HD
ATOM     36  O   UNL A   1      39.411  21.708  26.195  1.00  0.00    -0.269 OA
BRANCH  34  37
ATOM     37  C   UNL A   1      39.234  23.975  26.782  1.00  0.00     0.039 A 
ATOM     38  C   UNL A   1      39.152  24.347  28.128  1.00  0.00     0.014 A 
ATOM     39  C   UNL A   1      39.828  24.835  25.853  1.00  0.00     0.014 A 
ATOM     40  C   UNL A   1      39.715  25.554  28.550  1.00  0.00     0.010 A 
ATOM     41  C   UNL A   1      40.444  26.007  26.286  1.00  0.00     0.010 A 
ATOM     42  C   UNL A   1      40.393  26.380  27.638  1.00  0.00    -0.014 A 
BRANCH  42  43
ATOM     43  C   UNL A   1      41.058  27.633  28.081  1.00  0.00     0.031 A 
ATOM     44  C   UNL A   1      42.553  27.768  27.998  1.00  0.00     0.074 A 
ATOM     45  C   UNL A   1      40.318  28.623  28.619  1.00  0.00     0.049 A 
ATOM     46  N   UNL A   1      43.317  28.751  28.399  1.00  0.00    -0.248 NA
ATOM     47  C   UNL A   1      43.290  26.637  27.410  1.00  0.00     0.031 C 
ATOM     48  C   UNL A   1      38.865  28.591  28.799  1.00  0.00     0.029 A 
ATOM     49  N   UNL A   1      40.687  29.843  29.126  1.00  0.00    -0.354 N 
ATOM     50  C   UNL A   1      44.622  28.354  28.128  1.00  0.00     0.074 A 
ATOM     51  C   UNL A   1      44.549  27.021  27.570  1.00  0.00     0.031 C 
ATOM     52  C   UNL A   1      38.465  29.744  29.359  1.00  0.00     0.029 A 
ATOM     53  C   UNL A   1      39.634  30.582  29.611  1.00  0.00     0.049 A 
ATOM     54  H   UNL A   1      41.620  30.160  29.142  1.00  0.00     0.167 HD
ATOM     55  C   UNL A   1      45.773  29.045  28.308  1.00  0.00     0.037 A 
ATOM     56  C   UNL A   1      39.612  31.795  30.197  1.00  0.00     0.037 A 
ATOM     57  C   UNL A   1      45.837  30.383  28.838  1.00  0.00     0.049 A 
ATOM     58  C   UNL A   1      40.901  32.548  30.378  1.00  0.00     0.074 A 
ATOM     59  C   UNL A   1      46.948  31.193  29.000  1.00  0.00     0.029 A 
ATOM     60  N   UNL A   1      44.746  31.109  29.293  1.00  0.00    -0.354 N 
ATOM     61  N   UNL A   1      42.120  32.182  30.057  1.00  0.00    -0.248 NA
ATOM     62  C   UNL A   1      40.814  33.879  30.991  1.00  0.00     0.031 C 
ATOM     63  C   UNL A   1      46.533  32.392  29.589  1.00  0.00     0.029 A 
ATOM     64  C   UNL A   1      45.158  32.348  29.752  1.00  0.00     0.049 A 
ATOM     65  H   UNL A   1      43.814  30.789  29.289  1.00  0.00     0.167 HD
ATOM     66  C   UNL A   1      42.941  33.248  30.410  1.00  0.00     0.074 A 
ATOM     67  C   UNL A   1      42.079  34.276  30.956  1.00  0.00     0.031 C 
ATOM     68  C   UNL A   1      44.287  33.363  30.290  1.00  0.00     0.037 A 
BRANCH  55  69
ATOM     69  C   UNL A   1      47.059  28.367  27.923  1.00  0.00     0.058 A 
ATOM     70  C   UNL A   1      47.579  28.459  26.622  1.00  0.00     0.135 A 
ATOM     71  C   UNL A   1      47.798  27.644  28.874  1.00  0.00     0.135 A 
ATOM     72  F   UNL A   1      46.907  29.126  25.671  1.00  0.00    -0.206 F 
ATOM     73  C   UNL A   1      48.769  27.830  26.268  1.00  0.00     0.059 A 
ATOM     74  C   UNL A   1      49.004  27.030  28.548  1.00  0.00     0.059 A 
ATOM     75  F   UNL A   1      47.349  27.525  30.133  1.00  0.00    -0.206 F 
ATOM     76  C   UNL A   1      49.473  27.116  27.238  1.00  0.00     0.060 A 
BRANCH  76  77
ATOM     77  S   UNL A   1      51.015  26.305  26.764  1.00  0.00     0.124 S 
ATOM     78  O   UNL A   1      51.998  27.112  27.478  1.00  0.00    -0.237 OA
ATOM     79  O   UNL A   1      50.823  24.948  27.267  1.00  0.00    -0.237 OA
ATOM     80  O   UNL A   1      51.034  26.434  25.310  1.00  0.00    -0.744 OA
ENDBRANCH  76  77
ENDBRANCH  55  69
BRANCH  56  81
ATOM     81  C   UNL A   1      38.318  32.381  30.637  1.00  0.00     0.058 A 
ATOM     82  C   UNL A   1      37.845  32.185  31.942  1.00  0.00     0.135 A 
ATOM     83  C   UNL A   1      37.540  33.161  29.768  1.00  0.00     0.135 A 
ATOM     84  F   UNL A   1      38.551  31.440  32.806  1.00  0.00    -0.206 F 
ATOM     85  C   UNL A   1      36.638  32.729  32.369  1.00  0.00     0.059 A 
ATOM     86  C   UNL A   1      36.340  33.735  30.179  1.00  0.00     0.059 A 
ATOM     87  F   UNL A   1      37.957  33.392  28.514  1.00  0.00    -0.206 F 
ATOM     88  C   UNL A   1      35.893  33.505  31.480  1.00  0.00     0.060 A 
BRANCH  88  89
ATOM     89  S   UNL A   1      34.353  34.250  32.058  1.00  0.00     0.124 S 
ATOM     90  O   UNL A   1      34.847  35.384  32.831  1.00  0.00    -0.237 OA
ATOM     91  O   UNL A   1      33.680  34.576  30.805  1.00  0.00    -0.237 OA
ATOM     92  O   UNL A   1      33.733  33.179  32.833  1.00  0.00    -0.744 OA
ENDBRANCH  88  89
ENDBRANCH  56  81
BRANCH  68  93
ATOM     93  C   UNL A   1      44.910  34.657  30.736  1.00  0.00     0.058 A 
ATOM     94  C   UNL A   1      45.033  35.752  29.869  1.00  0.00     0.135 A 
ATOM     95  C   UNL A   1      45.343  34.817  32.063  1.00  0.00     0.135 A 
ATOM     96  F   UNL A   1      44.640  35.649  28.589  1.00  0.00    -0.206 F 
ATOM     97  C   UNL A   1      45.584  36.956  30.294  1.00  0.00     0.059 A 
ATOM     98  C   UNL A   1      45.875  36.020  32.517  1.00  0.00     0.059 A 
ATOM     99  F   UNL A   1      45.237  33.802  32.936  1.00  0.00    -0.206 F 
ATOM    100  C   UNL A   1      46.002  37.081  31.621  1.00  0.00     0.060 A 
BRANCH 100 101
ATOM    101  S   UNL A   1      46.685  38.659  32.170  1.00  0.00     0.124 S 
ATOM    102  O   UNL A   1      47.579  38.992  31.066  1.00  0.00    -0.237 OA
ATOM    103  O   UNL A   1      45.492  39.491  32.293  1.00  0.00    -0.237 OA
ATOM    104  O   UNL A   1      47.340  38.325  33.431  1.00  0.00    -0.744 OA
ENDBRANCH 100 101
ENDBRANCH  68  93
ENDBRANCH  42  43
ENDBRANCH  34  37
ENDBRANCH  32  33
ENDBRANCH  31  32
ENDBRANCH  30  31
ENDBRANCH   1  30
TORSDOF 20
ENDMDL
MODEL 2
REMARK VINA RESULT:     -11.3      2.904      9.064
REMARK SMILES COc1ccc2c(CC(=O)NCCCCCCNC(=O)c3ccc(-c4c5nc(c(-c6c(F)cc(S(=O)(=O)[O-])cc6F)c6ccc([nH]6)c(-c6c(F)cc(S(=O)(=O)[O-])cc6F)c6nc(c(-c7c(F)cc(S(=O)(=O)[O-])cc7F)c7ccc4[nH]7)C=C6)C=C5)cc3)c(C(=O)c3cc(C)ccn3)[nH]c2c1
REMARK SMILES IDX 14 1 13 2 12 3 11 4 9 5 10 6 8 8 7 9 3 10 4 11 99 12 5 13
REMARK SMILES IDX 98 14 6 15 97 16 87 17 2 19 1 20 88 21 89 22 90 23 91 24
REMARK SMILES IDX 96 25 92 26 95 27 93 28 94 29 15 30 16 31 17 32 18 33 19 34
REMARK SMILES IDX 20 36 21 37 22 38 86 39 23 40 85 41 24 42 25 43 26 44 79 45
REMARK SMILES IDX 27 46 84 47 78 48 80 49 28 50 83 51 77 52 76 53 29 55 63 56
REMARK SMILES IDX 42 57 62 58 43 59 46 60 61 61 81 62 44 63 45 64 60 66 82 67
REMARK SMILES IDX 47 68 30 69 31 70 40 71 32 72 33 73 39 74 41 75 34 76 35 77
REMARK SMILES IDX 36 78 37 79 38 80 64 81 65 82 74 83 66 84 67 85 73 86 75 87
REMARK SMILES IDX 68 88 69 89 70 90 71 91 72 92 48 93 49 94 58 95 50 96 51 97
REMARK SMILES IDX 57 98 59 99 52 100 53 101 54 102 55 103 56 104
REMARK H PARENT 11 7 97 18 18 35 80 54 46 65
REMARK Flexibility Score: inf
ROOT
ATOM      1  C   UNL A   1      31.677  25.252  26.555  1.00  0.00     0.002 C 
ENDROOT
BRANCH   1   2
ATOM      2  C   UNL A   1      32.020  23.784  26.842  1.00  0.00     0.021 C 
BRANCH   2   3
ATOM      3  C   UNL A   1      31.186  22.780  26.049  1.00  0.00     0.116 C 
BRANCH   3   4
ATOM      4  N   UNL A   1      30.519  23.397  24.923  1.00  0.00    -0.356 N 
ATOM      5  C   UNL A   1      30.837  23.376  23.596  1.00  0.00     0.224 C 
ATOM      6  O   UNL A   1      30.004  23.851  22.817  1.00  0.00    -0.275 OA
ATOM      7  H   UNL A   1      29.710  23.912  25.149  1.00  0.00     0.163 HD
BRANCH   5   8
ATOM      8  C   UNL A   1      32.084  22.665  23.084  1.00  0.00     0.138 C 
BRANCH   8   9
ATOM      9  C   UNL A   1      33.400  23.325  23.405  1.00  0.00    -0.002 A 
ATOM     10  C   UNL A   1      36.745  22.240  25.735  1.00  0.00     0.120 A 
ATOM     11  C   UNL A   1      35.728  21.291  25.676  1.00  0.00     0.047 A 
ATOM     12  C   UNL A   1      36.609  23.472  25.086  1.00  0.00     0.073 A 
ATOM     13  C   UNL A   1      34.573  21.534  24.924  1.00  0.00     0.014 A 
ATOM     14  C   UNL A   1      35.450  23.692  24.330  1.00  0.00     0.050 A 
ATOM     15  C   UNL A   1      34.429  22.754  24.229  1.00  0.00     0.004 A 
ATOM     16  N   UNL A   1      35.070  24.782  23.587  1.00  0.00    -0.351 N 
ATOM     17  C   UNL A   1      33.882  24.546  22.927  1.00  0.00     0.093 A 
ATOM     18  H   UNL A   1      35.580  25.623  23.533  1.00  0.00     0.167 HD
BRANCH  10  19
ATOM     19  O   UNL A   1      37.904  22.077  26.448  1.00  0.00    -0.497 OA
ATOM     20  C   UNL A   1      39.092  22.310  25.696  1.00  0.00     0.278 C 
ENDBRANCH  10  19
BRANCH  17  21
ATOM     21  C   UNL A   1      33.274  25.438  21.946  1.00  0.00     0.227 C 
ATOM     22  O   UNL A   1      33.228  25.186  20.741  1.00  0.00    -0.285 OA
BRANCH  21  23
ATOM     23  C   UNL A   1      32.741  26.754  22.387  1.00  0.00     0.113 A 
ATOM     24  C   UNL A   1      31.366  26.936  22.521  1.00  0.00     0.036 A 
ATOM     25  N   UNL A   1      33.659  27.710  22.670  1.00  0.00    -0.253 NA
ATOM     26  C   UNL A   1      30.902  28.175  22.968  1.00  0.00    -0.047 A 
ATOM     27  C   UNL A   1      33.187  28.887  23.123  1.00  0.00     0.112 A 
ATOM     28  C   UNL A   1      29.437  28.444  23.136  1.00  0.00     0.044 C 
ATOM     29  C   UNL A   1      31.837  29.164  23.283  1.00  0.00     0.023 A 
ENDBRANCH  21  23
ENDBRANCH  17  21
ENDBRANCH   8   9
ENDBRANCH   5   8
ENDBRANCH   3   4
ENDBRANCH   2   3
ENDBRANCH   1   2
BRANCH   1  30
ATOM     30  C   UNL A   1      32.862  26.139  26.157  1.00  0.00     0.002 C 
BRANCH  30  31
ATOM     31  C   UNL A   1      32.736  27.615  26.547  1.00  0.00     0.021 C 
BRANCH  31  32
ATOM     32  C   UNL A   1      34.062  28.363  26.664  1.00  0.00     0.116 C 
BRANCH  32  33
ATOM     33  N   UNL A   1      33.885  29.713  27.179  1.00  0.00    -0.352 N 
ATOM     34  C   UNL A   1      34.719  30.460  27.971  1.00  0.00     0.251 C 
ATOM     35  H   UNL A   1      33.044  30.156  26.919  1.00  0.00     0.163 HD
ATOM     36  O   UNL A   1      34.314  31.514  28.462  1.00  0.00    -0.269 OA
BRANCH  34  37
ATOM     37  C   UNL A   1      36.094  29.995  28.253  1.00  0.00     0.039 A 
ATOM     38  C   UNL A   1      37.066  30.109  27.253  1.00  0.00     0.014 A 
ATOM     39  C   UNL A   1      36.425  29.433  29.489  1.00  0.00     0.014 A 
ATOM     40  C   UNL A   1      38.379  29.712  27.513  1.00  0.00     0.010 A 
ATOM     41  C   UNL A   1      37.748  29.096  29.768  1.00  0.00     0.010 A 
ATOM     42  C   UNL A   1      38.738  29.231  28.783  1.00  0.00    -0.014 A 
BRANCH  42  43
ATOM     43  C   UNL A   1      40.144  28.868  29.100  1.00  0.00     0.031 A 
ATOM     44  C   UNL A   1      41.060  29.874  29.742  1.00  0.00     0.074 A 
ATOM     45  C   UNL A   1      40.613  27.654  28.748  1.00  0.00     0.049 A 
ATOM     46  N   UNL A   1      42.332  29.767  30.028  1.00  0.00    -0.248 NA
ATOM     47  C   UNL A   1      40.476  31.180  30.083  1.00  0.00     0.031 C 
ATOM     48  C   UNL A   1      39.836  26.610  28.076  1.00  0.00     0.029 A 
ATOM     49  N   UNL A   1      41.858  27.097  28.895  1.00  0.00    -0.354 N 
ATOM     50  C   UNL A   1      42.705  30.994  30.567  1.00  0.00     0.074 A 
ATOM     51  C   UNL A   1      41.535  31.844  30.526  1.00  0.00     0.031 C 
ATOM     52  C   UNL A   1      40.617  25.535  27.884  1.00  0.00     0.029 A 
ATOM     53  C   UNL A   1      41.957  25.824  28.387  1.00  0.00     0.049 A 
ATOM     54  H   UNL A   1      42.611  27.566  29.324  1.00  0.00     0.167 HD
ATOM     55  C   UNL A   1      43.905  31.369  31.070  1.00  0.00     0.037 A 
ATOM     56  C   UNL A   1      43.010  24.985  28.326  1.00  0.00     0.037 A 
ATOM     57  C   UNL A   1      45.058  30.508  31.135  1.00  0.00     0.049 A 
ATOM     58  C   UNL A   1      44.330  25.420  28.900  1.00  0.00     0.074 A 
ATOM     59  C   UNL A   1      46.301  30.773  31.683  1.00  0.00     0.029 A 
ATOM     60  N   UNL A   1      45.112  29.216  30.634  1.00  0.00    -0.354 N 
ATOM     61  N   UNL A   1      44.647  26.561  29.463  1.00  0.00    -0.248 NA
ATOM     62  C   UNL A   1      45.434  24.453  28.837  1.00  0.00     0.031 C 
ATOM     63  C   UNL A   1      47.117  29.655  31.479  1.00  0.00     0.029 A 
ATOM     64  C   UNL A   1      46.370  28.677  30.844  1.00  0.00     0.049 A 
ATOM     65  H   UNL A   1      44.364  28.749  30.195  1.00  0.00     0.167 HD
ATOM     66  C   UNL A   1      45.980  26.441  29.842  1.00  0.00     0.074 A 
ATOM     67  C   UNL A   1      46.405  25.111  29.455  1.00  0.00     0.031 C 
ATOM     68  C   UNL A   1      46.778  27.350  30.456  1.00  0.00     0.037 A 
BRANCH  55  69
ATOM     69  C   UNL A   1      44.031  32.772  31.596  1.00  0.00     0.058 A 
ATOM     70  C   UNL A   1      43.715  33.091  32.927  1.00  0.00     0.135 A 
ATOM     71  C   UNL A   1      44.504  33.805  30.770  1.00  0.00     0.135 A 
ATOM     72  F   UNL A   1      43.245  32.146  33.755  1.00  0.00    -0.206 F 
ATOM     73  C   UNL A   1      43.831  34.390  33.411  1.00  0.00     0.059 A 
ATOM     74  C   UNL A   1      44.654  35.106  31.242  1.00  0.00     0.059 A 
ATOM     75  F   UNL A   1      44.823  33.557  29.491  1.00  0.00    -0.206 F 
ATOM     76  C   UNL A   1      44.300  35.392  32.559  1.00  0.00     0.060 A 
BRANCH  76  77
ATOM     77  S   UNL A   1      44.445  37.073  33.202  1.00  0.00     0.124 S 
ATOM     78  O   UNL A   1      45.882  37.302  33.091  1.00  0.00    -0.237 OA
ATOM     79  O   UNL A   1      43.609  37.835  32.279  1.00  0.00    -0.237 OA
ATOM     80  O   UNL A   1      43.931  36.963  34.563  1.00  0.00    -0.744 OA
ENDBRANCH  76  77
ENDBRANCH  55  69
BRANCH  56  81
ATOM     81  C   UNL A   1      42.849  23.638  27.716  1.00  0.00     0.058 A 
ATOM     82  C   UNL A   1      43.036  23.444  26.340  1.00  0.00     0.135 A 
ATOM     83  C   UNL A   1      42.524  22.520  28.497  1.00  0.00     0.135 A 
ATOM     84  F   UNL A   1      43.341  24.486  25.552  1.00  0.00    -0.206 F 
ATOM     85  C   UNL A   1      42.892  22.190  25.755  1.00  0.00     0.059 A 
ATOM     86  C   UNL A   1      42.397  21.250  27.939  1.00  0.00     0.059 A 
ATOM     87  F   UNL A   1      42.351  22.649  29.821  1.00  0.00    -0.206 F 
ATOM     88  C   UNL A   1      42.574  21.098  26.564  1.00  0.00     0.060 A 
BRANCH  88  89
ATOM     89  S   UNL A   1      42.440  19.465  25.804  1.00  0.00     0.124 S 
ATOM     90  O   UNL A   1      43.427  19.557  24.735  1.00  0.00    -0.237 OA
ATOM     91  O   UNL A   1      42.780  18.581  26.915  1.00  0.00    -0.237 OA
ATOM     92  O   UNL A   1      41.046  19.410  25.374  1.00  0.00    -0.744 OA
ENDBRANCH  88  89
ENDBRANCH  56  81
BRANCH  68  93
ATOM     93  C   UNL A   1      48.186  26.929  30.771  1.00  0.00     0.058 A 
ATOM     94  C   UNL A   1      49.223  27.069  29.837  1.00  0.00     0.135 A 
ATOM     95  C   UNL A   1      48.509  26.425  32.042  1.00  0.00     0.135 A 
ATOM     96  F   UNL A   1      48.965  27.540  28.606  1.00  0.00    -0.206 F 
ATOM     97  C   UNL A   1      50.530  26.704  30.143  1.00  0.00     0.059 A 
ATOM     98  C   UNL A   1      49.814  26.076  32.378  1.00  0.00     0.059 A 
ATOM     99  F   UNL A   1      47.555  26.281  32.975  1.00  0.00    -0.206 F 
ATOM    100  C   UNL A   1      50.816  26.210  31.417  1.00  0.00     0.060 A 
BRANCH 100 101
ATOM    101  S   UNL A   1      52.521  25.771  31.814  1.00  0.00     0.124 S 
ATOM    102  O   UNL A   1      53.205  26.089  30.565  1.00  0.00    -0.237 OA
ATOM    103  O   UNL A   1      52.818  26.649  32.941  1.00  0.00    -0.237 OA
ATOM    104  O   UNL A   1      52.439  24.350  32.140  1.00  0.00    -0.744 OA
ENDBRANCH 100 101
ENDBRANCH  68  93
ENDBRANCH  42  43
ENDBRANCH  34  37
ENDBRANCH  32  33
ENDBRANCH  31  32
ENDBRANCH  30  31
ENDBRANCH   1  30
TORSDOF 20
ENDMDL
MODEL 3
REMARK VINA RESULT:     -11.1      4.846      6.517
REMARK SMILES COc1ccc2c(CC(=O)NCCCCCCNC(=O)c3ccc(-c4c5nc(c(-c6c(F)cc(S(=O)(=O)[O-])cc6F)c6ccc([nH]6)c(-c6c(F)cc(S(=O)(=O)[O-])cc6F)c6nc(c(-c7c(F)cc(S(=O)(=O)[O-])cc7F)c7ccc4[nH]7)C=C6)C=C5)cc3)c(C(=O)c3cc(C)ccn3)[nH]c2c1
REMARK SMILES IDX 14 1 13 2 12 3 11 4 9 5 10 6 8 8 7 9 3 10 4 11 99 12 5 13
REMARK SMILES IDX 98 14 6 15 97 16 87 17 2 19 1 20 88 21 89 22 90 23 91 24
REMARK SMILES IDX 96 25 92 26 95 27 93 28 94 29 15 30 16 31 17 32 18 33 19 34
REMARK SMILES IDX 20 36 21 37 22 38 86 39 23 40 85 41 24 42 25 43 26 44 79 45
REMARK SMILES IDX 27 46 84 47 78 48 80 49 28 50 83 51 77 52 76 53 29 55 63 56
REMARK SMILES IDX 42 57 62 58 43 59 46 60 61 61 81 62 44 63 45 64 60 66 82 67
REMARK SMILES IDX 47 68 30 69 31 70 40 71 32 72 33 73 39 74 41 75 34 76 35 77
REMARK SMILES IDX 36 78 37 79 38 80 64 81 65 82 74 83 66 84 67 85 73 86 75 87
REMARK SMILES IDX 68 88 69 89 70 90 71 91 72 92 48 93 49 94 58 95 50 96 51 97
REMARK SMILES IDX 57 98 59 99 52 100 53 101 54 102 55 103 56 104
REMARK H PARENT 11 7 97 18 18 35 80 54 46 65
REMARK Flexibility Score: inf
ROOT
ATOM      1  C   UNL A   1      39.415  22.612  26.510  1.00  0.00     0.002 C 
ENDROOT
BRANCH   1   2
ATOM      2  C   UNL A   1      38.836  21.462  25.675  1.00  0.00     0.021 C 
BRANCH   2   3
ATOM      3  C   UNL A   1      37.310  21.409  25.655  1.00  0.00     0.116 C 
BRANCH   3   4
ATOM      4  N   UNL A   1      36.763  21.961  24.434  1.00  0.00    -0.356 N 
ATOM      5  C   UNL A   1      36.115  23.142  24.218  1.00  0.00     0.224 C 
ATOM      6  O   UNL A   1      35.895  23.449  23.042  1.00  0.00    -0.275 OA
ATOM      7  H   UNL A   1      36.877  21.397  23.634  1.00  0.00     0.163 HD
BRANCH   5   8
ATOM      8  C   UNL A   1      35.815  24.109  25.357  1.00  0.00     0.138 C 
BRANCH   8   9
ATOM      9  C   UNL A   1      34.358  24.338  25.664  1.00  0.00    -0.002 A 
ATOM     10  C   UNL A   1      31.740  27.617  25.231  1.00  0.00     0.120 A 
ATOM     11  C   UNL A   1      33.037  27.828  24.772  1.00  0.00     0.047 A 
ATOM     12  C   UNL A   1      31.382  26.403  25.825  1.00  0.00     0.073 A 
ATOM     13  C   UNL A   1      33.993  26.808  24.852  1.00  0.00     0.014 A 
ATOM     14  C   UNL A   1      32.349  25.391  25.888  1.00  0.00     0.050 A 
ATOM     15  C   UNL A   1      33.645  25.560  25.413  1.00  0.00     0.004 A 
ATOM     16  N   UNL A   1      32.267  24.117  26.391  1.00  0.00    -0.351 N 
ATOM     17  C   UNL A   1      33.437  23.418  26.171  1.00  0.00     0.093 A 
ATOM     18  H   UNL A   1      31.477  23.750  26.850  1.00  0.00     0.167 HD
BRANCH  10  19
ATOM     19  O   UNL A   1      30.750  28.564  25.188  1.00  0.00    -0.497 OA
ATOM     20  C   UNL A   1      31.001  29.633  24.278  1.00  0.00     0.278 C 
ENDBRANCH  10  19
BRANCH  17  21
ATOM     21  C   UNL A   1      33.635  22.000  26.451  1.00  0.00     0.227 C 
ATOM     22  O   UNL A   1      34.192  21.585  27.469  1.00  0.00    -0.285 OA
BRANCH  21  23
ATOM     23  C   UNL A   1      33.218  20.990  25.443  1.00  0.00     0.113 A 
ATOM     24  C   UNL A   1      32.714  21.405  24.213  1.00  0.00     0.036 A 
ATOM     25  N   UNL A   1      33.394  19.691  25.787  1.00  0.00    -0.253 NA
ATOM     26  C   UNL A   1      32.363  20.430  23.277  1.00  0.00    -0.047 A 
ATOM     27  C   UNL A   1      33.072  18.771  24.857  1.00  0.00     0.112 A 
ATOM     28  C   UNL A   1      31.814  20.801  21.933  1.00  0.00     0.044 C 
ATOM     29  C   UNL A   1      32.557  19.086  23.608  1.00  0.00     0.023 A 
ENDBRANCH  21  23
ENDBRANCH  17  21
ENDBRANCH   8   9
ENDBRANCH   5   8
ENDBRANCH   3   4
ENDBRANCH   2   3
ENDBRANCH   1   2
BRANCH   1  30
ATOM     30  C   UNL A   1      40.402  22.197  27.607  1.00  0.00     0.002 C 
BRANCH  30  31
ATOM     31  C   UNL A   1      41.854  22.023  27.151  1.00  0.00     0.021 C 
BRANCH  31  32
ATOM     32  C   UNL A   1      42.687  23.302  27.156  1.00  0.00     0.116 C 
BRANCH  32  33
ATOM     33  N   UNL A   1      42.438  24.122  25.981  1.00  0.00    -0.352 N 
ATOM     34  C   UNL A   1      41.947  25.401  25.897  1.00  0.00     0.251 C 
ATOM     35  H   UNL A   1      42.655  23.699  25.118  1.00  0.00     0.163 HD
ATOM     36  O   UNL A   1      41.627  25.863  24.802  1.00  0.00    -0.269 OA
BRANCH  34  37
ATOM     37  C   UNL A   1      41.783  26.218  27.119  1.00  0.00     0.039 A 
ATOM     38  C   UNL A   1      42.684  27.258  27.363  1.00  0.00     0.014 A 
ATOM     39  C   UNL A   1      40.758  25.950  28.032  1.00  0.00     0.014 A 
ATOM     40  C   UNL A   1      42.523  28.066  28.491  1.00  0.00     0.010 A 
ATOM     41  C   UNL A   1      40.561  26.795  29.122  1.00  0.00     0.010 A 
ATOM     42  C   UNL A   1      41.442  27.861  29.364  1.00  0.00    -0.014 A 
BRANCH  42  43
ATOM     43  C   UNL A   1      41.215  28.752  30.531  1.00  0.00     0.031 A 
ATOM     44  C   UNL A   1      42.050  28.603  31.773  1.00  0.00     0.074 A 
ATOM     45  C   UNL A   1      40.212  29.652  30.494  1.00  0.00     0.049 A 
ATOM     46  N   UNL A   1      41.954  29.237  32.913  1.00  0.00    -0.248 NA
ATOM     47  C   UNL A   1      43.116  27.590  31.738  1.00  0.00     0.031 C 
ATOM     48  C   UNL A   1      39.301  29.857  29.366  1.00  0.00     0.029 A 
ATOM     49  N   UNL A   1      39.780  30.552  31.435  1.00  0.00    -0.354 N 
ATOM     50  C   UNL A   1      42.934  28.691  33.736  1.00  0.00     0.074 A 
ATOM     51  C   UNL A   1      43.583  27.643  32.978  1.00  0.00     0.031 C 
ATOM     52  C   UNL A   1      38.431  30.833  29.674  1.00  0.00     0.029 A 
ATOM     53  C   UNL A   1      38.698  31.298  31.032  1.00  0.00     0.049 A 
ATOM     54  H   UNL A   1      40.206  30.654  32.318  1.00  0.00     0.167 HD
ATOM     55  C   UNL A   1      43.275  29.046  34.997  1.00  0.00     0.037 A 
ATOM     56  C   UNL A   1      37.996  32.245  31.684  1.00  0.00     0.037 A 
ATOM     57  C   UNL A   1      42.645  30.110  35.736  1.00  0.00     0.049 A 
ATOM     58  C   UNL A   1      38.400  32.629  33.081  1.00  0.00     0.074 A 
ATOM     59  C   UNL A   1      42.960  30.588  36.996  1.00  0.00     0.029 A 
ATOM     60  N   UNL A   1      41.570  30.860  35.283  1.00  0.00    -0.354 N 
ATOM     61  N   UNL A   1      39.370  32.145  33.820  1.00  0.00    -0.248 NA
ATOM     62  C   UNL A   1      37.621  33.691  33.730  1.00  0.00     0.031 C 
ATOM     63  C   UNL A   1      42.051  31.601  37.320  1.00  0.00     0.029 A 
ATOM     64  C   UNL A   1      41.197  31.785  36.245  1.00  0.00     0.049 A 
ATOM     65  H   UNL A   1      41.135  30.752  34.406  1.00  0.00     0.167 HD
ATOM     66  C   UNL A   1      39.331  32.859  35.012  1.00  0.00     0.074 A 
ATOM     67  C   UNL A   1      38.251  33.816  34.890  1.00  0.00     0.031 C 
ATOM     68  C   UNL A   1      40.121  32.734  36.108  1.00  0.00     0.037 A 
BRANCH  55  69
ATOM     69  C   UNL A   1      44.387  28.278  35.659  1.00  0.00     0.058 A 
ATOM     70  C   UNL A   1      44.136  27.113  36.401  1.00  0.00     0.135 A 
ATOM     71  C   UNL A   1      45.721  28.694  35.524  1.00  0.00     0.135 A 
ATOM     72  F   UNL A   1      42.878  26.679  36.574  1.00  0.00    -0.206 F 
ATOM     73  C   UNL A   1      45.166  26.405  37.014  1.00  0.00     0.059 A 
ATOM     74  C   UNL A   1      46.769  27.986  36.106  1.00  0.00     0.059 A 
ATOM     75  F   UNL A   1      46.019  29.801  34.824  1.00  0.00    -0.206 F 
ATOM     76  C   UNL A   1      46.479  26.852  36.862  1.00  0.00     0.060 A 
BRANCH  76  77
ATOM     77  S   UNL A   1      47.804  25.923  37.663  1.00  0.00     0.124 S 
ATOM     78  O   UNL A   1      48.933  26.213  36.785  1.00  0.00    -0.237 OA
ATOM     79  O   UNL A   1      47.860  26.535  38.987  1.00  0.00    -0.237 OA
ATOM     80  O   UNL A   1      47.322  24.546  37.632  1.00  0.00    -0.744 OA
ENDBRANCH  76  77
ENDBRANCH  55  69
BRANCH  56  81
ATOM     81  C   UNL A   1      36.850  32.912  31.010  1.00  0.00     0.058 A 
ATOM     82  C   UNL A   1      35.529  32.576  31.336  1.00  0.00     0.135 A 
ATOM     83  C   UNL A   1      37.053  33.906  30.042  1.00  0.00     0.135 A 
ATOM     84  F   UNL A   1      35.285  31.626  32.252  1.00  0.00    -0.206 F 
ATOM     85  C   UNL A   1      34.446  33.193  30.718  1.00  0.00     0.059 A 
ATOM     86  C   UNL A   1      35.986  34.555  29.425  1.00  0.00     0.059 A 
ATOM     87  F   UNL A   1      38.299  34.276  29.706  1.00  0.00    -0.206 F 
ATOM     88  C   UNL A   1      34.686  34.183  29.764  1.00  0.00     0.060 A 
BRANCH  88  89
ATOM     89  S   UNL A   1      33.275  35.015  29.002  1.00  0.00     0.124 S 
ATOM     90  O   UNL A   1      32.420  35.260  30.158  1.00  0.00    -0.237 OA
ATOM     91  O   UNL A   1      33.898  36.192  28.405  1.00  0.00    -0.237 OA
ATOM     92  O   UNL A   1      32.779  34.027  28.048  1.00  0.00    -0.744 OA
ENDBRANCH  88  89
ENDBRANCH  56  81
BRANCH  68  93
ATOM     93  C   UNL A   1      39.862  33.671  37.254  1.00  0.00     0.058 A 
ATOM     94  C   UNL A   1      40.492  34.920  37.342  1.00  0.00     0.135 A 
ATOM     95  C   UNL A   1      38.933  33.332  38.252  1.00  0.00     0.135 A 
ATOM     96  F   UNL A   1      41.394  35.289  36.416  1.00  0.00    -0.206 F 
ATOM     97  C   UNL A   1      40.228  35.795  38.390  1.00  0.00     0.059 A 
ATOM     98  C   UNL A   1      38.635  34.202  39.297  1.00  0.00     0.059 A 
ATOM     99  F   UNL A   1      38.294  32.152  38.210  1.00  0.00    -0.206 F 
ATOM    100  C   UNL A   1      39.297  35.427  39.363  1.00  0.00     0.060 A 
BRANCH 100 101
ATOM    101  S   UNL A   1      38.938  36.585  40.700  1.00  0.00     0.124 S 
ATOM    102  O   UNL A   1      37.927  35.854  41.458  1.00  0.00    -0.237 OA
ATOM    103  O   UNL A   1      40.237  36.728  41.350  1.00  0.00    -0.237 OA
ATOM    104  O   UNL A   1      38.461  37.775  40.001  1.00  0.00    -0.744 OA
ENDBRANCH 100 101
ENDBRANCH  68  93
ENDBRANCH  42  43
ENDBRANCH  34  37
ENDBRANCH  32  33
ENDBRANCH  31  32
ENDBRANCH  30  31
ENDBRANCH   1  30
TORSDOF 20
ENDMDL
