MODEL 1
REMARK VINA RESULT:     -12.4      0.000      0.000
REMARK SMILES C[NH+](C)CCc1nc(Nc2ccc(O)c(C(=O)NCCCCCCNC(=O)c3ccc(-c4c5nc(c(-c6c(F)cc(S(=O)(=O)[O-])cc6F)c6ccc([nH]6)c(-c6c(F)cc(S(=O)(=O)[O-])cc6F)c6nc(c(-c7c(F)cc(S(=O)(=O)[O-])cc7F)c7ccc4[nH]7)C=C6)C=C5)cc3)c2)c2ccccc2n1
REMARK SMILES IDX 20 1 19 2 18 3 16 4 17 5 15 7 10 8 11 9 94 10 12 11 13 12
REMARK SMILES IDX 9 13 8 15 6 16 7 17 101 18 100 19 95 20 99 21 96 22 98 23
REMARK SMILES IDX 97 24 5 25 4 26 2 27 1 28 3 29 14 31 21 33 22 34 23 35 24 36
REMARK SMILES IDX 25 37 26 38 27 40 28 41 29 42 93 43 30 44 92 45 31 46 32 47
REMARK SMILES IDX 33 48 86 49 34 50 91 51 85 52 87 53 35 54 90 55 84 56 83 57
REMARK SMILES IDX 36 59 70 60 49 61 69 62 50 63 53 64 68 65 88 66 51 67 52 68
REMARK SMILES IDX 67 70 89 71 54 72 37 73 38 74 47 75 39 76 40 77 46 78 48 79
REMARK SMILES IDX 41 80 42 81 43 82 44 83 45 84 71 85 72 86 81 87 73 88 74 89
REMARK SMILES IDX 80 90 82 91 75 92 76 93 77 94 78 95 79 96 55 97 56 98 65 99
REMARK SMILES IDX 57 100 58 101 64 102 66 103 59 104 60 105 61 106 62 107
REMARK SMILES IDX 63 108
REMARK H PARENT 18 6 9 14 2 30 14 32 25 39 87 58 53 69
REMARK Flexibility Score: inf
ROOT
ATOM      1  C   UNL A   1      33.999  28.690  26.028  1.00  0.00     0.021 C 
ENDROOT
BRANCH   1   2
ATOM      2  C   UNL A   1      33.128  29.406  24.989  1.00  0.00     0.116 C 
BRANCH   2   3
ATOM      3  N   UNL A   1      33.681  29.187  23.670  1.00  0.00    -0.352 N 
ATOM      4  C   UNL A   1      33.720  28.080  22.866  1.00  0.00     0.255 C 
ATOM      5  O   UNL A   1      34.411  28.167  21.845  1.00  0.00    -0.269 OA
ATOM      6  H   UNL A   1      34.110  29.982  23.277  1.00  0.00     0.163 HD
BRANCH   4   7
ATOM      7  C   UNL A   1      32.901  26.848  23.063  1.00  0.00     0.083 A 
ATOM      8  C   UNL A   1      32.831  24.752  24.351  1.00  0.00     0.041 A 
ATOM      9  C   UNL A   1      31.683  24.380  23.653  1.00  0.00     0.030 A 
ATOM     10  C   UNL A   1      33.432  25.973  24.033  1.00  0.00     0.043 A 
ATOM     11  C   UNL A   1      31.108  25.246  22.722  1.00  0.00     0.049 A 
ATOM     12  C   UNL A   1      31.697  26.487  22.453  1.00  0.00     0.128 A 
BRANCH   8  13
ATOM     13  N   UNL A   1      33.426  23.924  25.315  1.00  0.00    -0.340 N 
ATOM     14  H   UNL A   1      33.504  24.299  26.222  1.00  0.00     0.168 HD
BRANCH  13  15
ATOM     15  C   UNL A   1      33.924  22.618  25.137  1.00  0.00     0.142 A 
ATOM     16  C   UNL A   1      33.520  20.423  24.600  1.00  0.00     0.137 A 
ATOM     17  N   UNL A   1      33.042  21.650  24.828  1.00  0.00    -0.215 NA
ATOM     18  N   UNL A   1      34.811  20.075  24.716  1.00  0.00    -0.233 NA
ATOM     19  C   UNL A   1      35.683  21.041  25.012  1.00  0.00     0.076 A 
ATOM     20  C   UNL A   1      35.302  22.368  25.243  1.00  0.00     0.043 A 
ATOM     21  C   UNL A   1      37.032  20.717  25.051  1.00  0.00     0.029 A 
ATOM     22  C   UNL A   1      36.297  23.335  25.543  1.00  0.00     0.014 A 
ATOM     23  C   UNL A   1      38.016  21.673  25.315  1.00  0.00     0.002 A 
ATOM     24  C   UNL A   1      37.646  22.987  25.569  1.00  0.00     0.001 A 
BRANCH  16  25
ATOM     25  C   UNL A   1      32.555  19.396  24.086  1.00  0.00     0.138 C 
BRANCH  25  26
ATOM     26  C   UNL A   1      32.601  18.073  24.874  1.00  0.00     0.269 C 
BRANCH  26  27
ATOM     27  N   UNL A   1      32.855  16.794  24.179  1.00  0.00    -0.339 N 
ATOM     28  C   UNL A   1      33.968  16.856  23.238  1.00  0.00     0.332 C 
ATOM     29  C   UNL A   1      32.993  15.660  25.085  1.00  0.00     0.332 C 
ATOM     30  H   UNL A   1      32.010  16.635  23.630  1.00  0.00     0.347 HD
ENDBRANCH  26  27
ENDBRANCH  25  26
ENDBRANCH  16  25
ENDBRANCH  13  15
ENDBRANCH   8  13
BRANCH  12  31
ATOM     31  O   UNL A   1      31.016  27.334  21.627  1.00  0.00    -0.507 OA
ATOM     32  H   UNL A   1      30.179  27.667  21.883  1.00  0.00     0.293 HD
ENDBRANCH  12  31
ENDBRANCH   4   7
ENDBRANCH   2   3
ENDBRANCH   1   2
BRANCH   1  33
ATOM     33  C   UNL A   1      34.020  29.393  27.390  1.00  0.00     0.002 C 
BRANCH  33  34
ATOM     34  C   UNL A   1      35.243  30.284  27.625  1.00  0.00     0.002 C 
BRANCH  34  35
ATOM     35  C   UNL A   1      34.954  31.608  28.342  1.00  0.00     0.021 C 
BRANCH  35  36
ATOM     36  C   UNL A   1      36.063  32.081  29.281  1.00  0.00     0.116 C 
BRANCH  36  37
ATOM     37  N   UNL A   1      35.913  31.520  30.613  1.00  0.00    -0.352 N 
ATOM     38  C   UNL A   1      36.649  30.549  31.242  1.00  0.00     0.251 C 
ATOM     39  H   UNL A   1      35.172  31.893  31.144  1.00  0.00     0.163 HD
ATOM     40  O   UNL A   1      36.223  30.035  32.272  1.00  0.00    -0.269 OA
BRANCH  38  41
ATOM     41  C   UNL A   1      37.950  30.117  30.683  1.00  0.00     0.039 A 
ATOM     42  C   UNL A   1      38.150  30.206  29.304  1.00  0.00     0.014 A 
ATOM     43  C   UNL A   1      38.952  29.585  31.503  1.00  0.00     0.014 A 
ATOM     44  C   UNL A   1      39.367  29.802  28.752  1.00  0.00     0.010 A 
ATOM     45  C   UNL A   1      40.189  29.241  30.959  1.00  0.00     0.010 A 
ATOM     46  C   UNL A   1      40.404  29.337  29.578  1.00  0.00    -0.014 A 
BRANCH  46  47
ATOM     47  C   UNL A   1      41.718  28.963  28.995  1.00  0.00     0.031 A 
ATOM     48  C   UNL A   1      42.831  29.970  28.898  1.00  0.00     0.074 A 
ATOM     49  C   UNL A   1      41.897  27.712  28.528  1.00  0.00     0.049 A 
ATOM     50  N   UNL A   1      44.055  29.807  28.463  1.00  0.00    -0.248 NA
ATOM     51  C   UNL A   1      42.522  31.344  29.320  1.00  0.00     0.031 C 
ATOM     52  C   UNL A   1      40.874  26.665  28.509  1.00  0.00     0.029 A 
ATOM     53  N   UNL A   1      43.004  27.107  27.990  1.00  0.00    -0.354 N 
ATOM     54  C   UNL A   1      44.661  31.054  28.557  1.00  0.00     0.074 A 
ATOM     55  C   UNL A   1      43.651  31.976  29.034  1.00  0.00     0.031 C 
ATOM     56  C   UNL A   1      41.412  25.534  28.027  1.00  0.00     0.029 A 
ATOM     57  C   UNL A   1      42.808  25.782  27.681  1.00  0.00     0.049 A 
ATOM     58  H   UNL A   1      43.856  27.577  27.837  1.00  0.00     0.167 HD
ATOM     59  C   UNL A   1      45.946  31.397  28.294  1.00  0.00     0.037 A 
ATOM     60  C   UNL A   1      43.665  24.863  27.195  1.00  0.00     0.037 A 
ATOM     61  C   UNL A   1      46.949  30.472  27.830  1.00  0.00     0.049 A 
ATOM     62  C   UNL A   1      45.091  25.257  26.933  1.00  0.00     0.074 A 
ATOM     63  C   UNL A   1      48.292  30.703  27.588  1.00  0.00     0.029 A 
ATOM     64  N   UNL A   1      46.716  29.137  27.532  1.00  0.00    -0.354 N 
ATOM     65  N   UNL A   1      45.666  26.425  27.094  1.00  0.00    -0.248 NA
ATOM     66  C   UNL A   1      45.984  24.205  26.434  1.00  0.00     0.031 C 
ATOM     67  C   UNL A   1      48.863  29.517  27.108  1.00  0.00     0.029 A 
ATOM     68  C   UNL A   1      47.884  28.535  27.090  1.00  0.00     0.049 A 
ATOM     69  H   UNL A   1      45.847  28.682  27.621  1.00  0.00     0.167 HD
ATOM     70  C   UNL A   1      46.996  26.245  26.730  1.00  0.00     0.074 A 
ATOM     71  C   UNL A   1      47.141  24.851  26.360  1.00  0.00     0.031 C 
ATOM     72  C   UNL A   1      48.005  27.151  26.704  1.00  0.00     0.037 A 
BRANCH  59  73
ATOM     73  C   UNL A   1      46.329  32.838  28.503  1.00  0.00     0.058 A 
ATOM     74  C   UNL A   1      46.789  33.304  29.746  1.00  0.00     0.135 A 
ATOM     75  C   UNL A   1      46.226  33.766  27.456  1.00  0.00     0.135 A 
ATOM     76  F   UNL A   1      46.896  32.462  30.786  1.00  0.00    -0.206 F 
ATOM     77  C   UNL A   1      47.086  34.647  29.957  1.00  0.00     0.059 A 
ATOM     78  C   UNL A   1      46.545  35.110  27.637  1.00  0.00     0.059 A 
ATOM     79  F   UNL A   1      45.796  33.377  26.246  1.00  0.00    -0.206 F 
ATOM     80  C   UNL A   1      46.951  35.545  28.898  1.00  0.00     0.060 A 
BRANCH  80  81
ATOM     81  S   UNL A   1      47.303  37.290  29.193  1.00  0.00     0.124 S 
ATOM     82  O   UNL A   1      47.492  37.308  30.640  1.00  0.00    -0.237 OA
ATOM     83  O   UNL A   1      48.506  37.509  28.395  1.00  0.00    -0.237 OA
ATOM     84  O   UNL A   1      46.104  37.965  28.707  1.00  0.00    -0.744 OA
ENDBRANCH  80  81
ENDBRANCH  59  73
BRANCH  60  85
ATOM     85  C   UNL A   1      43.200  23.468  26.988  1.00  0.00     0.058 A 
ATOM     86  C   UNL A   1      42.927  22.989  25.699  1.00  0.00     0.135 A 
ATOM     87  C   UNL A   1      43.074  22.573  28.061  1.00  0.00     0.135 A 
ATOM     88  F   UNL A   1      43.030  23.810  24.643  1.00  0.00    -0.206 F 
ATOM     89  C   UNL A   1      42.541  21.671  25.478  1.00  0.00     0.059 A 
ATOM     90  C   UNL A   1      42.710  21.245  27.864  1.00  0.00     0.059 A 
ATOM     91  F   UNL A   1      43.342  22.981  29.312  1.00  0.00    -0.206 F 
ATOM     92  C   UNL A   1      42.443  20.804  26.568  1.00  0.00     0.060 A 
BRANCH  92  93
ATOM     93  S   UNL A   1      42.026  19.073  26.262  1.00  0.00     0.124 S 
ATOM     94  O   UNL A   1      42.256  18.479  27.573  1.00  0.00    -0.237 OA
ATOM     95  O   UNL A   1      40.632  19.164  25.837  1.00  0.00    -0.237 OA
ATOM     96  O   UNL A   1      42.966  18.683  25.216  1.00  0.00    -0.744 OA
ENDBRANCH  92  93
ENDBRANCH  60  85
BRANCH  72  97
ATOM     97  C   UNL A   1      49.353  26.650  26.263  1.00  0.00     0.058 A 
ATOM     98  C   UNL A   1      50.175  25.903  27.120  1.00  0.00     0.135 A 
ATOM     99  C   UNL A   1      49.828  26.923  24.971  1.00  0.00     0.135 A 
ATOM    100  F   UNL A   1      49.769  25.619  28.368  1.00  0.00    -0.206 F 
ATOM    101  C   UNL A   1      51.440  25.480  26.728  1.00  0.00     0.059 A 
ATOM    102  C   UNL A   1      51.081  26.488  24.548  1.00  0.00     0.059 A 
ATOM    103  F   UNL A   1      49.077  27.623  24.106  1.00  0.00    -0.206 F 
ATOM    104  C   UNL A   1      51.888  25.786  25.441  1.00  0.00     0.060 A 
BRANCH 104 105
ATOM    105  S   UNL A   1      53.537  25.245  24.945  1.00  0.00     0.124 S 
ATOM    106  O   UNL A   1      53.535  23.854  25.389  1.00  0.00    -0.237 OA
ATOM    107  O   UNL A   1      53.516  25.448  23.500  1.00  0.00    -0.237 OA
ATOM    108  O   UNL A   1      54.423  26.140  25.684  1.00  0.00    -0.744 OA
ENDBRANCH 104 105
ENDBRANCH  72  97
ENDBRANCH  46  47
ENDBRANCH  38  41
ENDBRANCH  36  37
ENDBRANCH  35  36
ENDBRANCH  34  35
ENDBRANCH  33  34
ENDBRANCH   1  33
TORSDOF 22
ENDMDL
MODEL 2
REMARK VINA RESULT:     -11.1      1.343      7.948
REMARK SMILES C[NH+](C)CCc1nc(Nc2ccc(O)c(C(=O)NCCCCCCNC(=O)c3ccc(-c4c5nc(c(-c6c(F)cc(S(=O)(=O)[O-])cc6F)c6ccc([nH]6)c(-c6c(F)cc(S(=O)(=O)[O-])cc6F)c6nc(c(-c7c(F)cc(S(=O)(=O)[O-])cc7F)c7ccc4[nH]7)C=C6)C=C5)cc3)c2)c2ccccc2n1
REMARK SMILES IDX 20 1 19 2 18 3 16 4 17 5 15 7 10 8 11 9 94 10 12 11 13 12
REMARK SMILES IDX 9 13 8 15 6 16 7 17 101 18 100 19 95 20 99 21 96 22 98 23
REMARK SMILES IDX 97 24 5 25 4 26 2 27 1 28 3 29 14 31 21 33 22 34 23 35 24 36
REMARK SMILES IDX 25 37 26 38 27 40 28 41 29 42 93 43 30 44 92 45 31 46 32 47
REMARK SMILES IDX 33 48 86 49 34 50 91 51 85 52 87 53 35 54 90 55 84 56 83 57
REMARK SMILES IDX 36 59 70 60 49 61 69 62 50 63 53 64 68 65 88 66 51 67 52 68
REMARK SMILES IDX 67 70 89 71 54 72 37 73 38 74 47 75 39 76 40 77 46 78 48 79
REMARK SMILES IDX 41 80 42 81 43 82 44 83 45 84 71 85 72 86 81 87 73 88 74 89
REMARK SMILES IDX 80 90 82 91 75 92 76 93 77 94 78 95 79 96 55 97 56 98 65 99
REMARK SMILES IDX 57 100 58 101 64 102 66 103 59 104 60 105 61 106 62 107
REMARK SMILES IDX 63 108
REMARK H PARENT 18 6 9 14 2 30 14 32 25 39 87 58 53 69
REMARK Flexibility Score: inf
ROOT
ATOM      1  C   UNL A   1      34.297  28.697  26.544  1.00  0.00     0.021 C 
ENDROOT
BRANCH   1   2
ATOM      2  C   UNL A   1      33.169  29.167  25.619  1.00  0.00     0.116 C 
BRANCH   2   3
ATOM      3  N   UNL A   1      33.632  29.140  24.249  1.00  0.00    -0.352 N 
ATOM      4  C   UNL A   1      33.521  28.198  23.263  1.00  0.00     0.255 C 
ATOM      5  O   UNL A   1      34.167  28.404  22.230  1.00  0.00    -0.269 OA
ATOM      6  H   UNL A   1      34.119  29.952  23.974  1.00  0.00     0.163 HD
BRANCH   4   7
ATOM      7  C   UNL A   1      32.594  27.029  23.296  1.00  0.00     0.083 A 
ATOM      8  C   UNL A   1      32.217  24.884  24.442  1.00  0.00     0.041 A 
ATOM      9  C   UNL A   1      31.133  24.642  23.600  1.00  0.00     0.030 A 
ATOM     10  C   UNL A   1      32.942  26.066  24.265  1.00  0.00     0.043 A 
ATOM     11  C   UNL A   1      30.736  25.597  22.664  1.00  0.00     0.049 A 
ATOM     12  C   UNL A   1      31.445  26.799  22.535  1.00  0.00     0.128 A 
BRANCH   8  13
ATOM     13  N   UNL A   1      32.632  23.963  25.416  1.00  0.00    -0.340 N 
ATOM     14  H   UNL A   1      32.410  24.186  26.349  1.00  0.00     0.168 HD
BRANCH  13  15
ATOM     15  C   UNL A   1      33.329  22.754  25.216  1.00  0.00     0.142 A 
ATOM     16  C   UNL A   1      33.258  20.496  24.808  1.00  0.00     0.137 A 
ATOM     17  N   UNL A   1      32.601  21.634  25.058  1.00  0.00    -0.215 NA
ATOM     18  N   UNL A   1      34.594  20.384  24.762  1.00  0.00    -0.233 NA
ATOM     19  C   UNL A   1      35.310  21.500  24.908  1.00  0.00     0.076 A 
ATOM     20  C   UNL A   1      34.731  22.752  25.145  1.00  0.00     0.043 A 
ATOM     21  C   UNL A   1      36.690  21.416  24.777  1.00  0.00     0.029 A 
ATOM     22  C   UNL A   1      35.567  23.892  25.278  1.00  0.00     0.014 A 
ATOM     23  C   UNL A   1      37.513  22.541  24.877  1.00  0.00     0.002 A 
ATOM     24  C   UNL A   1      36.949  23.783  25.136  1.00  0.00     0.001 A 
BRANCH  16  25
ATOM     25  C   UNL A   1      32.435  19.292  24.460  1.00  0.00     0.138 C 
BRANCH  25  26
ATOM     26  C   UNL A   1      32.732  18.075  25.357  1.00  0.00     0.269 C 
BRANCH  26  27
ATOM     27  N   UNL A   1      33.460  16.907  24.822  1.00  0.00    -0.339 N 
ATOM     28  C   UNL A   1      32.868  15.630  25.203  1.00  0.00     0.332 C 
ATOM     29  C   UNL A   1      33.686  16.975  23.384  1.00  0.00     0.332 C 
ATOM     30  H   UNL A   1      34.376  16.956  25.270  1.00  0.00     0.347 HD
ENDBRANCH  26  27
ENDBRANCH  25  26
ENDBRANCH  16  25
ENDBRANCH  13  15
ENDBRANCH   8  13
BRANCH  12  31
ATOM     31  O   UNL A   1      30.930  27.738  21.689  1.00  0.00    -0.507 OA
ATOM     32  H   UNL A   1      30.012  27.924  21.698  1.00  0.00     0.293 HD
ENDBRANCH  12  31
ENDBRANCH   4   7
ENDBRANCH   2   3
ENDBRANCH   1   2
BRANCH   1  33
ATOM     33  C   UNL A   1      34.552  29.645  27.722  1.00  0.00     0.002 C 
BRANCH  33  34
ATOM     34  C   UNL A   1      35.933  30.307  27.716  1.00  0.00     0.002 C 
BRANCH  34  35
ATOM     35  C   UNL A   1      36.921  29.758  28.750  1.00  0.00     0.021 C 
BRANCH  35  36
ATOM     36  C   UNL A   1      36.341  29.566  30.151  1.00  0.00     0.116 C 
BRANCH  36  37
ATOM     37  N   UNL A   1      36.504  30.758  30.966  1.00  0.00    -0.352 N 
ATOM     38  C   UNL A   1      37.642  31.300  31.507  1.00  0.00     0.251 C 
ATOM     39  H   UNL A   1      35.673  31.250  31.159  1.00  0.00     0.163 HD
ATOM     40  O   UNL A   1      37.550  32.170  32.367  1.00  0.00    -0.269 OA
BRANCH  38  41
ATOM     41  C   UNL A   1      38.975  30.837  31.062  1.00  0.00     0.039 A 
ATOM     42  C   UNL A   1      39.661  29.910  31.850  1.00  0.00     0.014 A 
ATOM     43  C   UNL A   1      39.569  31.343  29.901  1.00  0.00     0.014 A 
ATOM     44  C   UNL A   1      40.921  29.460  31.454  1.00  0.00     0.010 A 
ATOM     45  C   UNL A   1      40.800  30.846  29.473  1.00  0.00     0.010 A 
ATOM     46  C   UNL A   1      41.492  29.908  30.250  1.00  0.00    -0.014 A 
BRANCH  46  47
ATOM     47  C   UNL A   1      42.806  29.384  29.801  1.00  0.00     0.031 A 
ATOM     48  C   UNL A   1      42.925  28.005  29.212  1.00  0.00     0.074 A 
ATOM     49  C   UNL A   1      43.904  30.151  29.948  1.00  0.00     0.049 A 
ATOM     50  N   UNL A   1      43.981  27.404  28.725  1.00  0.00    -0.248 NA
ATOM     51  C   UNL A   1      41.704  27.184  29.192  1.00  0.00     0.031 C 
ATOM     52  C   UNL A   1      43.928  31.480  30.562  1.00  0.00     0.029 A 
ATOM     53  N   UNL A   1      45.208  29.928  29.585  1.00  0.00    -0.354 N 
ATOM     54  C   UNL A   1      43.554  26.137  28.343  1.00  0.00     0.074 A 
ATOM     55  C   UNL A   1      42.157  26.037  28.710  1.00  0.00     0.031 C 
ATOM     56  C   UNL A   1      45.174  31.973  30.493  1.00  0.00     0.029 A 
ATOM     57  C   UNL A   1      46.041  30.988  29.854  1.00  0.00     0.049 A 
ATOM     58  H   UNL A   1      45.518  29.089  29.173  1.00  0.00     0.167 HD
ATOM     59  C   UNL A   1      44.254  25.156  27.722  1.00  0.00     0.037 A 
ATOM     60  C   UNL A   1      47.351  31.156  29.595  1.00  0.00     0.037 A 
ATOM     61  C   UNL A   1      45.642  25.267  27.349  1.00  0.00     0.049 A 
ATOM     62  C   UNL A   1      48.103  30.067  28.883  1.00  0.00     0.074 A 
ATOM     63  C   UNL A   1      46.428  24.356  26.666  1.00  0.00     0.029 A 
ATOM     64  N   UNL A   1      46.453  26.357  27.634  1.00  0.00    -0.354 N 
ATOM     65  N   UNL A   1      47.667  28.903  28.465  1.00  0.00    -0.248 NA
ATOM     66  C   UNL A   1      49.521  30.321  28.600  1.00  0.00     0.031 C 
ATOM     67  C   UNL A   1      47.724  24.879  26.570  1.00  0.00     0.029 A 
ATOM     68  C   UNL A   1      47.735  26.135  27.158  1.00  0.00     0.049 A 
ATOM     69  H   UNL A   1      46.159  27.170  28.105  1.00  0.00     0.167 HD
ATOM     70  C   UNL A   1      48.755  28.289  27.854  1.00  0.00     0.074 A 
ATOM     71  C   UNL A   1      49.862  29.221  27.941  1.00  0.00     0.031 C 
ATOM     72  C   UNL A   1      48.831  27.065  27.274  1.00  0.00     0.037 A 
BRANCH  59  73
ATOM     73  C   UNL A   1      43.520  23.879  27.412  1.00  0.00     0.058 A 
ATOM     74  C   UNL A   1      42.886  23.676  26.174  1.00  0.00     0.135 A 
ATOM     75  C   UNL A   1      43.437  22.851  28.364  1.00  0.00     0.135 A 
ATOM     76  F   UNL A   1      42.923  24.631  25.231  1.00  0.00    -0.206 F 
ATOM     77  C   UNL A   1      42.157  22.521  25.910  1.00  0.00     0.059 A 
ATOM     78  C   UNL A   1      42.735  21.675  28.110  1.00  0.00     0.059 A 
ATOM     79  F   UNL A   1      44.025  22.989  29.562  1.00  0.00    -0.206 F 
ATOM     80  C   UNL A   1      42.078  21.530  26.888  1.00  0.00     0.060 A 
BRANCH  80  81
ATOM     81  S   UNL A   1      41.099  20.052  26.548  1.00  0.00     0.124 S 
ATOM     82  O   UNL A   1      40.920  19.507  27.890  1.00  0.00    -0.237 OA
ATOM     83  O   UNL A   1      39.900  20.605  25.925  1.00  0.00    -0.237 OA
ATOM     84  O   UNL A   1      41.958  19.273  25.663  1.00  0.00    -0.744 OA
ENDBRANCH  80  81
ENDBRANCH  59  73
BRANCH  60  85
ATOM     85  C   UNL A   1      48.011  32.436  29.959  1.00  0.00     0.058 A 
ATOM     86  C   UNL A   1      48.613  32.598  31.214  1.00  0.00     0.135 A 
ATOM     87  C   UNL A   1      48.100  33.498  29.046  1.00  0.00     0.135 A 
ATOM     88  F   UNL A   1      48.549  31.612  32.121  1.00  0.00    -0.206 F 
ATOM     89  C   UNL A   1      49.281  33.770  31.556  1.00  0.00     0.059 A 
ATOM     90  C   UNL A   1      48.780  34.671  29.356  1.00  0.00     0.059 A 
ATOM     91  F   UNL A   1      47.554  33.382  27.825  1.00  0.00    -0.206 F 
ATOM     92  C   UNL A   1      49.365  34.798  30.616  1.00  0.00     0.060 A 
BRANCH  92  93
ATOM     93  S   UNL A   1      50.307  36.281  31.037  1.00  0.00     0.124 S 
ATOM     94  O   UNL A   1      51.388  36.230  30.060  1.00  0.00    -0.237 OA
ATOM     95  O   UNL A   1      49.319  37.338  30.844  1.00  0.00    -0.237 OA
ATOM     96  O   UNL A   1      50.697  36.046  32.424  1.00  0.00    -0.744 OA
ENDBRANCH  92  93
ENDBRANCH  60  85
BRANCH  72  97
ATOM     97  C   UNL A   1      50.160  26.676  26.687  1.00  0.00     0.058 A 
ATOM     98  C   UNL A   1      51.131  26.006  27.448  1.00  0.00     0.135 A 
ATOM     99  C   UNL A   1      50.468  26.979  25.351  1.00  0.00     0.135 A 
ATOM    100  F   UNL A   1      50.888  25.698  28.732  1.00  0.00    -0.206 F 
ATOM    101  C   UNL A   1      52.377  25.689  26.920  1.00  0.00     0.059 A 
ATOM    102  C   UNL A   1      51.699  26.647  24.793  1.00  0.00     0.059 A 
ATOM    103  F   UNL A   1      49.571  27.608  24.575  1.00  0.00    -0.206 F 
ATOM    104  C   UNL A   1      52.655  26.022  25.592  1.00  0.00     0.060 A 
BRANCH 104 105
ATOM    105  S   UNL A   1      54.280  25.618  24.917  1.00  0.00     0.124 S 
ATOM    106  O   UNL A   1      55.160  26.382  25.796  1.00  0.00    -0.237 OA
ATOM    107  O   UNL A   1      54.335  24.168  25.070  1.00  0.00    -0.237 OA
ATOM    108  O   UNL A   1      54.200  26.094  23.539  1.00  0.00    -0.744 OA
ENDBRANCH 104 105
ENDBRANCH  72  97
ENDBRANCH  46  47
ENDBRANCH  38  41
ENDBRANCH  36  37
ENDBRANCH  35  36
ENDBRANCH  34  35
ENDBRANCH  33  34
ENDBRANCH   1  33
TORSDOF 22
ENDMDL
MODEL 3
REMARK VINA RESULT:     -11.0      4.921      9.124
REMARK SMILES C[NH+](C)CCc1nc(Nc2ccc(O)c(C(=O)NCCCCCCNC(=O)c3ccc(-c4c5nc(c(-c6c(F)cc(S(=O)(=O)[O-])cc6F)c6ccc([nH]6)c(-c6c(F)cc(S(=O)(=O)[O-])cc6F)c6nc(c(-c7c(F)cc(S(=O)(=O)[O-])cc7F)c7ccc4[nH]7)C=C6)C=C5)cc3)c2)c2ccccc2n1
REMARK SMILES IDX 20 1 19 2 18 3 16 4 17 5 15 7 10 8 11 9 94 10 12 11 13 12
REMARK SMILES IDX 9 13 8 15 6 16 7 17 101 18 100 19 95 20 99 21 96 22 98 23
REMARK SMILES IDX 97 24 5 25 4 26 2 27 1 28 3 29 14 31 21 33 22 34 23 35 24 36
REMARK SMILES IDX 25 37 26 38 27 40 28 41 29 42 93 43 30 44 92 45 31 46 32 47
REMARK SMILES IDX 33 48 86 49 34 50 91 51 85 52 87 53 35 54 90 55 84 56 83 57
REMARK SMILES IDX 36 59 70 60 49 61 69 62 50 63 53 64 68 65 88 66 51 67 52 68
REMARK SMILES IDX 67 70 89 71 54 72 37 73 38 74 47 75 39 76 40 77 46 78 48 79
REMARK SMILES IDX 41 80 42 81 43 82 44 83 45 84 71 85 72 86 81 87 73 88 74 89
REMARK SMILES IDX 80 90 82 91 75 92 76 93 77 94 78 95 79 96 55 97 56 98 65 99
REMARK SMILES IDX 57 100 58 101 64 102 66 103 59 104 60 105 61 106 62 107
REMARK SMILES IDX 63 108
REMARK H PARENT 18 6 9 14 2 30 14 32 25 39 87 58 53 69
REMARK Flexibility Score: inf
ROOT
ATOM      1  C   UNL A   1      38.059  32.561  32.183  1.00  0.00     0.021 C 
ENDROOT
BRANCH   1   2
ATOM      2  C   UNL A   1      37.957  34.004  32.691  1.00  0.00     0.116 C 
BRANCH   2   3
ATOM      3  N   UNL A   1      39.276  34.598  32.710  1.00  0.00    -0.352 N 
ATOM      4  C   UNL A   1      40.108  34.947  33.740  1.00  0.00     0.255 C 
ATOM      5  O   UNL A   1      41.120  35.587  33.436  1.00  0.00    -0.269 OA
ATOM      6  H   UNL A   1      39.645  34.786  31.816  1.00  0.00     0.163 HD
BRANCH   4   7
ATOM      7  C   UNL A   1      39.948  34.508  35.157  1.00  0.00     0.083 A 
ATOM      8  C   UNL A   1      39.971  32.500  36.581  1.00  0.00     0.041 A 
ATOM      9  C   UNL A   1      39.634  33.293  37.677  1.00  0.00     0.030 A 
ATOM     10  C   UNL A   1      40.105  33.118  35.334  1.00  0.00     0.043 A 
ATOM     11  C   UNL A   1      39.519  34.677  37.542  1.00  0.00     0.049 A 
ATOM     12  C   UNL A   1      39.707  35.284  36.294  1.00  0.00     0.128 A 
BRANCH   8  13
ATOM     13  N   UNL A   1      40.124  31.109  36.678  1.00  0.00    -0.340 N 
ATOM     14  H   UNL A   1      39.429  30.628  37.185  1.00  0.00     0.168 HD
BRANCH  13  15
ATOM     15  C   UNL A   1      41.156  30.317  36.135  1.00  0.00     0.142 A 
ATOM     16  C   UNL A   1      43.246  29.396  36.364  1.00  0.00     0.137 A 
ATOM     17  N   UNL A   1      42.289  30.194  36.849  1.00  0.00    -0.215 NA
ATOM     18  N   UNL A   1      43.178  28.755  35.188  1.00  0.00    -0.233 NA
ATOM     19  C   UNL A   1      42.047  28.872  34.489  1.00  0.00     0.076 A 
ATOM     20  C   UNL A   1      40.968  29.656  34.911  1.00  0.00     0.043 A 
ATOM     21  C   UNL A   1      41.927  28.147  33.310  1.00  0.00     0.029 A 
ATOM     22  C   UNL A   1      39.797  29.717  34.110  1.00  0.00     0.014 A 
ATOM     23  C   UNL A   1      40.765  28.181  32.537  1.00  0.00     0.002 A 
ATOM     24  C   UNL A   1      39.698  28.975  32.934  1.00  0.00     0.001 A 
BRANCH  16  25
ATOM     25  C   UNL A   1      44.427  29.127  37.249  1.00  0.00     0.138 C 
BRANCH  25  26
ATOM     26  C   UNL A   1      45.771  29.173  36.496  1.00  0.00     0.269 C 
BRANCH  26  27
ATOM     27  N   UNL A   1      46.162  28.073  35.592  1.00  0.00    -0.339 N 
ATOM     28  C   UNL A   1      47.469  28.268  34.973  1.00  0.00     0.332 C 
ATOM     29  C   UNL A   1      46.061  26.754  36.206  1.00  0.00     0.332 C 
ATOM     30  H   UNL A   1      45.471  28.105  34.842  1.00  0.00     0.347 HD
ENDBRANCH  26  27
ENDBRANCH  25  26
ENDBRANCH  16  25
ENDBRANCH  13  15
ENDBRANCH   8  13
BRANCH  12  31
ATOM     31  O   UNL A   1      39.703  36.648  36.258  1.00  0.00    -0.507 OA
ATOM     32  H   UNL A   1      40.468  37.126  36.511  1.00  0.00     0.293 HD
ENDBRANCH  12  31
ENDBRANCH   4   7
ENDBRANCH   2   3
ENDBRANCH   1   2
BRANCH   1  33
ATOM     33  C   UNL A   1      36.801  32.086  31.447  1.00  0.00     0.002 C 
BRANCH  33  34
ATOM     34  C   UNL A   1      36.528  32.812  30.126  1.00  0.00     0.002 C 
BRANCH  34  35
ATOM     35  C   UNL A   1      35.055  32.859  29.703  1.00  0.00     0.021 C 
BRANCH  35  36
ATOM     36  C   UNL A   1      34.798  32.497  28.241  1.00  0.00     0.116 C 
BRANCH  36  37
ATOM     37  N   UNL A   1      34.105  31.226  28.118  1.00  0.00    -0.352 N 
ATOM     38  C   UNL A   1      34.615  29.961  27.969  1.00  0.00     0.251 C 
ATOM     39  H   UNL A   1      33.122  31.281  28.145  1.00  0.00     0.163 HD
ATOM     40  O   UNL A   1      33.872  29.043  27.637  1.00  0.00    -0.269 OA
BRANCH  38  41
ATOM     41  C   UNL A   1      36.053  29.702  28.203  1.00  0.00     0.039 A 
ATOM     42  C   UNL A   1      36.450  29.196  29.443  1.00  0.00     0.014 A 
ATOM     43  C   UNL A   1      37.011  29.997  27.228  1.00  0.00     0.014 A 
ATOM     44  C   UNL A   1      37.801  28.947  29.689  1.00  0.00     0.010 A 
ATOM     45  C   UNL A   1      38.353  29.688  27.452  1.00  0.00     0.010 A 
ATOM     46  C   UNL A   1      38.762  29.170  28.688  1.00  0.00    -0.014 A 
BRANCH  46  47
ATOM     47  C   UNL A   1      40.190  28.849  28.932  1.00  0.00     0.031 A 
ATOM     48  C   UNL A   1      41.097  29.838  29.612  1.00  0.00     0.074 A 
ATOM     49  C   UNL A   1      40.677  27.664  28.514  1.00  0.00     0.049 A 
ATOM     50  N   UNL A   1      42.356  29.707  29.948  1.00  0.00    -0.248 NA
ATOM     51  C   UNL A   1      40.523  31.153  29.933  1.00  0.00     0.031 C 
ATOM     52  C   UNL A   1      39.913  26.648  27.787  1.00  0.00     0.029 A 
ATOM     53  N   UNL A   1      41.925  27.111  28.647  1.00  0.00    -0.354 N 
ATOM     54  C   UNL A   1      42.725  30.921  30.517  1.00  0.00     0.074 A 
ATOM     55  C   UNL A   1      41.573  31.793  30.426  1.00  0.00     0.031 C 
ATOM     56  C   UNL A   1      40.695  25.577  27.578  1.00  0.00     0.029 A 
ATOM     57  C   UNL A   1      42.019  25.839  28.133  1.00  0.00     0.049 A 
ATOM     58  H   UNL A   1      42.681  27.579  29.069  1.00  0.00     0.167 HD
ATOM     59  C   UNL A   1      43.905  31.269  31.085  1.00  0.00     0.037 A 
ATOM     60  C   UNL A   1      43.051  24.974  28.128  1.00  0.00     0.037 A 
ATOM     61  C   UNL A   1      45.044  30.391  31.182  1.00  0.00     0.049 A 
ATOM     62  C   UNL A   1      44.343  25.370  28.784  1.00  0.00     0.074 A 
ATOM     63  C   UNL A   1      46.266  30.625  31.788  1.00  0.00     0.029 A 
ATOM     64  N   UNL A   1      45.102  29.109  30.653  1.00  0.00    -0.354 N 
ATOM     65  N   UNL A   1      44.652  26.496  29.381  1.00  0.00    -0.248 NA
ATOM     66  C   UNL A   1      45.420  24.373  28.775  1.00  0.00     0.031 C 
ATOM     67  C   UNL A   1      47.076  29.499  31.593  1.00  0.00     0.029 A 
ATOM     68  C   UNL A   1      46.344  28.547  30.900  1.00  0.00     0.049 A 
ATOM     69  H   UNL A   1      44.367  28.665  30.171  1.00  0.00     0.167 HD
ATOM     70  C   UNL A   1      45.958  26.338  29.833  1.00  0.00     0.074 A 
ATOM     71  C   UNL A   1      46.369  25.000  29.457  1.00  0.00     0.031 C 
ATOM     72  C   UNL A   1      46.744  27.221  30.499  1.00  0.00     0.037 A 
BRANCH  59  73
ATOM     73  C   UNL A   1      44.015  32.663  31.641  1.00  0.00     0.058 A 
ATOM     74  C   UNL A   1      44.379  33.752  30.831  1.00  0.00     0.135 A 
ATOM     75  C   UNL A   1      43.766  32.916  32.999  1.00  0.00     0.135 A 
ATOM     76  F   UNL A   1      44.641  33.567  29.527  1.00  0.00    -0.206 F 
ATOM     77  C   UNL A   1      44.539  35.031  31.356  1.00  0.00     0.059 A 
ATOM     78  C   UNL A   1      43.893  34.193  33.540  1.00  0.00     0.059 A 
ATOM     79  F   UNL A   1      43.412  31.915  33.819  1.00  0.00    -0.206 F 
ATOM     80  C   UNL A   1      44.304  35.239  32.715  1.00  0.00     0.060 A 
BRANCH  80  81
ATOM     81  S   UNL A   1      44.551  36.894  33.393  1.00  0.00     0.124 S 
ATOM     82  O   UNL A   1      45.990  37.066  33.221  1.00  0.00    -0.237 OA
ATOM     83  O   UNL A   1      43.708  37.717  32.532  1.00  0.00    -0.237 OA
ATOM     84  O   UNL A   1      44.095  36.766  34.773  1.00  0.00    -0.744 OA
ENDBRANCH  80  81
ENDBRANCH  59  73
BRANCH  60  85
ATOM     85  C   UNL A   1      42.871  23.625  27.532  1.00  0.00     0.058 A 
ATOM     86  C   UNL A   1      43.216  23.383  26.194  1.00  0.00     0.135 A 
ATOM     87  C   UNL A   1      42.405  22.545  28.296  1.00  0.00     0.135 A 
ATOM     88  F   UNL A   1      43.661  24.387  25.424  1.00  0.00    -0.206 F 
ATOM     89  C   UNL A   1      43.105  22.116  25.632  1.00  0.00     0.059 A 
ATOM     90  C   UNL A   1      42.305  21.264  27.763  1.00  0.00     0.059 A 
ATOM     91  F   UNL A   1      42.080  22.725  29.586  1.00  0.00    -0.206 F 
ATOM     92  C   UNL A   1      42.655  21.061  26.428  1.00  0.00     0.060 A 
BRANCH  92  93
ATOM     93  S   UNL A   1      42.595  19.402  25.714  1.00  0.00     0.124 S 
ATOM     94  O   UNL A   1      43.525  19.528  24.598  1.00  0.00    -0.237 OA
ATOM     95  O   UNL A   1      43.041  18.572  26.828  1.00  0.00    -0.237 OA
ATOM     96  O   UNL A   1      41.190  19.246  25.351  1.00  0.00    -0.744 OA
ENDBRANCH  92  93
ENDBRANCH  60  85
BRANCH  72  97
ATOM     97  C   UNL A   1      48.127  26.754  30.862  1.00  0.00     0.058 A 
ATOM     98  C   UNL A   1      48.369  26.010  32.027  1.00  0.00     0.135 A 
ATOM     99  C   UNL A   1      49.223  27.056  30.038  1.00  0.00     0.135 A 
ATOM    100  F   UNL A   1      47.356  25.699  32.852  1.00  0.00    -0.206 F 
ATOM    101  C   UNL A   1      49.653  25.619  32.387  1.00  0.00     0.059 A 
ATOM    102  C   UNL A   1      50.514  26.653  30.365  1.00  0.00     0.059 A 
ATOM    103  F   UNL A   1      49.046  27.754  28.905  1.00  0.00    -0.206 F 
ATOM    104  C   UNL A   1      50.722  25.953  31.553  1.00  0.00     0.060 A 
BRANCH 104 105
ATOM    105  S   UNL A   1      52.389  25.453  32.033  1.00  0.00     0.124 S 
ATOM    106  O   UNL A   1      53.150  25.782  30.832  1.00  0.00    -0.237 OA
ATOM    107  O   UNL A   1      52.648  26.294  33.198  1.00  0.00    -0.237 OA
ATOM    108  O   UNL A   1      52.245  24.028  32.316  1.00  0.00    -0.744 OA
ENDBRANCH 104 105
ENDBRANCH  72  97
ENDBRANCH  46  47
ENDBRANCH  38  41
ENDBRANCH  36  37
ENDBRANCH  35  36
ENDBRANCH  34  35
ENDBRANCH  33  34
ENDBRANCH   1  33
TORSDOF 22
ENDMDL
