MODEL 1
REMARK VINA RESULT:     -11.0      0.000      0.000
REMARK SMILES CC(C)[NH2+][C@]1(C(=O)NCCCCCCNC(=O)c2ccc(-c3c4nc(c(-c5c(F)cc(S(=O)(=O)[O-])cc5F)c5ccc([nH]5)c(-c5c(F)cc(S(=O)(=O)[O-])cc5F)c5nc(c(-c6c(F)cc(S(=O)(=O)[O-])cc6F)c6ccc3[nH]6)C=C5)C=C4)cc2)CCC[C@@H]1CCN1C(=O)CCC1=O
REMARK SMILES IDX 11 1 10 2 9 3 8 4 6 5 7 6 5 8 84 9 87 10 85 11 86 12 4 13
REMARK SMILES IDX 2 16 1 17 3 18 88 19 89 20 90 21 91 22 95 23 92 24 93 25
REMARK SMILES IDX 94 26 96 27 12 28 13 29 14 30 15 31 16 32 17 34 18 35 19 36
REMARK SMILES IDX 83 37 20 38 82 39 21 40 22 41 23 42 76 43 24 44 81 45 75 46
REMARK SMILES IDX 77 47 25 48 80 49 74 50 73 51 26 53 60 54 39 55 59 56 40 57
REMARK SMILES IDX 43 58 58 59 78 60 41 61 42 62 57 64 79 65 44 66 27 67 28 68
REMARK SMILES IDX 37 69 29 70 30 71 36 72 38 73 31 74 32 75 33 76 34 77 35 78
REMARK SMILES IDX 61 79 62 80 71 81 63 82 64 83 70 84 72 85 65 86 66 87 67 88
REMARK SMILES IDX 68 89 69 90 45 91 46 92 55 93 47 94 48 95 54 96 56 97 49 98
REMARK SMILES IDX 50 99 51 100 52 101 53 102
REMARK H PARENT 8 7 4 14 4 15 15 33 77 52 43 63
REMARK Flexibility Score: inf
ROOT
ATOM      1  C   UNL A   1      35.435  24.075  24.215  1.00  0.00     0.002 C 
ENDROOT
BRANCH   1   2
ATOM      2  C   UNL A   1      34.174  24.912  24.297  1.00  0.00     0.021 C 
BRANCH   2   3
ATOM      3  C   UNL A   1      33.684  25.505  22.983  1.00  0.00     0.116 C 
BRANCH   3   4
ATOM      4  N   UNL A   1      34.021  26.897  22.690  1.00  0.00    -0.351 N 
ATOM      5  C   UNL A   1      33.364  28.064  23.108  1.00  0.00     0.281 C 
ATOM      6  O   UNL A   1      33.856  29.156  22.831  1.00  0.00    -0.268 OA
ATOM      7  H   UNL A   1      34.814  27.035  22.123  1.00  0.00     0.163 HD
BRANCH   5   8
ATOM      8  C   UNL A   1      31.979  27.897  23.866  1.00  0.00     0.178 C 
ATOM      9  C   UNL A   1      31.363  29.323  23.535  1.00  0.00     0.079 C 
ATOM     10  C   UNL A   1      30.815  26.984  23.261  1.00  0.00     0.062 C 
ATOM     11  C   UNL A   1      29.880  29.236  23.632  1.00  0.00     0.008 C 
ATOM     12  C   UNL A   1      29.629  27.952  22.895  1.00  0.00     0.011 C 
BRANCH   8  13
ATOM     13  N   UNL A   1      32.279  27.462  25.267  1.00  0.00    -0.331 N 
ATOM     14  H   UNL A   1      31.527  26.842  25.567  1.00  0.00     0.347 HD
ATOM     15  H   UNL A   1      33.199  27.025  25.219  1.00  0.00     0.347 HD
BRANCH  13  16
ATOM     16  C   UNL A   1      32.412  28.544  26.298  1.00  0.00     0.176 C 
ATOM     17  C   UNL A   1      31.563  28.246  27.543  1.00  0.00     0.075 C 
ATOM     18  C   UNL A   1      33.828  28.959  26.718  1.00  0.00     0.075 C 
ENDBRANCH  13  16
ENDBRANCH   8  13
BRANCH  10  19
ATOM     19  C   UNL A   1      30.116  25.737  23.916  1.00  0.00     0.033 C 
BRANCH  19  20
ATOM     20  C   UNL A   1      30.360  24.240  23.725  1.00  0.00     0.129 C 
BRANCH  20  21
ATOM     21  N   UNL A   1      31.032  23.436  24.722  1.00  0.00    -0.283 N 
ATOM     22  C   UNL A   1      31.791  22.323  24.507  1.00  0.00     0.229 C 
ATOM     23  C   UNL A   1      31.137  23.868  26.016  1.00  0.00     0.229 C 
ATOM     24  O   UNL A   1      32.158  21.862  23.445  1.00  0.00    -0.274 OA
ATOM     25  C   UNL A   1      32.124  21.722  25.847  1.00  0.00     0.110 C 
ATOM     26  C   UNL A   1      31.926  22.872  26.810  1.00  0.00     0.110 C 
ATOM     27  O   UNL A   1      30.721  24.924  26.475  1.00  0.00    -0.274 OA
ENDBRANCH  20  21
ENDBRANCH  19  20
ENDBRANCH  10  19
ENDBRANCH   5   8
ENDBRANCH   3   4
ENDBRANCH   2   3
ENDBRANCH   1   2
BRANCH   1  28
ATOM     28  C   UNL A   1      36.090  23.774  25.563  1.00  0.00     0.002 C 
BRANCH  28  29
ATOM     29  C   UNL A   1      37.569  23.371  25.515  1.00  0.00     0.021 C 
BRANCH  29  30
ATOM     30  C   UNL A   1      38.462  24.058  26.541  1.00  0.00     0.116 C 
BRANCH  30  31
ATOM     31  N   UNL A   1      39.868  23.827  26.265  1.00  0.00    -0.352 N 
ATOM     32  C   UNL A   1      40.946  24.611  26.582  1.00  0.00     0.251 C 
ATOM     33  H   UNL A   1      40.075  22.992  25.785  1.00  0.00     0.163 HD
ATOM     34  O   UNL A   1      42.032  24.415  26.048  1.00  0.00    -0.269 OA
BRANCH  32  35
ATOM     35  C   UNL A   1      40.777  25.701  27.563  1.00  0.00     0.039 A 
ATOM     36  C   UNL A   1      39.743  25.621  28.496  1.00  0.00     0.014 A 
ATOM     37  C   UNL A   1      41.652  26.791  27.563  1.00  0.00     0.014 A 
ATOM     38  C   UNL A   1      39.622  26.612  29.471  1.00  0.00     0.010 A 
ATOM     39  C   UNL A   1      41.575  27.737  28.578  1.00  0.00     0.010 A 
ATOM     40  C   UNL A   1      40.558  27.657  29.541  1.00  0.00    -0.014 A 
BRANCH  40  41
ATOM     41  C   UNL A   1      40.495  28.674  30.621  1.00  0.00     0.031 A 
ATOM     42  C   UNL A   1      41.384  28.548  31.826  1.00  0.00     0.074 A 
ATOM     43  C   UNL A   1      39.589  29.668  30.541  1.00  0.00     0.049 A 
ATOM     44  N   UNL A   1      41.423  29.289  32.903  1.00  0.00    -0.248 NA
ATOM     45  C   UNL A   1      42.338  27.427  31.835  1.00  0.00     0.031 C 
ATOM     46  C   UNL A   1      38.645  29.866  29.440  1.00  0.00     0.029 A 
ATOM     47  N   UNL A   1      39.305  30.693  31.408  1.00  0.00    -0.354 N 
ATOM     48  C   UNL A   1      42.395  28.721  33.718  1.00  0.00     0.074 A 
ATOM     49  C   UNL A   1      42.883  27.542  33.037  1.00  0.00     0.031 C 
ATOM     50  C   UNL A   1      37.900  30.955  29.687  1.00  0.00     0.029 A 
ATOM     51  C   UNL A   1      38.282  31.508  30.983  1.00  0.00     0.049 A 
ATOM     52  H   UNL A   1      39.790  30.833  32.254  1.00  0.00     0.167 HD
ATOM     53  C   UNL A   1      42.853  29.158  34.915  1.00  0.00     0.037 A 
ATOM     54  C   UNL A   1      37.705  32.570  31.577  1.00  0.00     0.037 A 
ATOM     55  C   UNL A   1      42.370  30.342  35.577  1.00  0.00     0.049 A 
ATOM     56  C   UNL A   1      38.214  33.020  32.920  1.00  0.00     0.074 A 
ATOM     57  C   UNL A   1      42.807  30.903  36.764  1.00  0.00     0.029 A 
ATOM     58  N   UNL A   1      41.335  31.144  35.116  1.00  0.00    -0.354 N 
ATOM     59  N   UNL A   1      39.183  32.512  33.646  1.00  0.00    -0.248 NA
ATOM     60  C   UNL A   1      37.555  34.186  33.525  1.00  0.00     0.031 C 
ATOM     61  C   UNL A   1      42.002  32.010  37.047  1.00  0.00     0.029 A 
ATOM     62  C   UNL A   1      41.098  32.175  36.009  1.00  0.00     0.049 A 
ATOM     63  H   UNL A   1      40.842  31.000  34.275  1.00  0.00     0.167 HD
ATOM     64  C   UNL A   1      39.263  33.309  34.783  1.00  0.00     0.074 A 
ATOM     65  C   UNL A   1      38.258  34.343  34.639  1.00  0.00     0.031 C 
ATOM     66  C   UNL A   1      40.091  33.196  35.850  1.00  0.00     0.037 A 
BRANCH  53  67
ATOM     67  C   UNL A   1      43.930  28.351  35.589  1.00  0.00     0.058 A 
ATOM     68  C   UNL A   1      43.627  27.244  36.399  1.00  0.00     0.135 A 
ATOM     69  C   UNL A   1      45.285  28.665  35.393  1.00  0.00     0.135 A 
ATOM     70  F   UNL A   1      42.348  26.908  36.634  1.00  0.00    -0.206 F 
ATOM     71  C   UNL A   1      44.626  26.496  37.013  1.00  0.00     0.059 A 
ATOM     72  C   UNL A   1      46.302  27.911  35.973  1.00  0.00     0.059 A 
ATOM     73  F   UNL A   1      45.634  29.713  34.631  1.00  0.00    -0.206 F 
ATOM     74  C   UNL A   1      45.962  26.837  36.793  1.00  0.00     0.060 A 
BRANCH  74  75
ATOM     75  S   UNL A   1      47.244  25.850  37.593  1.00  0.00     0.124 S 
ATOM     76  O   UNL A   1      48.366  26.785  37.604  1.00  0.00    -0.237 OA
ATOM     77  O   UNL A   1      46.648  25.561  38.893  1.00  0.00    -0.237 OA
ATOM     78  O   UNL A   1      47.394  24.702  36.705  1.00  0.00    -0.744 OA
ENDBRANCH  74  75
ENDBRANCH  53  67
BRANCH  54  79
ATOM     79  C   UNL A   1      36.586  33.282  30.905  1.00  0.00     0.058 A 
ATOM     80  C   UNL A   1      36.820  34.125  29.809  1.00  0.00     0.135 A 
ATOM     81  C   UNL A   1      35.258  33.125  31.335  1.00  0.00     0.135 A 
ATOM     82  F   UNL A   1      38.071  34.313  29.363  1.00  0.00    -0.206 F 
ATOM     83  C   UNL A   1      35.783  34.800  29.172  1.00  0.00     0.059 A 
ATOM     84  C   UNL A   1      34.202  33.768  30.698  1.00  0.00     0.059 A 
ATOM     85  F   UNL A   1      34.977  32.317  32.369  1.00  0.00    -0.206 F 
ATOM     86  C   UNL A   1      34.475  34.612  29.624  1.00  0.00     0.060 A 
BRANCH  86  87
ATOM     87  S   UNL A   1      33.133  35.456  28.760  1.00  0.00     0.124 S 
ATOM     88  O   UNL A   1      32.519  34.357  28.026  1.00  0.00    -0.237 OA
ATOM     89  O   UNL A   1      32.353  36.001  29.867  1.00  0.00    -0.237 OA
ATOM     90  O   UNL A   1      33.831  36.448  27.946  1.00  0.00    -0.744 OA
ENDBRANCH  86  87
ENDBRANCH  54  79
BRANCH  66  91
ATOM     91  C   UNL A   1      39.960  34.223  36.942  1.00  0.00     0.058 A 
ATOM     92  C   UNL A   1      40.656  35.440  36.895  1.00  0.00     0.135 A 
ATOM     93  C   UNL A   1      39.084  34.009  38.019  1.00  0.00     0.135 A 
ATOM     94  F   UNL A   1      41.513  35.691  35.892  1.00  0.00    -0.206 F 
ATOM     95  C   UNL A   1      40.506  36.401  37.889  1.00  0.00     0.059 A 
ATOM     96  C   UNL A   1      38.894  34.970  39.007  1.00  0.00     0.059 A 
ATOM     97  F   UNL A   1      38.386  32.866  38.107  1.00  0.00    -0.206 F 
ATOM     98  C   UNL A   1      39.618  36.159  38.939  1.00  0.00     0.060 A 
BRANCH  98  99
ATOM     99  S   UNL A   1      39.403  37.434  40.199  1.00  0.00     0.124 S 
ATOM    100  O   UNL A   1      38.889  36.655  41.321  1.00  0.00    -0.237 OA
ATOM    101  O   UNL A   1      40.759  37.951  40.353  1.00  0.00    -0.237 OA
ATOM    102  O   UNL A   1      38.451  38.358  39.588  1.00  0.00    -0.744 OA
ENDBRANCH  98  99
ENDBRANCH  66  91
ENDBRANCH  40  41
ENDBRANCH  32  35
ENDBRANCH  30  31
ENDBRANCH  29  30
ENDBRANCH  28  29
ENDBRANCH   1  28
TORSDOF 21
ENDMDL
MODEL 2
REMARK VINA RESULT:     -10.9      6.399     11.561
REMARK SMILES CC(C)[NH2+][C@]1(C(=O)NCCCCCCNC(=O)c2ccc(-c3c4nc(c(-c5c(F)cc(S(=O)(=O)[O-])cc5F)c5ccc([nH]5)c(-c5c(F)cc(S(=O)(=O)[O-])cc5F)c5nc(c(-c6c(F)cc(S(=O)(=O)[O-])cc6F)c6ccc3[nH]6)C=C5)C=C4)cc2)CCC[C@@H]1CCN1C(=O)CCC1=O
REMARK SMILES IDX 11 1 10 2 9 3 8 4 6 5 7 6 5 8 84 9 87 10 85 11 86 12 4 13
REMARK SMILES IDX 2 16 1 17 3 18 88 19 89 20 90 21 91 22 95 23 92 24 93 25
REMARK SMILES IDX 94 26 96 27 12 28 13 29 14 30 15 31 16 32 17 34 18 35 19 36
REMARK SMILES IDX 83 37 20 38 82 39 21 40 22 41 23 42 76 43 24 44 81 45 75 46
REMARK SMILES IDX 77 47 25 48 80 49 74 50 73 51 26 53 60 54 39 55 59 56 40 57
REMARK SMILES IDX 43 58 58 59 78 60 41 61 42 62 57 64 79 65 44 66 27 67 28 68
REMARK SMILES IDX 37 69 29 70 30 71 36 72 38 73 31 74 32 75 33 76 34 77 35 78
REMARK SMILES IDX 61 79 62 80 71 81 63 82 64 83 70 84 72 85 65 86 66 87 67 88
REMARK SMILES IDX 68 89 69 90 45 91 46 92 55 93 47 94 48 95 54 96 56 97 49 98
REMARK SMILES IDX 50 99 51 100 52 101 53 102
REMARK H PARENT 8 7 4 14 4 15 15 33 77 52 43 63
REMARK Flexibility Score: inf
ROOT
ATOM      1  C   UNL A   1      32.175  29.768  26.764  1.00  0.00     0.002 C 
ENDROOT
BRANCH   1   2
ATOM      2  C   UNL A   1      31.947  28.408  27.391  1.00  0.00     0.021 C 
BRANCH   2   3
ATOM      3  C   UNL A   1      31.056  27.455  26.606  1.00  0.00     0.116 C 
BRANCH   3   4
ATOM      4  N   UNL A   1      30.755  27.785  25.214  1.00  0.00    -0.351 N 
ATOM      5  C   UNL A   1      31.101  27.079  24.053  1.00  0.00     0.281 C 
ATOM      6  O   UNL A   1      30.676  27.473  22.968  1.00  0.00    -0.268 OA
ATOM      7  H   UNL A   1      30.242  28.614  25.073  1.00  0.00     0.163 HD
BRANCH   5   8
ATOM      8  C   UNL A   1      32.083  25.841  24.209  1.00  0.00     0.178 C 
ATOM      9  C   UNL A   1      33.447  26.645  24.327  1.00  0.00     0.079 C 
ATOM     10  C   UNL A   1      32.163  25.023  25.580  1.00  0.00     0.062 C 
ATOM     11  C   UNL A   1      34.443  25.792  25.035  1.00  0.00     0.008 C 
ATOM     12  C   UNL A   1      33.604  25.267  26.164  1.00  0.00     0.011 C 
BRANCH   8  13
ATOM     13  N   UNL A   1      31.806  24.898  23.079  1.00  0.00    -0.331 N 
ATOM     14  H   UNL A   1      31.518  24.008  23.483  1.00  0.00     0.347 HD
ATOM     15  H   UNL A   1      31.094  25.362  22.514  1.00  0.00     0.347 HD
BRANCH  13  16
ATOM     16  C   UNL A   1      32.939  24.623  22.134  1.00  0.00     0.176 C 
ATOM     17  C   UNL A   1      33.297  23.129  22.102  1.00  0.00     0.075 C 
ATOM     18  C   UNL A   1      32.822  25.164  20.704  1.00  0.00     0.075 C 
ENDBRANCH  13  16
ENDBRANCH   8  13
BRANCH  10  19
ATOM     19  C   UNL A   1      31.898  23.491  25.816  1.00  0.00     0.033 C 
BRANCH  19  20
ATOM     20  C   UNL A   1      32.711  22.443  26.575  1.00  0.00     0.129 C 
BRANCH  20  21
ATOM     21  N   UNL A   1      33.514  21.451  25.894  1.00  0.00    -0.283 N 
ATOM     22  C   UNL A   1      33.067  20.408  25.136  1.00  0.00     0.229 C 
ATOM     23  C   UNL A   1      34.869  21.605  25.779  1.00  0.00     0.229 C 
ATOM     24  O   UNL A   1      31.930  20.178  24.778  1.00  0.00    -0.274 OA
ATOM     25  C   UNL A   1      34.251  19.543  24.793  1.00  0.00     0.110 C 
ATOM     26  C   UNL A   1      35.433  20.468  24.983  1.00  0.00     0.110 C 
ATOM     27  O   UNL A   1      35.539  22.542  26.191  1.00  0.00    -0.274 OA
ENDBRANCH  20  21
ENDBRANCH  19  20
ENDBRANCH  10  19
ENDBRANCH   5   8
ENDBRANCH   3   4
ENDBRANCH   2   3
ENDBRANCH   1   2
BRANCH   1  28
ATOM     28  C   UNL A   1      33.407  30.511  27.279  1.00  0.00     0.002 C 
BRANCH  28  29
ATOM     29  C   UNL A   1      34.762  29.865  26.966  1.00  0.00     0.021 C 
BRANCH  29  30
ATOM     30  C   UNL A   1      35.518  29.325  28.173  1.00  0.00     0.116 C 
BRANCH  30  31
ATOM     31  N   UNL A   1      35.420  30.221  29.310  1.00  0.00    -0.352 N 
ATOM     32  C   UNL A   1      36.393  30.587  30.202  1.00  0.00     0.251 C 
ATOM     33  H   UNL A   1      34.533  30.622  29.460  1.00  0.00     0.163 HD
ATOM     34  O   UNL A   1      36.092  31.134  31.257  1.00  0.00    -0.269 OA
BRANCH  32  35
ATOM     35  C   UNL A   1      37.805  30.301  29.880  1.00  0.00     0.039 A 
ATOM     36  C   UNL A   1      38.679  29.947  30.910  1.00  0.00     0.014 A 
ATOM     37  C   UNL A   1      38.255  30.370  28.558  1.00  0.00     0.014 A 
ATOM     38  C   UNL A   1      39.996  29.605  30.603  1.00  0.00     0.010 A 
ATOM     39  C   UNL A   1      39.546  29.959  28.247  1.00  0.00     0.010 A 
ATOM     40  C   UNL A   1      40.430  29.575  29.267  1.00  0.00    -0.014 A 
BRANCH  40  41
ATOM     41  C   UNL A   1      41.802  29.133  28.914  1.00  0.00     0.031 A 
ATOM     42  C   UNL A   1      42.932  30.125  28.898  1.00  0.00     0.074 A 
ATOM     43  C   UNL A   1      42.012  27.854  28.545  1.00  0.00     0.049 A 
ATOM     44  N   UNL A   1      44.178  29.949  28.546  1.00  0.00    -0.248 NA
ATOM     45  C   UNL A   1      42.612  31.503  29.308  1.00  0.00     0.031 C 
ATOM     46  C   UNL A   1      40.984  26.813  28.481  1.00  0.00     0.029 A 
ATOM     47  N   UNL A   1      43.156  27.214  28.142  1.00  0.00    -0.354 N 
ATOM     48  C   UNL A   1      44.789  31.190  28.683  1.00  0.00     0.074 A 
ATOM     49  C   UNL A   1      43.764  32.123  29.097  1.00  0.00     0.031 C 
ATOM     50  C   UNL A   1      41.547  25.662  28.083  1.00  0.00     0.029 A 
ATOM     51  C   UNL A   1      42.963  25.891  27.820  1.00  0.00     0.049 A 
ATOM     52  H   UNL A   1      44.032  27.660  28.089  1.00  0.00     0.167 HD
ATOM     53  C   UNL A   1      46.091  31.516  28.501  1.00  0.00     0.037 A 
ATOM     54  C   UNL A   1      43.828  24.970  27.351  1.00  0.00     0.037 A 
ATOM     55  C   UNL A   1      47.106  30.575  28.103  1.00  0.00     0.049 A 
ATOM     56  C   UNL A   1      45.264  25.363  27.132  1.00  0.00     0.074 A 
ATOM     57  C   UNL A   1      48.463  30.790  27.947  1.00  0.00     0.029 A 
ATOM     58  N   UNL A   1      46.875  29.243  27.789  1.00  0.00    -0.354 N 
ATOM     59  N   UNL A   1      45.840  26.525  27.333  1.00  0.00    -0.248 NA
ATOM     60  C   UNL A   1      46.168  24.322  26.624  1.00  0.00     0.031 C 
ATOM     61  C   UNL A   1      49.044  29.604  27.486  1.00  0.00     0.029 A 
ATOM     62  C   UNL A   1      48.058  28.632  27.410  1.00  0.00     0.049 A 
ATOM     63  H   UNL A   1      45.997  28.797  27.832  1.00  0.00     0.167 HD
ATOM     64  C   UNL A   1      47.178  26.349  26.996  1.00  0.00     0.074 A 
ATOM     65  C   UNL A   1      47.328  24.964  26.597  1.00  0.00     0.031 C 
ATOM     66  C   UNL A   1      48.190  27.251  27.013  1.00  0.00     0.037 A 
BRANCH  53  67
ATOM     67  C   UNL A   1      46.493  32.948  28.727  1.00  0.00     0.058 A 
ATOM     68  C   UNL A   1      46.480  33.893  27.688  1.00  0.00     0.135 A 
ATOM     69  C   UNL A   1      46.860  33.392  30.008  1.00  0.00     0.135 A 
ATOM     70  F   UNL A   1      46.153  33.521  26.440  1.00  0.00    -0.206 F 
ATOM     71  C   UNL A   1      46.844  35.218  27.904  1.00  0.00     0.059 A 
ATOM     72  C   UNL A   1      47.199  34.720  30.253  1.00  0.00     0.059 A 
ATOM     73  F   UNL A   1      46.892  32.533  31.039  1.00  0.00    -0.206 F 
ATOM     74  C   UNL A   1      47.201  35.622  29.192  1.00  0.00     0.060 A 
BRANCH  74  75
ATOM     75  S   UNL A   1      47.664  37.347  29.454  1.00  0.00     0.124 S 
ATOM     76  O   UNL A   1      48.352  37.271  30.740  1.00  0.00    -0.237 OA
ATOM     77  O   UNL A   1      48.511  37.621  28.298  1.00  0.00    -0.237 OA
ATOM     78  O   UNL A   1      46.383  38.045  29.468  1.00  0.00    -0.744 OA
ENDBRANCH  74  75
ENDBRANCH  53  67
BRANCH  54  79
ATOM     79  C   UNL A   1      43.359  23.588  27.063  1.00  0.00     0.058 A 
ATOM     80  C   UNL A   1      43.188  23.143  25.744  1.00  0.00     0.135 A 
ATOM     81  C   UNL A   1      43.087  22.680  28.099  1.00  0.00     0.135 A 
ATOM     82  F   UNL A   1      43.429  23.974  24.720  1.00  0.00    -0.206 F 
ATOM     83  C   UNL A   1      42.747  21.854  25.461  1.00  0.00     0.059 A 
ATOM     84  C   UNL A   1      42.672  21.378  27.840  1.00  0.00     0.059 A 
ATOM     85  F   UNL A   1      43.251  23.050  29.379  1.00  0.00    -0.206 F 
ATOM     86  C   UNL A   1      42.495  20.977  26.518  1.00  0.00     0.060 A 
BRANCH  86  87
ATOM     87  S   UNL A   1      41.970  19.292  26.136  1.00  0.00     0.124 S 
ATOM     88  O   UNL A   1      42.699  19.029  24.902  1.00  0.00    -0.237 OA
ATOM     89  O   UNL A   1      42.419  18.558  27.315  1.00  0.00    -0.237 OA
ATOM     90  O   UNL A   1      40.521  19.416  25.999  1.00  0.00    -0.744 OA
ENDBRANCH  86  87
ENDBRANCH  54  79
BRANCH  66  91
ATOM     91  C   UNL A   1      49.555  26.769  26.604  1.00  0.00     0.058 A 
ATOM     92  C   UNL A   1      50.403  26.108  27.505  1.00  0.00     0.135 A 
ATOM     93  C   UNL A   1      49.996  26.921  25.279  1.00  0.00     0.135 A 
ATOM     94  F   UNL A   1      50.033  25.944  28.786  1.00  0.00    -0.206 F 
ATOM     95  C   UNL A   1      51.650  25.633  27.114  1.00  0.00     0.059 A 
ATOM     96  C   UNL A   1      51.227  26.426  24.858  1.00  0.00     0.059 A 
ATOM     97  F   UNL A   1      49.221  27.538  24.374  1.00  0.00    -0.206 F 
ATOM     98  C   UNL A   1      52.052  25.793  25.786  1.00  0.00     0.060 A 
BRANCH  98  99
ATOM     99  S   UNL A   1      53.656  25.135  25.284  1.00  0.00     0.124 S 
ATOM    100  O   UNL A   1      54.526  25.648  26.336  1.00  0.00    -0.237 OA
ATOM    101  O   UNL A   1      53.420  23.695  25.301  1.00  0.00    -0.237 OA
ATOM    102  O   UNL A   1      53.862  25.715  23.960  1.00  0.00    -0.744 OA
ENDBRANCH  98  99
ENDBRANCH  66  91
ENDBRANCH  40  41
ENDBRANCH  32  35
ENDBRANCH  30  31
ENDBRANCH  29  30
ENDBRANCH  28  29
ENDBRANCH   1  28
TORSDOF 21
ENDMDL
MODEL 3
REMARK VINA RESULT:     -10.7      6.431     11.910
REMARK SMILES CC(C)[NH2+][C@]1(C(=O)NCCCCCCNC(=O)c2ccc(-c3c4nc(c(-c5c(F)cc(S(=O)(=O)[O-])cc5F)c5ccc([nH]5)c(-c5c(F)cc(S(=O)(=O)[O-])cc5F)c5nc(c(-c6c(F)cc(S(=O)(=O)[O-])cc6F)c6ccc3[nH]6)C=C5)C=C4)cc2)CCC[C@@H]1CCN1C(=O)CCC1=O
REMARK SMILES IDX 11 1 10 2 9 3 8 4 6 5 7 6 5 8 84 9 87 10 85 11 86 12 4 13
REMARK SMILES IDX 2 16 1 17 3 18 88 19 89 20 90 21 91 22 95 23 92 24 93 25
REMARK SMILES IDX 94 26 96 27 12 28 13 29 14 30 15 31 16 32 17 34 18 35 19 36
REMARK SMILES IDX 83 37 20 38 82 39 21 40 22 41 23 42 76 43 24 44 81 45 75 46
REMARK SMILES IDX 77 47 25 48 80 49 74 50 73 51 26 53 60 54 39 55 59 56 40 57
REMARK SMILES IDX 43 58 58 59 78 60 41 61 42 62 57 64 79 65 44 66 27 67 28 68
REMARK SMILES IDX 37 69 29 70 30 71 36 72 38 73 31 74 32 75 33 76 34 77 35 78
REMARK SMILES IDX 61 79 62 80 71 81 63 82 64 83 70 84 72 85 65 86 66 87 67 88
REMARK SMILES IDX 68 89 69 90 45 91 46 92 55 93 47 94 48 95 54 96 56 97 49 98
REMARK SMILES IDX 50 99 51 100 52 101 53 102
REMARK H PARENT 8 7 4 14 4 15 15 33 77 52 43 63
REMARK Flexibility Score: inf
ROOT
ATOM      1  C   UNL A   1      34.061  30.422  27.254  1.00  0.00     0.002 C 
ENDROOT
BRANCH   1   2
ATOM      2  C   UNL A   1      32.643  30.503  26.725  1.00  0.00     0.021 C 
BRANCH   2   3
ATOM      3  C   UNL A   1      32.117  29.250  26.039  1.00  0.00     0.116 C 
BRANCH   3   4
ATOM      4  N   UNL A   1      31.900  28.059  26.857  1.00  0.00    -0.351 N 
ATOM      5  C   UNL A   1      31.685  26.737  26.440  1.00  0.00     0.281 C 
ATOM      6  O   UNL A   1      31.612  25.849  27.288  1.00  0.00    -0.268 OA
ATOM      7  H   UNL A   1      31.905  28.203  27.831  1.00  0.00     0.163 HD
BRANCH   5   8
ATOM      8  C   UNL A   1      31.483  26.480  24.886  1.00  0.00     0.178 C 
ATOM      9  C   UNL A   1      30.610  25.156  24.985  1.00  0.00     0.079 C 
ATOM     10  C   UNL A   1      30.472  27.373  24.029  1.00  0.00     0.062 C 
ATOM     11  C   UNL A   1      29.818  25.013  23.732  1.00  0.00     0.008 C 
ATOM     12  C   UNL A   1      29.311  26.416  23.564  1.00  0.00     0.011 C 
BRANCH   8  13
ATOM     13  N   UNL A   1      32.835  26.499  24.244  1.00  0.00    -0.331 N 
ATOM     14  H   UNL A   1      32.849  27.268  23.575  1.00  0.00     0.347 HD
ATOM     15  H   UNL A   1      33.495  26.593  25.017  1.00  0.00     0.347 HD
BRANCH  13  16
ATOM     16  C   UNL A   1      33.257  25.256  23.517  1.00  0.00     0.176 C 
ATOM     17  C   UNL A   1      33.202  25.447  21.993  1.00  0.00     0.075 C 
ATOM     18  C   UNL A   1      34.592  24.616  23.915  1.00  0.00     0.075 C 
ENDBRANCH  13  16
ENDBRANCH   8  13
BRANCH  10  19
ATOM     19  C   UNL A   1      30.784  28.256  22.766  1.00  0.00     0.033 C 
BRANCH  19  20
ATOM     20  C   UNL A   1      30.640  29.760  22.538  1.00  0.00     0.129 C 
BRANCH  20  21
ATOM     21  N   UNL A   1      29.414  30.470  22.828  1.00  0.00    -0.283 N 
ATOM     22  C   UNL A   1      29.165  31.283  23.895  1.00  0.00     0.229 C 
ATOM     23  C   UNL A   1      28.415  30.552  21.897  1.00  0.00     0.229 C 
ATOM     24  O   UNL A   1      29.950  31.672  24.736  1.00  0.00    -0.274 OA
ATOM     25  C   UNL A   1      27.704  31.643  23.874  1.00  0.00     0.110 C 
ATOM     26  C   UNL A   1      27.296  31.388  22.440  1.00  0.00     0.110 C 
ATOM     27  O   UNL A   1      28.425  30.085  20.766  1.00  0.00    -0.274 OA
ENDBRANCH  20  21
ENDBRANCH  19  20
ENDBRANCH  10  19
ENDBRANCH   5   8
ENDBRANCH   3   4
ENDBRANCH   2   3
ENDBRANCH   1   2
BRANCH   1  28
ATOM     28  C   UNL A   1      34.447  31.540  28.222  1.00  0.00     0.002 C 
BRANCH  28  29
ATOM     29  C   UNL A   1      35.776  32.249  27.934  1.00  0.00     0.021 C 
BRANCH  29  30
ATOM     30  C   UNL A   1      36.596  32.617  29.164  1.00  0.00     0.116 C 
BRANCH  30  31
ATOM     31  N   UNL A   1      36.138  31.905  30.343  1.00  0.00    -0.352 N 
ATOM     32  C   UNL A   1      36.606  30.732  30.874  1.00  0.00     0.251 C 
ATOM     33  H   UNL A   1      35.389  32.322  30.828  1.00  0.00     0.163 HD
ATOM     34  O   UNL A   1      35.946  30.123  31.709  1.00  0.00    -0.269 OA
BRANCH  32  35
ATOM     35  C   UNL A   1      37.907  30.206  30.416  1.00  0.00     0.039 A 
ATOM     36  C   UNL A   1      38.100  29.957  29.057  1.00  0.00     0.014 A 
ATOM     37  C   UNL A   1      38.937  29.975  31.335  1.00  0.00     0.014 A 
ATOM     38  C   UNL A   1      39.350  29.529  28.609  1.00  0.00     0.010 A 
ATOM     39  C   UNL A   1      40.200  29.619  30.878  1.00  0.00     0.010 A 
ATOM     40  C   UNL A   1      40.418  29.390  29.511  1.00  0.00    -0.014 A 
BRANCH  40  41
ATOM     41  C   UNL A   1      41.776  29.017  29.042  1.00  0.00     0.031 A 
ATOM     42  C   UNL A   1      42.856  30.058  28.954  1.00  0.00     0.074 A 
ATOM     43  C   UNL A   1      42.011  27.754  28.635  1.00  0.00     0.049 A 
ATOM     44  N   UNL A   1      44.077  29.944  28.501  1.00  0.00    -0.248 NA
ATOM     45  C   UNL A   1      42.511  31.414  29.413  1.00  0.00     0.031 C 
ATOM     46  C   UNL A   1      41.027  26.669  28.634  1.00  0.00     0.029 A 
ATOM     47  N   UNL A   1      43.146  27.171  28.129  1.00  0.00    -0.354 N 
ATOM     48  C   UNL A   1      44.642  31.209  28.611  1.00  0.00     0.074 A 
ATOM     49  C   UNL A   1      43.614  32.089  29.122  1.00  0.00     0.031 C 
ATOM     50  C   UNL A   1      41.606  25.549  28.171  1.00  0.00     0.029 A 
ATOM     51  C   UNL A   1      42.986  25.846  27.801  1.00  0.00     0.049 A 
ATOM     52  H   UNL A   1      43.995  27.657  28.015  1.00  0.00     0.167 HD
ATOM     53  C   UNL A   1      45.909  31.595  28.331  1.00  0.00     0.037 A 
ATOM     54  C   UNL A   1      43.849  24.972  27.247  1.00  0.00     0.037 A 
ATOM     55  C   UNL A   1      46.929  30.707  27.836  1.00  0.00     0.049 A 
ATOM     56  C   UNL A   1      45.245  25.432  26.921  1.00  0.00     0.074 A 
ATOM     57  C   UNL A   1      48.259  30.984  27.577  1.00  0.00     0.029 A 
ATOM     58  N   UNL A   1      46.732  29.370  27.518  1.00  0.00    -0.354 N 
ATOM     59  N   UNL A   1      45.783  26.615  27.097  1.00  0.00    -0.248 NA
ATOM     60  C   UNL A   1      46.149  24.440  26.324  1.00  0.00     0.031 C 
ATOM     61  C   UNL A   1      48.852  29.833  27.050  1.00  0.00     0.029 A 
ATOM     62  C   UNL A   1      47.906  28.819  27.034  1.00  0.00     0.049 A 
ATOM     63  H   UNL A   1      45.881  28.885  27.623  1.00  0.00     0.167 HD
ATOM     64  C   UNL A   1      47.096  26.505  26.651  1.00  0.00     0.074 A 
ATOM     65  C   UNL A   1      47.274  25.134  26.216  1.00  0.00     0.031 C 
ATOM     66  C   UNL A   1      48.066  27.451  26.603  1.00  0.00     0.037 A 
BRANCH  53  67
ATOM     67  C   UNL A   1      46.265  33.040  28.551  1.00  0.00     0.058 A 
ATOM     68  C   UNL A   1      46.134  33.998  27.531  1.00  0.00     0.135 A 
ATOM     69  C   UNL A   1      46.709  33.483  29.808  1.00  0.00     0.135 A 
ATOM     70  F   UNL A   1      45.730  33.628  26.305  1.00  0.00    -0.206 F 
ATOM     71  C   UNL A   1      46.456  35.334  27.741  1.00  0.00     0.059 A 
ATOM     72  C   UNL A   1      47.007  34.822  30.049  1.00  0.00     0.059 A 
ATOM     73  F   UNL A   1      46.856  32.613  30.819  1.00  0.00    -0.206 F 
ATOM     74  C   UNL A   1      46.891  35.737  29.005  1.00  0.00     0.060 A 
BRANCH  74  75
ATOM     75  S   UNL A   1      47.298  37.477  29.261  1.00  0.00     0.124 S 
ATOM     76  O   UNL A   1      48.591  37.377  29.932  1.00  0.00    -0.237 OA
ATOM     77  O   UNL A   1      47.332  37.992  27.896  1.00  0.00    -0.237 OA
ATOM     78  O   UNL A   1      46.199  37.966  30.086  1.00  0.00    -0.744 OA
ENDBRANCH  74  75
ENDBRANCH  53  67
BRANCH  54  79
ATOM     79  C   UNL A   1      43.420  23.574  26.973  1.00  0.00     0.058 A 
ATOM     80  C   UNL A   1      43.184  23.135  25.662  1.00  0.00     0.135 A 
ATOM     81  C   UNL A   1      43.249  22.646  28.013  1.00  0.00     0.135 A 
ATOM     82  F   UNL A   1      43.327  23.985  24.635  1.00  0.00    -0.206 F 
ATOM     83  C   UNL A   1      42.779  21.832  25.391  1.00  0.00     0.059 A 
ATOM     84  C   UNL A   1      42.872  21.330  27.765  1.00  0.00     0.059 A 
ATOM     85  F   UNL A   1      43.478  23.010  29.285  1.00  0.00    -0.206 F 
ATOM     86  C   UNL A   1      42.629  20.935  26.451  1.00  0.00     0.060 A 
BRANCH  86  87
ATOM     87  S   UNL A   1      42.149  19.234  26.083  1.00  0.00     0.124 S 
ATOM     88  O   UNL A   1      42.933  18.960  24.885  1.00  0.00    -0.237 OA
ATOM     89  O   UNL A   1      42.563  18.531  27.293  1.00  0.00    -0.237 OA
ATOM     90  O   UNL A   1      40.705  19.329  25.885  1.00  0.00    -0.744 OA
ENDBRANCH  86  87
ENDBRANCH  54  79
BRANCH  66  91
ATOM     91  C   UNL A   1      49.413  27.037  26.078  1.00  0.00     0.058 A 
ATOM     92  C   UNL A   1      50.399  26.499  26.920  1.00  0.00     0.135 A 
ATOM     93  C   UNL A   1      49.701  27.127  24.706  1.00  0.00     0.135 A 
ATOM     94  F   UNL A   1      50.178  26.399  28.241  1.00  0.00    -0.206 F 
ATOM     95  C   UNL A   1      51.630  26.086  26.425  1.00  0.00     0.059 A 
ATOM     96  C   UNL A   1      50.915  26.691  24.185  1.00  0.00     0.059 A 
ATOM     97  F   UNL A   1      48.791  27.625  23.855  1.00  0.00    -0.206 F 
ATOM     98  C   UNL A   1      51.878  26.181  25.054  1.00  0.00     0.060 A 
BRANCH  98  99
ATOM     99  S   UNL A   1      53.466  25.601  24.421  1.00  0.00     0.124 S 
ATOM    100  O   UNL A   1      54.401  26.446  25.156  1.00  0.00    -0.237 OA
ATOM    101  O   UNL A   1      53.454  24.191  24.796  1.00  0.00    -0.237 OA
ATOM    102  O   UNL A   1      53.376  25.863  22.987  1.00  0.00    -0.744 OA
ENDBRANCH  98  99
ENDBRANCH  66  91
ENDBRANCH  40  41
ENDBRANCH  32  35
ENDBRANCH  30  31
ENDBRANCH  29  30
ENDBRANCH  28  29
ENDBRANCH   1  28
TORSDOF 21
ENDMDL
