MODEL 1
REMARK VINA RESULT:     -11.3      0.000      0.000
REMARK SMILES O=C(COc1ccc(/C=N/NC(=O)c2cc3cc([N+](=O)[O-])ccc3o2)cc1)NCCCCCCNC(=O)c1ccc(-c2c3nc(c(-c4c(F)cc(S(=O)(=O)[O-])cc4F)c4ccc([nH]4)c(-c4c(F)cc(S(=O)(=O)[O-])cc4F)c4nc(c(-c5c(F)cc(S(=O)(=O)[O-])cc5F)c5ccc2[nH]5)C=C4)C=C3)cc1
REMARK SMILES IDX 30 1 29 2 28 3 1 4 2 5 3 7 4 8 5 9 6 10 27 11 7 12 26 13
REMARK SMILES IDX 8 14 9 15 10 16 11 17 12 18 13 20 14 21 15 22 25 23 16 24
REMARK SMILES IDX 24 25 17 26 23 27 18 28 22 29 19 30 20 31 21 32 31 33 32 34
REMARK SMILES IDX 33 35 34 36 35 37 36 38 37 40 38 41 39 42 103 43 40 44
REMARK SMILES IDX 102 45 41 46 42 47 43 48 96 49 44 50 101 51 95 52 97 53
REMARK SMILES IDX 45 54 100 55 94 56 93 57 46 59 80 60 59 61 79 62 60 63 63 64
REMARK SMILES IDX 78 65 98 66 61 67 62 68 77 70 99 71 64 72 47 73 48 74 57 75
REMARK SMILES IDX 49 76 50 77 56 78 58 79 51 80 52 81 53 82 54 83 55 84 81 85
REMARK SMILES IDX 82 86 91 87 83 88 84 89 90 90 92 91 85 92 86 93 87 94 88 95
REMARK SMILES IDX 89 96 65 97 66 98 75 99 67 100 68 101 74 102 76 103 69 104
REMARK SMILES IDX 70 105 71 106 72 107 73 108
REMARK H PARENT 28 6 11 19 35 39 97 58 63 69
REMARK Flexibility Score: inf
ROOT
ATOM      1  C   UNL A   1      44.722  20.510  24.759  1.00  0.00     0.021 C 
ENDROOT
BRANCH   1   2
ATOM      2  C   UNL A   1      43.639  19.663  25.414  1.00  0.00     0.116 C 
BRANCH   2   3
ATOM      3  N   UNL A   1      42.355  20.329  25.434  1.00  0.00    -0.353 N 
ATOM      4  O   UNL A   1      42.351  20.860  27.675  1.00  0.00    -0.271 OA
ATOM      5  C   UNL A   1      41.862  20.966  26.555  1.00  0.00     0.257 C 
ATOM      6  H   UNL A   1      41.810  20.328  24.615  1.00  0.00     0.163 HD
BRANCH   5   7
ATOM      7  C   UNL A   1      40.647  21.854  26.274  1.00  0.00     0.329 C 
BRANCH   7   8
ATOM      8  O   UNL A   1      39.400  21.171  26.139  1.00  0.00    -0.484 OA
BRANCH   8   9
ATOM      9  C   UNL A   1      38.391  21.952  25.637  1.00  0.00     0.120 A 
ATOM     10  C   UNL A   1      38.289  23.254  26.126  1.00  0.00     0.047 A 
ATOM     11  C   UNL A   1      37.406  21.458  24.778  1.00  0.00     0.047 A 
ATOM     12  C   UNL A   1      37.219  24.064  25.734  1.00  0.00     0.013 A 
ATOM     13  C   UNL A   1      36.329  22.254  24.396  1.00  0.00     0.013 A 
ATOM     14  C   UNL A   1      36.236  23.556  24.874  1.00  0.00    -0.005 A 
BRANCH  14  15
ATOM     15  C   UNL A   1      35.020  24.327  24.551  1.00  0.00     0.141 C 
ATOM     16  N   UNL A   1      34.601  25.242  25.356  1.00  0.00    -0.180 NA
BRANCH  16  17
ATOM     17  N   UNL A   1      33.390  25.822  25.183  1.00  0.00    -0.240 N 
ATOM     18  C   UNL A   1      32.118  25.582  25.649  1.00  0.00     0.307 C 
ATOM     19  H   UNL A   1      33.429  26.600  24.581  1.00  0.00     0.194 HD
ATOM     20  O   UNL A   1      31.353  26.553  25.658  1.00  0.00    -0.264 OA
BRANCH  18  21
ATOM     21  C   UNL A   1      31.615  24.266  25.985  1.00  0.00     0.194 A 
ATOM     22  C   UNL A   1      31.056  23.306  25.148  1.00  0.00     0.065 A 
ATOM     23  O   UNL A   1      32.305  23.626  26.989  1.00  0.00    -0.451 OA
ATOM     24  C   UNL A   1      31.792  22.108  25.405  1.00  0.00     0.028 A 
ATOM     25  C   UNL A   1      32.540  22.362  26.547  1.00  0.00     0.135 A 
ATOM     26  C   UNL A   1      32.016  20.910  24.700  1.00  0.00     0.097 A 
ATOM     27  C   UNL A   1      33.506  21.505  27.071  1.00  0.00     0.055 A 
ATOM     28  C   UNL A   1      33.082  20.093  25.131  1.00  0.00     0.270 A 
ATOM     29  C   UNL A   1      33.804  20.375  26.303  1.00  0.00     0.089 A 
BRANCH  28  30
ATOM     30  N   UNL A   1      33.524  18.986  24.270  1.00  0.00     0.062 N 
ATOM     31  O   UNL A   1      32.707  18.522  23.465  1.00  0.00    -0.258 OA
ATOM     32  O   UNL A   1      34.699  18.605  24.385  1.00  0.00    -0.258 OA
ENDBRANCH  28  30
ENDBRANCH  18  21
ENDBRANCH  16  17
ENDBRANCH  14  15
ENDBRANCH   8   9
ENDBRANCH   7   8
ENDBRANCH   5   7
ENDBRANCH   2   3
ENDBRANCH   1   2
BRANCH   1  33
ATOM     33  C   UNL A   1      45.639  21.237  25.748  1.00  0.00     0.002 C 
BRANCH  33  34
ATOM     34  C   UNL A   1      45.442  22.754  25.842  1.00  0.00     0.002 C 
BRANCH  34  35
ATOM     35  C   UNL A   1      45.298  23.312  27.260  1.00  0.00     0.021 C 
BRANCH  35  36
ATOM     36  C   UNL A   1      43.994  24.053  27.536  1.00  0.00     0.116 C 
BRANCH  36  37
ATOM     37  N   UNL A   1      43.231  24.312  26.326  1.00  0.00    -0.352 N 
ATOM     38  C   UNL A   1      42.206  25.203  26.119  1.00  0.00     0.251 C 
ATOM     39  H   UNL A   1      43.486  23.772  25.543  1.00  0.00     0.163 HD
ATOM     40  O   UNL A   1      41.570  25.171  25.067  1.00  0.00    -0.269 OA
BRANCH  38  41
ATOM     41  C   UNL A   1      41.851  26.179  27.171  1.00  0.00     0.039 A 
ATOM     42  C   UNL A   1      40.874  25.836  28.111  1.00  0.00     0.014 A 
ATOM     43  C   UNL A   1      42.484  27.423  27.240  1.00  0.00     0.014 A 
ATOM     44  C   UNL A   1      40.585  26.713  29.160  1.00  0.00     0.010 A 
ATOM     45  C   UNL A   1      42.246  28.263  28.326  1.00  0.00     0.010 A 
ATOM     46  C   UNL A   1      41.298  27.916  29.300  1.00  0.00    -0.014 A 
BRANCH  46  47
ATOM     47  C   UNL A   1      41.080  28.812  30.466  1.00  0.00     0.031 A 
ATOM     48  C   UNL A   1      41.898  28.643  31.718  1.00  0.00     0.074 A 
ATOM     49  C   UNL A   1      40.095  29.731  30.423  1.00  0.00     0.049 A 
ATOM     50  N   UNL A   1      41.799  29.273  32.860  1.00  0.00    -0.248 NA
ATOM     51  C   UNL A   1      42.949  27.613  31.690  1.00  0.00     0.031 C 
ATOM     52  C   UNL A   1      39.202  29.962  29.285  1.00  0.00     0.029 A 
ATOM     53  N   UNL A   1      39.668  30.635  31.365  1.00  0.00    -0.354 N 
ATOM     54  C   UNL A   1      42.762  28.711  33.690  1.00  0.00     0.074 A 
ATOM     55  C   UNL A   1      43.399  27.653  32.936  1.00  0.00     0.031 C 
ATOM     56  C   UNL A   1      38.348  30.953  29.588  1.00  0.00     0.029 A 
ATOM     57  C   UNL A   1      38.602  31.400  30.953  1.00  0.00     0.049 A 
ATOM     58  H   UNL A   1      40.086  30.727  32.251  1.00  0.00     0.167 HD
ATOM     59  C   UNL A   1      43.099  29.059  34.955  1.00  0.00     0.037 A 
ATOM     60  C   UNL A   1      37.898  32.347  31.605  1.00  0.00     0.037 A 
ATOM     61  C   UNL A   1      42.472  30.126  35.692  1.00  0.00     0.049 A 
ATOM     62  C   UNL A   1      38.281  32.707  33.015  1.00  0.00     0.074 A 
ATOM     63  C   UNL A   1      42.782  30.593  36.957  1.00  0.00     0.029 A 
ATOM     64  N   UNL A   1      41.407  30.889  35.235  1.00  0.00    -0.354 N 
ATOM     65  N   UNL A   1      39.239  32.210  33.760  1.00  0.00    -0.248 NA
ATOM     66  C   UNL A   1      37.494  33.761  33.671  1.00  0.00     0.031 C 
ATOM     67  C   UNL A   1      41.872  31.604  37.286  1.00  0.00     0.029 A 
ATOM     68  C   UNL A   1      41.031  31.806  36.203  1.00  0.00     0.049 A 
ATOM     69  H   UNL A   1      40.981  30.793  34.353  1.00  0.00     0.167 HD
ATOM     70  C   UNL A   1      39.188  32.907  34.962  1.00  0.00     0.074 A 
ATOM     71  C   UNL A   1      38.112  33.870  34.840  1.00  0.00     0.031 C 
ATOM     72  C   UNL A   1      39.961  32.764  36.067  1.00  0.00     0.037 A 
BRANCH  59  73
ATOM     73  C   UNL A   1      44.197  28.279  35.625  1.00  0.00     0.058 A 
ATOM     74  C   UNL A   1      45.544  28.662  35.523  1.00  0.00     0.135 A 
ATOM     75  C   UNL A   1      43.897  27.155  36.414  1.00  0.00     0.135 A 
ATOM     76  F   UNL A   1      45.890  29.720  34.772  1.00  0.00    -0.206 F 
ATOM     77  C   UNL A   1      46.555  27.945  36.152  1.00  0.00     0.059 A 
ATOM     78  C   UNL A   1      44.890  26.439  37.076  1.00  0.00     0.059 A 
ATOM     79  F   UNL A   1      42.626  26.743  36.548  1.00  0.00    -0.206 F 
ATOM     80  C   UNL A   1      46.219  26.834  36.927  1.00  0.00     0.060 A 
BRANCH  80  81
ATOM     81  S   UNL A   1      47.544  25.916  37.739  1.00  0.00     0.124 S 
ATOM     82  O   UNL A   1      48.713  26.366  36.987  1.00  0.00    -0.237 OA
ATOM     83  O   UNL A   1      47.455  26.393  39.116  1.00  0.00    -0.237 OA
ATOM     84  O   UNL A   1      47.168  24.521  37.535  1.00  0.00    -0.744 OA
ENDBRANCH  80  81
ENDBRANCH  59  73
BRANCH  60  85
ATOM     85  C   UNL A   1      36.765  33.030  30.925  1.00  0.00     0.058 A 
ATOM     86  C   UNL A   1      36.995  33.972  29.910  1.00  0.00     0.135 A 
ATOM     87  C   UNL A   1      35.433  32.747  31.264  1.00  0.00     0.135 A 
ATOM     88  F   UNL A   1      38.251  34.283  29.557  1.00  0.00    -0.206 F 
ATOM     89  C   UNL A   1      35.946  34.622  29.267  1.00  0.00     0.059 A 
ATOM     90  C   UNL A   1      34.367  33.363  30.615  1.00  0.00     0.059 A 
ATOM     91  F   UNL A   1      35.158  31.841  32.216  1.00  0.00    -0.206 F 
ATOM     92  C   UNL A   1      34.635  34.306  29.624  1.00  0.00     0.060 A 
BRANCH  92  93
ATOM     93  S   UNL A   1      33.281  35.115  28.745  1.00  0.00     0.124 S 
ATOM     94  O   UNL A   1      32.442  35.564  29.850  1.00  0.00    -0.237 OA
ATOM     95  O   UNL A   1      33.979  36.160  28.004  1.00  0.00    -0.237 OA
ATOM     96  O   UNL A   1      32.727  34.040  27.926  1.00  0.00    -0.744 OA
ENDBRANCH  92  93
ENDBRANCH  60  85
BRANCH  72  97
ATOM     97  C   UNL A   1      39.701  33.689  37.224  1.00  0.00     0.058 A 
ATOM     98  C   UNL A   1      38.778  33.371  38.232  1.00  0.00     0.135 A 
ATOM     99  C   UNL A   1      40.428  34.883  37.355  1.00  0.00     0.135 A 
ATOM    100  F   UNL A   1      38.050  32.245  38.151  1.00  0.00    -0.206 F 
ATOM    101  C   UNL A   1      38.571  34.213  39.319  1.00  0.00     0.059 A 
ATOM    102  C   UNL A   1      40.259  35.727  38.449  1.00  0.00     0.059 A 
ATOM    103  F   UNL A   1      41.330  35.232  36.424  1.00  0.00    -0.206 F 
ATOM    104  C   UNL A   1      39.320  35.387  39.422  1.00  0.00     0.060 A 
BRANCH 104 105
ATOM    105  S   UNL A   1      39.073  36.448  40.861  1.00  0.00     0.124 S 
ATOM    106  O   UNL A   1      38.331  35.564  41.755  1.00  0.00    -0.237 OA
ATOM    107  O   UNL A   1      40.442  36.753  41.263  1.00  0.00    -0.237 OA
ATOM    108  O   UNL A   1      38.316  37.576  40.326  1.00  0.00    -0.744 OA
ENDBRANCH 104 105
ENDBRANCH  72  97
ENDBRANCH  46  47
ENDBRANCH  38  41
ENDBRANCH  36  37
ENDBRANCH  35  36
ENDBRANCH  34  35
ENDBRANCH  33  34
ENDBRANCH   1  33
TORSDOF 22
ENDMDL
MODEL 2
REMARK VINA RESULT:     -11.1      0.832      7.867
REMARK SMILES O=C(COc1ccc(/C=N/NC(=O)c2cc3cc([N+](=O)[O-])ccc3o2)cc1)NCCCCCCNC(=O)c1ccc(-c2c3nc(c(-c4c(F)cc(S(=O)(=O)[O-])cc4F)c4ccc([nH]4)c(-c4c(F)cc(S(=O)(=O)[O-])cc4F)c4nc(c(-c5c(F)cc(S(=O)(=O)[O-])cc5F)c5ccc2[nH]5)C=C4)C=C3)cc1
REMARK SMILES IDX 30 1 29 2 28 3 1 4 2 5 3 7 4 8 5 9 6 10 27 11 7 12 26 13
REMARK SMILES IDX 8 14 9 15 10 16 11 17 12 18 13 20 14 21 15 22 25 23 16 24
REMARK SMILES IDX 24 25 17 26 23 27 18 28 22 29 19 30 20 31 21 32 31 33 32 34
REMARK SMILES IDX 33 35 34 36 35 37 36 38 37 40 38 41 39 42 103 43 40 44
REMARK SMILES IDX 102 45 41 46 42 47 43 48 96 49 44 50 101 51 95 52 97 53
REMARK SMILES IDX 45 54 100 55 94 56 93 57 46 59 80 60 59 61 79 62 60 63 63 64
REMARK SMILES IDX 78 65 98 66 61 67 62 68 77 70 99 71 64 72 47 73 48 74 57 75
REMARK SMILES IDX 49 76 50 77 56 78 58 79 51 80 52 81 53 82 54 83 55 84 81 85
REMARK SMILES IDX 82 86 91 87 83 88 84 89 90 90 92 91 85 92 86 93 87 94 88 95
REMARK SMILES IDX 89 96 65 97 66 98 75 99 67 100 68 101 74 102 76 103 69 104
REMARK SMILES IDX 70 105 71 106 72 107 73 108
REMARK H PARENT 28 6 11 19 35 39 97 58 63 69
REMARK Flexibility Score: inf
ROOT
ATOM      1  C   UNL A   1      44.166  20.900  24.982  1.00  0.00     0.021 C 
ENDROOT
BRANCH   1   2
ATOM      2  C   UNL A   1      43.186  20.881  26.147  1.00  0.00     0.116 C 
BRANCH   2   3
ATOM      3  N   UNL A   1      41.904  21.456  25.799  1.00  0.00    -0.353 N 
ATOM      4  O   UNL A   1      40.604  19.992  27.011  1.00  0.00    -0.271 OA
ATOM      5  C   UNL A   1      40.717  21.018  26.348  1.00  0.00     0.257 C 
ATOM      6  H   UNL A   1      41.879  22.189  25.143  1.00  0.00     0.163 HD
BRANCH   5   7
ATOM      7  C   UNL A   1      39.533  21.952  26.080  1.00  0.00     0.329 C 
BRANCH   7   8
ATOM      8  O   UNL A   1      38.442  21.376  25.359  1.00  0.00    -0.484 OA
BRANCH   8   9
ATOM      9  C   UNL A   1      37.485  22.283  24.984  1.00  0.00     0.120 A 
ATOM     10  C   UNL A   1      37.118  23.247  25.923  1.00  0.00     0.047 A 
ATOM     11  C   UNL A   1      36.787  22.193  23.777  1.00  0.00     0.047 A 
ATOM     12  C   UNL A   1      36.073  24.133  25.639  1.00  0.00     0.013 A 
ATOM     13  C   UNL A   1      35.734  23.060  23.495  1.00  0.00     0.013 A 
ATOM     14  C   UNL A   1      35.378  24.029  24.427  1.00  0.00    -0.005 A 
BRANCH  14  15
ATOM     15  C   UNL A   1      34.181  24.847  24.151  1.00  0.00     0.141 C 
ATOM     16  N   UNL A   1      34.108  26.056  24.592  1.00  0.00    -0.180 NA
BRANCH  16  17
ATOM     17  N   UNL A   1      32.950  26.754  24.524  1.00  0.00    -0.240 N 
ATOM     18  C   UNL A   1      31.749  26.719  25.194  1.00  0.00     0.307 C 
ATOM     19  H   UNL A   1      32.973  27.453  23.830  1.00  0.00     0.194 HD
ATOM     20  O   UNL A   1      31.098  27.770  25.192  1.00  0.00    -0.264 OA
BRANCH  18  21
ATOM     21  C   UNL A   1      31.173  25.517  25.760  1.00  0.00     0.194 A 
ATOM     22  C   UNL A   1      30.551  24.457  25.109  1.00  0.00     0.065 A 
ATOM     23  O   UNL A   1      31.836  25.026  26.862  1.00  0.00    -0.451 OA
ATOM     24  C   UNL A   1      31.219  23.284  25.575  1.00  0.00     0.028 A 
ATOM     25  C   UNL A   1      31.992  23.692  26.653  1.00  0.00     0.135 A 
ATOM     26  C   UNL A   1      31.364  21.967  25.096  1.00  0.00     0.097 A 
ATOM     27  C   UNL A   1      32.911  22.887  27.322  1.00  0.00     0.055 A 
ATOM     28  C   UNL A   1      32.385  21.179  25.666  1.00  0.00     0.270 A 
ATOM     29  C   UNL A   1      33.135  21.622  26.769  1.00  0.00     0.089 A 
BRANCH  28  30
ATOM     30  N   UNL A   1      32.753  19.912  25.017  1.00  0.00     0.062 N 
ATOM     31  O   UNL A   1      32.948  18.929  25.744  1.00  0.00    -0.258 OA
ATOM     32  O   UNL A   1      32.818  19.899  23.779  1.00  0.00    -0.258 OA
ENDBRANCH  28  30
ENDBRANCH  18  21
ENDBRANCH  16  17
ENDBRANCH  14  15
ENDBRANCH   8   9
ENDBRANCH   7   8
ENDBRANCH   5   7
ENDBRANCH   2   3
ENDBRANCH   1   2
BRANCH   1  33
ATOM     33  C   UNL A   1      45.485  21.622  25.280  1.00  0.00     0.002 C 
BRANCH  33  34
ATOM     34  C   UNL A   1      45.544  23.094  24.859  1.00  0.00     0.002 C 
BRANCH  34  35
ATOM     35  C   UNL A   1      45.558  24.106  26.007  1.00  0.00     0.021 C 
BRANCH  35  36
ATOM     36  C   UNL A   1      44.203  24.371  26.655  1.00  0.00     0.116 C 
BRANCH  36  37
ATOM     37  N   UNL A   1      43.212  24.850  25.705  1.00  0.00    -0.352 N 
ATOM     38  C   UNL A   1      42.165  25.717  25.903  1.00  0.00     0.251 C 
ATOM     39  H   UNL A   1      43.305  24.503  24.788  1.00  0.00     0.163 HD
ATOM     40  O   UNL A   1      41.331  25.884  25.015  1.00  0.00    -0.269 OA
BRANCH  38  41
ATOM     41  C   UNL A   1      42.027  26.426  27.194  1.00  0.00     0.039 A 
ATOM     42  C   UNL A   1      42.746  27.608  27.397  1.00  0.00     0.014 A 
ATOM     43  C   UNL A   1      41.187  25.935  28.197  1.00  0.00     0.014 A 
ATOM     44  C   UNL A   1      42.564  28.334  28.576  1.00  0.00     0.010 A 
ATOM     45  C   UNL A   1      40.954  26.697  29.341  1.00  0.00     0.010 A 
ATOM     46  C   UNL A   1      41.636  27.906  29.541  1.00  0.00    -0.014 A 
BRANCH  46  47
ATOM     47  C   UNL A   1      41.352  28.718  30.753  1.00  0.00     0.031 A 
ATOM     48  C   UNL A   1      40.221  29.711  30.756  1.00  0.00     0.074 A 
ATOM     49  C   UNL A   1      42.159  28.612  31.828  1.00  0.00     0.049 A 
ATOM     50  N   UNL A   1      39.870  30.561  31.687  1.00  0.00    -0.248 NA
ATOM     51  C   UNL A   1      39.390  29.772  29.543  1.00  0.00     0.031 C 
ATOM     52  C   UNL A   1      43.317  27.721  31.933  1.00  0.00     0.029 A 
ATOM     53  N   UNL A   1      42.139  29.269  33.034  1.00  0.00    -0.354 N 
ATOM     54  C   UNL A   1      38.789  31.266  31.171  1.00  0.00     0.074 A 
ATOM     55  C   UNL A   1      38.575  30.779  29.824  1.00  0.00     0.031 C 
ATOM     56  C   UNL A   1      43.883  27.874  33.141  1.00  0.00     0.029 A 
ATOM     57  C   UNL A   1      43.158  28.901  33.881  1.00  0.00     0.049 A 
ATOM     58  H   UNL A   1      41.459  29.940  33.270  1.00  0.00     0.167 HD
ATOM     59  C   UNL A   1      38.032  32.215  31.770  1.00  0.00     0.037 A 
ATOM     60  C   UNL A   1      43.483  29.349  35.110  1.00  0.00     0.037 A 
ATOM     61  C   UNL A   1      38.240  32.680  33.118  1.00  0.00     0.049 A 
ATOM     62  C   UNL A   1      42.634  30.413  35.752  1.00  0.00     0.074 A 
ATOM     63  C   UNL A   1      37.490  33.596  33.835  1.00  0.00     0.029 A 
ATOM     64  N   UNL A   1      39.272  32.272  33.949  1.00  0.00    -0.354 N 
ATOM     65  N   UNL A   1      41.575  31.022  35.273  1.00  0.00    -0.248 NA
ATOM     66  C   UNL A   1      43.020  30.850  37.101  1.00  0.00     0.031 C 
ATOM     67  C   UNL A   1      38.098  33.779  35.082  1.00  0.00     0.029 A 
ATOM     68  C   UNL A   1      39.195  32.935  35.163  1.00  0.00     0.049 A 
ATOM     69  H   UNL A   1      39.959  31.608  33.712  1.00  0.00     0.167 HD
ATOM     70  C   UNL A   1      41.152  31.892  36.272  1.00  0.00     0.074 A 
ATOM     71  C   UNL A   1      42.062  31.723  37.386  1.00  0.00     0.031 C 
ATOM     72  C   UNL A   1      40.104  32.753  36.268  1.00  0.00     0.037 A 
BRANCH  59  73
ATOM     73  C   UNL A   1      36.905  32.816  30.975  1.00  0.00     0.058 A 
ATOM     74  C   UNL A   1      35.589  32.336  31.080  1.00  0.00     0.135 A 
ATOM     75  C   UNL A   1      37.134  33.911  30.126  1.00  0.00     0.135 A 
ATOM     76  F   UNL A   1      35.314  31.283  31.866  1.00  0.00    -0.206 F 
ATOM     77  C   UNL A   1      34.548  32.900  30.351  1.00  0.00     0.059 A 
ATOM     78  C   UNL A   1      36.102  34.510  29.409  1.00  0.00     0.059 A 
ATOM     79  F   UNL A   1      38.372  34.412  29.987  1.00  0.00    -0.206 F 
ATOM     80  C   UNL A   1      34.814  33.987  29.517  1.00  0.00     0.060 A 
BRANCH  80  81
ATOM     81  S   UNL A   1      33.450  34.708  28.580  1.00  0.00     0.124 S 
ATOM     82  O   UNL A   1      32.523  35.071  29.649  1.00  0.00    -0.237 OA
ATOM     83  O   UNL A   1      34.096  35.825  27.898  1.00  0.00    -0.237 OA
ATOM     84  O   UNL A   1      33.014  33.616  27.716  1.00  0.00    -0.744 OA
ENDBRANCH  80  81
ENDBRANCH  59  73
BRANCH  60  85
ATOM     85  C   UNL A   1      44.659  28.780  35.821  1.00  0.00     0.058 A 
ATOM     86  C   UNL A   1      45.948  29.292  35.609  1.00  0.00     0.135 A 
ATOM     87  C   UNL A   1      44.517  27.726  36.737  1.00  0.00     0.135 A 
ATOM     88  F   UNL A   1      46.136  30.294  34.737  1.00  0.00    -0.206 F 
ATOM     89  C   UNL A   1      47.058  28.768  36.264  1.00  0.00     0.059 A 
ATOM     90  C   UNL A   1      45.608  27.204  37.426  1.00  0.00     0.059 A 
ATOM     91  F   UNL A   1      43.303  27.211  36.990  1.00  0.00    -0.206 F 
ATOM     92  C   UNL A   1      46.876  27.727  37.175  1.00  0.00     0.060 A 
BRANCH  92  93
ATOM     93  S   UNL A   1      48.315  27.091  38.061  1.00  0.00     0.124 S 
ATOM     94  O   UNL A   1      47.958  27.378  39.445  1.00  0.00    -0.237 OA
ATOM     95  O   UNL A   1      48.313  25.683  37.677  1.00  0.00    -0.237 OA
ATOM     96  O   UNL A   1      49.417  27.879  37.515  1.00  0.00    -0.744 OA
ENDBRANCH  92  93
ENDBRANCH  60  85
BRANCH  72  97
ATOM     97  C   UNL A   1      39.858  33.557  37.515  1.00  0.00     0.058 A 
ATOM     98  C   UNL A   1      40.549  34.751  37.773  1.00  0.00     0.135 A 
ATOM     99  C   UNL A   1      38.876  33.157  38.435  1.00  0.00     0.135 A 
ATOM    100  F   UNL A   1      41.505  35.175  36.930  1.00  0.00    -0.206 F 
ATOM    101  C   UNL A   1      40.289  35.510  38.909  1.00  0.00     0.059 A 
ATOM    102  C   UNL A   1      38.578  33.915  39.563  1.00  0.00     0.059 A 
ATOM    103  F   UNL A   1      38.179  32.027  38.232  1.00  0.00    -0.206 F 
ATOM    104  C   UNL A   1      39.297  35.086  39.796  1.00  0.00     0.060 A 
BRANCH 104 105
ATOM    105  S   UNL A   1      38.939  36.104  41.243  1.00  0.00     0.124 S 
ATOM    106  O   UNL A   1      40.195  36.019  41.981  1.00  0.00    -0.237 OA
ATOM    107  O   UNL A   1      38.640  37.401  40.646  1.00  0.00    -0.237 OA
ATOM    108  O   UNL A   1      37.803  35.427  41.862  1.00  0.00    -0.744 OA
ENDBRANCH 104 105
ENDBRANCH  72  97
ENDBRANCH  46  47
ENDBRANCH  38  41
ENDBRANCH  36  37
ENDBRANCH  35  36
ENDBRANCH  34  35
ENDBRANCH  33  34
ENDBRANCH   1  33
TORSDOF 22
ENDMDL
MODEL 3
REMARK VINA RESULT:     -10.0      4.445     10.140
REMARK SMILES O=C(COc1ccc(/C=N/NC(=O)c2cc3cc([N+](=O)[O-])ccc3o2)cc1)NCCCCCCNC(=O)c1ccc(-c2c3nc(c(-c4c(F)cc(S(=O)(=O)[O-])cc4F)c4ccc([nH]4)c(-c4c(F)cc(S(=O)(=O)[O-])cc4F)c4nc(c(-c5c(F)cc(S(=O)(=O)[O-])cc5F)c5ccc2[nH]5)C=C4)C=C3)cc1
REMARK SMILES IDX 30 1 29 2 28 3 1 4 2 5 3 7 4 8 5 9 6 10 27 11 7 12 26 13
REMARK SMILES IDX 8 14 9 15 10 16 11 17 12 18 13 20 14 21 15 22 25 23 16 24
REMARK SMILES IDX 24 25 17 26 23 27 18 28 22 29 19 30 20 31 21 32 31 33 32 34
REMARK SMILES IDX 33 35 34 36 35 37 36 38 37 40 38 41 39 42 103 43 40 44
REMARK SMILES IDX 102 45 41 46 42 47 43 48 96 49 44 50 101 51 95 52 97 53
REMARK SMILES IDX 45 54 100 55 94 56 93 57 46 59 80 60 59 61 79 62 60 63 63 64
REMARK SMILES IDX 78 65 98 66 61 67 62 68 77 70 99 71 64 72 47 73 48 74 57 75
REMARK SMILES IDX 49 76 50 77 56 78 58 79 51 80 52 81 53 82 54 83 55 84 81 85
REMARK SMILES IDX 82 86 91 87 83 88 84 89 90 90 92 91 85 92 86 93 87 94 88 95
REMARK SMILES IDX 89 96 65 97 66 98 75 99 67 100 68 101 74 102 76 103 69 104
REMARK SMILES IDX 70 105 71 106 72 107 73 108
REMARK H PARENT 28 6 11 19 35 39 97 58 63 69
REMARK Flexibility Score: inf
ROOT
ATOM      1  C   UNL A   1      44.571  24.972  27.750  1.00  0.00     0.021 C 
ENDROOT
BRANCH   1   2
ATOM      2  C   UNL A   1      43.247  24.529  28.357  1.00  0.00     0.116 C 
BRANCH   2   3
ATOM      3  N   UNL A   1      42.182  25.476  28.110  1.00  0.00    -0.353 N 
ATOM      4  O   UNL A   1      40.909  24.116  26.756  1.00  0.00    -0.271 OA
ATOM      5  C   UNL A   1      41.042  25.149  27.405  1.00  0.00     0.257 C 
ATOM      6  H   UNL A   1      42.274  26.391  28.459  1.00  0.00     0.163 HD
BRANCH   5   7
ATOM      7  C   UNL A   1      39.925  26.189  27.522  1.00  0.00     0.329 C 
BRANCH   7   8
ATOM      8  O   UNL A   1      40.267  27.513  27.103  1.00  0.00    -0.484 OA
BRANCH   8   9
ATOM      9  C   UNL A   1      40.117  28.460  28.083  1.00  0.00     0.120 A 
ATOM     10  C   UNL A   1      38.908  29.154  28.121  1.00  0.00     0.047 A 
ATOM     11  C   UNL A   1      41.158  28.838  28.936  1.00  0.00     0.047 A 
ATOM     12  C   UNL A   1      38.736  30.204  29.028  1.00  0.00     0.013 A 
ATOM     13  C   UNL A   1      40.999  29.894  29.830  1.00  0.00     0.013 A 
ATOM     14  C   UNL A   1      39.789  30.576  29.875  1.00  0.00    -0.005 A 
BRANCH  14  15
ATOM     15  C   UNL A   1      39.697  31.766  30.743  1.00  0.00     0.141 C 
ATOM     16  N   UNL A   1      39.249  31.657  31.946  1.00  0.00    -0.180 NA
BRANCH  16  17
ATOM     17  N   UNL A   1      38.970  32.754  32.689  1.00  0.00    -0.240 N 
ATOM     18  C   UNL A   1      37.857  33.236  33.337  1.00  0.00     0.307 C 
ATOM     19  H   UNL A   1      39.750  33.348  32.788  1.00  0.00     0.194 HD
ATOM     20  O   UNL A   1      38.072  34.012  34.276  1.00  0.00    -0.264 OA
BRANCH  18  21
ATOM     21  C   UNL A   1      36.498  32.995  32.899  1.00  0.00     0.194 A 
ATOM     22  C   UNL A   1      35.333  33.661  33.263  1.00  0.00     0.065 A 
ATOM     23  O   UNL A   1      36.380  32.589  31.589  1.00  0.00    -0.451 OA
ATOM     24  C   UNL A   1      34.713  34.037  32.032  1.00  0.00     0.028 A 
ATOM     25  C   UNL A   1      35.395  33.348  31.039  1.00  0.00     0.135 A 
ATOM     26  C   UNL A   1      33.761  35.003  31.655  1.00  0.00     0.097 A 
ATOM     27  C   UNL A   1      35.204  33.527  29.671  1.00  0.00     0.055 A 
ATOM     28  C   UNL A   1      33.648  35.301  30.280  1.00  0.00     0.270 A 
ATOM     29  C   UNL A   1      34.343  34.568  29.304  1.00  0.00     0.089 A 
BRANCH  28  30
ATOM     30  N   UNL A   1      32.877  36.483  29.868  1.00  0.00     0.062 N 
ATOM     31  O   UNL A   1      32.227  36.407  28.817  1.00  0.00    -0.258 OA
ATOM     32  O   UNL A   1      32.902  37.473  30.614  1.00  0.00    -0.258 OA
ENDBRANCH  28  30
ENDBRANCH  18  21
ENDBRANCH  16  17
ENDBRANCH  14  15
ENDBRANCH   8   9
ENDBRANCH   7   8
ENDBRANCH   5   7
ENDBRANCH   2   3
ENDBRANCH   1   2
BRANCH   1  33
ATOM     33  C   UNL A   1      45.658  23.891  27.751  1.00  0.00     0.002 C 
BRANCH  33  34
ATOM     34  C   UNL A   1      46.031  23.324  26.378  1.00  0.00     0.002 C 
BRANCH  34  35
ATOM     35  C   UNL A   1      46.246  24.362  25.274  1.00  0.00     0.021 C 
BRANCH  35  36
ATOM     36  C   UNL A   1      47.511  25.202  25.411  1.00  0.00     0.116 C 
BRANCH  36  37
ATOM     37  N   UNL A   1      47.681  26.142  24.314  1.00  0.00    -0.352 N 
ATOM     38  C   UNL A   1      47.241  27.439  24.205  1.00  0.00     0.251 C 
ATOM     39  H   UNL A   1      48.182  25.799  23.539  1.00  0.00     0.163 HD
ATOM     40  O   UNL A   1      47.341  28.031  23.132  1.00  0.00    -0.269 OA
BRANCH  38  41
ATOM     41  C   UNL A   1      46.623  28.110  25.369  1.00  0.00     0.039 A 
ATOM     42  C   UNL A   1      45.246  27.983  25.571  1.00  0.00     0.014 A 
ATOM     43  C   UNL A   1      47.398  28.855  26.263  1.00  0.00     0.014 A 
ATOM     44  C   UNL A   1      44.660  28.541  26.710  1.00  0.00     0.010 A 
ATOM     45  C   UNL A   1      46.824  29.349  27.433  1.00  0.00     0.010 A 
ATOM     46  C   UNL A   1      45.450  29.194  27.672  1.00  0.00    -0.014 A 
BRANCH  46  47
ATOM     47  C   UNL A   1      44.863  29.703  28.938  1.00  0.00     0.031 A 
ATOM     48  C   UNL A   1      44.340  31.112  29.022  1.00  0.00     0.074 A 
ATOM     49  C   UNL A   1      44.865  28.919  30.035  1.00  0.00     0.049 A 
ATOM     50  N   UNL A   1      43.867  31.757  30.058  1.00  0.00    -0.248 NA
ATOM     51  C   UNL A   1      44.378  31.908  27.785  1.00  0.00     0.031 C 
ATOM     52  C   UNL A   1      45.386  27.551  30.096  1.00  0.00     0.029 A 
ATOM     53  N   UNL A   1      44.430  29.162  31.315  1.00  0.00    -0.354 N 
ATOM     54  C   UNL A   1      43.562  33.035  29.603  1.00  0.00     0.074 A 
ATOM     55  C   UNL A   1      43.954  33.089  28.210  1.00  0.00     0.031 C 
ATOM     56  C   UNL A   1      45.223  27.071  31.339  1.00  0.00     0.029 A 
ATOM     57  C   UNL A   1      44.627  28.108  32.176  1.00  0.00     0.049 A 
ATOM     58  H   UNL A   1      44.016  30.011  31.589  1.00  0.00     0.167 HD
ATOM     59  C   UNL A   1      42.990  34.061  30.277  1.00  0.00     0.037 A 
ATOM     60  C   UNL A   1      44.370  27.992  33.494  1.00  0.00     0.037 A 
ATOM     61  C   UNL A   1      42.586  33.992  31.659  1.00  0.00     0.049 A 
ATOM     62  C   UNL A   1      43.746  29.149  34.225  1.00  0.00     0.074 A 
ATOM     63  C   UNL A   1      41.944  34.958  32.414  1.00  0.00     0.029 A 
ATOM     64  N   UNL A   1      42.787  32.902  32.492  1.00  0.00    -0.354 N 
ATOM     65  N   UNL A   1      43.404  30.328  33.762  1.00  0.00    -0.248 NA
ATOM     66  C   UNL A   1      43.467  28.961  35.656  1.00  0.00     0.031 C 
ATOM     67  C   UNL A   1      41.803  34.471  33.718  1.00  0.00     0.029 A 
ATOM     68  C   UNL A   1      42.306  33.180  33.761  1.00  0.00     0.049 A 
ATOM     69  H   UNL A   1      43.209  32.055  32.222  1.00  0.00     0.167 HD
ATOM     70  C   UNL A   1      42.845  31.011  34.836  1.00  0.00     0.074 A 
ATOM     71  C   UNL A   1      42.884  30.110  35.970  1.00  0.00     0.031 C 
ATOM     72  C   UNL A   1      42.344  32.271  34.881  1.00  0.00     0.037 A 
BRANCH  59  73
ATOM     73  C   UNL A   1      42.763  35.348  29.531  1.00  0.00     0.058 A 
ATOM     74  C   UNL A   1      43.740  36.355  29.482  1.00  0.00     0.135 A 
ATOM     75  C   UNL A   1      41.570  35.561  28.822  1.00  0.00     0.135 A 
ATOM     76  F   UNL A   1      44.895  36.210  30.153  1.00  0.00    -0.206 F 
ATOM     77  C   UNL A   1      43.532  37.539  28.784  1.00  0.00     0.059 A 
ATOM     78  C   UNL A   1      41.351  36.726  28.091  1.00  0.00     0.059 A 
ATOM     79  F   UNL A   1      40.601  34.633  28.832  1.00  0.00    -0.206 F 
ATOM     80  C   UNL A   1      42.333  37.716  28.091  1.00  0.00     0.060 A 
BRANCH  80  81
ATOM     81  S   UNL A   1      42.081  39.257  27.186  1.00  0.00     0.124 S 
ATOM     82  O   UNL A   1      41.530  40.120  28.229  1.00  0.00    -0.237 OA
ATOM     83  O   UNL A   1      43.433  39.584  26.743  1.00  0.00    -0.237 OA
ATOM     84  O   UNL A   1      41.150  38.883  26.127  1.00  0.00    -0.744 OA
ENDBRANCH  80  81
ENDBRANCH  59  73
BRANCH  60  85
ATOM     85  C   UNL A   1      44.690  26.725  34.203  1.00  0.00     0.058 A 
ATOM     86  C   UNL A   1      45.993  26.456  34.650  1.00  0.00     0.135 A 
ATOM     87  C   UNL A   1      43.700  25.764  34.463  1.00  0.00     0.135 A 
ATOM     88  F   UNL A   1      46.976  27.339  34.418  1.00  0.00    -0.206 F 
ATOM     89  C   UNL A   1      46.309  25.274  35.313  1.00  0.00     0.059 A 
ATOM     90  C   UNL A   1      43.985  24.587  35.149  1.00  0.00     0.059 A 
ATOM     91  F   UNL A   1      42.434  25.979  34.073  1.00  0.00    -0.206 F 
ATOM     92  C   UNL A   1      45.295  24.348  35.561  1.00  0.00     0.060 A 
BRANCH  92  93
ATOM     93  S   UNL A   1      45.704  22.842  36.470  1.00  0.00     0.124 S 
ATOM     94  O   UNL A   1      44.903  21.848  35.767  1.00  0.00    -0.237 OA
ATOM     95  O   UNL A   1      47.148  22.753  36.279  1.00  0.00    -0.237 OA
ATOM     96  O   UNL A   1      45.278  23.150  37.832  1.00  0.00    -0.744 OA
ENDBRANCH  92  93
ENDBRANCH  60  85
BRANCH  72  97
ATOM     97  C   UNL A   1      41.765  32.744  36.185  1.00  0.00     0.058 A 
ATOM     98  C   UNL A   1      42.508  33.524  37.085  1.00  0.00     0.135 A 
ATOM     99  C   UNL A   1      40.428  32.464  36.511  1.00  0.00     0.135 A 
ATOM    100  F   UNL A   1      43.794  33.815  36.826  1.00  0.00    -0.206 F 
ATOM    101  C   UNL A   1      41.954  33.991  38.271  1.00  0.00     0.059 A 
ATOM    102  C   UNL A   1      39.843  32.946  37.679  1.00  0.00     0.059 A 
ATOM    103  F   UNL A   1      39.669  31.730  35.682  1.00  0.00    -0.206 F 
ATOM    104  C   UNL A   1      40.618  33.701  38.557  1.00  0.00     0.060 A 
BRANCH 104 105
ATOM    105  S   UNL A   1      39.898  34.352  40.080  1.00  0.00     0.124 S 
ATOM    106  O   UNL A   1      39.534  35.707  39.678  1.00  0.00    -0.237 OA
ATOM    107  O   UNL A   1      38.785  33.438  40.313  1.00  0.00    -0.237 OA
ATOM    108  O   UNL A   1      40.992  34.256  41.041  1.00  0.00    -0.744 OA
ENDBRANCH 104 105
ENDBRANCH  72  97
ENDBRANCH  46  47
ENDBRANCH  38  41
ENDBRANCH  36  37
ENDBRANCH  35  36
ENDBRANCH  34  35
ENDBRANCH  33  34
ENDBRANCH   1  33
TORSDOF 22
ENDMDL
