MODEL 1
REMARK VINA RESULT:     -10.4      0.000      0.000
REMARK SMILES C/C(C(=O)NCCCCCCNC(=O)c1ccc(-c2c3nc(c(-c4c(F)cc(S(=O)(=O)[O-])cc4F)c4ccc([nH]4)c(-c4c(F)cc(S(=O)(=O)[O-])cc4F)c4nc(c(-c5c(F)cc(S(=O)(=O)[O-])cc5F)c5ccc2[nH]5)C=C4)C=C3)cc1)=C1/CCCSC1
REMARK SMILES IDX 10 1 9 2 8 3 7 4 6 5 5 6 3 7 4 8 2 10 1 11 81 12 82 13 86 14
REMARK SMILES IDX 83 15 85 16 84 17 11 18 12 19 13 20 14 22 15 23 16 24 80 25
REMARK SMILES IDX 17 26 79 27 18 28 19 29 20 30 73 31 21 32 78 33 72 34 74 35
REMARK SMILES IDX 22 36 77 37 71 38 70 39 23 41 57 42 36 43 56 44 37 45 40 46
REMARK SMILES IDX 55 47 75 48 38 49 39 50 54 52 76 53 41 54 24 55 25 56 34 57
REMARK SMILES IDX 26 58 27 59 33 60 35 61 28 62 29 63 30 64 31 65 32 66 58 67
REMARK SMILES IDX 59 68 68 69 60 70 61 71 67 72 69 73 62 74 63 75 64 76 65 77
REMARK SMILES IDX 66 78 42 79 43 80 52 81 44 82 45 83 51 84 53 85 46 86 47 87
REMARK SMILES IDX 48 88 49 89 50 90
REMARK H PARENT 5 9 12 21 74 40 40 51
REMARK Flexibility Score: inf
ROOT
ATOM      1  C   UNL A   1      32.605  27.616  26.306  1.00  0.00     0.021 C 
ENDROOT
BRANCH   1   2
ATOM      2  C   UNL A   1      32.667  26.102  26.090  1.00  0.00     0.002 C 
BRANCH   2   3
ATOM      3  C   UNL A   1      31.371  25.351  26.423  1.00  0.00     0.002 C 
BRANCH   3   4
ATOM      4  C   UNL A   1      31.564  23.890  26.859  1.00  0.00     0.021 C 
BRANCH   4   5
ATOM      5  C   UNL A   1      30.567  22.923  26.213  1.00  0.00     0.116 C 
BRANCH   5   6
ATOM      6  N   UNL A   1      31.246  21.694  25.847  1.00  0.00    -0.352 N 
ATOM      7  C   UNL A   1      32.201  21.339  24.952  1.00  0.00     0.246 C 
ATOM      8  O   UNL A   1      32.289  20.124  24.762  1.00  0.00    -0.270 OA
ATOM      9  H   UNL A   1      30.936  20.927  26.381  1.00  0.00     0.163 HD
BRANCH   7  10
ATOM     10  C   UNL A   1      33.108  22.323  24.249  1.00  0.00     0.014 C 
ATOM     11  C   UNL A   1      32.646  22.916  22.946  1.00  0.00     0.050 C 
ATOM     12  C   UNL A   1      34.354  22.605  24.727  1.00  0.00    -0.052 C 
ATOM     13  C   UNL A   1      35.060  21.952  25.907  1.00  0.00     0.033 C 
ATOM     14  C   UNL A   1      35.267  23.648  24.110  1.00  0.00     0.100 C 
ATOM     15  C   UNL A   1      36.207  21.072  25.397  1.00  0.00     0.015 C 
ATOM     16  S   UNL A   1      36.637  22.818  23.259  1.00  0.00    -0.158 SA
ATOM     17  C   UNL A   1      37.287  21.868  24.667  1.00  0.00     0.070 C 
ENDBRANCH   7  10
ENDBRANCH   5   6
ENDBRANCH   4   5
ENDBRANCH   3   4
ENDBRANCH   2   3
ENDBRANCH   1   2
BRANCH   1  18
ATOM     18  C   UNL A   1      33.793  28.187  27.072  1.00  0.00     0.116 C 
BRANCH  18  19
ATOM     19  N   UNL A   1      33.601  29.593  27.388  1.00  0.00    -0.352 N 
ATOM     20  C   UNL A   1      34.438  30.450  28.057  1.00  0.00     0.251 C 
ATOM     21  H   UNL A   1      32.751  29.985  27.079  1.00  0.00     0.163 HD
ATOM     22  O   UNL A   1      34.021  31.536  28.446  1.00  0.00    -0.269 OA
BRANCH  20  23
ATOM     23  C   UNL A   1      35.839  30.053  28.312  1.00  0.00     0.039 A 
ATOM     24  C   UNL A   1      36.762  30.108  27.264  1.00  0.00     0.014 A 
ATOM     25  C   UNL A   1      36.237  29.610  29.577  1.00  0.00     0.014 A 
ATOM     26  C   UNL A   1      38.093  29.756  27.499  1.00  0.00     0.010 A 
ATOM     27  C   UNL A   1      37.577  29.334  29.826  1.00  0.00     0.010 A 
ATOM     28  C   UNL A   1      38.517  29.388  28.785  1.00  0.00    -0.014 A 
BRANCH  28  29
ATOM     29  C   UNL A   1      39.931  29.023  29.058  1.00  0.00     0.031 A 
ATOM     30  C   UNL A   1      40.866  30.040  29.655  1.00  0.00     0.074 A 
ATOM     31  C   UNL A   1      40.384  27.800  28.719  1.00  0.00     0.049 A 
ATOM     32  N   UNL A   1      42.146  29.940  29.903  1.00  0.00    -0.248 NA
ATOM     33  C   UNL A   1      40.291  31.354  29.991  1.00  0.00     0.031 C 
ATOM     34  C   UNL A   1      39.584  26.744  28.095  1.00  0.00     0.029 A 
ATOM     35  N   UNL A   1      41.631  27.241  28.842  1.00  0.00    -0.354 N 
ATOM     36  C   UNL A   1      42.532  31.178  30.408  1.00  0.00     0.074 A 
ATOM     37  C   UNL A   1      41.364  32.030  30.376  1.00  0.00     0.031 C 
ATOM     38  C   UNL A   1      40.354  25.659  27.911  1.00  0.00     0.029 A 
ATOM     39  C   UNL A   1      41.709  25.953  28.366  1.00  0.00     0.049 A 
ATOM     40  H   UNL A   1      42.398  27.717  29.235  1.00  0.00     0.167 HD
ATOM     41  C   UNL A   1      43.743  31.561  30.879  1.00  0.00     0.037 A 
ATOM     42  C   UNL A   1      42.757  25.109  28.299  1.00  0.00     0.037 A 
ATOM     43  C   UNL A   1      44.894  30.698  30.931  1.00  0.00     0.049 A 
ATOM     44  C   UNL A   1      44.092  25.555  28.831  1.00  0.00     0.074 A 
ATOM     45  C   UNL A   1      46.153  30.972  31.435  1.00  0.00     0.029 A 
ATOM     46  N   UNL A   1      44.926  29.392  30.463  1.00  0.00    -0.354 N 
ATOM     47  N   UNL A   1      44.426  26.711  29.356  1.00  0.00    -0.248 NA
ATOM     48  C   UNL A   1      45.192  24.584  28.770  1.00  0.00     0.031 C 
ATOM     49  C   UNL A   1      46.959  29.847  31.232  1.00  0.00     0.029 A 
ATOM     50  C   UNL A   1      46.187  28.852  30.652  1.00  0.00     0.049 A 
ATOM     51  H   UNL A   1      44.165  28.918  30.056  1.00  0.00     0.167 HD
ATOM     52  C   UNL A   1      45.763  26.592  29.720  1.00  0.00     0.074 A 
ATOM     53  C   UNL A   1      46.172  25.250  29.362  1.00  0.00     0.031 C 
ATOM     54  C   UNL A   1      46.575  27.508  30.302  1.00  0.00     0.037 A 
BRANCH  41  55
ATOM     55  C   UNL A   1      43.882  32.974  31.379  1.00  0.00     0.058 A 
ATOM     56  C   UNL A   1      44.301  34.018  30.538  1.00  0.00     0.135 A 
ATOM     57  C   UNL A   1      43.562  33.297  32.708  1.00  0.00     0.135 A 
ATOM     58  F   UNL A   1      44.635  33.765  29.261  1.00  0.00    -0.206 F 
ATOM     59  C   UNL A   1      44.430  35.322  31.002  1.00  0.00     0.059 A 
ATOM     60  C   UNL A   1      43.653  34.601  33.187  1.00  0.00     0.059 A 
ATOM     61  F   UNL A   1      43.156  32.340  33.557  1.00  0.00    -0.206 F 
ATOM     62  C   UNL A   1      44.103  35.604  32.329  1.00  0.00     0.060 A 
BRANCH  62  63
ATOM     63  S   UNL A   1      44.272  37.303  32.914  1.00  0.00     0.124 S 
ATOM     64  O   UNL A   1      43.853  38.060  31.738  1.00  0.00    -0.237 OA
ATOM     65  O   UNL A   1      43.353  37.336  34.048  1.00  0.00    -0.237 OA
ATOM     66  O   UNL A   1      45.687  37.407  33.255  1.00  0.00    -0.744 OA
ENDBRANCH  62  63
ENDBRANCH  41  55
BRANCH  42  67
ATOM     67  C   UNL A   1      42.578  23.744  27.732  1.00  0.00     0.058 A 
ATOM     68  C   UNL A   1      42.448  22.625  28.568  1.00  0.00     0.135 A 
ATOM     69  C   UNL A   1      42.522  23.534  26.345  1.00  0.00     0.135 A 
ATOM     70  F   UNL A   1      42.499  22.775  29.900  1.00  0.00    -0.206 F 
ATOM     71  C   UNL A   1      42.291  21.343  28.051  1.00  0.00     0.059 A 
ATOM     72  C   UNL A   1      42.338  22.264  25.805  1.00  0.00     0.059 A 
ATOM     73  F   UNL A   1      42.622  24.572  25.501  1.00  0.00    -0.206 F 
ATOM     74  C   UNL A   1      42.234  21.173  26.668  1.00  0.00     0.060 A 
BRANCH  74  75
ATOM     75  S   UNL A   1      41.987  19.510  26.009  1.00  0.00     0.124 S 
ATOM     76  O   UNL A   1      42.350  18.683  27.153  1.00  0.00    -0.237 OA
ATOM     77  O   UNL A   1      40.571  19.528  25.656  1.00  0.00    -0.237 OA
ATOM     78  O   UNL A   1      42.906  19.459  24.876  1.00  0.00    -0.744 OA
ENDBRANCH  74  75
ENDBRANCH  42  67
BRANCH  54  79
ATOM     79  C   UNL A   1      47.978  27.078  30.638  1.00  0.00     0.058 A 
ATOM     80  C   UNL A   1      49.051  27.290  29.757  1.00  0.00     0.135 A 
ATOM     81  C   UNL A   1      48.257  26.489  31.882  1.00  0.00     0.135 A 
ATOM     82  F   UNL A   1      48.838  27.844  28.553  1.00  0.00    -0.206 F 
ATOM     83  C   UNL A   1      50.346  26.907  30.088  1.00  0.00     0.059 A 
ATOM     84  C   UNL A   1      49.549  26.126  32.246  1.00  0.00     0.059 A 
ATOM     85  F   UNL A   1      47.269  26.274  32.766  1.00  0.00    -0.206 F 
ATOM     86  C   UNL A   1      50.586  26.327  31.335  1.00  0.00     0.060 A 
BRANCH  86  87
ATOM     87  S   UNL A   1      52.276  25.859  31.762  1.00  0.00     0.124 S 
ATOM     88  O   UNL A   1      52.965  26.050  30.491  1.00  0.00    -0.237 OA
ATOM     89  O   UNL A   1      52.608  26.814  32.815  1.00  0.00    -0.237 OA
ATOM     90  O   UNL A   1      52.145  24.473  32.203  1.00  0.00    -0.744 OA
ENDBRANCH  86  87
ENDBRANCH  54  79
ENDBRANCH  28  29
ENDBRANCH  20  23
ENDBRANCH  18  19
ENDBRANCH   1  18
TORSDOF 16
ENDMDL
MODEL 2
REMARK VINA RESULT:     -10.3      3.882      9.619
REMARK SMILES C/C(C(=O)NCCCCCCNC(=O)c1ccc(-c2c3nc(c(-c4c(F)cc(S(=O)(=O)[O-])cc4F)c4ccc([nH]4)c(-c4c(F)cc(S(=O)(=O)[O-])cc4F)c4nc(c(-c5c(F)cc(S(=O)(=O)[O-])cc5F)c5ccc2[nH]5)C=C4)C=C3)cc1)=C1/CCCSC1
REMARK SMILES IDX 10 1 9 2 8 3 7 4 6 5 5 6 3 7 4 8 2 10 1 11 81 12 82 13 86 14
REMARK SMILES IDX 83 15 85 16 84 17 11 18 12 19 13 20 14 22 15 23 16 24 80 25
REMARK SMILES IDX 17 26 79 27 18 28 19 29 20 30 73 31 21 32 78 33 72 34 74 35
REMARK SMILES IDX 22 36 77 37 71 38 70 39 23 41 57 42 36 43 56 44 37 45 40 46
REMARK SMILES IDX 55 47 75 48 38 49 39 50 54 52 76 53 41 54 24 55 25 56 34 57
REMARK SMILES IDX 26 58 27 59 33 60 35 61 28 62 29 63 30 64 31 65 32 66 58 67
REMARK SMILES IDX 59 68 68 69 60 70 61 71 67 72 69 73 62 74 63 75 64 76 65 77
REMARK SMILES IDX 66 78 42 79 43 80 52 81 44 82 45 83 51 84 53 85 46 86 47 87
REMARK SMILES IDX 48 88 49 89 50 90
REMARK H PARENT 5 9 12 21 74 40 40 51
REMARK Flexibility Score: inf
ROOT
ATOM      1  C   UNL A   1      41.419  20.028  27.383  1.00  0.00     0.021 C 
ENDROOT
BRANCH   1   2
ATOM      2  C   UNL A   1      41.331  21.473  27.881  1.00  0.00     0.002 C 
BRANCH   2   3
ATOM      3  C   UNL A   1      40.900  22.494  26.820  1.00  0.00     0.002 C 
BRANCH   3   4
ATOM      4  C   UNL A   1      39.763  23.435  27.252  1.00  0.00     0.021 C 
BRANCH   4   5
ATOM      5  C   UNL A   1      38.542  23.380  26.329  1.00  0.00     0.116 C 
BRANCH   5   6
ATOM      6  N   UNL A   1      38.471  22.079  25.690  1.00  0.00    -0.352 N 
ATOM      7  C   UNL A   1      37.551  21.401  24.960  1.00  0.00     0.246 C 
ATOM      8  O   UNL A   1      37.779  20.195  24.854  1.00  0.00    -0.270 OA
ATOM      9  H   UNL A   1      39.297  21.558  25.820  1.00  0.00     0.163 HD
BRANCH   7  10
ATOM     10  C   UNL A   1      36.351  22.046  24.305  1.00  0.00     0.014 C 
ATOM     11  C   UNL A   1      36.582  22.953  23.126  1.00  0.00     0.050 C 
ATOM     12  C   UNL A   1      35.096  21.891  24.816  1.00  0.00    -0.052 C 
ATOM     13  C   UNL A   1      34.705  21.185  26.106  1.00  0.00     0.033 C 
ATOM     14  C   UNL A   1      33.850  22.443  24.148  1.00  0.00     0.100 C 
ATOM     15  C   UNL A   1      34.252  22.220  27.141  1.00  0.00     0.015 C 
ATOM     16  S   UNL A   1      33.221  23.843  25.114  1.00  0.00    -0.158 SA
ATOM     17  C   UNL A   1      33.007  22.990  26.706  1.00  0.00     0.070 C 
ENDBRANCH   7  10
ENDBRANCH   5   6
ENDBRANCH   4   5
ENDBRANCH   3   4
ENDBRANCH   2   3
ENDBRANCH   1   2
BRANCH   1  18
ATOM     18  C   UNL A   1      41.400  19.888  25.865  1.00  0.00     0.116 C 
BRANCH  18  19
ATOM     19  N   UNL A   1      42.582  19.199  25.376  1.00  0.00    -0.352 N 
ATOM     20  C   UNL A   1      43.791  19.723  24.993  1.00  0.00     0.251 C 
ATOM     21  H   UNL A   1      42.505  18.219  25.310  1.00  0.00     0.163 HD
ATOM     22  O   UNL A   1      44.596  19.027  24.382  1.00  0.00    -0.269 OA
BRANCH  20  23
ATOM     23  C   UNL A   1      44.114  21.129  25.315  1.00  0.00     0.039 A 
ATOM     24  C   UNL A   1      43.815  22.125  24.382  1.00  0.00     0.014 A 
ATOM     25  C   UNL A   1      44.728  21.461  26.526  1.00  0.00     0.014 A 
ATOM     26  C   UNL A   1      44.096  23.460  24.684  1.00  0.00     0.010 A 
ATOM     27  C   UNL A   1      44.937  22.797  26.855  1.00  0.00     0.010 A 
ATOM     28  C   UNL A   1      44.638  23.809  25.931  1.00  0.00    -0.014 A 
BRANCH  28  29
ATOM     29  C   UNL A   1      44.933  25.224  26.277  1.00  0.00     0.031 A 
ATOM     30  C   UNL A   1      46.332  25.757  26.126  1.00  0.00     0.074 A 
ATOM     31  C   UNL A   1      43.958  26.008  26.776  1.00  0.00     0.049 A 
ATOM     32  N   UNL A   1      46.807  26.935  26.438  1.00  0.00    -0.248 NA
ATOM     33  C   UNL A   1      47.339  24.832  25.578  1.00  0.00     0.031 C 
ATOM     34  C   UNL A   1      42.573  25.592  27.009  1.00  0.00     0.029 A 
ATOM     35  N   UNL A   1      43.984  27.316  27.188  1.00  0.00    -0.354 N 
ATOM     36  C   UNL A   1      48.164  26.888  26.140  1.00  0.00     0.074 A 
ATOM     37  C   UNL A   1      48.450  25.548  25.677  1.00  0.00     0.031 C 
ATOM     38  C   UNL A   1      41.878  26.631  27.501  1.00  0.00     0.029 A 
ATOM     39  C   UNL A   1      42.773  27.773  27.655  1.00  0.00     0.049 A 
ATOM     40  H   UNL A   1      44.793  27.876  27.152  1.00  0.00     0.167 HD
ATOM     41  C   UNL A   1      49.084  27.880  26.219  1.00  0.00     0.037 A 
ATOM     42  C   UNL A   1      42.428  28.975  28.157  1.00  0.00     0.037 A 
ATOM     43  C   UNL A   1      48.785  29.218  26.657  1.00  0.00     0.049 A 
ATOM     44  C   UNL A   1      43.466  30.062  28.234  1.00  0.00     0.074 A 
ATOM     45  C   UNL A   1      49.633  30.310  26.727  1.00  0.00     0.029 A 
ATOM     46  N   UNL A   1      47.542  29.649  27.097  1.00  0.00    -0.354 N 
ATOM     47  N   UNL A   1      44.733  30.017  27.896  1.00  0.00    -0.248 NA
ATOM     48  C   UNL A   1      43.028  31.365  28.751  1.00  0.00     0.031 C 
ATOM     49  C   UNL A   1      48.913  31.388  27.251  1.00  0.00     0.029 A 
ATOM     50  C   UNL A   1      47.603  30.985  27.455  1.00  0.00     0.049 A 
ATOM     51  H   UNL A   1      46.735  29.088  27.147  1.00  0.00     0.167 HD
ATOM     52  C   UNL A   1      45.233  31.294  28.126  1.00  0.00     0.074 A 
ATOM     53  C   UNL A   1      44.131  32.089  28.624  1.00  0.00     0.031 C 
ATOM     54  C   UNL A   1      46.491  31.766  27.937  1.00  0.00     0.037 A 
BRANCH  41  55
ATOM     55  C   UNL A   1      50.499  27.553  25.823  1.00  0.00     0.058 A 
ATOM     56  C   UNL A   1      51.466  27.182  26.771  1.00  0.00     0.135 A 
ATOM     57  C   UNL A   1      50.887  27.580  24.472  1.00  0.00     0.135 A 
ATOM     58  F   UNL A   1      51.156  27.153  28.078  1.00  0.00    -0.206 F 
ATOM     59  C   UNL A   1      52.772  26.881  26.401  1.00  0.00     0.059 A 
ATOM     60  C   UNL A   1      52.180  27.253  24.076  1.00  0.00     0.059 A 
ATOM     61  F   UNL A   1      50.004  27.927  23.522  1.00  0.00    -0.206 F 
ATOM     62  C   UNL A   1      53.120  26.919  25.050  1.00  0.00     0.060 A 
BRANCH  62  63
ATOM     63  S   UNL A   1      54.819  26.522  24.588  1.00  0.00     0.124 S 
ATOM     64  O   UNL A   1      55.568  27.518  25.348  1.00  0.00    -0.237 OA
ATOM     65  O   UNL A   1      54.953  25.143  25.045  1.00  0.00    -0.237 OA
ATOM     66  O   UNL A   1      54.829  26.703  23.139  1.00  0.00    -0.744 OA
ENDBRANCH  62  63
ENDBRANCH  41  55
BRANCH  42  67
ATOM     67  C   UNL A   1      41.028  29.222  28.598  1.00  0.00     0.058 A 
ATOM     68  C   UNL A   1      40.705  29.312  29.961  1.00  0.00     0.135 A 
ATOM     69  C   UNL A   1      39.989  29.385  27.669  1.00  0.00     0.135 A 
ATOM     70  F   UNL A   1      41.663  29.158  30.888  1.00  0.00    -0.206 F 
ATOM     71  C   UNL A   1      39.399  29.531  30.388  1.00  0.00     0.059 A 
ATOM     72  C   UNL A   1      38.679  29.634  28.072  1.00  0.00     0.059 A 
ATOM     73  F   UNL A   1      40.246  29.328  26.353  1.00  0.00    -0.206 F 
ATOM     74  C   UNL A   1      38.394  29.694  29.435  1.00  0.00     0.060 A 
BRANCH  74  75
ATOM     75  S   UNL A   1      36.710  30.023  30.000  1.00  0.00     0.124 S 
ATOM     76  O   UNL A   1      35.921  29.516  28.883  1.00  0.00    -0.237 OA
ATOM     77  O   UNL A   1      36.645  29.246  31.233  1.00  0.00    -0.237 OA
ATOM     78  O   UNL A   1      36.694  31.471  30.179  1.00  0.00    -0.744 OA
ENDBRANCH  74  75
ENDBRANCH  42  67
BRANCH  54  79
ATOM     79  C   UNL A   1      46.734  33.224  28.221  1.00  0.00     0.058 A 
ATOM     80  C   UNL A   1      47.169  33.673  29.478  1.00  0.00     0.135 A 
ATOM     81  C   UNL A   1      46.575  34.178  27.203  1.00  0.00     0.135 A 
ATOM     82  F   UNL A   1      47.332  32.804  30.488  1.00  0.00    -0.206 F 
ATOM     83  C   UNL A   1      47.411  35.021  29.723  1.00  0.00     0.059 A 
ATOM     84  C   UNL A   1      46.840  35.526  27.416  1.00  0.00     0.059 A 
ATOM     85  F   UNL A   1      46.173  33.800  25.978  1.00  0.00    -0.206 F 
ATOM     86  C   UNL A   1      47.245  35.940  28.684  1.00  0.00     0.060 A 
BRANCH  86  87
ATOM     87  S   UNL A   1      47.588  37.682  29.008  1.00  0.00     0.124 S 
ATOM     88  O   UNL A   1      46.504  38.336  28.283  1.00  0.00    -0.237 OA
ATOM     89  O   UNL A   1      47.510  37.750  30.464  1.00  0.00    -0.237 OA
ATOM     90  O   UNL A   1      48.923  37.876  28.449  1.00  0.00    -0.744 OA
ENDBRANCH  86  87
ENDBRANCH  54  79
ENDBRANCH  28  29
ENDBRANCH  20  23
ENDBRANCH  18  19
ENDBRANCH   1  18
TORSDOF 16
ENDMDL
MODEL 3
REMARK VINA RESULT:     -10.3      3.223     10.642
REMARK SMILES C/C(C(=O)NCCCCCCNC(=O)c1ccc(-c2c3nc(c(-c4c(F)cc(S(=O)(=O)[O-])cc4F)c4ccc([nH]4)c(-c4c(F)cc(S(=O)(=O)[O-])cc4F)c4nc(c(-c5c(F)cc(S(=O)(=O)[O-])cc5F)c5ccc2[nH]5)C=C4)C=C3)cc1)=C1/CCCSC1
REMARK SMILES IDX 10 1 9 2 8 3 7 4 6 5 5 6 3 7 4 8 2 10 1 11 81 12 82 13 86 14
REMARK SMILES IDX 83 15 85 16 84 17 11 18 12 19 13 20 14 22 15 23 16 24 80 25
REMARK SMILES IDX 17 26 79 27 18 28 19 29 20 30 73 31 21 32 78 33 72 34 74 35
REMARK SMILES IDX 22 36 77 37 71 38 70 39 23 41 57 42 36 43 56 44 37 45 40 46
REMARK SMILES IDX 55 47 75 48 38 49 39 50 54 52 76 53 41 54 24 55 25 56 34 57
REMARK SMILES IDX 26 58 27 59 33 60 35 61 28 62 29 63 30 64 31 65 32 66 58 67
REMARK SMILES IDX 59 68 68 69 60 70 61 71 67 72 69 73 62 74 63 75 64 76 65 77
REMARK SMILES IDX 66 78 42 79 43 80 52 81 44 82 45 83 51 84 53 85 46 86 47 87
REMARK SMILES IDX 48 88 49 89 50 90
REMARK H PARENT 5 9 12 21 74 40 40 51
REMARK Flexibility Score: inf
ROOT
ATOM      1  C   UNL A   1      34.583  33.009  29.514  1.00  0.00     0.021 C 
ENDROOT
BRANCH   1   2
ATOM      2  C   UNL A   1      35.859  32.868  30.348  1.00  0.00     0.002 C 
BRANCH   2   3
ATOM      3  C   UNL A   1      37.162  32.886  29.538  1.00  0.00     0.002 C 
BRANCH   3   4
ATOM      4  C   UNL A   1      37.811  34.271  29.386  1.00  0.00     0.021 C 
BRANCH   4   5
ATOM      5  C   UNL A   1      38.825  34.593  30.488  1.00  0.00     0.116 C 
BRANCH   5   6
ATOM      6  N   UNL A   1      38.123  34.951  31.707  1.00  0.00    -0.352 N 
ATOM      7  C   UNL A   1      37.816  34.329  32.872  1.00  0.00     0.246 C 
ATOM      8  O   UNL A   1      36.946  34.898  33.535  1.00  0.00    -0.270 OA
ATOM      9  H   UNL A   1      37.784  35.876  31.681  1.00  0.00     0.163 HD
BRANCH   7  10
ATOM     10  C   UNL A   1      38.479  33.058  33.352  1.00  0.00     0.014 C 
ATOM     11  C   UNL A   1      37.655  31.801  33.416  1.00  0.00     0.050 C 
ATOM     12  C   UNL A   1      39.766  33.059  33.805  1.00  0.00    -0.052 C 
ATOM     13  C   UNL A   1      40.675  34.263  34.002  1.00  0.00     0.033 C 
ATOM     14  C   UNL A   1      40.506  31.799  34.213  1.00  0.00     0.100 C 
ATOM     15  C   UNL A   1      40.877  34.515  35.500  1.00  0.00     0.015 C 
ATOM     16  S   UNL A   1      40.700  31.775  36.016  1.00  0.00    -0.158 SA
ATOM     17  C   UNL A   1      41.577  33.357  36.208  1.00  0.00     0.070 C 
ENDBRANCH   7  10
ENDBRANCH   5   6
ENDBRANCH   4   5
ENDBRANCH   3   4
ENDBRANCH   2   3
ENDBRANCH   1   2
BRANCH   1  18
ATOM     18  C   UNL A   1      34.677  32.399  28.120  1.00  0.00     0.116 C 
BRANCH  18  19
ATOM     19  N   UNL A   1      33.995  31.117  28.048  1.00  0.00    -0.352 N 
ATOM     20  C   UNL A   1      34.532  29.857  27.969  1.00  0.00     0.251 C 
ATOM     21  H   UNL A   1      33.011  31.160  28.058  1.00  0.00     0.163 HD
ATOM     22  O   UNL A   1      33.818  28.904  27.676  1.00  0.00    -0.269 OA
BRANCH  20  23
ATOM     23  C   UNL A   1      35.973  29.657  28.232  1.00  0.00     0.039 A 
ATOM     24  C   UNL A   1      36.384  29.276  29.512  1.00  0.00     0.014 A 
ATOM     25  C   UNL A   1      36.918  29.864  27.223  1.00  0.00     0.014 A 
ATOM     26  C   UNL A   1      37.740  29.064  29.767  1.00  0.00     0.010 A 
ATOM     27  C   UNL A   1      38.259  29.578  27.459  1.00  0.00     0.010 A 
ATOM     28  C   UNL A   1      38.687  29.191  28.737  1.00  0.00    -0.014 A 
BRANCH  28  29
ATOM     29  C   UNL A   1      40.133  28.957  28.984  1.00  0.00     0.031 A 
ATOM     30  C   UNL A   1      40.748  27.630  28.631  1.00  0.00     0.074 A 
ATOM     31  C   UNL A   1      40.875  29.915  29.574  1.00  0.00     0.049 A 
ATOM     32  N   UNL A   1      41.969  27.205  28.831  1.00  0.00    -0.248 NA
ATOM     33  C   UNL A   1      39.866  26.637  27.996  1.00  0.00     0.031 C 
ATOM     34  C   UNL A   1      40.381  31.226  30.001  1.00  0.00     0.029 A 
ATOM     35  N   UNL A   1      42.201  29.931  29.925  1.00  0.00    -0.354 N 
ATOM     36  C   UNL A   1      41.997  25.897  28.362  1.00  0.00     0.074 A 
ATOM     37  C   UNL A   1      40.657  25.577  27.921  1.00  0.00     0.031 C 
ATOM     38  C   UNL A   1      41.395  31.925  30.536  1.00  0.00     0.029 A 
ATOM     39  C   UNL A   1      42.600  31.102  30.526  1.00  0.00     0.049 A 
ATOM     40  H   UNL A   1      42.810  29.175  29.762  1.00  0.00     0.167 HD
ATOM     41  C   UNL A   1      43.049  25.047  28.280  1.00  0.00     0.037 A 
ATOM     42  C   UNL A   1      43.800  31.466  31.018  1.00  0.00     0.037 A 
ATOM     43  C   UNL A   1      44.386  25.383  28.698  1.00  0.00     0.049 A 
ATOM     44  C   UNL A   1      44.955  30.507  30.916  1.00  0.00     0.074 A 
ATOM     45  C   UNL A   1      45.532  24.614  28.612  1.00  0.00     0.029 A 
ATOM     46  N   UNL A   1      44.755  26.589  29.277  1.00  0.00    -0.354 N 
ATOM     47  N   UNL A   1      44.977  29.293  30.418  1.00  0.00    -0.248 NA
ATOM     48  C   UNL A   1      46.251  30.968  31.432  1.00  0.00     0.031 C 
ATOM     49  C   UNL A   1      46.586  25.337  29.181  1.00  0.00     0.029 A 
ATOM     50  C   UNL A   1      46.109  26.578  29.570  1.00  0.00     0.049 A 
ATOM     51  H   UNL A   1      44.145  27.341  29.455  1.00  0.00     0.167 HD
ATOM     52  C   UNL A   1      46.294  28.860  30.529  1.00  0.00     0.074 A 
ATOM     53  C   UNL A   1      47.038  29.945  31.134  1.00  0.00     0.031 C 
ATOM     54  C   UNL A   1      46.838  27.674  30.160  1.00  0.00     0.037 A 
BRANCH  41  55
ATOM     55  C   UNL A   1      42.797  23.674  27.717  1.00  0.00     0.058 A 
ATOM     56  C   UNL A   1      42.810  23.429  26.335  1.00  0.00     0.135 A 
ATOM     57  C   UNL A   1      42.569  22.582  28.571  1.00  0.00     0.135 A 
ATOM     58  F   UNL A   1      43.007  24.438  25.470  1.00  0.00    -0.206 F 
ATOM     59  C   UNL A   1      42.575  22.160  25.817  1.00  0.00     0.059 A 
ATOM     60  C   UNL A   1      42.363  21.297  28.077  1.00  0.00     0.059 A 
ATOM     61  F   UNL A   1      42.546  22.758  29.902  1.00  0.00    -0.206 F 
ATOM     62  C   UNL A   1      42.353  21.099  26.697  1.00  0.00     0.060 A 
BRANCH  62  63
ATOM     63  S   UNL A   1      42.054  19.458  26.008  1.00  0.00     0.124 S 
ATOM     64  O   UNL A   1      42.897  19.484  24.817  1.00  0.00    -0.237 OA
ATOM     65  O   UNL A   1      42.505  18.581  27.084  1.00  0.00    -0.237 OA
ATOM     66  O   UNL A   1      40.616  19.450  25.758  1.00  0.00    -0.744 OA
ENDBRANCH  62  63
ENDBRANCH  41  55
BRANCH  42  67
ATOM     67  C   UNL A   1      43.976  32.813  31.627  1.00  0.00     0.058 A 
ATOM     68  C   UNL A   1      44.149  33.952  30.826  1.00  0.00     0.135 A 
ATOM     69  C   UNL A   1      43.965  32.990  33.020  1.00  0.00     0.135 A 
ATOM     70  F   UNL A   1      44.172  33.834  29.490  1.00  0.00    -0.206 F 
ATOM     71  C   UNL A   1      44.326  35.215  31.382  1.00  0.00     0.059 A 
ATOM     72  C   UNL A   1      44.112  34.247  33.599  1.00  0.00     0.059 A 
ATOM     73  F   UNL A   1      43.784  31.936  33.832  1.00  0.00    -0.206 F 
ATOM     74  C   UNL A   1      44.303  35.352  32.771  1.00  0.00     0.060 A 
BRANCH  74  75
ATOM     75  S   UNL A   1      44.491  37.002  33.481  1.00  0.00     0.124 S 
ATOM     76  O   UNL A   1      43.196  37.602  33.177  1.00  0.00    -0.237 OA
ATOM     77  O   UNL A   1      44.744  36.703  34.886  1.00  0.00    -0.237 OA
ATOM     78  O   UNL A   1      45.629  37.553  32.751  1.00  0.00    -0.744 OA
ENDBRANCH  74  75
ENDBRANCH  42  67
BRANCH  54  79
ATOM     79  C   UNL A   1      48.321  27.501  30.350  1.00  0.00     0.058 A 
ATOM     80  C   UNL A   1      48.858  26.925  31.512  1.00  0.00     0.135 A 
ATOM     81  C   UNL A   1      49.212  27.876  29.331  1.00  0.00     0.135 A 
ATOM     82  F   UNL A   1      48.051  26.554  32.519  1.00  0.00    -0.206 F 
ATOM     83  C   UNL A   1      50.229  26.751  31.667  1.00  0.00     0.059 A 
ATOM     84  C   UNL A   1      50.584  27.684  29.452  1.00  0.00     0.059 A 
ATOM     85  F   UNL A   1      48.749  28.421  28.194  1.00  0.00    -0.206 F 
ATOM     86  C   UNL A   1      51.085  27.132  30.631  1.00  0.00     0.060 A 
BRANCH  86  87
ATOM     87  S   UNL A   1      52.860  26.877  30.835  1.00  0.00     0.124 S 
ATOM     88  O   UNL A   1      53.282  26.629  29.461  1.00  0.00    -0.237 OA
ATOM     89  O   UNL A   1      53.293  28.145  31.413  1.00  0.00    -0.237 OA
ATOM     90  O   UNL A   1      52.937  25.728  31.732  1.00  0.00    -0.744 OA
ENDBRANCH  86  87
ENDBRANCH  54  79
ENDBRANCH  28  29
ENDBRANCH  20  23
ENDBRANCH  18  19
ENDBRANCH   1  18
TORSDOF 16
ENDMDL
