MODEL 1
REMARK VINA RESULT:     -13.6      0.000      0.000
REMARK SMILES Cc1c(NCc2ccccn2)cccc1C(=O)N1CCOC[C@@H]1CC(=O)NCCCCCCNC(=O)c1ccc(-c2c3nc(c(-c4c(F)cc(S(=O)(=O)[O-])cc4F)c4ccc([nH]4)c(-c4c(F)cc(S(=O)(=O)[O-])cc4F)c4nc(c(-c5c(F)cc(S(=O)(=O)[O-])cc5F)c5ccc2[nH]5)C=C4)C=C3)cc1
REMARK SMILES IDX 29 1 28 2 27 3 25 4 26 5 24 7 23 8 18 9 19 10 20 11 22 12
REMARK SMILES IDX 21 13 16 14 17 15 15 16 1 17 2 18 3 19 12 20 14 21 13 22
REMARK SMILES IDX 4 23 5 25 6 26 7 27 11 28 8 29 10 30 9 31 30 32 31 33 32 34
REMARK SMILES IDX 33 35 34 36 35 37 36 39 37 40 38 41 102 42 39 43 101 44
REMARK SMILES IDX 40 45 41 46 42 47 95 48 43 49 100 50 94 51 96 52 44 53 99 54
REMARK SMILES IDX 93 55 92 56 45 58 79 59 58 60 78 61 59 62 62 63 77 64 97 65
REMARK SMILES IDX 60 66 61 67 76 69 98 70 63 71 46 72 47 73 56 74 48 75 49 76
REMARK SMILES IDX 55 77 57 78 50 79 51 80 52 81 53 82 54 83 80 84 81 85 90 86
REMARK SMILES IDX 82 87 83 88 89 89 91 90 84 91 85 92 86 93 87 94 88 95 64 96
REMARK SMILES IDX 65 97 74 98 66 99 67 100 73 101 75 102 68 103 69 104 70 105
REMARK SMILES IDX 71 106 72 107
REMARK H PARENT 27 6 4 24 34 38 96 57 62 68
REMARK Flexibility Score: inf
ROOT
ATOM      1  C   UNL A   1      35.566  23.605  23.478  1.00  0.00     0.021 C 
ENDROOT
BRANCH   1   2
ATOM      2  C   UNL A   1      34.092  23.884  23.184  1.00  0.00     0.116 C 
BRANCH   2   3
ATOM      3  N   UNL A   1      34.034  24.863  22.136  1.00  0.00    -0.356 N 
ATOM      4  C   UNL A   1      32.862  25.304  21.600  1.00  0.00     0.222 C 
ATOM      5  O   UNL A   1      32.825  25.578  20.401  1.00  0.00    -0.275 OA
ATOM      6  H   UNL A   1      34.878  25.233  21.790  1.00  0.00     0.163 HD
BRANCH   4   7
ATOM      7  C   UNL A   1      31.676  25.537  22.520  1.00  0.00     0.127 C 
BRANCH   7   8
ATOM      8  C   UNL A   1      31.448  26.909  23.173  1.00  0.00     0.120 C 
ATOM      9  N   UNL A   1      30.658  27.040  24.439  1.00  0.00    -0.331 N 
ATOM     10  C   UNL A   1      30.860  28.394  25.002  1.00  0.00     0.148 C 
ATOM     11  C   UNL A   1      30.591  29.521  23.973  1.00  0.00     0.181 C 
ATOM     12  C   UNL A   1      30.936  27.983  22.187  1.00  0.00     0.185 C 
ATOM     13  O   UNL A   1      31.238  29.290  22.711  1.00  0.00    -0.377 OA
BRANCH   9  14
ATOM     14  C   UNL A   1      30.506  25.982  25.348  1.00  0.00     0.254 C 
ATOM     15  O   UNL A   1      29.425  25.713  25.866  1.00  0.00    -0.269 OA
BRANCH  14  16
ATOM     16  C   UNL A   1      31.740  25.270  25.872  1.00  0.00     0.045 A 
ATOM     17  C   UNL A   1      30.506  22.708  26.420  1.00  0.00     0.047 C 
ATOM     18  C   UNL A   1      31.745  23.538  26.362  1.00  0.00    -0.015 A 
ATOM     19  C   UNL A   1      33.293  22.717  26.783  1.00  0.00     0.038 A 
ATOM     20  C   UNL A   1      34.860  23.614  26.760  1.00  0.00     0.026 A 
ATOM     21  C   UNL A   1      33.297  26.198  25.865  1.00  0.00     0.014 A 
ATOM     22  C   UNL A   1      34.864  25.367  26.291  1.00  0.00     0.003 A 
BRANCH  19  23
ATOM     23  N   UNL A   1      33.242  21.378  27.092  1.00  0.00    -0.379 N 
ATOM     24  H   UNL A   1      32.752  21.060  27.886  1.00  0.00     0.160 HD
BRANCH  23  25
ATOM     25  C   UNL A   1      33.921  20.457  26.228  1.00  0.00     0.169 C 
BRANCH  25  26
ATOM     26  C   UNL A   1      32.964  19.807  25.212  1.00  0.00     0.059 A 
ATOM     27  C   UNL A   1      32.340  20.817  23.809  1.00  0.00     0.026 A 
ATOM     28  N   UNL A   1      33.243  18.016  25.022  1.00  0.00    -0.259 NA
ATOM     29  C   UNL A   1      32.083  20.017  22.175  1.00  0.00     0.004 A 
ATOM     30  C   UNL A   1      32.990  17.207  23.428  1.00  0.00     0.111 A 
ATOM     31  C   UNL A   1      32.473  18.177  21.978  1.00  0.00     0.020 A 
ENDBRANCH  25  26
ENDBRANCH  23  25
ENDBRANCH  19  23
ENDBRANCH  14  16
ENDBRANCH   9  14
ENDBRANCH   7   8
ENDBRANCH   4   7
ENDBRANCH   2   3
ENDBRANCH   1   2
BRANCH   1  32
ATOM     32  C   UNL A   1      36.030  22.185  23.190  1.00  0.00     0.002 C 
BRANCH  32  33
ATOM     33  C   UNL A   1      37.124  21.553  24.321  1.00  0.00     0.002 C 
BRANCH  33  34
ATOM     34  C   UNL A   1      38.466  22.341  25.855  1.00  0.00     0.021 C 
BRANCH  34  35
ATOM     35  C   UNL A   1      39.749  21.748  26.802  1.00  0.00     0.116 C 
BRANCH  35  36
ATOM     36  N   UNL A   1      41.112  22.318  26.744  1.00  0.00    -0.352 N 
ATOM     37  C   UNL A   1      41.517  23.591  26.347  1.00  0.00     0.251 C 
ATOM     38  H   UNL A   1      41.835  21.713  27.025  1.00  0.00     0.163 HD
ATOM     39  O   UNL A   1      42.650  23.818  25.938  1.00  0.00    -0.269 OA
BRANCH  37  40
ATOM     40  C   UNL A   1      40.602  24.726  26.650  1.00  0.00     0.039 A 
ATOM     41  C   UNL A   1      40.875  25.882  25.917  1.00  0.00     0.014 A 
ATOM     42  C   UNL A   1      40.145  24.824  27.949  1.00  0.00     0.014 A 
ATOM     43  C   UNL A   1      41.107  27.062  26.610  1.00  0.00     0.010 A 
ATOM     44  C   UNL A   1      40.615  25.908  28.669  1.00  0.00     0.010 A 
ATOM     45  C   UNL A   1      41.219  27.002  28.009  1.00  0.00    -0.014 A 
BRANCH  45  46
ATOM     46  C   UNL A   1      41.931  28.120  29.023  1.00  0.00     0.031 A 
ATOM     47  C   UNL A   1      40.406  29.161  28.955  1.00  0.00     0.074 A 
ATOM     48  C   UNL A   1      43.610  28.433  29.806  1.00  0.00     0.049 A 
ATOM     49  N   UNL A   1      40.228  30.231  29.666  1.00  0.00    -0.248 NA
ATOM     50  C   UNL A   1      39.235  29.035  28.053  1.00  0.00     0.031 C 
ATOM     51  C   UNL A   1      44.264  29.446  31.013  1.00  0.00     0.029 A 
ATOM     52  N   UNL A   1      45.013  27.929  29.557  1.00  0.00    -0.354 N 
ATOM     53  C   UNL A   1      39.119  30.925  29.362  1.00  0.00     0.074 A 
ATOM     54  C   UNL A   1      38.444  30.060  28.432  1.00  0.00     0.031 C 
ATOM     55  C   UNL A   1      45.585  29.620  30.870  1.00  0.00     0.029 A 
ATOM     56  C   UNL A   1      45.974  28.922  29.691  1.00  0.00     0.049 A 
ATOM     57  H   UNL A   1      45.224  26.996  29.325  1.00  0.00     0.167 HD
ATOM     58  C   UNL A   1      38.988  32.088  30.062  1.00  0.00     0.037 A 
ATOM     59  C   UNL A   1      46.551  29.451  28.573  1.00  0.00     0.037 A 
ATOM     60  C   UNL A   1      40.339  32.606  30.472  1.00  0.00     0.049 A 
ATOM     61  C   UNL A   1      46.036  30.918  28.470  1.00  0.00     0.074 A 
ATOM     62  C   UNL A   1      41.094  32.505  31.633  1.00  0.00     0.029 A 
ATOM     63  N   UNL A   1      41.245  33.070  29.497  1.00  0.00    -0.354 N 
ATOM     64  N   UNL A   1      44.865  31.376  28.881  1.00  0.00    -0.248 NA
ATOM     65  C   UNL A   1      46.915  32.010  28.080  1.00  0.00     0.031 C 
ATOM     66  C   UNL A   1      42.469  32.773  31.316  1.00  0.00     0.029 A 
ATOM     67  C   UNL A   1      42.578  33.094  29.967  1.00  0.00     0.049 A 
ATOM     68  H   UNL A   1      40.979  33.346  28.591  1.00  0.00     0.167 HD
ATOM     69  C   UNL A   1      44.801  32.755  28.818  1.00  0.00     0.074 A 
ATOM     70  C   UNL A   1      46.154  33.084  28.359  1.00  0.00     0.031 C 
ATOM     71  C   UNL A   1      43.707  33.565  29.113  1.00  0.00     0.037 A 
BRANCH  58  72
ATOM     72  C   UNL A   1      37.658  32.535  30.642  1.00  0.00     0.058 A 
ATOM     73  C   UNL A   1      37.391  33.913  30.813  1.00  0.00     0.135 A 
ATOM     74  C   UNL A   1      36.674  31.682  31.192  1.00  0.00     0.135 A 
ATOM     75  F   UNL A   1      38.232  34.847  30.350  1.00  0.00    -0.206 F 
ATOM     76  C   UNL A   1      36.272  34.399  31.499  1.00  0.00     0.059 A 
ATOM     77  C   UNL A   1      35.550  32.144  31.887  1.00  0.00     0.059 A 
ATOM     78  F   UNL A   1      36.753  30.352  31.087  1.00  0.00    -0.206 F 
ATOM     79  C   UNL A   1      35.360  33.508  32.046  1.00  0.00     0.060 A 
BRANCH  79  80
ATOM     80  S   UNL A   1      33.936  34.149  32.947  1.00  0.00     0.124 S 
ATOM     81  O   UNL A   1      33.308  32.924  33.434  1.00  0.00    -0.237 OA
ATOM     82  O   UNL A   1      34.567  34.987  33.961  1.00  0.00    -0.237 OA
ATOM     83  O   UNL A   1      33.180  34.870  31.926  1.00  0.00    -0.744 OA
ENDBRANCH  79  80
ENDBRANCH  58  72
BRANCH  59  84
ATOM     84  C   UNL A   1      46.756  28.347  27.508  1.00  0.00     0.058 A 
ATOM     85  C   UNL A   1      45.907  28.401  26.354  1.00  0.00     0.135 A 
ATOM     86  C   UNL A   1      47.957  27.649  27.314  1.00  0.00     0.135 A 
ATOM     87  F   UNL A   1      44.703  28.995  26.446  1.00  0.00    -0.206 F 
ATOM     88  C   UNL A   1      46.345  28.070  25.060  1.00  0.00     0.059 A 
ATOM     89  C   UNL A   1      48.405  27.277  26.021  1.00  0.00     0.059 A 
ATOM     90  F   UNL A   1      48.786  27.445  28.346  1.00  0.00    -0.206 F 
ATOM     91  C   UNL A   1      47.630  27.569  24.893  1.00  0.00     0.060 A 
BRANCH  91  92
ATOM     92  S   UNL A   1      48.311  27.429  23.202  1.00  0.00     0.124 S 
ATOM     93  O   UNL A   1      48.276  25.987  22.985  1.00  0.00    -0.237 OA
ATOM     94  O   UNL A   1      47.365  28.195  22.394  1.00  0.00    -0.237 OA
ATOM     95  O   UNL A   1      49.640  28.016  23.325  1.00  0.00    -0.744 OA
ENDBRANCH  91  92
ENDBRANCH  59  84
BRANCH  71  96
ATOM     96  C   UNL A   1      43.629  35.022  28.660  1.00  0.00     0.058 A 
ATOM     97  C   UNL A   1      43.395  35.418  27.332  1.00  0.00     0.135 A 
ATOM     98  C   UNL A   1      43.661  36.088  29.598  1.00  0.00     0.135 A 
ATOM     99  F   UNL A   1      43.114  34.529  26.368  1.00  0.00    -0.206 F 
ATOM    100  C   UNL A   1      43.382  36.752  26.936  1.00  0.00     0.059 A 
ATOM    101  C   UNL A   1      43.535  37.425  29.238  1.00  0.00     0.059 A 
ATOM    102  F   UNL A   1      43.794  35.876  30.916  1.00  0.00    -0.206 F 
ATOM    103  C   UNL A   1      43.462  37.750  27.896  1.00  0.00     0.060 A 
BRANCH 103 104
ATOM    104  S   UNL A   1      43.430  39.468  27.377  1.00  0.00     0.124 S 
ATOM    105  O   UNL A   1      44.613  39.529  26.525  1.00  0.00    -0.237 OA
ATOM    106  O   UNL A   1      42.148  39.564  26.686  1.00  0.00    -0.237 OA
ATOM    107  O   UNL A   1      43.514  40.202  28.635  1.00  0.00    -0.744 OA
ENDBRANCH 103 104
ENDBRANCH  71  96
ENDBRANCH  45  46
ENDBRANCH  37  40
ENDBRANCH  35  36
ENDBRANCH  34  35
ENDBRANCH  33  34
ENDBRANCH  32  33
ENDBRANCH   1  32
TORSDOF 22
ENDMDL
MODEL 2
REMARK VINA RESULT:     -13.5      3.857     10.780
REMARK SMILES Cc1c(NCc2ccccn2)cccc1C(=O)N1CCOC[C@@H]1CC(=O)NCCCCCCNC(=O)c1ccc(-c2c3nc(c(-c4c(F)cc(S(=O)(=O)[O-])cc4F)c4ccc([nH]4)c(-c4c(F)cc(S(=O)(=O)[O-])cc4F)c4nc(c(-c5c(F)cc(S(=O)(=O)[O-])cc5F)c5ccc2[nH]5)C=C4)C=C3)cc1
REMARK SMILES IDX 29 1 28 2 27 3 25 4 26 5 24 7 23 8 18 9 19 10 20 11 22 12
REMARK SMILES IDX 21 13 16 14 17 15 15 16 1 17 2 18 3 19 12 20 14 21 13 22
REMARK SMILES IDX 4 23 5 25 6 26 7 27 11 28 8 29 10 30 9 31 30 32 31 33 32 34
REMARK SMILES IDX 33 35 34 36 35 37 36 39 37 40 38 41 102 42 39 43 101 44
REMARK SMILES IDX 40 45 41 46 42 47 95 48 43 49 100 50 94 51 96 52 44 53 99 54
REMARK SMILES IDX 93 55 92 56 45 58 79 59 58 60 78 61 59 62 62 63 77 64 97 65
REMARK SMILES IDX 60 66 61 67 76 69 98 70 63 71 46 72 47 73 56 74 48 75 49 76
REMARK SMILES IDX 55 77 57 78 50 79 51 80 52 81 53 82 54 83 80 84 81 85 90 86
REMARK SMILES IDX 82 87 83 88 89 89 91 90 84 91 85 92 86 93 87 94 88 95 64 96
REMARK SMILES IDX 65 97 74 98 66 99 67 100 73 101 75 102 68 103 69 104 70 105
REMARK SMILES IDX 71 106 72 107
REMARK H PARENT 27 6 4 24 34 38 96 57 62 68
REMARK Flexibility Score: inf
ROOT
ATOM      1  C   UNL A   1      31.128  27.837  23.457  1.00  0.00     0.021 C 
ENDROOT
BRANCH   1   2
ATOM      2  C   UNL A   1      31.965  26.752  24.133  1.00  0.00     0.116 C 
BRANCH   2   3
ATOM      3  N   UNL A   1      32.170  25.700  23.179  1.00  0.00    -0.356 N 
ATOM      4  C   UNL A   1      33.344  25.016  23.072  1.00  0.00     0.222 C 
ATOM      5  O   UNL A   1      33.716  24.648  21.958  1.00  0.00    -0.275 OA
ATOM      6  H   UNL A   1      31.431  25.461  22.574  1.00  0.00     0.163 HD
BRANCH   4   7
ATOM      7  C   UNL A   1      34.095  24.647  24.339  1.00  0.00     0.127 C 
BRANCH   7   8
ATOM      8  C   UNL A   1      33.990  23.232  24.929  1.00  0.00     0.120 C 
ATOM      9  N   UNL A   1      35.004  22.180  24.599  1.00  0.00    -0.331 N 
ATOM     10  C   UNL A   1      34.844  21.038  25.528  1.00  0.00     0.148 C 
ATOM     11  C   UNL A   1      33.388  20.512  25.590  1.00  0.00     0.181 C 
ATOM     12  C   UNL A   1      32.589  22.600  24.769  1.00  0.00     0.185 C 
ATOM     13  O   UNL A   1      32.421  21.562  25.753  1.00  0.00    -0.377 OA
BRANCH   9  14
ATOM     14  C   UNL A   1      36.307  22.491  24.181  1.00  0.00     0.254 C 
ATOM     15  O   UNL A   1      36.609  22.582  22.994  1.00  0.00    -0.269 OA
BRANCH  14  16
ATOM     16  C   UNL A   1      37.428  22.517  25.203  1.00  0.00     0.045 A 
ATOM     17  C   UNL A   1      38.210  19.736  24.991  1.00  0.00     0.047 C 
ATOM     18  C   UNL A   1      38.463  21.090  25.567  1.00  0.00    -0.015 A 
ATOM     19  C   UNL A   1      39.896  21.258  26.646  1.00  0.00     0.038 A 
ATOM     20  C   UNL A   1      40.306  22.841  27.413  1.00  0.00     0.026 A 
ATOM     21  C   UNL A   1      37.804  24.111  25.980  1.00  0.00     0.014 A 
ATOM     22  C   UNL A   1      39.255  24.281  27.072  1.00  0.00     0.003 A 
BRANCH  19  23
ATOM     23  N   UNL A   1      40.683  20.147  26.840  1.00  0.00    -0.379 N 
ATOM     24  H   UNL A   1      40.688  19.675  27.705  1.00  0.00     0.160 HD
BRANCH  23  25
ATOM     25  C   UNL A   1      41.496  19.694  25.749  1.00  0.00     0.169 C 
BRANCH  25  26
ATOM     26  C   UNL A   1      42.985  20.023  25.965  1.00  0.00     0.059 A 
ATOM     27  C   UNL A   1      44.251  18.827  25.378  1.00  0.00     0.026 A 
ATOM     28  N   UNL A   1      43.321  21.814  25.966  1.00  0.00    -0.259 NA
ATOM     29  C   UNL A   1      45.838  19.463  24.704  1.00  0.00     0.004 A 
ATOM     30  C   UNL A   1      44.876  22.461  25.317  1.00  0.00     0.111 A 
ATOM     31  C   UNL A   1      46.124  21.332  24.626  1.00  0.00     0.020 A 
ENDBRANCH  25  26
ENDBRANCH  23  25
ENDBRANCH  19  23
ENDBRANCH  14  16
ENDBRANCH   9  14
ENDBRANCH   7   8
ENDBRANCH   4   7
ENDBRANCH   2   3
ENDBRANCH   1   2
BRANCH   1  32
ATOM     32  C   UNL A   1      30.660  28.961  24.369  1.00  0.00     0.002 C 
BRANCH  32  33
ATOM     33  C   UNL A   1      31.893  29.708  25.264  1.00  0.00     0.002 C 
BRANCH  33  34
ATOM     34  C   UNL A   1      32.028  31.189  26.865  1.00  0.00     0.021 C 
BRANCH  34  35
ATOM     35  C   UNL A   1      33.031  32.508  27.251  1.00  0.00     0.116 C 
BRANCH  35  36
ATOM     36  N   UNL A   1      33.519  32.763  28.623  1.00  0.00    -0.352 N 
ATOM     37  C   UNL A   1      34.562  32.150  29.314  1.00  0.00     0.251 C 
ATOM     38  H   UNL A   1      33.039  33.465  29.118  1.00  0.00     0.163 HD
ATOM     39  O   UNL A   1      34.609  32.126  30.539  1.00  0.00    -0.269 OA
BRANCH  37  40
ATOM     40  C   UNL A   1      35.747  31.717  28.522  1.00  0.00     0.039 A 
ATOM     41  C   UNL A   1      36.220  30.449  28.862  1.00  0.00     0.014 A 
ATOM     42  C   UNL A   1      36.633  32.707  28.143  1.00  0.00     0.014 A 
ATOM     43  C   UNL A   1      37.550  30.320  29.236  1.00  0.00     0.010 A 
ATOM     44  C   UNL A   1      37.877  32.658  28.746  1.00  0.00     0.010 A 
ATOM     45  C   UNL A   1      38.309  31.490  29.412  1.00  0.00    -0.014 A 
BRANCH  45  46
ATOM     46  C   UNL A   1      39.727  31.662  30.275  1.00  0.00     0.031 A 
ATOM     47  C   UNL A   1      40.519  30.349  29.244  1.00  0.00     0.074 A 
ATOM     48  C   UNL A   1      40.344  32.589  31.788  1.00  0.00     0.049 A 
ATOM     49  N   UNL A   1      41.773  30.024  29.324  1.00  0.00    -0.248 NA
ATOM     50  C   UNL A   1      39.884  29.412  28.284  1.00  0.00     0.031 C 
ATOM     51  C   UNL A   1      41.844  32.934  32.525  1.00  0.00     0.029 A 
ATOM     52  N   UNL A   1      39.682  33.294  32.950  1.00  0.00    -0.354 N 
ATOM     53  C   UNL A   1      42.117  28.947  28.598  1.00  0.00     0.074 A 
ATOM     54  C   UNL A   1      40.924  28.673  27.843  1.00  0.00     0.031 C 
ATOM     55  C   UNL A   1      41.716  33.224  33.828  1.00  0.00     0.029 A 
ATOM     56  C   UNL A   1      40.337  33.079  34.155  1.00  0.00     0.049 A 
ATOM     57  H   UNL A   1      38.873  33.848  32.861  1.00  0.00     0.167 HD
ATOM     58  C   UNL A   1      43.418  28.571  28.756  1.00  0.00     0.037 A 
ATOM     59  C   UNL A   1      39.793  32.226  35.070  1.00  0.00     0.037 A 
ATOM     60  C   UNL A   1      43.926  28.997  30.106  1.00  0.00     0.049 A 
ATOM     61  C   UNL A   1      40.736  30.986  35.123  1.00  0.00     0.074 A 
ATOM     62  C   UNL A   1      44.647  30.094  30.557  1.00  0.00     0.029 A 
ATOM     63  N   UNL A   1      43.412  28.403  31.275  1.00  0.00    -0.354 N 
ATOM     64  N   UNL A   1      41.465  30.503  34.130  1.00  0.00    -0.248 NA
ATOM     65  C   UNL A   1      41.073  30.338  36.382  1.00  0.00     0.031 C 
ATOM     66  C   UNL A   1      44.446  30.231  31.973  1.00  0.00     0.029 A 
ATOM     67  C   UNL A   1      43.641  29.191  32.426  1.00  0.00     0.049 A 
ATOM     68  H   UNL A   1      42.945  27.536  31.289  1.00  0.00     0.167 HD
ATOM     69  C   UNL A   1      42.332  29.518  34.562  1.00  0.00     0.074 A 
ATOM     70  C   UNL A   1      42.067  29.513  36.003  1.00  0.00     0.031 C 
ATOM     71  C   UNL A   1      43.198  28.754  33.782  1.00  0.00     0.037 A 
BRANCH  58  72
ATOM     72  C   UNL A   1      44.282  28.144  27.583  1.00  0.00     0.058 A 
ATOM     73  C   UNL A   1      44.462  26.770  27.302  1.00  0.00     0.135 A 
ATOM     74  C   UNL A   1      45.080  29.004  26.794  1.00  0.00     0.135 A 
ATOM     75  F   UNL A   1      43.780  25.829  27.969  1.00  0.00    -0.206 F 
ATOM     76  C   UNL A   1      45.377  26.292  26.357  1.00  0.00     0.059 A 
ATOM     77  C   UNL A   1      46.006  28.550  25.847  1.00  0.00     0.059 A 
ATOM     78  F   UNL A   1      45.007  30.334  26.905  1.00  0.00    -0.206 F 
ATOM     79  C   UNL A   1      46.156  27.189  25.640  1.00  0.00     0.060 A 
BRANCH  79  80
ATOM     80  S   UNL A   1      47.347  26.556  24.443  1.00  0.00     0.124 S 
ATOM     81  O   UNL A   1      46.885  25.185  24.250  1.00  0.00    -0.237 OA
ATOM     82  O   UNL A   1      47.154  27.458  23.313  1.00  0.00    -0.237 OA
ATOM     83  O   UNL A   1      48.628  26.687  25.133  1.00  0.00    -0.744 OA
ENDBRANCH  79  80
ENDBRANCH  58  72
BRANCH  59  84
ATOM     84  C   UNL A   1      38.250  32.357  35.067  1.00  0.00     0.058 A 
ATOM     85  C   UNL A   1      37.705  33.544  35.657  1.00  0.00     0.135 A 
ATOM     86  C   UNL A   1      37.406  31.725  34.143  1.00  0.00     0.135 A 
ATOM     87  F   UNL A   1      38.407  34.196  36.601  1.00  0.00    -0.206 F 
ATOM     88  C   UNL A   1      36.573  34.204  35.149  1.00  0.00     0.059 A 
ATOM     89  C   UNL A   1      36.242  32.359  33.638  1.00  0.00     0.059 A 
ATOM     90  F   UNL A   1      37.765  30.554  33.601  1.00  0.00    -0.206 F 
ATOM     91  C   UNL A   1      35.882  33.636  34.086  1.00  0.00     0.060 A 
BRANCH  91  92
ATOM     92  S   UNL A   1      34.610  34.627  33.227  1.00  0.00     0.124 S 
ATOM     93  O   UNL A   1      33.465  33.723  33.244  1.00  0.00    -0.237 OA
ATOM     94  O   UNL A   1      34.472  35.808  34.077  1.00  0.00    -0.237 OA
ATOM     95  O   UNL A   1      35.200  34.870  31.916  1.00  0.00    -0.744 OA
ENDBRANCH  91  92
ENDBRANCH  59  84
BRANCH  71  96
ATOM     96  C   UNL A   1      43.828  27.461  34.298  1.00  0.00     0.058 A 
ATOM     97  C   UNL A   1      45.191  27.327  34.614  1.00  0.00     0.135 A 
ATOM     98  C   UNL A   1      43.033  26.329  34.620  1.00  0.00     0.135 A 
ATOM     99  F   UNL A   1      46.030  28.373  34.584  1.00  0.00    -0.206 F 
ATOM    100  C   UNL A   1      45.752  26.124  35.031  1.00  0.00     0.059 A 
ATOM    101  C   UNL A   1      43.556  25.154  35.146  1.00  0.00     0.059 A 
ATOM    102  F   UNL A   1      41.702  26.323  34.456  1.00  0.00    -0.206 F 
ATOM    103  C   UNL A   1      44.927  25.038  35.286  1.00  0.00     0.060 A 
BRANCH 103 104
ATOM    104  S   UNL A   1      45.658  23.494  35.838  1.00  0.00     0.124 S 
ATOM    105  O   UNL A   1      46.141  23.867  37.163  1.00  0.00    -0.237 OA
ATOM    106  O   UNL A   1      44.518  22.581  35.815  1.00  0.00    -0.237 OA
ATOM    107  O   UNL A   1      46.685  23.231  34.837  1.00  0.00    -0.744 OA
ENDBRANCH 103 104
ENDBRANCH  71  96
ENDBRANCH  45  46
ENDBRANCH  37  40
ENDBRANCH  35  36
ENDBRANCH  34  35
ENDBRANCH  33  34
ENDBRANCH  32  33
ENDBRANCH   1  32
TORSDOF 22
ENDMDL
MODEL 3
REMARK VINA RESULT:     -13.1      1.727      2.349
REMARK SMILES Cc1c(NCc2ccccn2)cccc1C(=O)N1CCOC[C@@H]1CC(=O)NCCCCCCNC(=O)c1ccc(-c2c3nc(c(-c4c(F)cc(S(=O)(=O)[O-])cc4F)c4ccc([nH]4)c(-c4c(F)cc(S(=O)(=O)[O-])cc4F)c4nc(c(-c5c(F)cc(S(=O)(=O)[O-])cc5F)c5ccc2[nH]5)C=C4)C=C3)cc1
REMARK SMILES IDX 29 1 28 2 27 3 25 4 26 5 24 7 23 8 18 9 19 10 20 11 22 12
REMARK SMILES IDX 21 13 16 14 17 15 15 16 1 17 2 18 3 19 12 20 14 21 13 22
REMARK SMILES IDX 4 23 5 25 6 26 7 27 11 28 8 29 10 30 9 31 30 32 31 33 32 34
REMARK SMILES IDX 33 35 34 36 35 37 36 39 37 40 38 41 102 42 39 43 101 44
REMARK SMILES IDX 40 45 41 46 42 47 95 48 43 49 100 50 94 51 96 52 44 53 99 54
REMARK SMILES IDX 93 55 92 56 45 58 79 59 58 60 78 61 59 62 62 63 77 64 97 65
REMARK SMILES IDX 60 66 61 67 76 69 98 70 63 71 46 72 47 73 56 74 48 75 49 76
REMARK SMILES IDX 55 77 57 78 50 79 51 80 52 81 53 82 54 83 80 84 81 85 90 86
REMARK SMILES IDX 82 87 83 88 89 89 91 90 84 91 85 92 86 93 87 94 88 95 64 96
REMARK SMILES IDX 65 97 74 98 66 99 67 100 73 101 75 102 68 103 69 104 70 105
REMARK SMILES IDX 71 106 72 107
REMARK H PARENT 27 6 4 24 34 38 96 57 62 68
REMARK Flexibility Score: inf
ROOT
ATOM      1  C   UNL A   1      35.300  23.907  23.422  1.00  0.00     0.021 C 
ENDROOT
BRANCH   1   2
ATOM      2  C   UNL A   1      33.816  23.907  23.058  1.00  0.00     0.116 C 
BRANCH   2   3
ATOM      3  N   UNL A   1      33.630  24.841  21.985  1.00  0.00    -0.356 N 
ATOM      4  C   UNL A   1      32.401  25.269  21.581  1.00  0.00     0.222 C 
ATOM      5  O   UNL A   1      32.216  25.494  20.386  1.00  0.00    -0.275 OA
ATOM      6  H   UNL A   1      34.425  25.190  21.520  1.00  0.00     0.163 HD
BRANCH   4   7
ATOM      7  C   UNL A   1      31.341  25.550  22.632  1.00  0.00     0.127 C 
BRANCH   7   8
ATOM      8  C   UNL A   1      31.223  26.940  23.274  1.00  0.00     0.120 C 
ATOM      9  N   UNL A   1      30.533  27.127  24.591  1.00  0.00    -0.331 N 
ATOM     10  C   UNL A   1      30.836  28.478  25.114  1.00  0.00     0.148 C 
ATOM     11  C   UNL A   1      30.544  29.601  24.086  1.00  0.00     0.181 C 
ATOM     12  C   UNL A   1      30.690  28.023  22.308  1.00  0.00     0.185 C 
ATOM     13  O   UNL A   1      31.087  29.322  22.786  1.00  0.00    -0.377 OA
BRANCH   9  14
ATOM     14  C   UNL A   1      30.399  26.090  25.528  1.00  0.00     0.254 C 
ATOM     15  O   UNL A   1      29.347  25.879  26.124  1.00  0.00    -0.269 OA
BRANCH  14  16
ATOM     16  C   UNL A   1      31.634  25.331  25.975  1.00  0.00     0.045 A 
ATOM     17  C   UNL A   1      30.380  22.750  26.369  1.00  0.00     0.047 C 
ATOM     18  C   UNL A   1      31.628  23.569  26.344  1.00  0.00    -0.015 A 
ATOM     19  C   UNL A   1      33.174  22.704  26.676  1.00  0.00     0.038 A 
ATOM     20  C   UNL A   1      34.751  23.583  26.684  1.00  0.00     0.026 A 
ATOM     21  C   UNL A   1      33.202  26.240  26.002  1.00  0.00     0.014 A 
ATOM     22  C   UNL A   1      34.767  25.365  26.338  1.00  0.00     0.003 A 
BRANCH  19  23
ATOM     23  N   UNL A   1      33.113  21.347  26.893  1.00  0.00    -0.379 N 
ATOM     24  H   UNL A   1      32.533  20.973  27.595  1.00  0.00     0.160 HD
BRANCH  23  25
ATOM     25  C   UNL A   1      33.916  20.493  26.066  1.00  0.00     0.169 C 
BRANCH  25  26
ATOM     26  C   UNL A   1      33.077  19.399  25.382  1.00  0.00     0.059 A 
ATOM     27  C   UNL A   1      32.648  19.590  23.605  1.00  0.00     0.026 A 
ATOM     28  N   UNL A   1      33.342  17.747  26.106  1.00  0.00    -0.259 NA
ATOM     29  C   UNL A   1      32.577  18.098  22.535  1.00  0.00     0.004 A 
ATOM     30  C   UNL A   1      33.268  16.266  25.076  1.00  0.00     0.111 A 
ATOM     31  C   UNL A   1      32.951  16.404  23.290  1.00  0.00     0.020 A 
ENDBRANCH  25  26
ENDBRANCH  23  25
ENDBRANCH  19  23
ENDBRANCH  14  16
ENDBRANCH   9  14
ENDBRANCH   7   8
ENDBRANCH   4   7
ENDBRANCH   2   3
ENDBRANCH   1   2
BRANCH   1  32
ATOM     32  C   UNL A   1      36.036  22.601  23.156  1.00  0.00     0.002 C 
BRANCH  32  33
ATOM     33  C   UNL A   1      37.253  22.232  24.279  1.00  0.00     0.002 C 
BRANCH  33  34
ATOM     34  C   UNL A   1      38.235  23.234  25.955  1.00  0.00     0.021 C 
BRANCH  34  35
ATOM     35  C   UNL A   1      39.333  22.807  27.183  1.00  0.00     0.116 C 
BRANCH  35  36
ATOM     36  N   UNL A   1      40.665  23.435  27.314  1.00  0.00    -0.352 N 
ATOM     37  C   UNL A   1      41.047  24.749  27.054  1.00  0.00     0.251 C 
ATOM     38  H   UNL A   1      41.383  22.840  27.630  1.00  0.00     0.163 HD
ATOM     39  O   UNL A   1      42.205  25.052  26.788  1.00  0.00    -0.269 OA
BRANCH  37  40
ATOM     40  C   UNL A   1      40.051  25.820  27.333  1.00  0.00     0.039 A 
ATOM     41  C   UNL A   1      40.222  26.967  26.556  1.00  0.00     0.014 A 
ATOM     42  C   UNL A   1      39.606  25.929  28.636  1.00  0.00     0.014 A 
ATOM     43  C   UNL A   1      40.372  28.185  27.203  1.00  0.00     0.010 A 
ATOM     44  C   UNL A   1      40.001  27.072  29.309  1.00  0.00     0.010 A 
ATOM     45  C   UNL A   1      40.508  28.184  28.602  1.00  0.00    -0.014 A 
BRANCH  45  46
ATOM     46  C   UNL A   1      41.146  29.390  29.563  1.00  0.00     0.031 A 
ATOM     47  C   UNL A   1      39.601  30.382  29.352  1.00  0.00     0.074 A 
ATOM     48  C   UNL A   1      42.778  29.802  30.397  1.00  0.00     0.049 A 
ATOM     49  N   UNL A   1      39.365  31.495  29.975  1.00  0.00    -0.248 NA
ATOM     50  C   UNL A   1      38.477  30.162  28.409  1.00  0.00     0.031 C 
ATOM     51  C   UNL A   1      43.351  30.915  31.556  1.00  0.00     0.029 A 
ATOM     52  N   UNL A   1      44.203  29.320  30.248  1.00  0.00    -0.354 N 
ATOM     53  C   UNL A   1      38.255  32.136  29.573  1.00  0.00     0.074 A 
ATOM     54  C   UNL A   1      37.645  31.190  28.678  1.00  0.00     0.031 C 
ATOM     55  C   UNL A   1      44.673  31.115  31.461  1.00  0.00     0.029 A 
ATOM     56  C   UNL A   1      45.133  30.345  30.353  1.00  0.00     0.049 A 
ATOM     57  H   UNL A   1      44.446  28.379  30.094  1.00  0.00     0.167 HD
ATOM     58  C   UNL A   1      38.064  33.341  30.180  1.00  0.00     0.037 A 
ATOM     59  C   UNL A   1      45.749  30.809  29.228  1.00  0.00     0.037 A 
ATOM     60  C   UNL A   1      39.382  33.924  30.613  1.00  0.00     0.049 A 
ATOM     61  C   UNL A   1      45.204  32.251  28.997  1.00  0.00     0.074 A 
ATOM     62  C   UNL A   1      40.084  33.925  31.811  1.00  0.00     0.029 A 
ATOM     63  N   UNL A   1      40.321  34.341  29.649  1.00  0.00    -0.354 N 
ATOM     64  N   UNL A   1      44.005  32.706  29.321  1.00  0.00    -0.248 NA
ATOM     65  C   UNL A   1      46.075  33.336  28.569  1.00  0.00     0.031 C 
ATOM     66  C   UNL A   1      41.466  34.206  31.538  1.00  0.00     0.029 A 
ATOM     67  C   UNL A   1      41.630  34.434  30.176  1.00  0.00     0.049 A 
ATOM     68  H   UNL A   1      40.092  34.545  28.714  1.00  0.00     0.167 HD
ATOM     69  C   UNL A   1      43.912  34.074  29.155  1.00  0.00     0.074 A 
ATOM     70  C   UNL A   1      45.277  34.406  28.735  1.00  0.00     0.031 C 
ATOM     71  C   UNL A   1      42.786  34.873  29.341  1.00  0.00     0.037 A 
BRANCH  58  72
ATOM     72  C   UNL A   1      36.699  33.792  30.667  1.00  0.00     0.058 A 
ATOM     73  C   UNL A   1      35.713  34.188  29.734  1.00  0.00     0.135 A 
ATOM     74  C   UNL A   1      36.338  34.009  32.016  1.00  0.00     0.135 A 
ATOM     75  F   UNL A   1      35.908  34.050  28.415  1.00  0.00    -0.206 F 
ATOM     76  C   UNL A   1      34.499  34.781  30.102  1.00  0.00     0.059 A 
ATOM     77  C   UNL A   1      35.133  34.605  32.409  1.00  0.00     0.059 A 
ATOM     78  F   UNL A   1      37.139  33.658  33.027  1.00  0.00    -0.206 F 
ATOM     79  C   UNL A   1      34.221  34.998  31.444  1.00  0.00     0.060 A 
BRANCH  79  80
ATOM     80  S   UNL A   1      32.663  35.784  31.902  1.00  0.00     0.124 S 
ATOM     81  O   UNL A   1      33.121  36.953  32.648  1.00  0.00    -0.237 OA
ATOM     82  O   UNL A   1      32.063  36.056  30.600  1.00  0.00    -0.237 OA
ATOM     83  O   UNL A   1      31.987  34.765  32.700  1.00  0.00    -0.744 OA
ENDBRANCH  79  80
ENDBRANCH  58  72
BRANCH  59  84
ATOM     84  C   UNL A   1      46.030  29.638  28.255  1.00  0.00     0.058 A 
ATOM     85  C   UNL A   1      47.173  28.822  28.544  1.00  0.00     0.135 A 
ATOM     86  C   UNL A   1      45.052  29.012  27.469  1.00  0.00     0.135 A 
ATOM     87  F   UNL A   1      48.199  29.344  29.241  1.00  0.00    -0.206 F 
ATOM     88  C   UNL A   1      47.196  27.432  28.339  1.00  0.00     0.059 A 
ATOM     89  C   UNL A   1      45.071  27.615  27.223  1.00  0.00     0.059 A 
ATOM     90  F   UNL A   1      43.985  29.706  27.051  1.00  0.00    -0.206 F 
ATOM     91  C   UNL A   1      46.104  26.822  27.736  1.00  0.00     0.060 A 
BRANCH  91  92
ATOM     92  S   UNL A   1      45.993  24.998  27.746  1.00  0.00     0.124 S 
ATOM     93  O   UNL A   1      47.303  24.622  28.265  1.00  0.00    -0.237 OA
ATOM     94  O   UNL A   1      44.876  24.733  28.651  1.00  0.00    -0.237 OA
ATOM     95  O   UNL A   1      45.751  24.667  26.347  1.00  0.00    -0.744 OA
ENDBRANCH  91  92
ENDBRANCH  59  84
BRANCH  71  96
ATOM     96  C   UNL A   1      42.696  36.293  28.782  1.00  0.00     0.058 A 
ATOM     97  C   UNL A   1      43.247  37.419  29.416  1.00  0.00     0.135 A 
ATOM     98  C   UNL A   1      42.151  36.545  27.496  1.00  0.00     0.135 A 
ATOM     99  F   UNL A   1      43.995  37.313  30.524  1.00  0.00    -0.206 F 
ATOM    100  C   UNL A   1      43.105  38.709  28.913  1.00  0.00     0.059 A 
ATOM    101  C   UNL A   1      42.101  37.811  26.923  1.00  0.00     0.059 A 
ATOM    102  F   UNL A   1      41.658  35.565  26.725  1.00  0.00    -0.206 F 
ATOM    103  C   UNL A   1      42.522  38.897  27.669  1.00  0.00     0.060 A 
BRANCH 103 104
ATOM    104  S   UNL A   1      42.356  40.563  27.022  1.00  0.00     0.124 S 
ATOM    105  O   UNL A   1      41.927  40.294  25.654  1.00  0.00    -0.237 OA
ATOM    106  O   UNL A   1      41.343  41.142  27.900  1.00  0.00    -0.237 OA
ATOM    107  O   UNL A   1      43.696  41.118  27.171  1.00  0.00    -0.744 OA
ENDBRANCH 103 104
ENDBRANCH  71  96
ENDBRANCH  45  46
ENDBRANCH  37  40
ENDBRANCH  35  36
ENDBRANCH  34  35
ENDBRANCH  33  34
ENDBRANCH  32  33
ENDBRANCH   1  32
TORSDOF 22
ENDMDL
