MODEL 1
REMARK VINA RESULT:     -10.2      0.000      0.000
REMARK SMILES CC[C@@H](COC)NC(=O)NC[C@@H]1CC[C@H](C(=O)NCCCCCCNC(=O)c2ccc(-c3c4nc(c(-c5c(F)cc(S(=O)(=O)[O-])cc5F)c5ccc([nH]5)c(-c5c(F)cc(S(=O)(=O)[O-])cc5F)c5nc(c(-c6c(F)cc(S(=O)(=O)[O-])cc6F)c6ccc3[nH]6)C=C5)C=C4)cc2)O1
REMARK SMILES IDX 20 1 19 2 18 3 16 4 17 5 15 7 12 8 13 9 94 10 14 11 11 12
REMARK SMILES IDX 10 13 7 14 8 15 9 17 3 19 2 20 1 21 4 22 5 23 6 24 21 25
REMARK SMILES IDX 22 26 23 27 24 28 25 29 26 30 27 32 28 33 29 34 93 35 30 36
REMARK SMILES IDX 92 37 31 38 32 39 33 40 86 41 34 42 91 43 85 44 87 45 35 46
REMARK SMILES IDX 90 47 84 48 83 49 36 51 70 52 49 53 69 54 50 55 53 56 68 57
REMARK SMILES IDX 88 58 51 59 52 60 67 62 89 63 54 64 37 65 38 66 47 67 39 68
REMARK SMILES IDX 40 69 46 70 48 71 41 72 42 73 43 74 44 75 45 76 71 77 72 78
REMARK SMILES IDX 81 79 73 80 74 81 80 82 82 83 75 84 76 85 77 86 78 87 79 88
REMARK SMILES IDX 55 89 56 90 65 91 57 92 58 93 64 94 66 95 59 96 60 97 61 98
REMARK SMILES IDX 62 99 63 100
REMARK H PARENT 18 6 7 16 10 18 25 31 87 50 53 61
REMARK Flexibility Score: inf
ROOT
ATOM      1  C   UNL A   1      39.268  22.558  26.285  1.00  0.00     0.021 C 
ENDROOT
BRANCH   1   2
ATOM      2  C   UNL A   1      37.934  22.179  25.656  1.00  0.00     0.116 C 
BRANCH   2   3
ATOM      3  N   UNL A   1      36.790  22.705  26.359  1.00  0.00    -0.354 N 
ATOM      4  C   UNL A   1      35.463  22.595  26.053  1.00  0.00     0.249 C 
ATOM      5  O   UNL A   1      34.657  23.067  26.862  1.00  0.00    -0.272 OA
ATOM      6  H   UNL A   1      36.995  23.215  27.175  1.00  0.00     0.163 HD
BRANCH   4   7
ATOM      7  C   UNL A   1      34.967  21.922  24.745  1.00  0.00     0.207 C 
ATOM      8  C   UNL A   1      33.553  22.722  23.036  1.00  0.00     0.138 C 
ATOM      9  C   UNL A   1      32.704  21.792  23.895  1.00  0.00     0.037 C 
ATOM     10  O   UNL A   1      34.850  22.826  23.651  1.00  0.00    -0.363 OA
ATOM     11  C   UNL A   1      33.666  21.149  24.872  1.00  0.00     0.045 C 
BRANCH   8  12
ATOM     12  C   UNL A   1      33.013  24.158  22.896  1.00  0.00     0.149 C 
BRANCH  12  13
ATOM     13  N   UNL A   1      32.916  24.552  21.507  1.00  0.00    -0.336 N 
ATOM     14  N   UNL A   1      32.082  26.753  21.477  1.00  0.00    -0.333 N 
ATOM     15  C   UNL A   1      32.581  25.675  20.867  1.00  0.00     0.315 C 
ATOM     16  H   UNL A   1      31.955  27.510  20.861  1.00  0.00     0.165 HD
ATOM     17  O   UNL A   1      32.732  25.703  19.645  1.00  0.00    -0.249 OA
ATOM     18  H   UNL A   1      33.153  23.823  20.889  1.00  0.00     0.165 HD
BRANCH  14  19
ATOM     19  C   UNL A   1      31.681  27.074  22.847  1.00  0.00     0.109 C 
BRANCH  19  20
ATOM     20  C   UNL A   1      32.477  28.296  23.329  1.00  0.00     0.024 C 
ATOM     21  C   UNL A   1      33.971  28.044  23.457  1.00  0.00     0.006 C 
ENDBRANCH  19  20
BRANCH  19  22
ATOM     22  C   UNL A   1      30.144  27.189  22.920  1.00  0.00     0.184 C 
BRANCH  22  23
ATOM     23  O   UNL A   1      29.539  26.354  23.903  1.00  0.00    -0.383 OA
ATOM     24  C   UNL A   1      30.435  25.857  24.887  1.00  0.00     0.194 C 
ENDBRANCH  22  23
ENDBRANCH  19  22
ENDBRANCH  14  19
ENDBRANCH  12  13
ENDBRANCH   8  12
ENDBRANCH   4   7
ENDBRANCH   2   3
ENDBRANCH   1   2
BRANCH   1  25
ATOM     25  C   UNL A   1      40.190  21.367  26.531  1.00  0.00     0.002 C 
BRANCH  25  26
ATOM     26  C   UNL A   1      41.691  21.680  26.460  1.00  0.00     0.002 C 
BRANCH  26  27
ATOM     27  C   UNL A   1      42.290  22.364  27.695  1.00  0.00     0.021 C 
BRANCH  27  28
ATOM     28  C   UNL A   1      43.145  23.594  27.402  1.00  0.00     0.116 C 
BRANCH  28  29
ATOM     29  N   UNL A   1      42.639  24.355  26.270  1.00  0.00    -0.352 N 
ATOM     30  C   UNL A   1      41.909  25.513  26.248  1.00  0.00     0.251 C 
ATOM     31  H   UNL A   1      42.853  23.980  25.386  1.00  0.00     0.163 HD
ATOM     32  O   UNL A   1      41.397  25.891  25.191  1.00  0.00    -0.269 OA
BRANCH  30  33
ATOM     33  C   UNL A   1      41.727  26.305  27.481  1.00  0.00     0.039 A 
ATOM     34  C   UNL A   1      42.603  27.362  27.743  1.00  0.00     0.014 A 
ATOM     35  C   UNL A   1      40.712  25.993  28.389  1.00  0.00     0.014 A 
ATOM     36  C   UNL A   1      42.427  28.139  28.890  1.00  0.00     0.010 A 
ATOM     37  C   UNL A   1      40.495  26.811  29.495  1.00  0.00     0.010 A 
ATOM     38  C   UNL A   1      41.352  27.889  29.759  1.00  0.00    -0.014 A 
BRANCH  38  39
ATOM     39  C   UNL A   1      41.109  28.747  30.946  1.00  0.00     0.031 A 
ATOM     40  C   UNL A   1      40.016  29.782  30.922  1.00  0.00     0.074 A 
ATOM     41  C   UNL A   1      41.912  28.634  32.022  1.00  0.00     0.049 A 
ATOM     42  N   UNL A   1      39.698  30.668  31.830  1.00  0.00    -0.248 NA
ATOM     43  C   UNL A   1      39.191  29.848  29.704  1.00  0.00     0.031 C 
ATOM     44  C   UNL A   1      43.032  27.699  32.147  1.00  0.00     0.029 A 
ATOM     45  N   UNL A   1      41.918  29.316  33.212  1.00  0.00    -0.354 N 
ATOM     46  C   UNL A   1      38.646  31.401  31.293  1.00  0.00     0.074 A 
ATOM     47  C   UNL A   1      38.418  30.895  29.957  1.00  0.00     0.031 C 
ATOM     48  C   UNL A   1      43.601  27.851  33.353  1.00  0.00     0.029 A 
ATOM     49  C   UNL A   1      42.914  28.919  34.072  1.00  0.00     0.049 A 
ATOM     50  H   UNL A   1      41.270  30.025  33.430  1.00  0.00     0.167 HD
ATOM     51  C   UNL A   1      37.923  32.391  31.869  1.00  0.00     0.037 A 
ATOM     52  C   UNL A   1      43.243  29.369  35.298  1.00  0.00     0.037 A 
ATOM     53  C   UNL A   1      38.143  32.874  33.208  1.00  0.00     0.049 A 
ATOM     54  C   UNL A   1      42.428  30.473  35.916  1.00  0.00     0.074 A 
ATOM     55  C   UNL A   1      37.431  33.835  33.904  1.00  0.00     0.029 A 
ATOM     56  N   UNL A   1      39.151  32.433  34.055  1.00  0.00    -0.354 N 
ATOM     57  N   UNL A   1      41.401  31.116  35.416  1.00  0.00    -0.248 NA
ATOM     58  C   UNL A   1      42.811  30.907  37.266  1.00  0.00     0.031 C 
ATOM     59  C   UNL A   1      38.036  34.010  35.153  1.00  0.00     0.029 A 
ATOM     60  C   UNL A   1      39.092  33.119  35.257  1.00  0.00     0.049 A 
ATOM     61  H   UNL A   1      39.809  31.736  33.834  1.00  0.00     0.167 HD
ATOM     62  C   UNL A   1      40.996  32.011  36.400  1.00  0.00     0.074 A 
ATOM     63  C   UNL A   1      41.884  31.818  37.529  1.00  0.00     0.031 C 
ATOM     64  C   UNL A   1      39.981  32.910  36.374  1.00  0.00     0.037 A 
BRANCH  51  65
ATOM     65  C   UNL A   1      36.823  33.017  31.055  1.00  0.00     0.058 A 
ATOM     66  C   UNL A   1      37.094  33.922  30.017  1.00  0.00     0.135 A 
ATOM     67  C   UNL A   1      35.480  32.678  31.291  1.00  0.00     0.135 A 
ATOM     68  F   UNL A   1      38.359  34.293  29.758  1.00  0.00    -0.206 F 
ATOM     69  C   UNL A   1      36.075  34.495  29.264  1.00  0.00     0.059 A 
ATOM     70  C   UNL A   1      34.445  33.215  30.529  1.00  0.00     0.059 A 
ATOM     71  F   UNL A   1      35.160  31.817  32.270  1.00  0.00    -0.206 F 
ATOM     72  C   UNL A   1      34.753  34.136  29.528  1.00  0.00     0.060 A 
BRANCH  72  73
ATOM     73  S   UNL A   1      33.442  34.887  28.539  1.00  0.00     0.124 S 
ATOM     74  O   UNL A   1      34.182  35.914  27.812  1.00  0.00    -0.237 OA
ATOM     75  O   UNL A   1      32.969  33.761  27.742  1.00  0.00    -0.237 OA
ATOM     76  O   UNL A   1      32.502  35.383  29.540  1.00  0.00    -0.744 OA
ENDBRANCH  72  73
ENDBRANCH  51  65
BRANCH  52  77
ATOM     77  C   UNL A   1      44.385  28.759  36.031  1.00  0.00     0.058 A 
ATOM     78  C   UNL A   1      44.188  27.673  36.898  1.00  0.00     0.135 A 
ATOM     79  C   UNL A   1      45.694  29.239  35.871  1.00  0.00     0.135 A 
ATOM     80  F   UNL A   1      42.954  27.182  37.087  1.00  0.00    -0.206 F 
ATOM     81  C   UNL A   1      45.245  27.096  37.594  1.00  0.00     0.059 A 
ATOM     82  C   UNL A   1      46.771  28.662  36.536  1.00  0.00     0.059 A 
ATOM     83  F   UNL A   1      45.938  30.265  35.040  1.00  0.00    -0.206 F 
ATOM     84  C   UNL A   1      46.534  27.597  37.404  1.00  0.00     0.060 A 
BRANCH  84  85
ATOM     85  S   UNL A   1      47.904  26.812  38.279  1.00  0.00     0.124 S 
ATOM     86  O   UNL A   1      47.866  25.461  37.731  1.00  0.00    -0.237 OA
ATOM     87  O   UNL A   1      49.038  27.635  37.872  1.00  0.00    -0.237 OA
ATOM     88  O   UNL A   1      47.518  26.936  39.681  1.00  0.00    -0.744 OA
ENDBRANCH  84  85
ENDBRANCH  52  77
BRANCH  64  89
ATOM     89  C   UNL A   1      39.750  33.731  37.612  1.00  0.00     0.058 A 
ATOM     90  C   UNL A   1      38.877  33.308  38.627  1.00  0.00     0.135 A 
ATOM     91  C   UNL A   1      40.452  34.932  37.810  1.00  0.00     0.135 A 
ATOM     92  F   UNL A   1      38.177  32.172  38.485  1.00  0.00    -0.206 F 
ATOM     93  C   UNL A   1      38.691  34.057  39.784  1.00  0.00     0.059 A 
ATOM     94  C   UNL A   1      40.304  35.682  38.972  1.00  0.00     0.059 A 
ATOM     95  F   UNL A   1      41.307  35.376  36.875  1.00  0.00    -0.206 F 
ATOM     96  C   UNL A   1      39.413  35.242  39.949  1.00  0.00     0.060 A 
BRANCH  96  97
ATOM     97  S   UNL A   1      39.189  36.185  41.471  1.00  0.00     0.124 S 
ATOM     98  O   UNL A   1      40.409  35.859  42.202  1.00  0.00    -0.237 OA
ATOM     99  O   UNL A   1      39.092  37.556  40.979  1.00  0.00    -0.237 OA
ATOM    100  O   UNL A   1      37.956  35.638  42.031  1.00  0.00    -0.744 OA
ENDBRANCH  96  97
ENDBRANCH  64  89
ENDBRANCH  38  39
ENDBRANCH  30  33
ENDBRANCH  28  29
ENDBRANCH  27  28
ENDBRANCH  26  27
ENDBRANCH  25  26
ENDBRANCH   1  25
TORSDOF 22
ENDMDL
MODEL 2
REMARK VINA RESULT:     -10.1      1.228      8.335
REMARK SMILES CC[C@@H](COC)NC(=O)NC[C@@H]1CC[C@H](C(=O)NCCCCCCNC(=O)c2ccc(-c3c4nc(c(-c5c(F)cc(S(=O)(=O)[O-])cc5F)c5ccc([nH]5)c(-c5c(F)cc(S(=O)(=O)[O-])cc5F)c5nc(c(-c6c(F)cc(S(=O)(=O)[O-])cc6F)c6ccc3[nH]6)C=C5)C=C4)cc2)O1
REMARK SMILES IDX 20 1 19 2 18 3 16 4 17 5 15 7 12 8 13 9 94 10 14 11 11 12
REMARK SMILES IDX 10 13 7 14 8 15 9 17 3 19 2 20 1 21 4 22 5 23 6 24 21 25
REMARK SMILES IDX 22 26 23 27 24 28 25 29 26 30 27 32 28 33 29 34 93 35 30 36
REMARK SMILES IDX 92 37 31 38 32 39 33 40 86 41 34 42 91 43 85 44 87 45 35 46
REMARK SMILES IDX 90 47 84 48 83 49 36 51 70 52 49 53 69 54 50 55 53 56 68 57
REMARK SMILES IDX 88 58 51 59 52 60 67 62 89 63 54 64 37 65 38 66 47 67 39 68
REMARK SMILES IDX 40 69 46 70 48 71 41 72 42 73 43 74 44 75 45 76 71 77 72 78
REMARK SMILES IDX 81 79 73 80 74 81 80 82 82 83 75 84 76 85 77 86 78 87 79 88
REMARK SMILES IDX 55 89 56 90 65 91 57 92 58 93 64 94 66 95 59 96 60 97 61 98
REMARK SMILES IDX 62 99 63 100
REMARK H PARENT 18 6 7 16 10 18 25 31 87 50 53 61
REMARK Flexibility Score: inf
ROOT
ATOM      1  C   UNL A   1      39.108  22.318  26.134  1.00  0.00     0.021 C 
ENDROOT
BRANCH   1   2
ATOM      2  C   UNL A   1      37.838  21.909  25.402  1.00  0.00     0.116 C 
BRANCH   2   3
ATOM      3  N   UNL A   1      36.703  21.717  26.270  1.00  0.00    -0.354 N 
ATOM      4  C   UNL A   1      35.376  21.639  25.953  1.00  0.00     0.249 C 
ATOM      5  O   UNL A   1      34.590  21.387  26.872  1.00  0.00    -0.272 OA
ATOM      6  H   UNL A   1      36.914  21.632  27.227  1.00  0.00     0.163 HD
BRANCH   4   7
ATOM      7  C   UNL A   1      34.854  21.864  24.509  1.00  0.00     0.207 C 
ATOM      8  C   UNL A   1      33.478  23.555  23.609  1.00  0.00     0.138 C 
ATOM      9  C   UNL A   1      32.589  22.330  23.792  1.00  0.00     0.037 C 
ATOM     10  O   UNL A   1      34.777  23.238  24.141  1.00  0.00    -0.363 OA
ATOM     11  C   UNL A   1      33.521  21.207  24.195  1.00  0.00     0.045 C 
BRANCH   8  12
ATOM     12  C   UNL A   1      32.999  24.825  24.337  1.00  0.00     0.149 C 
BRANCH  12  13
ATOM     13  N   UNL A   1      32.123  24.501  25.443  1.00  0.00    -0.336 N 
ATOM     14  N   UNL A   1      30.360  26.060  25.398  1.00  0.00    -0.333 N 
ATOM     15  C   UNL A   1      30.955  24.969  25.888  1.00  0.00     0.315 C 
ATOM     16  H   UNL A   1      29.476  26.219  25.800  1.00  0.00     0.165 HD
ATOM     17  O   UNL A   1      30.411  24.362  26.812  1.00  0.00    -0.249 OA
ATOM     18  H   UNL A   1      32.469  23.763  25.996  1.00  0.00     0.165 HD
BRANCH  14  19
ATOM     19  C   UNL A   1      30.713  27.072  24.403  1.00  0.00     0.109 C 
BRANCH  19  20
ATOM     20  C   UNL A   1      29.511  27.303  23.475  1.00  0.00     0.024 C 
ATOM     21  C   UNL A   1      28.235  26.618  23.940  1.00  0.00     0.006 C 
ENDBRANCH  19  20
BRANCH  19  22
ATOM     22  C   UNL A   1      31.274  28.321  25.116  1.00  0.00     0.184 C 
BRANCH  22  23
ATOM     23  O   UNL A   1      32.674  28.268  25.376  1.00  0.00    -0.383 OA
ATOM     24  C   UNL A   1      33.013  28.131  26.749  1.00  0.00     0.194 C 
ENDBRANCH  22  23
ENDBRANCH  19  22
ENDBRANCH  14  19
ENDBRANCH  12  13
ENDBRANCH   8  12
ENDBRANCH   4   7
ENDBRANCH   2   3
ENDBRANCH   1   2
BRANCH   1  25
ATOM     25  C   UNL A   1      40.027  21.147  26.471  1.00  0.00     0.002 C 
BRANCH  25  26
ATOM     26  C   UNL A   1      41.529  21.449  26.375  1.00  0.00     0.002 C 
BRANCH  26  27
ATOM     27  C   UNL A   1      42.179  22.011  27.644  1.00  0.00     0.021 C 
BRANCH  27  28
ATOM     28  C   UNL A   1      42.916  23.336  27.461  1.00  0.00     0.116 C 
BRANCH  28  29
ATOM     29  N   UNL A   1      42.459  24.058  26.284  1.00  0.00    -0.352 N 
ATOM     30  C   UNL A   1      41.790  25.248  26.191  1.00  0.00     0.251 C 
ATOM     31  H   UNL A   1      42.661  23.625  25.424  1.00  0.00     0.163 HD
ATOM     32  O   UNL A   1      41.306  25.593  25.110  1.00  0.00    -0.269 OA
BRANCH  30  33
ATOM     33  C   UNL A   1      41.637  26.115  27.377  1.00  0.00     0.039 A 
ATOM     34  C   UNL A   1      42.641  27.043  27.671  1.00  0.00     0.014 A 
ATOM     35  C   UNL A   1      40.523  25.998  28.212  1.00  0.00     0.014 A 
ATOM     36  C   UNL A   1      42.499  27.890  28.772  1.00  0.00     0.010 A 
ATOM     37  C   UNL A   1      40.351  26.889  29.268  1.00  0.00     0.010 A 
ATOM     38  C   UNL A   1      41.338  27.841  29.562  1.00  0.00    -0.014 A 
BRANCH  38  39
ATOM     39  C   UNL A   1      41.139  28.779  30.695  1.00  0.00     0.031 A 
ATOM     40  C   UNL A   1      42.000  28.675  31.925  1.00  0.00     0.074 A 
ATOM     41  C   UNL A   1      40.141  29.682  30.640  1.00  0.00     0.049 A 
ATOM     42  N   UNL A   1      41.933  29.356  33.040  1.00  0.00    -0.248 NA
ATOM     43  C   UNL A   1      43.061  27.654  31.908  1.00  0.00     0.031 C 
ATOM     44  C   UNL A   1      39.211  29.849  29.521  1.00  0.00     0.029 A 
ATOM     45  N   UNL A   1      39.734  30.626  31.550  1.00  0.00    -0.354 N 
ATOM     46  C   UNL A   1      42.930  28.841  33.860  1.00  0.00     0.074 A 
ATOM     47  C   UNL A   1      43.551  27.753  33.136  1.00  0.00     0.031 C 
ATOM     48  C   UNL A   1      38.359  30.848  29.801  1.00  0.00     0.029 A 
ATOM     49  C   UNL A   1      38.654  31.366  31.133  1.00  0.00     0.049 A 
ATOM     50  H   UNL A   1      40.174  30.759  32.421  1.00  0.00     0.167 HD
ATOM     51  C   UNL A   1      43.307  29.252  35.094  1.00  0.00     0.037 A 
ATOM     52  C   UNL A   1      37.972  32.347  31.754  1.00  0.00     0.037 A 
ATOM     53  C   UNL A   1      42.698  30.351  35.798  1.00  0.00     0.049 A 
ATOM     54  C   UNL A   1      38.407  32.784  33.128  1.00  0.00     0.074 A 
ATOM     55  C   UNL A   1      43.042  30.881  37.029  1.00  0.00     0.029 A 
ATOM     56  N   UNL A   1      41.618  31.088  35.334  1.00  0.00    -0.354 N 
ATOM     57  N   UNL A   1      39.389  32.324  33.865  1.00  0.00    -0.248 NA
ATOM     58  C   UNL A   1      37.648  33.876  33.750  1.00  0.00     0.031 C 
ATOM     59  C   UNL A   1      42.141  31.908  37.332  1.00  0.00     0.029 A 
ATOM     60  C   UNL A   1      41.269  32.054  36.264  1.00  0.00     0.049 A 
ATOM     61  H   UNL A   1      41.166  30.947  34.471  1.00  0.00     0.167 HD
ATOM     62  C   UNL A   1      39.384  33.089  35.026  1.00  0.00     0.074 A 
ATOM     63  C   UNL A   1      38.308  34.049  34.887  1.00  0.00     0.031 C 
ATOM     64  C   UNL A   1      40.197  33.006  36.108  1.00  0.00     0.037 A 
BRANCH  51  65
ATOM     65  C   UNL A   1      44.435  28.513  35.762  1.00  0.00     0.058 A 
ATOM     66  C   UNL A   1      45.753  28.998  35.739  1.00  0.00     0.135 A 
ATOM     67  C   UNL A   1      44.191  27.322  36.466  1.00  0.00     0.135 A 
ATOM     68  F   UNL A   1      46.046  30.124  35.068  1.00  0.00    -0.206 F 
ATOM     69  C   UNL A   1      46.792  28.315  36.361  1.00  0.00     0.059 A 
ATOM     70  C   UNL A   1      45.211  26.638  37.122  1.00  0.00     0.059 A 
ATOM     71  F   UNL A   1      42.951  26.811  36.522  1.00  0.00    -0.206 F 
ATOM     72  C   UNL A   1      46.511  27.135  37.050  1.00  0.00     0.060 A 
BRANCH  72  73
ATOM     73  S   UNL A   1      47.872  26.262  37.853  1.00  0.00     0.124 S 
ATOM     74  O   UNL A   1      47.645  24.893  37.400  1.00  0.00    -0.237 OA
ATOM     75  O   UNL A   1      49.043  26.928  37.295  1.00  0.00    -0.237 OA
ATOM     76  O   UNL A   1      47.636  26.498  39.275  1.00  0.00    -0.744 OA
ENDBRANCH  72  73
ENDBRANCH  51  65
BRANCH  52  77
ATOM     77  C   UNL A   1      36.821  32.998  31.074  1.00  0.00     0.058 A 
ATOM     78  C   UNL A   1      37.024  33.986  30.099  1.00  0.00     0.135 A 
ATOM     79  C   UNL A   1      35.498  32.638  31.374  1.00  0.00     0.135 A 
ATOM     80  F   UNL A   1      38.271  34.369  29.782  1.00  0.00    -0.206 F 
ATOM     81  C   UNL A   1      35.958  34.608  29.458  1.00  0.00     0.059 A 
ATOM     82  C   UNL A   1      34.416  33.226  30.727  1.00  0.00     0.059 A 
ATOM     83  F   UNL A   1      35.250  31.685  32.286  1.00  0.00    -0.206 F 
ATOM     84  C   UNL A   1      34.656  34.218  29.778  1.00  0.00     0.060 A 
BRANCH  84  85
ATOM     85  S   UNL A   1      33.281  35.001  28.909  1.00  0.00     0.124 S 
ATOM     86  O   UNL A   1      32.832  33.920  28.038  1.00  0.00    -0.237 OA
ATOM     87  O   UNL A   1      32.386  35.351  30.006  1.00  0.00    -0.237 OA
ATOM     88  O   UNL A   1      33.912  36.132  28.236  1.00  0.00    -0.744 OA
ENDBRANCH  84  85
ENDBRANCH  52  77
BRANCH  64  89
ATOM     89  C   UNL A   1      39.981  34.001  37.215  1.00  0.00     0.058 A 
ATOM     90  C   UNL A   1      40.547  35.285  37.176  1.00  0.00     0.135 A 
ATOM     91  C   UNL A   1      39.153  33.683  38.304  1.00  0.00     0.135 A 
ATOM     92  F   UNL A   1      41.351  35.638  36.161  1.00  0.00    -0.206 F 
ATOM     93  C   UNL A   1      40.317  36.210  38.188  1.00  0.00     0.059 A 
ATOM     94  C   UNL A   1      38.886  34.602  39.313  1.00  0.00     0.059 A 
ATOM     95  F   UNL A   1      38.579  32.471  38.385  1.00  0.00    -0.206 F 
ATOM     96  C   UNL A   1      39.482  35.861  39.252  1.00  0.00     0.060 A 
BRANCH  96  97
ATOM     97  S   UNL A   1      39.164  37.085  40.540  1.00  0.00     0.124 S 
ATOM     98  O   UNL A   1      38.332  38.050  39.829  1.00  0.00    -0.237 OA
ATOM     99  O   UNL A   1      38.486  36.294  41.562  1.00  0.00    -0.237 OA
ATOM    100  O   UNL A   1      40.499  37.552  40.901  1.00  0.00    -0.744 OA
ENDBRANCH  96  97
ENDBRANCH  64  89
ENDBRANCH  38  39
ENDBRANCH  30  33
ENDBRANCH  28  29
ENDBRANCH  27  28
ENDBRANCH  26  27
ENDBRANCH  25  26
ENDBRANCH   1  25
TORSDOF 22
ENDMDL
MODEL 3
REMARK VINA RESULT:      -9.9      6.486     12.110
REMARK SMILES CC[C@@H](COC)NC(=O)NC[C@@H]1CC[C@H](C(=O)NCCCCCCNC(=O)c2ccc(-c3c4nc(c(-c5c(F)cc(S(=O)(=O)[O-])cc5F)c5ccc([nH]5)c(-c5c(F)cc(S(=O)(=O)[O-])cc5F)c5nc(c(-c6c(F)cc(S(=O)(=O)[O-])cc6F)c6ccc3[nH]6)C=C5)C=C4)cc2)O1
REMARK SMILES IDX 20 1 19 2 18 3 16 4 17 5 15 7 12 8 13 9 94 10 14 11 11 12
REMARK SMILES IDX 10 13 7 14 8 15 9 17 3 19 2 20 1 21 4 22 5 23 6 24 21 25
REMARK SMILES IDX 22 26 23 27 24 28 25 29 26 30 27 32 28 33 29 34 93 35 30 36
REMARK SMILES IDX 92 37 31 38 32 39 33 40 86 41 34 42 91 43 85 44 87 45 35 46
REMARK SMILES IDX 90 47 84 48 83 49 36 51 70 52 49 53 69 54 50 55 53 56 68 57
REMARK SMILES IDX 88 58 51 59 52 60 67 62 89 63 54 64 37 65 38 66 47 67 39 68
REMARK SMILES IDX 40 69 46 70 48 71 41 72 42 73 43 74 44 75 45 76 71 77 72 78
REMARK SMILES IDX 81 79 73 80 74 81 80 82 82 83 75 84 76 85 77 86 78 87 79 88
REMARK SMILES IDX 55 89 56 90 65 91 57 92 58 93 64 94 66 95 59 96 60 97 61 98
REMARK SMILES IDX 62 99 63 100
REMARK H PARENT 18 6 7 16 10 18 25 31 87 50 53 61
REMARK Flexibility Score: inf
ROOT
ATOM      1  C   UNL A   1      32.628  30.493  27.175  1.00  0.00     0.021 C 
ENDROOT
BRANCH   1   2
ATOM      2  C   UNL A   1      33.381  29.223  26.804  1.00  0.00     0.116 C 
BRANCH   2   3
ATOM      3  N   UNL A   1      33.696  29.123  25.401  1.00  0.00    -0.354 N 
ATOM      4  C   UNL A   1      32.851  29.035  24.330  1.00  0.00     0.249 C 
ATOM      5  O   UNL A   1      33.363  29.043  23.206  1.00  0.00    -0.272 OA
ATOM      6  H   UNL A   1      34.655  29.117  25.184  1.00  0.00     0.163 HD
BRANCH   4   7
ATOM      7  C   UNL A   1      31.313  28.919  24.495  1.00  0.00     0.207 C 
ATOM      8  C   UNL A   1      29.875  27.059  24.307  1.00  0.00     0.138 C 
ATOM      9  C   UNL A   1      29.725  27.850  23.013  1.00  0.00     0.037 C 
ATOM     10  O   UNL A   1      30.897  27.695  25.095  1.00  0.00    -0.363 OA
ATOM     11  C   UNL A   1      30.510  29.128  23.223  1.00  0.00     0.045 C 
BRANCH   8  12
ATOM     12  C   UNL A   1      30.302  25.590  24.131  1.00  0.00     0.149 C 
BRANCH  12  13
ATOM     13  N   UNL A   1      30.156  24.846  25.364  1.00  0.00    -0.336 N 
ATOM     14  N   UNL A   1      32.127  23.588  25.640  1.00  0.00    -0.333 N 
ATOM     15  C   UNL A   1      30.942  24.029  26.070  1.00  0.00     0.315 C 
ATOM     16  H   UNL A   1      32.596  23.050  26.317  1.00  0.00     0.165 HD
ATOM     17  O   UNL A   1      30.535  23.657  27.172  1.00  0.00    -0.249 OA
ATOM     18  H   UNL A   1      29.272  24.971  25.779  1.00  0.00     0.165 HD
BRANCH  14  19
ATOM     19  C   UNL A   1      32.892  23.720  24.401  1.00  0.00     0.109 C 
BRANCH  19  20
ATOM     20  C   UNL A   1      33.822  24.938  24.513  1.00  0.00     0.024 C 
ATOM     21  C   UNL A   1      35.079  24.677  25.328  1.00  0.00     0.006 C 
ENDBRANCH  19  20
BRANCH  19  22
ATOM     22  C   UNL A   1      33.569  22.374  24.069  1.00  0.00     0.184 C 
BRANCH  22  23
ATOM     23  O   UNL A   1      32.709  21.423  23.447  1.00  0.00    -0.383 OA
ATOM     24  C   UNL A   1      32.479  20.247  24.210  1.00  0.00     0.194 C 
ENDBRANCH  22  23
ENDBRANCH  19  22
ENDBRANCH  14  19
ENDBRANCH  12  13
ENDBRANCH   8  12
ENDBRANCH   4   7
ENDBRANCH   2   3
ENDBRANCH   1   2
BRANCH   1  25
ATOM     25  C   UNL A   1      33.535  31.699  27.404  1.00  0.00     0.002 C 
BRANCH  25  26
ATOM     26  C   UNL A   1      34.931  31.370  27.950  1.00  0.00     0.002 C 
BRANCH  26  27
ATOM     27  C   UNL A   1      35.940  32.524  27.945  1.00  0.00     0.021 C 
BRANCH  27  28
ATOM     28  C   UNL A   1      36.571  32.837  29.300  1.00  0.00     0.116 C 
BRANCH  28  29
ATOM     29  N   UNL A   1      36.128  31.918  30.336  1.00  0.00    -0.352 N 
ATOM     30  C   UNL A   1      36.660  30.720  30.731  1.00  0.00     0.251 C 
ATOM     31  H   UNL A   1      35.323  32.199  30.827  1.00  0.00     0.163 HD
ATOM     32  O   UNL A   1      36.017  29.989  31.489  1.00  0.00    -0.269 OA
BRANCH  30  33
ATOM     33  C   UNL A   1      37.990  30.298  30.250  1.00  0.00     0.039 A 
ATOM     34  C   UNL A   1      38.148  29.961  28.903  1.00  0.00     0.014 A 
ATOM     35  C   UNL A   1      39.075  30.209  31.128  1.00  0.00     0.014 A 
ATOM     36  C   UNL A   1      39.406  29.587  28.426  1.00  0.00     0.010 A 
ATOM     37  C   UNL A   1      40.341  29.904  30.636  1.00  0.00     0.010 A 
ATOM     38  C   UNL A   1      40.519  29.586  29.282  1.00  0.00    -0.014 A 
BRANCH  38  39
ATOM     39  C   UNL A   1      41.876  29.258  28.778  1.00  0.00     0.031 A 
ATOM     40  C   UNL A   1      42.196  27.861  28.317  1.00  0.00     0.074 A 
ATOM     41  C   UNL A   1      42.836  30.203  28.794  1.00  0.00     0.049 A 
ATOM     42  N   UNL A   1      43.337  27.366  27.911  1.00  0.00    -0.248 NA
ATOM     43  C   UNL A   1      41.094  26.885  28.342  1.00  0.00     0.031 C 
ATOM     44  C   UNL A   1      42.659  31.580  29.259  1.00  0.00     0.029 A 
ATOM     45  N   UNL A   1      44.155  30.149  28.417  1.00  0.00    -0.354 N 
ATOM     46  C   UNL A   1      43.096  26.025  27.643  1.00  0.00     0.074 A 
ATOM     47  C   UNL A   1      41.714  25.768  27.986  1.00  0.00     0.031 C 
ATOM     48  C   UNL A   1      43.817  32.245  29.120  1.00  0.00     0.029 A 
ATOM     49  C   UNL A   1      44.829  31.334  28.594  1.00  0.00     0.049 A 
ATOM     50  H   UNL A   1      44.579  29.337  28.056  1.00  0.00     0.167 HD
ATOM     51  C   UNL A   1      43.942  25.096  27.136  1.00  0.00     0.037 A 
ATOM     52  C   UNL A   1      46.118  31.650  28.365  1.00  0.00     0.037 A 
ATOM     53  C   UNL A   1      45.310  25.366  26.775  1.00  0.00     0.049 A 
ATOM     54  C   UNL A   1      47.041  30.601  27.806  1.00  0.00     0.074 A 
ATOM     55  C   UNL A   1      46.235  24.509  26.204  1.00  0.00     0.029 A 
ATOM     56  N   UNL A   1      45.951  26.584  26.952  1.00  0.00    -0.354 N 
ATOM     57  N   UNL A   1      46.781  29.352  27.505  1.00  0.00    -0.248 NA
ATOM     58  C   UNL A   1      48.429  31.005  27.549  1.00  0.00     0.031 C 
ATOM     59  C   UNL A   1      47.448  25.194  26.078  1.00  0.00     0.029 A 
ATOM     60  C   UNL A   1      47.265  26.495  26.521  1.00  0.00     0.049 A 
ATOM     61  H   UNL A   1      45.534  27.393  27.328  1.00  0.00     0.167 HD
ATOM     62  C   UNL A   1      47.964  28.828  26.996  1.00  0.00     0.074 A 
ATOM     63  C   UNL A   1      48.938  29.900  27.020  1.00  0.00     0.031 C 
ATOM     64  C   UNL A   1      48.221  27.574  26.547  1.00  0.00     0.037 A 
BRANCH  51  65
ATOM     65  C   UNL A   1      43.412  23.702  26.936  1.00  0.00     0.058 A 
ATOM     66  C   UNL A   1      43.067  23.218  25.664  1.00  0.00     0.135 A 
ATOM     67  C   UNL A   1      43.282  22.825  28.025  1.00  0.00     0.135 A 
ATOM     68  F   UNL A   1      43.158  24.018  24.589  1.00  0.00    -0.206 F 
ATOM     69  C   UNL A   1      42.582  21.928  25.482  1.00  0.00     0.059 A 
ATOM     70  C   UNL A   1      42.827  21.519  27.863  1.00  0.00     0.059 A 
ATOM     71  F   UNL A   1      43.597  23.234  29.265  1.00  0.00    -0.206 F 
ATOM     72  C   UNL A   1      42.465  21.085  26.588  1.00  0.00     0.060 A 
BRANCH  72  73
ATOM     73  S   UNL A   1      41.835  19.412  26.335  1.00  0.00     0.124 S 
ATOM     74  O   UNL A   1      42.595  18.992  25.161  1.00  0.00    -0.237 OA
ATOM     75  O   UNL A   1      42.187  18.753  27.587  1.00  0.00    -0.237 OA
ATOM     76  O   UNL A   1      40.406  19.616  26.115  1.00  0.00    -0.744 OA
ENDBRANCH  72  73
ENDBRANCH  51  65
BRANCH  52  77
ATOM     77  C   UNL A   1      46.605  33.027  28.645  1.00  0.00     0.058 A 
ATOM     78  C   UNL A   1      46.575  34.018  27.652  1.00  0.00     0.135 A 
ATOM     79  C   UNL A   1      47.098  33.384  29.910  1.00  0.00     0.135 A 
ATOM     80  F   UNL A   1      46.118  33.724  26.425  1.00  0.00    -0.206 F 
ATOM     81  C   UNL A   1      47.033  35.309  27.896  1.00  0.00     0.059 A 
ATOM     82  C   UNL A   1      47.536  34.675  30.186  1.00  0.00     0.059 A 
ATOM     83  F   UNL A   1      47.131  32.477  30.900  1.00  0.00    -0.206 F 
ATOM     84  C   UNL A   1      47.509  35.628  29.169  1.00  0.00     0.060 A 
BRANCH  84  85
ATOM     85  S   UNL A   1      48.059  37.317  29.488  1.00  0.00     0.124 S 
ATOM     86  O   UNL A   1      48.159  37.323  30.943  1.00  0.00    -0.237 OA
ATOM     87  O   UNL A   1      49.323  37.369  28.761  1.00  0.00    -0.237 OA
ATOM     88  O   UNL A   1      46.985  38.130  28.925  1.00  0.00    -0.744 OA
ENDBRANCH  84  85
ENDBRANCH  52  77
BRANCH  64  89
ATOM     89  C   UNL A   1      49.599  27.299  26.012  1.00  0.00     0.058 A 
ATOM     90  C   UNL A   1      50.660  26.935  26.857  1.00  0.00     0.135 A 
ATOM     91  C   UNL A   1      49.848  27.349  24.631  1.00  0.00     0.135 A 
ATOM     92  F   UNL A   1      50.478  26.879  28.185  1.00  0.00    -0.206 F 
ATOM     93  C   UNL A   1      51.925  26.652  26.352  1.00  0.00     0.059 A 
ATOM     94  C   UNL A   1      51.097  27.042  24.102  1.00  0.00     0.059 A 
ATOM     95  F   UNL A   1      48.865  27.682  23.779  1.00  0.00    -0.206 F 
ATOM     96  C   UNL A   1      52.133  26.705  24.971  1.00  0.00     0.060 A 
BRANCH  96  97
ATOM     97  S   UNL A   1      53.770  26.300  24.328  1.00  0.00     0.124 S 
ATOM     98  O   UNL A   1      53.805  24.852  24.505  1.00  0.00    -0.237 OA
ATOM     99  O   UNL A   1      53.688  26.768  22.948  1.00  0.00    -0.237 OA
ATOM    100  O   UNL A   1      54.671  27.060  25.190  1.00  0.00    -0.744 OA
ENDBRANCH  96  97
ENDBRANCH  64  89
ENDBRANCH  38  39
ENDBRANCH  30  33
ENDBRANCH  28  29
ENDBRANCH  27  28
ENDBRANCH  26  27
ENDBRANCH  25  26
ENDBRANCH   1  25
TORSDOF 22
ENDMDL
