MODEL 1
REMARK VINA RESULT:     -11.2      0.000      0.000
REMARK SMILES Cc1cc2c(c(C)c1Br)C=C(C(=O)NCCCCCCNC(=O)c1ccc(-c3c4nc(c(-c5c(F)cc(S(=O)(=O)[O-])cc5F)c5ccc([nH]5)c(-c5c(F)cc(S(=O)(=O)[O-])cc5F)c5nc(c(-c6c(F)cc(S(=O)(=O)[O-])cc6F)c6ccc3[nH]6)C=C5)C=C4)cc1)[C@@H](C(F)(F)F)O2
REMARK SMILES IDX 18 1 17 2 16 3 15 4 14 5 12 6 13 7 11 9 1 10 2 11 3 12 8 13
REMARK SMILES IDX 4 14 6 15 9 16 5 17 95 18 7 19 10 20 90 21 91 22 92 23 93 24
REMARK SMILES IDX 94 25 19 26 20 27 21 28 22 29 23 31 24 32 25 33 89 34 26 35
REMARK SMILES IDX 88 36 27 37 28 38 29 39 82 40 30 41 87 42 81 43 83 44 31 45
REMARK SMILES IDX 86 46 80 47 79 48 32 50 66 51 45 52 65 53 46 54 49 55 64 56
REMARK SMILES IDX 84 57 47 58 48 59 63 61 85 62 50 63 33 64 34 65 43 66 35 67
REMARK SMILES IDX 36 68 42 69 44 70 37 71 38 72 39 73 40 74 41 75 67 76 68 77
REMARK SMILES IDX 77 78 69 79 70 80 76 81 78 82 71 83 72 84 73 85 74 86 75 87
REMARK SMILES IDX 51 88 52 89 61 90 53 91 54 92 60 93 62 94 55 95 56 96 57 97
REMARK SMILES IDX 58 98 59 99
REMARK H PARENT 14 8 21 30 83 49 49 60
REMARK Flexibility Score: inf
ROOT
ATOM      1  C   UNL A   1      33.309  29.059  24.729  1.00  0.00     0.002 C 
ENDROOT
BRANCH   1   2
ATOM      2  C   UNL A   1      32.395  28.521  23.619  1.00  0.00     0.002 C 
BRANCH   2   3
ATOM      3  C   UNL A   1      32.634  27.061  23.225  1.00  0.00     0.021 C 
BRANCH   3   4
ATOM      4  C   UNL A   1      31.388  26.185  23.311  1.00  0.00     0.116 C 
BRANCH   4   5
ATOM      5  N   UNL A   1      31.049  25.867  24.687  1.00  0.00    -0.352 N 
ATOM      6  C   UNL A   1      31.360  24.908  25.589  1.00  0.00     0.251 C 
ATOM      7  O   UNL A   1      30.834  25.043  26.698  1.00  0.00    -0.270 OA
ATOM      8  H   UNL A   1      30.427  26.528  25.066  1.00  0.00     0.163 HD
BRANCH   6   9
ATOM      9  C   UNL A   1      32.264  23.743  25.340  1.00  0.00     0.067 C 
ATOM     10  C   UNL A   1      37.122  19.430  24.869  1.00  0.00     0.046 C 
ATOM     11  C   UNL A   1      36.261  20.641  25.110  1.00  0.00    -0.033 A 
ATOM     12  C   UNL A   1      34.886  20.515  24.897  1.00  0.00     0.051 A 
ATOM     13  C   UNL A   1      36.774  21.894  25.512  1.00  0.00     0.024 A 
ATOM     14  C   UNL A   1      34.036  21.599  25.083  1.00  0.00     0.128 A 
ATOM     15  C   UNL A   1      35.915  23.003  25.723  1.00  0.00    -0.026 A 
ATOM     16  Br  UNL A   1      38.665  22.054  25.765  1.00  0.00    -0.050 Br
ATOM     17  C   UNL A   1      34.524  22.837  25.506  1.00  0.00     0.021 A 
ATOM     18  O   UNL A   1      32.717  21.338  24.865  1.00  0.00    -0.475 OA
ATOM     19  C   UNL A   1      36.427  24.353  26.169  1.00  0.00     0.046 C 
ATOM     20  C   UNL A   1      33.541  23.902  25.738  1.00  0.00     0.026 C 
ATOM     21  C   UNL A   1      31.843  22.475  24.656  1.00  0.00     0.314 C 
BRANCH  21  22
ATOM     22  C   UNL A   1      31.603  22.660  23.148  1.00  0.00     0.429 C 
ATOM     23  F   UNL A   1      31.582  21.461  22.517  1.00  0.00    -0.167 F 
ATOM     24  F   UNL A   1      30.416  23.254  22.880  1.00  0.00    -0.167 F 
ATOM     25  F   UNL A   1      32.560  23.414  22.560  1.00  0.00    -0.167 F 
ENDBRANCH  21  22
ENDBRANCH   6   9
ENDBRANCH   4   5
ENDBRANCH   3   4
ENDBRANCH   2   3
ENDBRANCH   1   2
BRANCH   1  26
ATOM     26  C   UNL A   1      33.985  27.996  25.599  1.00  0.00     0.021 C 
BRANCH  26  27
ATOM     27  C   UNL A   1      33.789  28.181  27.100  1.00  0.00     0.116 C 
BRANCH  27  28
ATOM     28  N   UNL A   1      33.625  29.580  27.457  1.00  0.00    -0.352 N 
ATOM     29  C   UNL A   1      34.506  30.419  28.091  1.00  0.00     0.251 C 
ATOM     30  H   UNL A   1      32.761  29.981  27.210  1.00  0.00     0.163 HD
ATOM     31  O   UNL A   1      34.127  31.514  28.497  1.00  0.00    -0.269 OA
BRANCH  29  32
ATOM     32  C   UNL A   1      35.904  29.990  28.296  1.00  0.00     0.039 A 
ATOM     33  C   UNL A   1      36.808  30.105  27.239  1.00  0.00     0.014 A 
ATOM     34  C   UNL A   1      36.319  29.475  29.529  1.00  0.00     0.014 A 
ATOM     35  C   UNL A   1      38.143  29.747  27.432  1.00  0.00     0.010 A 
ATOM     36  C   UNL A   1      37.664  29.184  29.740  1.00  0.00     0.010 A 
ATOM     37  C   UNL A   1      38.586  29.307  28.692  1.00  0.00    -0.014 A 
BRANCH  37  38
ATOM     38  C   UNL A   1      40.011  28.955  28.911  1.00  0.00     0.031 A 
ATOM     39  C   UNL A   1      40.948  29.956  29.526  1.00  0.00     0.074 A 
ATOM     40  C   UNL A   1      40.461  27.740  28.538  1.00  0.00     0.049 A 
ATOM     41  N   UNL A   1      42.218  29.829  29.809  1.00  0.00    -0.248 NA
ATOM     42  C   UNL A   1      40.393  31.282  29.847  1.00  0.00     0.031 C 
ATOM     43  C   UNL A   1      39.653  26.702  27.892  1.00  0.00     0.029 A 
ATOM     44  N   UNL A   1      41.701  27.167  28.656  1.00  0.00    -0.354 N 
ATOM     45  C   UNL A   1      42.611  31.050  30.344  1.00  0.00     0.074 A 
ATOM     46  C   UNL A   1      41.464  31.927  30.285  1.00  0.00     0.031 C 
ATOM     47  C   UNL A   1      40.409  25.608  27.708  1.00  0.00     0.029 A 
ATOM     48  C   UNL A   1      41.759  25.873  28.196  1.00  0.00     0.049 A 
ATOM     49  H   UNL A   1      42.479  27.639  29.035  1.00  0.00     0.167 HD
ATOM     50  C   UNL A   1      43.809  31.395  30.870  1.00  0.00     0.037 A 
ATOM     51  C   UNL A   1      42.782  24.995  28.179  1.00  0.00     0.037 A 
ATOM     52  C   UNL A   1      44.939  30.508  30.948  1.00  0.00     0.049 A 
ATOM     53  C   UNL A   1      44.110  25.409  28.751  1.00  0.00     0.074 A 
ATOM     54  C   UNL A   1      46.184  30.748  31.502  1.00  0.00     0.029 A 
ATOM     55  N   UNL A   1      44.961  29.210  30.458  1.00  0.00    -0.354 N 
ATOM     56  N   UNL A   1      44.446  26.548  29.308  1.00  0.00    -0.248 NA
ATOM     57  C   UNL A   1      45.198  24.422  28.696  1.00  0.00     0.031 C 
ATOM     58  C   UNL A   1      46.972  29.610  31.312  1.00  0.00     0.029 A 
ATOM     59  C   UNL A   1      46.204  28.644  30.679  1.00  0.00     0.049 A 
ATOM     60  H   UNL A   1      44.204  28.759  30.019  1.00  0.00     0.167 HD
ATOM     61  C   UNL A   1      45.776  26.409  29.688  1.00  0.00     0.074 A 
ATOM     62  C   UNL A   1      46.182  25.071  29.307  1.00  0.00     0.031 C 
ATOM     63  C   UNL A   1      46.587  27.306  30.298  1.00  0.00     0.037 A 
BRANCH  50  64
ATOM     64  C   UNL A   1      43.954  32.785  31.427  1.00  0.00     0.058 A 
ATOM     65  C   UNL A   1      44.428  33.842  30.634  1.00  0.00     0.135 A 
ATOM     66  C   UNL A   1      43.575  33.074  32.747  1.00  0.00     0.135 A 
ATOM     67  F   UNL A   1      44.820  33.617  29.369  1.00  0.00    -0.206 F 
ATOM     68  C   UNL A   1      44.542  35.133  31.137  1.00  0.00     0.059 A 
ATOM     69  C   UNL A   1      43.656  34.364  33.263  1.00  0.00     0.059 A 
ATOM     70  F   UNL A   1      43.118  32.099  33.548  1.00  0.00    -0.206 F 
ATOM     71  C   UNL A   1      44.151  35.385  32.453  1.00  0.00     0.060 A 
BRANCH  71  72
ATOM     72  S   UNL A   1      44.296  37.070  33.083  1.00  0.00     0.124 S 
ATOM     73  O   UNL A   1      45.699  37.112  33.483  1.00  0.00    -0.237 OA
ATOM     74  O   UNL A   1      43.947  37.870  31.913  1.00  0.00    -0.237 OA
ATOM     75  O   UNL A   1      43.331  37.109  34.177  1.00  0.00    -0.744 OA
ENDBRANCH  71  72
ENDBRANCH  50  64
BRANCH  51  76
ATOM     76  C   UNL A   1      42.571  23.625  27.641  1.00  0.00     0.058 A 
ATOM     77  C   UNL A   1      42.682  23.370  26.266  1.00  0.00     0.135 A 
ATOM     78  C   UNL A   1      42.289  22.541  28.486  1.00  0.00     0.135 A 
ATOM     79  F   UNL A   1      42.946  24.374  25.416  1.00  0.00    -0.206 F 
ATOM     80  C   UNL A   1      42.517  22.090  25.747  1.00  0.00     0.059 A 
ATOM     81  C   UNL A   1      42.140  21.248  27.994  1.00  0.00     0.059 A 
ATOM     82  F   UNL A   1      42.187  22.731  29.812  1.00  0.00    -0.206 F 
ATOM     83  C   UNL A   1      42.251  21.034  26.620  1.00  0.00     0.060 A 
BRANCH  83  84
ATOM     84  S   UNL A   1      42.098  19.367  25.939  1.00  0.00     0.124 S 
ATOM     85  O   UNL A   1      42.959  19.450  24.765  1.00  0.00    -0.237 OA
ATOM     86  O   UNL A   1      42.593  18.543  27.038  1.00  0.00    -0.237 OA
ATOM     87  O   UNL A   1      40.669  19.245  25.668  1.00  0.00    -0.744 OA
ENDBRANCH  83  84
ENDBRANCH  51  76
BRANCH  63  88
ATOM     88  C   UNL A   1      47.995  26.885  30.608  1.00  0.00     0.058 A 
ATOM     89  C   UNL A   1      49.049  27.163  29.726  1.00  0.00     0.135 A 
ATOM     90  C   UNL A   1      48.307  26.302  31.847  1.00  0.00     0.135 A 
ATOM     91  F   UNL A   1      48.801  27.713  28.526  1.00  0.00    -0.206 F 
ATOM     92  C   UNL A   1      50.369  26.882  30.064  1.00  0.00     0.059 A 
ATOM     93  C   UNL A   1      49.621  26.034  32.214  1.00  0.00     0.059 A 
ATOM     94  F   UNL A   1      47.333  26.025  32.728  1.00  0.00    -0.206 F 
ATOM     95  C   UNL A   1      50.646  26.328  31.316  1.00  0.00     0.060 A 
BRANCH  95  96
ATOM     96  S   UNL A   1      52.370  26.048  31.771  1.00  0.00     0.124 S 
ATOM     97  O   UNL A   1      52.635  27.189  32.641  1.00  0.00    -0.237 OA
ATOM     98  O   UNL A   1      52.309  24.747  32.433  1.00  0.00    -0.237 OA
ATOM     99  O   UNL A   1      53.068  26.060  30.489  1.00  0.00    -0.744 OA
ENDBRANCH  95  96
ENDBRANCH  63  88
ENDBRANCH  37  38
ENDBRANCH  29  32
ENDBRANCH  27  28
ENDBRANCH  26  27
ENDBRANCH   1  26
TORSDOF 17
ENDMDL
MODEL 2
REMARK VINA RESULT:     -11.2      4.886     10.429
REMARK SMILES Cc1cc2c(c(C)c1Br)C=C(C(=O)NCCCCCCNC(=O)c1ccc(-c3c4nc(c(-c5c(F)cc(S(=O)(=O)[O-])cc5F)c5ccc([nH]5)c(-c5c(F)cc(S(=O)(=O)[O-])cc5F)c5nc(c(-c6c(F)cc(S(=O)(=O)[O-])cc6F)c6ccc3[nH]6)C=C5)C=C4)cc1)[C@@H](C(F)(F)F)O2
REMARK SMILES IDX 18 1 17 2 16 3 15 4 14 5 12 6 13 7 11 9 1 10 2 11 3 12 8 13
REMARK SMILES IDX 4 14 6 15 9 16 5 17 95 18 7 19 10 20 90 21 91 22 92 23 93 24
REMARK SMILES IDX 94 25 19 26 20 27 21 28 22 29 23 31 24 32 25 33 89 34 26 35
REMARK SMILES IDX 88 36 27 37 28 38 29 39 82 40 30 41 87 42 81 43 83 44 31 45
REMARK SMILES IDX 86 46 80 47 79 48 32 50 66 51 45 52 65 53 46 54 49 55 64 56
REMARK SMILES IDX 84 57 47 58 48 59 63 61 85 62 50 63 33 64 34 65 43 66 35 67
REMARK SMILES IDX 36 68 42 69 44 70 37 71 38 72 39 73 40 74 41 75 67 76 68 77
REMARK SMILES IDX 77 78 69 79 70 80 76 81 78 82 71 83 72 84 73 85 74 86 75 87
REMARK SMILES IDX 51 88 52 89 61 90 53 91 54 92 60 93 62 94 55 95 56 96 57 97
REMARK SMILES IDX 58 98 59 99
REMARK H PARENT 14 8 21 30 83 49 49 60
REMARK Flexibility Score: inf
ROOT
ATOM      1  C   UNL A   1      41.157  21.789  27.836  1.00  0.00     0.002 C 
ENDROOT
BRANCH   1   2
ATOM      2  C   UNL A   1      39.975  22.584  27.267  1.00  0.00     0.002 C 
BRANCH   2   3
ATOM      3  C   UNL A   1      39.290  21.956  26.049  1.00  0.00     0.021 C 
BRANCH   3   4
ATOM      4  C   UNL A   1      37.867  22.454  25.814  1.00  0.00     0.116 C 
BRANCH   4   5
ATOM      5  N   UNL A   1      37.582  22.616  24.399  1.00  0.00    -0.352 N 
ATOM      6  C   UNL A   1      36.502  22.875  23.628  1.00  0.00     0.251 C 
ATOM      7  O   UNL A   1      36.729  22.947  22.416  1.00  0.00    -0.270 OA
ATOM      8  H   UNL A   1      38.395  22.511  23.855  1.00  0.00     0.163 HD
BRANCH   6   9
ATOM      9  C   UNL A   1      35.106  23.073  24.128  1.00  0.00     0.067 C 
ATOM     10  C   UNL A   1      29.401  25.220  26.422  1.00  0.00     0.046 C 
ATOM     11  C   UNL A   1      30.825  25.065  25.958  1.00  0.00    -0.033 A 
ATOM     12  C   UNL A   1      31.190  23.851  25.373  1.00  0.00     0.051 A 
ATOM     13  C   UNL A   1      31.807  26.069  26.110  1.00  0.00     0.024 A 
ATOM     14  C   UNL A   1      32.493  23.634  24.941  1.00  0.00     0.128 A 
ATOM     15  C   UNL A   1      33.136  25.867  25.656  1.00  0.00    -0.026 A 
ATOM     16  Br  UNL A   1      31.294  27.713  26.947  1.00  0.00    -0.050 Br
ATOM     17  C   UNL A   1      33.470  24.626  25.059  1.00  0.00     0.021 A 
ATOM     18  O   UNL A   1      32.714  22.418  24.366  1.00  0.00    -0.475 OA
ATOM     19  C   UNL A   1      34.208  26.925  25.787  1.00  0.00     0.046 C 
ATOM     20  C   UNL A   1      34.799  24.326  24.514  1.00  0.00     0.026 C 
ATOM     21  C   UNL A   1      34.090  21.978  24.257  1.00  0.00     0.314 C 
BRANCH  21  22
ATOM     22  C   UNL A   1      34.403  21.001  25.404  1.00  0.00     0.429 C 
ATOM     23  F   UNL A   1      33.320  20.240  25.692  1.00  0.00    -0.167 F 
ATOM     24  F   UNL A   1      35.403  20.143  25.096  1.00  0.00    -0.167 F 
ATOM     25  F   UNL A   1      34.769  21.639  26.539  1.00  0.00    -0.167 F 
ENDBRANCH  21  22
ENDBRANCH   6   9
ENDBRANCH   4   5
ENDBRANCH   3   4
ENDBRANCH   2   3
ENDBRANCH   1   2
BRANCH   1  26
ATOM     26  C   UNL A   1      42.518  22.083  27.198  1.00  0.00     0.021 C 
BRANCH  26  27
ATOM     27  C   UNL A   1      42.998  23.522  27.353  1.00  0.00     0.116 C 
BRANCH  27  28
ATOM     28  N   UNL A   1      42.744  24.311  26.160  1.00  0.00    -0.352 N 
ATOM     29  C   UNL A   1      42.146  25.540  26.046  1.00  0.00     0.251 C 
ATOM     30  H   UNL A   1      43.044  23.906  25.315  1.00  0.00     0.163 HD
ATOM     31  O   UNL A   1      41.829  25.969  24.941  1.00  0.00    -0.269 OA
BRANCH  29  32
ATOM     32  C   UNL A   1      41.871  26.333  27.262  1.00  0.00     0.039 A 
ATOM     33  C   UNL A   1      42.697  27.416  27.564  1.00  0.00     0.014 A 
ATOM     34  C   UNL A   1      40.800  26.005  28.101  1.00  0.00     0.014 A 
ATOM     35  C   UNL A   1      42.421  28.202  28.683  1.00  0.00     0.010 A 
ATOM     36  C   UNL A   1      40.486  26.830  29.177  1.00  0.00     0.010 A 
ATOM     37  C   UNL A   1      41.299  27.929  29.484  1.00  0.00    -0.014 A 
BRANCH  37  38
ATOM     38  C   UNL A   1      40.983  28.782  30.658  1.00  0.00     0.031 A 
ATOM     39  C   UNL A   1      41.787  28.651  31.921  1.00  0.00     0.074 A 
ATOM     40  C   UNL A   1      39.961  29.658  30.588  1.00  0.00     0.049 A 
ATOM     41  N   UNL A   1      41.673  29.315  33.042  1.00  0.00    -0.248 NA
ATOM     42  C   UNL A   1      42.845  27.626  31.938  1.00  0.00     0.031 C 
ATOM     43  C   UNL A   1      39.084  29.841  29.429  1.00  0.00     0.029 A 
ATOM     44  N   UNL A   1      39.493  30.565  31.504  1.00  0.00    -0.354 N 
ATOM     45  C   UNL A   1      42.643  28.796  33.890  1.00  0.00     0.074 A 
ATOM     46  C   UNL A   1      43.293  27.717  33.181  1.00  0.00     0.031 C 
ATOM     47  C   UNL A   1      38.211  30.828  29.690  1.00  0.00     0.029 A 
ATOM     48  C   UNL A   1      38.447  31.328  31.041  1.00  0.00     0.049 A 
ATOM     49  H   UNL A   1      39.870  30.661  32.409  1.00  0.00     0.167 HD
ATOM     50  C   UNL A   1      42.986  29.206  35.133  1.00  0.00     0.037 A 
ATOM     51  C   UNL A   1      37.762  32.325  31.635  1.00  0.00     0.037 A 
ATOM     52  C   UNL A   1      42.351  30.297  35.823  1.00  0.00     0.049 A 
ATOM     53  C   UNL A   1      38.147  32.751  33.025  1.00  0.00     0.074 A 
ATOM     54  C   UNL A   1      42.653  30.819  37.068  1.00  0.00     0.029 A 
ATOM     55  N   UNL A   1      41.286  31.035  35.326  1.00  0.00    -0.354 N 
ATOM     56  N   UNL A   1      39.107  32.287  33.790  1.00  0.00    -0.248 NA
ATOM     57  C   UNL A   1      37.361  33.833  33.636  1.00  0.00     0.031 C 
ATOM     58  C   UNL A   1      41.746  31.846  37.341  1.00  0.00     0.029 A 
ATOM     59  C   UNL A   1      40.906  31.994  36.248  1.00  0.00     0.049 A 
ATOM     60  H   UNL A   1      40.864  30.897  34.447  1.00  0.00     0.167 HD
ATOM     61  C   UNL A   1      39.055  33.034  34.961  1.00  0.00     0.074 A 
ATOM     62  C   UNL A   1      37.975  33.986  34.803  1.00  0.00     0.031 C 
ATOM     63  C   UNL A   1      39.831  32.940  36.068  1.00  0.00     0.037 A 
BRANCH  50  64
ATOM     64  C   UNL A   1      44.114  28.488  35.820  1.00  0.00     0.058 A 
ATOM     65  C   UNL A   1      43.874  27.393  36.666  1.00  0.00     0.135 A 
ATOM     66  C   UNL A   1      45.447  28.867  35.600  1.00  0.00     0.135 A 
ATOM     67  F   UNL A   1      42.617  27.000  36.924  1.00  0.00    -0.206 F 
ATOM     68  C   UNL A   1      44.916  26.712  37.285  1.00  0.00     0.059 A 
ATOM     69  C   UNL A   1      46.507  28.182  36.189  1.00  0.00     0.059 A 
ATOM     70  F   UNL A   1      45.732  29.909  34.803  1.00  0.00    -0.206 F 
ATOM     71  C   UNL A   1      46.230  27.113  37.039  1.00  0.00     0.060 A 
BRANCH  71  72
ATOM     72  S   UNL A   1      47.568  26.208  37.844  1.00  0.00     0.124 S 
ATOM     73  O   UNL A   1      47.651  26.893  39.131  1.00  0.00    -0.237 OA
ATOM     74  O   UNL A   1      47.042  24.846  37.884  1.00  0.00    -0.237 OA
ATOM     75  O   UNL A   1      48.703  26.412  36.951  1.00  0.00    -0.744 OA
ENDBRANCH  71  72
ENDBRANCH  50  64
BRANCH  51  76
ATOM     76  C   UNL A   1      36.673  33.017  30.894  1.00  0.00     0.058 A 
ATOM     77  C   UNL A   1      35.329  32.819  31.245  1.00  0.00     0.135 A 
ATOM     78  C   UNL A   1      36.951  33.912  29.850  1.00  0.00     0.135 A 
ATOM     79  F   UNL A   1      35.013  31.969  32.234  1.00  0.00    -0.206 F 
ATOM     80  C   UNL A   1      34.299  33.478  30.583  1.00  0.00     0.059 A 
ATOM     81  C   UNL A   1      35.939  34.600  29.187  1.00  0.00     0.059 A 
ATOM     82  F   UNL A   1      38.223  34.147  29.487  1.00  0.00    -0.206 F 
ATOM     83  C   UNL A   1      34.615  34.371  29.558  1.00  0.00     0.060 A 
BRANCH  83  84
ATOM     84  S   UNL A   1      33.271  35.267  28.748  1.00  0.00     0.124 S 
ATOM     85  O   UNL A   1      34.007  36.238  27.947  1.00  0.00    -0.237 OA
ATOM     86  O   UNL A   1      32.600  34.203  28.007  1.00  0.00    -0.237 OA
ATOM     87  O   UNL A   1      32.511  35.817  29.866  1.00  0.00    -0.744 OA
ENDBRANCH  83  84
ENDBRANCH  51  76
BRANCH  63  88
ATOM     88  C   UNL A   1      39.562  33.890  37.199  1.00  0.00     0.058 A 
ATOM     89  C   UNL A   1      38.829  33.490  38.327  1.00  0.00     0.135 A 
ATOM     90  C   UNL A   1      40.137  35.170  37.206  1.00  0.00     0.135 A 
ATOM     91  F   UNL A   1      38.253  32.278  38.365  1.00  0.00    -0.206 F 
ATOM     92  C   UNL A   1      38.680  34.328  39.427  1.00  0.00     0.059 A 
ATOM     93  C   UNL A   1      40.019  36.016  38.304  1.00  0.00     0.059 A 
ATOM     94  F   UNL A   1      40.853  35.595  36.153  1.00  0.00    -0.206 F 
ATOM     95  C   UNL A   1      39.290  35.585  39.412  1.00  0.00     0.060 A 
BRANCH  95  96
ATOM     96  S   UNL A   1      39.156  36.625  40.881  1.00  0.00     0.124 S 
ATOM     97  O   UNL A   1      38.180  35.888  41.676  1.00  0.00    -0.237 OA
ATOM     98  O   UNL A   1      40.525  36.617  41.391  1.00  0.00    -0.237 OA
ATOM     99  O   UNL A   1      38.699  37.906  40.352  1.00  0.00    -0.744 OA
ENDBRANCH  95  96
ENDBRANCH  63  88
ENDBRANCH  37  38
ENDBRANCH  29  32
ENDBRANCH  27  28
ENDBRANCH  26  27
ENDBRANCH   1  26
TORSDOF 17
ENDMDL
MODEL 3
REMARK VINA RESULT:     -11.0      2.569      3.403
REMARK SMILES Cc1cc2c(c(C)c1Br)C=C(C(=O)NCCCCCCNC(=O)c1ccc(-c3c4nc(c(-c5c(F)cc(S(=O)(=O)[O-])cc5F)c5ccc([nH]5)c(-c5c(F)cc(S(=O)(=O)[O-])cc5F)c5nc(c(-c6c(F)cc(S(=O)(=O)[O-])cc6F)c6ccc3[nH]6)C=C5)C=C4)cc1)[C@@H](C(F)(F)F)O2
REMARK SMILES IDX 18 1 17 2 16 3 15 4 14 5 12 6 13 7 11 9 1 10 2 11 3 12 8 13
REMARK SMILES IDX 4 14 6 15 9 16 5 17 95 18 7 19 10 20 90 21 91 22 92 23 93 24
REMARK SMILES IDX 94 25 19 26 20 27 21 28 22 29 23 31 24 32 25 33 89 34 26 35
REMARK SMILES IDX 88 36 27 37 28 38 29 39 82 40 30 41 87 42 81 43 83 44 31 45
REMARK SMILES IDX 86 46 80 47 79 48 32 50 66 51 45 52 65 53 46 54 49 55 64 56
REMARK SMILES IDX 84 57 47 58 48 59 63 61 85 62 50 63 33 64 34 65 43 66 35 67
REMARK SMILES IDX 36 68 42 69 44 70 37 71 38 72 39 73 40 74 41 75 67 76 68 77
REMARK SMILES IDX 77 78 69 79 70 80 76 81 78 82 71 83 72 84 73 85 74 86 75 87
REMARK SMILES IDX 51 88 52 89 61 90 53 91 54 92 60 93 62 94 55 95 56 96 57 97
REMARK SMILES IDX 58 98 59 99
REMARK H PARENT 14 8 21 30 83 49 49 60
REMARK Flexibility Score: inf
ROOT
ATOM      1  C   UNL A   1      34.179  28.481  26.023  1.00  0.00     0.002 C 
ENDROOT
BRANCH   1   2
ATOM      2  C   UNL A   1      32.881  28.604  25.215  1.00  0.00     0.002 C 
BRANCH   2   3
ATOM      3  C   UNL A   1      32.920  27.988  23.814  1.00  0.00     0.021 C 
BRANCH   3   4
ATOM      4  C   UNL A   1      32.277  26.607  23.727  1.00  0.00     0.116 C 
BRANCH   4   5
ATOM      5  N   UNL A   1      31.740  26.183  25.009  1.00  0.00    -0.352 N 
ATOM      6  C   UNL A   1      31.838  25.103  25.817  1.00  0.00     0.251 C 
ATOM      7  O   UNL A   1      31.195  25.177  26.869  1.00  0.00    -0.270 OA
ATOM      8  H   UNL A   1      31.147  26.867  25.394  1.00  0.00     0.163 HD
BRANCH   6   9
ATOM      9  C   UNL A   1      32.641  23.875  25.530  1.00  0.00     0.067 C 
ATOM     10  C   UNL A   1      37.136  19.207  24.875  1.00  0.00     0.046 C 
ATOM     11  C   UNL A   1      36.378  20.478  25.153  1.00  0.00    -0.033 A 
ATOM     12  C   UNL A   1      34.992  20.460  24.980  1.00  0.00     0.051 A 
ATOM     13  C   UNL A   1      36.999  21.682  25.551  1.00  0.00     0.024 A 
ATOM     14  C   UNL A   1      34.235  21.604  25.201  1.00  0.00     0.128 A 
ATOM     15  C   UNL A   1      36.234  22.852  25.797  1.00  0.00    -0.026 A 
ATOM     16  Br  UNL A   1      38.903  21.694  25.748  1.00  0.00    -0.050 Br
ATOM     17  C   UNL A   1      34.828  22.796  25.620  1.00  0.00     0.021 A 
ATOM     18  O   UNL A   1      32.893  21.448  25.021  1.00  0.00    -0.475 OA
ATOM     19  C   UNL A   1      36.862  24.154  26.240  1.00  0.00     0.046 C 
ATOM     20  C   UNL A   1      33.938  23.931  25.891  1.00  0.00     0.026 C 
ATOM     21  C   UNL A   1      32.104  22.651  24.848  1.00  0.00     0.314 C 
BRANCH  21  22
ATOM     22  C   UNL A   1      31.835  22.871  23.349  1.00  0.00     0.429 C 
ATOM     23  F   UNL A   1      32.830  23.599  22.787  1.00  0.00    -0.167 F 
ATOM     24  F   UNL A   1      31.773  21.710  22.657  1.00  0.00    -0.167 F 
ATOM     25  F   UNL A   1      30.672  23.525  23.124  1.00  0.00    -0.167 F 
ENDBRANCH  21  22
ENDBRANCH   6   9
ENDBRANCH   4   5
ENDBRANCH   3   4
ENDBRANCH   2   3
ENDBRANCH   1   2
BRANCH   1  26
ATOM     26  C   UNL A   1      34.137  29.073  27.435  1.00  0.00     0.021 C 
BRANCH  26  27
ATOM     27  C   UNL A   1      35.457  29.664  27.918  1.00  0.00     0.116 C 
BRANCH  27  28
ATOM     28  N   UNL A   1      35.418  29.993  29.333  1.00  0.00    -0.352 N 
ATOM     29  C   UNL A   1      36.417  29.905  30.269  1.00  0.00     0.251 C 
ATOM     30  H   UNL A   1      34.555  30.326  29.666  1.00  0.00     0.163 HD
ATOM     31  O   UNL A   1      36.154  30.030  31.461  1.00  0.00    -0.269 OA
BRANCH  29  32
ATOM     32  C   UNL A   1      37.804  29.640  29.834  1.00  0.00     0.039 A 
ATOM     33  C   UNL A   1      38.719  29.141  30.762  1.00  0.00     0.014 A 
ATOM     34  C   UNL A   1      38.197  29.886  28.515  1.00  0.00     0.014 A 
ATOM     35  C   UNL A   1      40.019  28.842  30.355  1.00  0.00     0.010 A 
ATOM     36  C   UNL A   1      39.474  29.522  28.094  1.00  0.00     0.010 A 
ATOM     37  C   UNL A   1      40.399  29.008  29.011  1.00  0.00    -0.014 A 
BRANCH  37  38
ATOM     38  C   UNL A   1      41.773  28.662  28.566  1.00  0.00     0.031 A 
ATOM     39  C   UNL A   1      42.848  29.712  28.557  1.00  0.00     0.074 A 
ATOM     40  C   UNL A   1      42.041  27.407  28.154  1.00  0.00     0.049 A 
ATOM     41  N   UNL A   1      44.106  29.598  28.218  1.00  0.00    -0.248 NA
ATOM     42  C   UNL A   1      42.457  31.072  28.962  1.00  0.00     0.031 C 
ATOM     43  C   UNL A   1      41.066  26.316  28.078  1.00  0.00     0.029 A 
ATOM     44  N   UNL A   1      43.213  26.833  27.732  1.00  0.00    -0.354 N 
ATOM     45  C   UNL A   1      44.656  30.865  28.374  1.00  0.00     0.074 A 
ATOM     46  C   UNL A   1      43.582  31.747  28.772  1.00  0.00     0.031 C 
ATOM     47  C   UNL A   1      41.689  25.196  27.675  1.00  0.00     0.029 A 
ATOM     48  C   UNL A   1      43.099  25.494  27.436  1.00  0.00     0.049 A 
ATOM     49  H   UNL A   1      44.058  27.332  27.646  1.00  0.00     0.167 HD
ATOM     50  C   UNL A   1      45.945  31.249  28.232  1.00  0.00     0.037 A 
ATOM     51  C   UNL A   1      44.027  24.606  27.030  1.00  0.00     0.037 A 
ATOM     52  C   UNL A   1      47.013  30.360  27.859  1.00  0.00     0.049 A 
ATOM     53  C   UNL A   1      45.450  25.061  26.860  1.00  0.00     0.074 A 
ATOM     54  C   UNL A   1      48.361  30.642  27.731  1.00  0.00     0.029 A 
ATOM     55  N   UNL A   1      46.853  29.015  27.555  1.00  0.00    -0.354 N 
ATOM     56  N   UNL A   1      45.963  26.250  27.070  1.00  0.00    -0.248 NA
ATOM     57  C   UNL A   1      46.423  24.058  26.401  1.00  0.00     0.031 C 
ATOM     58  C   UNL A   1      49.011  29.478  27.311  1.00  0.00     0.029 A 
ATOM     59  C   UNL A   1      48.075  28.459  27.220  1.00  0.00     0.049 A 
ATOM     60  H   UNL A   1      45.997  28.530  27.576  1.00  0.00     0.167 HD
ATOM     61  C   UNL A   1      47.320  26.134  26.789  1.00  0.00     0.074 A 
ATOM     62  C   UNL A   1      47.551  24.757  26.404  1.00  0.00     0.031 C 
ATOM     63  C   UNL A   1      48.287  27.082  26.846  1.00  0.00     0.037 A 
BRANCH  50  64
ATOM     64  C   UNL A   1      46.279  32.689  28.506  1.00  0.00     0.058 A 
ATOM     65  C   UNL A   1      46.238  33.653  27.487  1.00  0.00     0.135 A 
ATOM     66  C   UNL A   1      46.600  33.119  29.803  1.00  0.00     0.135 A 
ATOM     67  F   UNL A   1      45.954  33.293  26.225  1.00  0.00    -0.206 F 
ATOM     68  C   UNL A   1      46.525  34.990  27.739  1.00  0.00     0.059 A 
ATOM     69  C   UNL A   1      46.864  34.457  30.084  1.00  0.00     0.059 A 
ATOM     70  F   UNL A   1      46.656  32.238  30.813  1.00  0.00    -0.206 F 
ATOM     71  C   UNL A   1      46.835  35.383  29.042  1.00  0.00     0.060 A 
BRANCH  71  72
ATOM     72  S   UNL A   1      47.191  37.126  29.351  1.00  0.00     0.124 S 
ATOM     73  O   UNL A   1      48.244  37.033  30.358  1.00  0.00    -0.237 OA
ATOM     74  O   UNL A   1      47.613  37.594  28.035  1.00  0.00    -0.237 OA
ATOM     75  O   UNL A   1      45.917  37.656  29.824  1.00  0.00    -0.744 OA
ENDBRANCH  71  72
ENDBRANCH  50  64
BRANCH  51  76
ATOM     76  C   UNL A   1      43.642  23.188  26.801  1.00  0.00     0.058 A 
ATOM     77  C   UNL A   1      43.316  22.351  27.879  1.00  0.00     0.135 A 
ATOM     78  C   UNL A   1      43.558  22.650  25.508  1.00  0.00     0.135 A 
ATOM     79  F   UNL A   1      43.385  22.817  29.135  1.00  0.00    -0.206 F 
ATOM     80  C   UNL A   1      42.926  21.030  27.684  1.00  0.00     0.059 A 
ATOM     81  C   UNL A   1      43.150  21.338  25.285  1.00  0.00     0.059 A 
ATOM     82  F   UNL A   1      43.846  23.415  24.442  1.00  0.00    -0.206 F 
ATOM     83  C   UNL A   1      42.841  20.535  26.382  1.00  0.00     0.060 A 
BRANCH  83  84
ATOM     84  S   UNL A   1      42.275  18.836  26.139  1.00  0.00     0.124 S 
ATOM     85  O   UNL A   1      40.897  19.044  25.711  1.00  0.00    -0.237 OA
ATOM     86  O   UNL A   1      43.196  18.351  25.116  1.00  0.00    -0.237 OA
ATOM     87  O   UNL A   1      42.442  18.234  27.459  1.00  0.00    -0.744 OA
ENDBRANCH  83  84
ENDBRANCH  51  76
BRANCH  63  88
ATOM     88  C   UNL A   1      49.689  26.678  26.497  1.00  0.00     0.058 A 
ATOM     89  C   UNL A   1      50.495  25.980  27.409  1.00  0.00     0.135 A 
ATOM     90  C   UNL A   1      50.190  26.888  25.202  1.00  0.00     0.135 A 
ATOM     91  F   UNL A   1      50.065  25.762  28.662  1.00  0.00    -0.206 F 
ATOM     92  C   UNL A   1      51.749  25.500  27.048  1.00  0.00     0.059 A 
ATOM     93  C   UNL A   1      51.431  26.396  24.812  1.00  0.00     0.059 A 
ATOM     94  F   UNL A   1      49.453  27.543  24.291  1.00  0.00    -0.206 F 
ATOM     95  C   UNL A   1      52.204  25.702  25.742  1.00  0.00     0.060 A 
BRANCH  95  96
ATOM     96  S   UNL A   1      53.797  24.998  25.267  1.00  0.00     0.124 S 
ATOM     97  O   UNL A   1      54.088  25.731  24.039  1.00  0.00    -0.237 OA
ATOM     98  O   UNL A   1      54.636  25.327  26.415  1.00  0.00    -0.237 OA
ATOM     99  O   UNL A   1      53.506  23.578  25.097  1.00  0.00    -0.744 OA
ENDBRANCH  95  96
ENDBRANCH  63  88
ENDBRANCH  37  38
ENDBRANCH  29  32
ENDBRANCH  27  28
ENDBRANCH  26  27
ENDBRANCH   1  26
TORSDOF 17
ENDMDL
