MODEL 1
REMARK VINA RESULT:     -11.7      0.000      0.000
REMARK SMILES C[C@@](NC(=O)[C@H]1COc2ccccc21)(C(=O)NCCCCCCNC(=O)c1ccc(-c2c3nc(c(-c4c(F)cc(S(=O)(=O)[O-])cc4F)c4ccc([nH]4)c(-c4c(F)cc(S(=O)(=O)[O-])cc4F)c4nc(c(-c5c(F)cc(S(=O)(=O)[O-])cc5F)c5ccc2[nH]5)C=C4)C=C3)cc1)C(F)(F)F
REMARK SMILES IDX 21 1 20 2 19 3 18 4 17 5 15 6 16 7 2 9 1 10 3 11 4 12 5 14
REMARK SMILES IDX 6 15 7 16 14 17 8 18 9 19 13 20 10 21 12 22 11 23 93 24
REMARK SMILES IDX 94 25 95 26 96 27 22 28 23 29 24 30 25 31 26 33 27 34 28 35
REMARK SMILES IDX 92 36 29 37 91 38 30 39 31 40 32 41 85 42 33 43 90 44 84 45
REMARK SMILES IDX 86 46 34 47 89 48 83 49 82 50 35 52 69 53 48 54 68 55 49 56
REMARK SMILES IDX 52 57 67 58 87 59 50 60 51 61 66 63 88 64 53 65 36 66 37 67
REMARK SMILES IDX 46 68 38 69 39 70 45 71 47 72 40 73 41 74 42 75 43 76 44 77
REMARK SMILES IDX 70 78 71 79 80 80 72 81 73 82 79 83 81 84 74 85 75 86 76 87
REMARK SMILES IDX 77 88 78 89 54 90 55 91 64 92 56 93 57 94 63 95 65 96 58 97
REMARK SMILES IDX 59 98 60 99 61 100 62 101
REMARK H PARENT 17 8 3 13 24 32 86 51 52 62
REMARK Flexibility Score: inf
ROOT
ATOM      1  C   UNL A   1      34.460  29.385  27.152  1.00  0.00     0.002 C 
ENDROOT
BRANCH   1   2
ATOM      2  C   UNL A   1      33.223  28.969  26.346  1.00  0.00     0.002 C 
BRANCH   2   3
ATOM      3  C   UNL A   1      33.324  29.245  24.844  1.00  0.00     0.021 C 
BRANCH   3   4
ATOM      4  C   UNL A   1      33.421  27.971  24.006  1.00  0.00     0.116 C 
BRANCH   4   5
ATOM      5  N   UNL A   1      32.107  27.422  23.702  1.00  0.00    -0.354 N 
ATOM      6  C   UNL A   1      31.591  26.170  23.917  1.00  0.00     0.254 C 
ATOM      7  O   UNL A   1      30.492  25.934  23.406  1.00  0.00    -0.272 OA
ATOM      8  H   UNL A   1      31.488  28.053  23.271  1.00  0.00     0.163 HD
BRANCH   6   9
ATOM      9  C   UNL A   1      32.444  25.060  24.546  1.00  0.00     0.212 C 
ATOM     10  C   UNL A   1      31.559  23.785  24.470  1.00  0.00     0.056 C 
BRANCH   9  11
ATOM     11  N   UNL A   1      33.725  24.783  23.823  1.00  0.00    -0.334 N 
ATOM     12  C   UNL A   1      34.689  23.843  23.945  1.00  0.00     0.232 C 
ATOM     13  H   UNL A   1      33.905  25.426  23.102  1.00  0.00     0.164 HD
ATOM     14  O   UNL A   1      35.253  23.599  22.864  1.00  0.00    -0.274 OA
BRANCH  12  15
ATOM     15  C   UNL A   1      35.223  23.128  25.178  1.00  0.00     0.150 C 
ATOM     16  C   UNL A   1      34.960  21.616  24.957  1.00  0.00     0.248 C 
ATOM     17  C   UNL A   1      36.650  23.043  25.576  1.00  0.00     0.010 A 
ATOM     18  O   UNL A   1      36.217  20.919  24.793  1.00  0.00    -0.492 OA
ATOM     19  C   UNL A   1      37.145  21.778  25.302  1.00  0.00     0.123 A 
ATOM     20  C   UNL A   1      37.451  23.935  26.269  1.00  0.00     0.008 A 
ATOM     21  C   UNL A   1      38.454  21.410  25.559  1.00  0.00     0.047 A 
ATOM     22  C   UNL A   1      38.784  23.597  26.528  1.00  0.00     0.001 A 
ATOM     23  C   UNL A   1      39.292  22.348  26.152  1.00  0.00     0.004 A 
ENDBRANCH  12  15
ENDBRANCH   9  11
BRANCH   9  24
ATOM     24  C   UNL A   1      32.669  25.306  26.056  1.00  0.00     0.420 C 
ATOM     25  F   UNL A   1      31.748  26.106  26.632  1.00  0.00    -0.168 F 
ATOM     26  F   UNL A   1      32.600  24.117  26.725  1.00  0.00    -0.168 F 
ATOM     27  F   UNL A   1      33.892  25.798  26.339  1.00  0.00    -0.168 F 
ENDBRANCH   9  24
ENDBRANCH   6   9
ENDBRANCH   4   5
ENDBRANCH   3   4
ENDBRANCH   2   3
ENDBRANCH   1   2
BRANCH   1  28
ATOM     28  C   UNL A   1      34.549  30.861  27.523  1.00  0.00     0.021 C 
BRANCH  28  29
ATOM     29  C   UNL A   1      35.695  31.222  28.451  1.00  0.00     0.116 C 
BRANCH  29  30
ATOM     30  N   UNL A   1      35.553  30.663  29.788  1.00  0.00    -0.352 N 
ATOM     31  C   UNL A   1      36.509  30.025  30.544  1.00  0.00     0.251 C 
ATOM     32  H   UNL A   1      34.663  30.751  30.201  1.00  0.00     0.163 HD
ATOM     33  O   UNL A   1      36.229  29.523  31.623  1.00  0.00    -0.269 OA
BRANCH  31  34
ATOM     34  C   UNL A   1      37.875  29.922  29.992  1.00  0.00     0.039 A 
ATOM     35  C   UNL A   1      38.963  30.040  30.856  1.00  0.00     0.014 A 
ATOM     36  C   UNL A   1      38.062  29.593  28.647  1.00  0.00     0.014 A 
ATOM     37  C   UNL A   1      40.243  29.752  30.383  1.00  0.00     0.010 A 
ATOM     38  C   UNL A   1      39.323  29.213  28.206  1.00  0.00     0.010 A 
ATOM     39  C   UNL A   1      40.427  29.295  29.066  1.00  0.00    -0.014 A 
BRANCH  39  40
ATOM     40  C   UNL A   1      41.771  28.900  28.577  1.00  0.00     0.031 A 
ATOM     41  C   UNL A   1      42.873  29.921  28.497  1.00  0.00     0.074 A 
ATOM     42  C   UNL A   1      41.981  27.637  28.153  1.00  0.00     0.049 A 
ATOM     43  N   UNL A   1      44.110  29.772  28.101  1.00  0.00    -0.248 NA
ATOM     44  C   UNL A   1      42.530  31.302  28.878  1.00  0.00     0.031 C 
ATOM     45  C   UNL A   1      40.967  26.580  28.104  1.00  0.00     0.029 A 
ATOM     46  N   UNL A   1      43.116  27.026  27.688  1.00  0.00    -0.354 N 
ATOM     47  C   UNL A   1      44.682  31.037  28.163  1.00  0.00     0.074 A 
ATOM     48  C   UNL A   1      43.642  31.953  28.571  1.00  0.00     0.031 C 
ATOM     49  C   UNL A   1      41.539  25.440  27.687  1.00  0.00     0.029 A 
ATOM     50  C   UNL A   1      42.950  25.689  27.412  1.00  0.00     0.049 A 
ATOM     51  H   UNL A   1      43.970  27.499  27.563  1.00  0.00     0.167 HD
ATOM     52  C   UNL A   1      45.966  31.398  27.931  1.00  0.00     0.037 A 
ATOM     53  C   UNL A   1      43.842  24.766  27.001  1.00  0.00     0.037 A 
ATOM     54  C   UNL A   1      47.005  30.470  27.569  1.00  0.00     0.049 A 
ATOM     55  C   UNL A   1      45.272  25.180  26.797  1.00  0.00     0.074 A 
ATOM     56  C   UNL A   1      48.357  30.711  27.401  1.00  0.00     0.029 A 
ATOM     57  N   UNL A   1      46.804  29.120  27.319  1.00  0.00    -0.354 N 
ATOM     58  N   UNL A   1      45.819  26.365  26.948  1.00  0.00    -0.248 NA
ATOM     59  C   UNL A   1      46.211  24.132  26.377  1.00  0.00     0.031 C 
ATOM     60  C   UNL A   1      48.967  29.513  27.010  1.00  0.00     0.029 A 
ATOM     61  C   UNL A   1      48.003  28.517  26.976  1.00  0.00     0.049 A 
ATOM     62  H   UNL A   1      45.937  28.658  27.377  1.00  0.00     0.167 HD
ATOM     63  C   UNL A   1      47.170  26.198  26.662  1.00  0.00     0.074 A 
ATOM     64  C   UNL A   1      47.357  24.796  26.348  1.00  0.00     0.031 C 
ATOM     65  C   UNL A   1      48.164  27.121  26.659  1.00  0.00     0.037 A 
BRANCH  52  66
ATOM     66  C   UNL A   1      46.310  32.857  28.069  1.00  0.00     0.058 A 
ATOM     67  C   UNL A   1      46.139  33.761  27.006  1.00  0.00     0.135 A 
ATOM     68  C   UNL A   1      46.825  33.358  29.275  1.00  0.00     0.135 A 
ATOM     69  F   UNL A   1      45.668  33.334  25.824  1.00  0.00    -0.206 F 
ATOM     70  C   UNL A   1      46.507  35.097  27.120  1.00  0.00     0.059 A 
ATOM     71  C   UNL A   1      47.171  34.698  29.421  1.00  0.00     0.059 A 
ATOM     72  F   UNL A   1      47.010  32.540  30.323  1.00  0.00    -0.206 F 
ATOM     73  C   UNL A   1      47.029  35.556  28.332  1.00  0.00     0.060 A 
BRANCH  73  74
ATOM     74  S   UNL A   1      47.521  37.287  28.459  1.00  0.00     0.124 S 
ATOM     75  O   UNL A   1      46.243  37.967  28.270  1.00  0.00    -0.237 OA
ATOM     76  O   UNL A   1      48.081  37.356  29.806  1.00  0.00    -0.237 OA
ATOM     77  O   UNL A   1      48.484  37.448  27.375  1.00  0.00    -0.744 OA
ENDBRANCH  73  74
ENDBRANCH  52  66
BRANCH  53  78
ATOM     78  C   UNL A   1      43.420  23.352  26.822  1.00  0.00     0.058 A 
ATOM     79  C   UNL A   1      43.252  22.812  25.537  1.00  0.00     0.135 A 
ATOM     80  C   UNL A   1      43.200  22.505  27.919  1.00  0.00     0.135 A 
ATOM     81  F   UNL A   1      43.447  23.583  24.457  1.00  0.00    -0.206 F 
ATOM     82  C   UNL A   1      42.870  21.488  25.346  1.00  0.00     0.059 A 
ATOM     83  C   UNL A   1      42.839  21.171  27.752  1.00  0.00     0.059 A 
ATOM     84  F   UNL A   1      43.364  22.967  29.168  1.00  0.00    -0.206 F 
ATOM     85  C   UNL A   1      42.670  20.674  26.460  1.00  0.00     0.060 A 
BRANCH  85  86
ATOM     86  S   UNL A   1      42.233  18.941  26.198  1.00  0.00     0.124 S 
ATOM     87  O   UNL A   1      43.204  18.541  25.188  1.00  0.00    -0.237 OA
ATOM     88  O   UNL A   1      42.425  18.372  27.529  1.00  0.00    -0.237 OA
ATOM     89  O   UNL A   1      40.845  19.010  25.751  1.00  0.00    -0.744 OA
ENDBRANCH  85  86
ENDBRANCH  53  78
BRANCH  65  90
ATOM     90  C   UNL A   1      49.544  26.632  26.318  1.00  0.00     0.058 A 
ATOM     91  C   UNL A   1      50.075  26.771  25.027  1.00  0.00     0.135 A 
ATOM     92  C   UNL A   1      50.347  26.029  27.299  1.00  0.00     0.135 A 
ATOM     93  F   UNL A   1      49.345  27.336  24.053  1.00  0.00    -0.206 F 
ATOM     94  C   UNL A   1      51.342  26.292  24.709  1.00  0.00     0.059 A 
ATOM     95  C   UNL A   1      51.628  25.569  27.009  1.00  0.00     0.059 A 
ATOM     96  F   UNL A   1      49.891  25.885  28.553  1.00  0.00    -0.206 F 
ATOM     97  C   UNL A   1      52.108  25.688  25.706  1.00  0.00     0.060 A 
BRANCH  97  98
ATOM     98  S   UNL A   1      53.750  25.068  25.283  1.00  0.00     0.124 S 
ATOM     99  O   UNL A   1      53.538  23.625  25.329  1.00  0.00    -0.237 OA
ATOM    100  O   UNL A   1      53.969  25.636  23.957  1.00  0.00    -0.237 OA
ATOM    101  O   UNL A   1      54.600  25.614  26.338  1.00  0.00    -0.744 OA
ENDBRANCH  97  98
ENDBRANCH  65  90
ENDBRANCH  39  40
ENDBRANCH  31  34
ENDBRANCH  29  30
ENDBRANCH  28  29
ENDBRANCH   1  28
TORSDOF 19
ENDMDL
MODEL 2
REMARK VINA RESULT:     -11.5      6.447     12.007
REMARK SMILES C[C@@](NC(=O)[C@H]1COc2ccccc21)(C(=O)NCCCCCCNC(=O)c1ccc(-c2c3nc(c(-c4c(F)cc(S(=O)(=O)[O-])cc4F)c4ccc([nH]4)c(-c4c(F)cc(S(=O)(=O)[O-])cc4F)c4nc(c(-c5c(F)cc(S(=O)(=O)[O-])cc5F)c5ccc2[nH]5)C=C4)C=C3)cc1)C(F)(F)F
REMARK SMILES IDX 21 1 20 2 19 3 18 4 17 5 15 6 16 7 2 9 1 10 3 11 4 12 5 14
REMARK SMILES IDX 6 15 7 16 14 17 8 18 9 19 13 20 10 21 12 22 11 23 93 24
REMARK SMILES IDX 94 25 95 26 96 27 22 28 23 29 24 30 25 31 26 33 27 34 28 35
REMARK SMILES IDX 92 36 29 37 91 38 30 39 31 40 32 41 85 42 33 43 90 44 84 45
REMARK SMILES IDX 86 46 34 47 89 48 83 49 82 50 35 52 69 53 48 54 68 55 49 56
REMARK SMILES IDX 52 57 67 58 87 59 50 60 51 61 66 63 88 64 53 65 36 66 37 67
REMARK SMILES IDX 46 68 38 69 39 70 45 71 47 72 40 73 41 74 42 75 43 76 44 77
REMARK SMILES IDX 70 78 71 79 80 80 72 81 73 82 79 83 81 84 74 85 75 86 76 87
REMARK SMILES IDX 77 88 78 89 54 90 55 91 64 92 56 93 57 94 63 95 65 96 58 97
REMARK SMILES IDX 59 98 60 99 61 100 62 101
REMARK H PARENT 17 8 3 13 24 32 86 51 52 62
REMARK Flexibility Score: inf
ROOT
ATOM      1  C   UNL A   1      39.805  21.641  26.136  1.00  0.00     0.002 C 
ENDROOT
BRANCH   1   2
ATOM      2  C   UNL A   1      38.361  21.976  25.741  1.00  0.00     0.002 C 
BRANCH   2   3
ATOM      3  C   UNL A   1      37.911  23.387  26.124  1.00  0.00     0.021 C 
BRANCH   3   4
ATOM      4  C   UNL A   1      36.397  23.576  26.046  1.00  0.00     0.116 C 
BRANCH   4   5
ATOM      5  N   UNL A   1      35.935  23.678  24.669  1.00  0.00    -0.354 N 
ATOM      6  C   UNL A   1      34.853  23.111  24.045  1.00  0.00     0.254 C 
ATOM      7  O   UNL A   1      34.795  23.240  22.819  1.00  0.00    -0.272 OA
ATOM      8  H   UNL A   1      36.490  24.247  24.090  1.00  0.00     0.163 HD
BRANCH   6   9
ATOM      9  C   UNL A   1      33.910  22.166  24.803  1.00  0.00     0.212 C 
ATOM     10  C   UNL A   1      34.779  20.925  25.146  1.00  0.00     0.056 C 
BRANCH   9  11
ATOM     11  N   UNL A   1      33.373  22.727  26.082  1.00  0.00    -0.334 N 
ATOM     12  C   UNL A   1      32.416  23.634  26.383  1.00  0.00     0.232 C 
ATOM     13  H   UNL A   1      33.813  22.355  26.879  1.00  0.00     0.164 HD
ATOM     14  O   UNL A   1      31.883  23.413  27.485  1.00  0.00    -0.274 OA
BRANCH  12  15
ATOM     15  C   UNL A   1      31.971  24.885  25.641  1.00  0.00     0.150 C 
ATOM     16  C   UNL A   1      30.539  25.205  26.138  1.00  0.00     0.248 C 
ATOM     17  C   UNL A   1      32.562  26.238  25.798  1.00  0.00     0.010 A 
ATOM     18  O   UNL A   1      30.548  26.434  26.901  1.00  0.00    -0.492 OA
ATOM     19  C   UNL A   1      31.714  27.043  26.542  1.00  0.00     0.123 A 
ATOM     20  C   UNL A   1      33.683  26.809  25.220  1.00  0.00     0.008 A 
ATOM     21  C   UNL A   1      32.008  28.357  26.859  1.00  0.00     0.047 A 
ATOM     22  C   UNL A   1      34.016  28.131  25.536  1.00  0.00     0.001 A 
ATOM     23  C   UNL A   1      33.195  28.897  26.372  1.00  0.00     0.004 A 
ENDBRANCH  12  15
ENDBRANCH   9  11
BRANCH   9  24
ATOM     24  C   UNL A   1      32.786  21.631  23.885  1.00  0.00     0.420 C 
ATOM     25  F   UNL A   1      32.170  22.580  23.153  1.00  0.00    -0.168 F 
ATOM     26  F   UNL A   1      33.316  20.751  22.985  1.00  0.00    -0.168 F 
ATOM     27  F   UNL A   1      31.844  20.931  24.548  1.00  0.00    -0.168 F 
ENDBRANCH   9  24
ENDBRANCH   6   9
ENDBRANCH   4   5
ENDBRANCH   3   4
ENDBRANCH   2   3
ENDBRANCH   1   2
BRANCH   1  28
ATOM     28  C   UNL A   1      40.301  22.263  27.437  1.00  0.00     0.021 C 
BRANCH  28  29
ATOM     29  C   UNL A   1      41.546  23.123  27.304  1.00  0.00     0.116 C 
BRANCH  29  30
ATOM     30  N   UNL A   1      41.516  24.004  26.145  1.00  0.00    -0.352 N 
ATOM     31  C   UNL A   1      41.363  25.371  26.127  1.00  0.00     0.251 C 
ATOM     32  H   UNL A   1      41.616  23.569  25.268  1.00  0.00     0.163 HD
ATOM     33  O   UNL A   1      41.266  25.981  25.072  1.00  0.00    -0.269 OA
BRANCH  31  34
ATOM     34  C   UNL A   1      41.269  26.076  27.421  1.00  0.00     0.039 A 
ATOM     35  C   UNL A   1      42.294  26.946  27.792  1.00  0.00     0.014 A 
ATOM     36  C   UNL A   1      40.113  25.960  28.199  1.00  0.00     0.014 A 
ATOM     37  C   UNL A   1      42.125  27.760  28.912  1.00  0.00     0.010 A 
ATOM     38  C   UNL A   1      39.909  26.839  29.254  1.00  0.00     0.010 A 
ATOM     39  C   UNL A   1      40.914  27.743  29.626  1.00  0.00    -0.014 A 
BRANCH  39  40
ATOM     40  C   UNL A   1      40.687  28.666  30.765  1.00  0.00     0.031 A 
ATOM     41  C   UNL A   1      41.529  28.553  32.006  1.00  0.00     0.074 A 
ATOM     42  C   UNL A   1      39.687  29.569  30.701  1.00  0.00     0.049 A 
ATOM     43  N   UNL A   1      41.486  29.264  33.102  1.00  0.00    -0.248 NA
ATOM     44  C   UNL A   1      42.527  27.470  32.036  1.00  0.00     0.031 C 
ATOM     45  C   UNL A   1      38.750  29.719  29.584  1.00  0.00     0.029 A 
ATOM     46  N   UNL A   1      39.294  30.534  31.592  1.00  0.00    -0.354 N 
ATOM     47  C   UNL A   1      42.430  28.704  33.954  1.00  0.00     0.074 A 
ATOM     48  C   UNL A   1      42.984  27.554  33.276  1.00  0.00     0.031 C 
ATOM     49  C   UNL A   1      37.928  30.750  29.834  1.00  0.00     0.029 A 
ATOM     50  C   UNL A   1      38.258  31.316  31.137  1.00  0.00     0.049 A 
ATOM     51  H   UNL A   1      39.713  30.656  32.474  1.00  0.00     0.167 HD
ATOM     52  C   UNL A   1      42.824  29.128  35.178  1.00  0.00     0.037 A 
ATOM     53  C   UNL A   1      37.657  32.382  31.702  1.00  0.00     0.037 A 
ATOM     54  C   UNL A   1      42.298  30.301  35.825  1.00  0.00     0.049 A 
ATOM     55  C   UNL A   1      38.143  32.863  33.041  1.00  0.00     0.074 A 
ATOM     56  C   UNL A   1      42.689  30.874  37.022  1.00  0.00     0.029 A 
ATOM     57  N   UNL A   1      41.265  31.081  35.326  1.00  0.00    -0.354 N 
ATOM     58  N   UNL A   1      39.101  32.377  33.795  1.00  0.00    -0.248 NA
ATOM     59  C   UNL A   1      37.475  34.045  33.601  1.00  0.00     0.031 C 
ATOM     60  C   UNL A   1      41.864  31.979  37.265  1.00  0.00     0.029 A 
ATOM     61  C   UNL A   1      40.988  32.119  36.199  1.00  0.00     0.049 A 
ATOM     62  H   UNL A   1      40.797  30.920  34.474  1.00  0.00     0.167 HD
ATOM     63  C   UNL A   1      39.165  33.207  34.910  1.00  0.00     0.074 A 
ATOM     64  C   UNL A   1      38.161  34.235  34.719  1.00  0.00     0.031 C 
ATOM     65  C   UNL A   1      39.978  33.125  35.993  1.00  0.00     0.037 A 
BRANCH  52  66
ATOM     66  C   UNL A   1      43.875  28.316  35.887  1.00  0.00     0.058 A 
ATOM     67  C   UNL A   1      43.536  27.292  36.787  1.00  0.00     0.135 A 
ATOM     68  C   UNL A   1      45.238  28.569  35.670  1.00  0.00     0.135 A 
ATOM     69  F   UNL A   1      42.247  27.019  37.047  1.00  0.00    -0.206 F 
ATOM     70  C   UNL A   1      44.509  26.579  37.480  1.00  0.00     0.059 A 
ATOM     71  C   UNL A   1      46.229  27.848  36.329  1.00  0.00     0.059 A 
ATOM     72  F   UNL A   1      45.620  29.536  34.821  1.00  0.00    -0.206 F 
ATOM     73  C   UNL A   1      45.855  26.869  37.248  1.00  0.00     0.060 A 
BRANCH  73  74
ATOM     74  S   UNL A   1      47.107  25.951  38.168  1.00  0.00     0.124 S 
ATOM     75  O   UNL A   1      46.295  24.923  38.815  1.00  0.00    -0.237 OA
ATOM     76  O   UNL A   1      47.994  25.482  37.109  1.00  0.00    -0.237 OA
ATOM     77  O   UNL A   1      47.677  26.955  39.061  1.00  0.00    -0.744 OA
ENDBRANCH  73  74
ENDBRANCH  52  66
BRANCH  53  78
ATOM     78  C   UNL A   1      36.579  33.101  30.974  1.00  0.00     0.058 A 
ATOM     79  C   UNL A   1      36.881  33.913  29.869  1.00  0.00     0.135 A 
ATOM     80  C   UNL A   1      35.231  32.976  31.343  1.00  0.00     0.135 A 
ATOM     81  F   UNL A   1      38.155  34.068  29.481  1.00  0.00    -0.206 F 
ATOM     82  C   UNL A   1      35.888  34.586  29.165  1.00  0.00     0.059 A 
ATOM     83  C   UNL A   1      34.218  33.621  30.639  1.00  0.00     0.059 A 
ATOM     84  F   UNL A   1      34.887  32.197  32.380  1.00  0.00    -0.206 F 
ATOM     85  C   UNL A   1      34.558  34.430  29.555  1.00  0.00     0.060 A 
BRANCH  85  86
ATOM     86  S   UNL A   1      33.271  35.260  28.596  1.00  0.00     0.124 S 
ATOM     87  O   UNL A   1      32.617  34.132  27.943  1.00  0.00    -0.237 OA
ATOM     88  O   UNL A   1      32.499  35.932  29.637  1.00  0.00    -0.237 OA
ATOM     89  O   UNL A   1      34.029  36.147  27.718  1.00  0.00    -0.744 OA
ENDBRANCH  85  86
ENDBRANCH  53  78
BRANCH  65  90
ATOM     90  C   UNL A   1      39.819  34.189  37.043  1.00  0.00     0.058 A 
ATOM     91  C   UNL A   1      40.453  35.436  36.928  1.00  0.00     0.135 A 
ATOM     92  C   UNL A   1      39.013  33.963  38.169  1.00  0.00     0.135 A 
ATOM     93  F   UNL A   1      41.239  35.699  35.871  1.00  0.00    -0.206 F 
ATOM     94  C   UNL A   1      40.326  36.408  37.914  1.00  0.00     0.059 A 
ATOM     95  C   UNL A   1      38.849  34.932  39.154  1.00  0.00     0.059 A 
ATOM     96  F   UNL A   1      38.373  32.793  38.320  1.00  0.00    -0.206 F 
ATOM     97  C   UNL A   1      39.526  36.144  39.026  1.00  0.00     0.060 A 
BRANCH  97  98
ATOM     98  S   UNL A   1      39.368  37.411  40.303  1.00  0.00     0.124 S 
ATOM     99  O   UNL A   1      40.754  37.841  40.459  1.00  0.00    -0.237 OA
ATOM    100  O   UNL A   1      38.471  38.377  39.678  1.00  0.00    -0.237 OA
ATOM    101  O   UNL A   1      38.803  36.682  41.435  1.00  0.00    -0.744 OA
ENDBRANCH  97  98
ENDBRANCH  65  90
ENDBRANCH  39  40
ENDBRANCH  31  34
ENDBRANCH  29  30
ENDBRANCH  28  29
ENDBRANCH   1  28
TORSDOF 19
ENDMDL
MODEL 3
REMARK VINA RESULT:     -11.4      2.663      8.607
REMARK SMILES C[C@@](NC(=O)[C@H]1COc2ccccc21)(C(=O)NCCCCCCNC(=O)c1ccc(-c2c3nc(c(-c4c(F)cc(S(=O)(=O)[O-])cc4F)c4ccc([nH]4)c(-c4c(F)cc(S(=O)(=O)[O-])cc4F)c4nc(c(-c5c(F)cc(S(=O)(=O)[O-])cc5F)c5ccc2[nH]5)C=C4)C=C3)cc1)C(F)(F)F
REMARK SMILES IDX 21 1 20 2 19 3 18 4 17 5 15 6 16 7 2 9 1 10 3 11 4 12 5 14
REMARK SMILES IDX 6 15 7 16 14 17 8 18 9 19 13 20 10 21 12 22 11 23 93 24
REMARK SMILES IDX 94 25 95 26 96 27 22 28 23 29 24 30 25 31 26 33 27 34 28 35
REMARK SMILES IDX 92 36 29 37 91 38 30 39 31 40 32 41 85 42 33 43 90 44 84 45
REMARK SMILES IDX 86 46 34 47 89 48 83 49 82 50 35 52 69 53 48 54 68 55 49 56
REMARK SMILES IDX 52 57 67 58 87 59 50 60 51 61 66 63 88 64 53 65 36 66 37 67
REMARK SMILES IDX 46 68 38 69 39 70 45 71 47 72 40 73 41 74 42 75 43 76 44 77
REMARK SMILES IDX 70 78 71 79 80 80 72 81 73 82 79 83 81 84 74 85 75 86 76 87
REMARK SMILES IDX 77 88 78 89 54 90 55 91 64 92 56 93 57 94 63 95 65 96 58 97
REMARK SMILES IDX 59 98 60 99 61 100 62 101
REMARK H PARENT 17 8 3 13 24 32 86 51 52 62
REMARK Flexibility Score: inf
ROOT
ATOM      1  C   UNL A   1      31.565  28.337  25.695  1.00  0.00     0.002 C 
ENDROOT
BRANCH   1   2
ATOM      2  C   UNL A   1      32.244  28.757  24.385  1.00  0.00     0.002 C 
BRANCH   2   3
ATOM      3  C   UNL A   1      31.314  28.789  23.171  1.00  0.00     0.021 C 
BRANCH   3   4
ATOM      4  C   UNL A   1      30.840  27.402  22.741  1.00  0.00     0.116 C 
BRANCH   4   5
ATOM      5  N   UNL A   1      31.583  26.910  21.589  1.00  0.00    -0.354 N 
ATOM      6  C   UNL A   1      32.329  25.772  21.427  1.00  0.00     0.254 C 
ATOM      7  O   UNL A   1      32.987  25.689  20.386  1.00  0.00    -0.272 OA
ATOM      8  H   UNL A   1      31.542  27.491  20.795  1.00  0.00     0.163 HD
BRANCH   6   9
ATOM      9  C   UNL A   1      32.521  24.781  22.584  1.00  0.00     0.212 C 
ATOM     10  C   UNL A   1      31.286  24.994  23.501  1.00  0.00     0.056 C 
BRANCH   9  11
ATOM     11  N   UNL A   1      32.549  23.344  22.166  1.00  0.00    -0.334 N 
ATOM     12  C   UNL A   1      32.526  22.170  22.835  1.00  0.00     0.232 C 
ATOM     13  H   UNL A   1      32.596  23.229  21.190  1.00  0.00     0.164 HD
ATOM     14  O   UNL A   1      31.998  21.258  22.174  1.00  0.00    -0.274 OA
BRANCH  12  15
ATOM     15  C   UNL A   1      33.102  21.792  24.192  1.00  0.00     0.150 C 
ATOM     16  C   UNL A   1      32.367  20.503  24.638  1.00  0.00     0.248 C 
ATOM     17  C   UNL A   1      34.495  21.345  24.444  1.00  0.00     0.010 A 
ATOM     18  O   UNL A   1      33.291  19.390  24.650  1.00  0.00    -0.492 OA
ATOM     19  C   UNL A   1      34.522  19.977  24.665  1.00  0.00     0.123 A 
ATOM     20  C   UNL A   1      35.660  22.070  24.625  1.00  0.00     0.008 A 
ATOM     21  C   UNL A   1      35.688  19.277  24.917  1.00  0.00     0.047 A 
ATOM     22  C   UNL A   1      36.859  21.389  24.863  1.00  0.00     0.001 A 
ATOM     23  C   UNL A   1      36.879  19.995  24.985  1.00  0.00     0.004 A 
ENDBRANCH  12  15
ENDBRANCH   9  11
BRANCH   9  24
ATOM     24  C   UNL A   1      33.742  25.157  23.456  1.00  0.00     0.420 C 
ATOM     25  F   UNL A   1      34.873  24.493  23.143  1.00  0.00    -0.168 F 
ATOM     26  F   UNL A   1      34.029  26.482  23.287  1.00  0.00    -0.168 F 
ATOM     27  F   UNL A   1      33.518  25.011  24.777  1.00  0.00    -0.168 F 
ENDBRANCH   9  24
ENDBRANCH   6   9
ENDBRANCH   4   5
ENDBRANCH   3   4
ENDBRANCH   2   3
ENDBRANCH   1   2
BRANCH   1  28
ATOM     28  C   UNL A   1      32.461  27.649  26.720  1.00  0.00     0.021 C 
BRANCH  28  29
ATOM     29  C   UNL A   1      33.773  28.359  27.003  1.00  0.00     0.116 C 
BRANCH  29  30
ATOM     30  N   UNL A   1      33.598  29.698  27.547  1.00  0.00    -0.352 N 
ATOM     31  C   UNL A   1      34.530  30.474  28.196  1.00  0.00     0.251 C 
ATOM     32  H   UNL A   1      32.705  30.096  27.439  1.00  0.00     0.163 HD
ATOM     33  O   UNL A   1      34.223  31.553  28.684  1.00  0.00    -0.269 OA
BRANCH  31  34
ATOM     34  C   UNL A   1      35.903  29.945  28.330  1.00  0.00     0.039 A 
ATOM     35  C   UNL A   1      36.784  30.074  27.257  1.00  0.00     0.014 A 
ATOM     36  C   UNL A   1      36.338  29.435  29.556  1.00  0.00     0.014 A 
ATOM     37  C   UNL A   1      38.129  29.756  27.438  1.00  0.00     0.010 A 
ATOM     38  C   UNL A   1      37.693  29.213  29.761  1.00  0.00     0.010 A 
ATOM     39  C   UNL A   1      38.602  29.365  28.704  1.00  0.00    -0.014 A 
BRANCH  39  40
ATOM     40  C   UNL A   1      40.046  29.110  28.933  1.00  0.00     0.031 A 
ATOM     41  C   UNL A   1      40.645  27.782  28.561  1.00  0.00     0.074 A 
ATOM     42  C   UNL A   1      40.802  30.056  29.527  1.00  0.00     0.049 A 
ATOM     43  N   UNL A   1      41.879  27.369  28.680  1.00  0.00    -0.248 NA
ATOM     44  C   UNL A   1      39.726  26.767  28.017  1.00  0.00     0.031 C 
ATOM     45  C   UNL A   1      40.316  31.352  30.008  1.00  0.00     0.029 A 
ATOM     46  N   UNL A   1      42.141  30.076  29.822  1.00  0.00    -0.354 N 
ATOM     47  C   UNL A   1      41.881  26.048  28.250  1.00  0.00     0.074 A 
ATOM     48  C   UNL A   1      40.513  25.705  27.929  1.00  0.00     0.031 C 
ATOM     49  C   UNL A   1      41.351  32.060  30.488  1.00  0.00     0.029 A 
ATOM     50  C   UNL A   1      42.566  31.261  30.376  1.00  0.00     0.049 A 
ATOM     51  H   UNL A   1      42.742  29.315  29.654  1.00  0.00     0.167 HD
ATOM     52  C   UNL A   1      42.930  25.205  28.104  1.00  0.00     0.037 A 
ATOM     53  C   UNL A   1      43.802  31.661  30.735  1.00  0.00     0.037 A 
ATOM     54  C   UNL A   1      44.293  25.571  28.384  1.00  0.00     0.049 A 
ATOM     55  C   UNL A   1      44.959  30.726  30.520  1.00  0.00     0.074 A 
ATOM     56  C   UNL A   1      45.444  24.828  28.184  1.00  0.00     0.029 A 
ATOM     57  N   UNL A   1      44.689  26.786  28.923  1.00  0.00    -0.354 N 
ATOM     58  N   UNL A   1      44.956  29.510  30.025  1.00  0.00    -0.248 NA
ATOM     59  C   UNL A   1      46.288  31.220  30.900  1.00  0.00     0.031 C 
ATOM     60  C   UNL A   1      46.533  25.581  28.641  1.00  0.00     0.029 A 
ATOM     61  C   UNL A   1      46.064  26.809  29.086  1.00  0.00     0.049 A 
ATOM     62  H   UNL A   1      44.082  27.525  29.156  1.00  0.00     0.167 HD
ATOM     63  C   UNL A   1      46.286  29.102  30.016  1.00  0.00     0.074 A 
ATOM     64  C   UNL A   1      47.063  30.209  30.536  1.00  0.00     0.031 C 
ATOM     65  C   UNL A   1      46.816  27.919  29.614  1.00  0.00     0.037 A 
BRANCH  52  66
ATOM     66  C   UNL A   1      42.636  23.811  27.618  1.00  0.00     0.058 A 
ATOM     67  C   UNL A   1      42.436  22.744  28.510  1.00  0.00     0.135 A 
ATOM     68  C   UNL A   1      42.561  23.536  26.244  1.00  0.00     0.135 A 
ATOM     69  F   UNL A   1      42.516  22.945  29.834  1.00  0.00    -0.206 F 
ATOM     70  C   UNL A   1      42.218  21.447  28.057  1.00  0.00     0.059 A 
ATOM     71  C   UNL A   1      42.311  22.252  25.768  1.00  0.00     0.059 A 
ATOM     72  F   UNL A   1      42.743  24.518  25.347  1.00  0.00    -0.206 F 
ATOM     73  C   UNL A   1      42.163  21.210  26.682  1.00  0.00     0.060 A 
BRANCH  73  74
ATOM     74  S   UNL A   1      41.897  19.520  26.107  1.00  0.00     0.124 S 
ATOM     75  O   UNL A   1      42.785  19.465  24.949  1.00  0.00    -0.237 OA
ATOM     76  O   UNL A   1      42.312  18.727  27.260  1.00  0.00    -0.237 OA
ATOM     77  O   UNL A   1      40.470  19.484  25.806  1.00  0.00    -0.744 OA
ENDBRANCH  73  74
ENDBRANCH  52  66
BRANCH  53  78
ATOM     78  C   UNL A   1      44.013  33.032  31.270  1.00  0.00     0.058 A 
ATOM     79  C   UNL A   1      44.177  34.122  30.400  1.00  0.00     0.135 A 
ATOM     80  C   UNL A   1      44.032  33.289  32.649  1.00  0.00     0.135 A 
ATOM     81  F   UNL A   1      44.171  33.926  29.073  1.00  0.00    -0.206 F 
ATOM     82  C   UNL A   1      44.364  35.415  30.877  1.00  0.00     0.059 A 
ATOM     83  C   UNL A   1      44.195  34.578  33.150  1.00  0.00     0.059 A 
ATOM     84  F   UNL A   1      43.862  32.285  33.523  1.00  0.00    -0.206 F 
ATOM     85  C   UNL A   1      44.367  35.634  32.255  1.00  0.00     0.060 A 
BRANCH  85  86
ATOM     86  S   UNL A   1      44.550  37.325  32.863  1.00  0.00     0.124 S 
ATOM     87  O   UNL A   1      43.235  37.574  33.442  1.00  0.00    -0.237 OA
ATOM     88  O   UNL A   1      45.651  37.193  33.811  1.00  0.00    -0.237 OA
ATOM     89  O   UNL A   1      44.862  38.082  31.654  1.00  0.00    -0.744 OA
ENDBRANCH  85  86
ENDBRANCH  53  78
BRANCH  65  90
ATOM     90  C   UNL A   1      48.309  27.775  29.711  1.00  0.00     0.058 A 
ATOM     91  C   UNL A   1      48.924  27.254  30.859  1.00  0.00     0.135 A 
ATOM     92  C   UNL A   1      49.131  28.152  28.638  1.00  0.00     0.135 A 
ATOM     93  F   UNL A   1      48.182  26.883  31.915  1.00  0.00    -0.206 F 
ATOM     94  C   UNL A   1      50.308  27.148  30.956  1.00  0.00     0.059 A 
ATOM     95  C   UNL A   1      50.515  28.028  28.702  1.00  0.00     0.059 A 
ATOM     96  F   UNL A   1      48.591  28.644  27.511  1.00  0.00    -0.206 F 
ATOM     97  C   UNL A   1      51.094  27.543  29.873  1.00  0.00     0.060 A 
BRANCH  97  98
ATOM     98  S   UNL A   1      52.890  27.404  30.008  1.00  0.00     0.124 S 
ATOM     99  O   UNL A   1      53.054  27.131  31.433  1.00  0.00    -0.237 OA
ATOM    100  O   UNL A   1      53.187  26.292  29.111  1.00  0.00    -0.237 OA
ATOM    101  O   UNL A   1      53.365  28.708  29.558  1.00  0.00    -0.744 OA
ENDBRANCH  97  98
ENDBRANCH  65  90
ENDBRANCH  39  40
ENDBRANCH  31  34
ENDBRANCH  29  30
ENDBRANCH  28  29
ENDBRANCH   1  28
TORSDOF 19
ENDMDL
