MODEL 1
REMARK VINA RESULT:      -9.9      0.000      0.000
REMARK SMILES CCc1cc(/C=C/C(=O)NCCCCCCNC(=O)c2ccc(-c3c4nc(c(-c5c(F)cc(S(=O)(=O)[O-])cc5F)c5ccc([nH]5)c(-c5c(F)cc(S(=O)(=O)[O-])cc5F)c5nc(c(-c6c(F)cc(S(=O)(=O)[O-])cc6F)c6ccc3[nH]6)C=C5)C=C4)cc2)cc(C(=O)c2ccccc2)c1
REMARK SMILES IDX 13 1 12 2 11 3 10 4 8 5 9 6 7 8 6 9 5 10 3 11 4 12 96 13
REMARK SMILES IDX 87 14 86 15 2 16 1 17 88 18 89 19 90 20 91 21 95 22 92 23
REMARK SMILES IDX 94 24 93 25 14 26 15 27 16 28 17 29 18 30 19 32 20 33 21 34
REMARK SMILES IDX 85 35 22 36 84 37 23 38 24 39 25 40 78 41 26 42 83 43 77 44
REMARK SMILES IDX 79 45 27 46 82 47 76 48 75 49 28 51 62 52 41 53 61 54 42 55
REMARK SMILES IDX 45 56 60 57 80 58 43 59 44 60 59 62 81 63 46 64 29 65 30 66
REMARK SMILES IDX 39 67 31 68 32 69 38 70 40 71 33 72 34 73 35 74 36 75 37 76
REMARK SMILES IDX 63 77 64 78 73 79 65 80 66 81 72 82 74 83 67 84 68 85 69 86
REMARK SMILES IDX 70 87 71 88 47 89 48 90 57 91 49 92 50 93 56 94 58 95 51 96
REMARK SMILES IDX 52 97 53 98 54 99 55 100
REMARK H PARENT 10 7 17 31 79 50 45 61
REMARK Flexibility Score: inf
ROOT
ATOM      1  C   UNL A   1      41.292  19.284  26.279  1.00  0.00     0.002 C 
ENDROOT
BRANCH   1   2
ATOM      2  C   UNL A   1      42.808  19.049  26.211  1.00  0.00     0.021 C 
BRANCH   2   3
ATOM      3  C   UNL A   1      43.417  19.355  24.843  1.00  0.00     0.116 C 
BRANCH   3   4
ATOM      4  N   UNL A   1      44.792  18.892  24.779  1.00  0.00    -0.353 N 
ATOM      5  C   UNL A   1      45.952  19.492  25.144  1.00  0.00     0.243 C 
ATOM      6  O   UNL A   1      47.007  18.862  25.080  1.00  0.00    -0.270 OA
ATOM      7  H   UNL A   1      44.901  17.989  24.404  1.00  0.00     0.163 HD
BRANCH   5   8
ATOM      8  C   UNL A   1      45.976  20.866  25.698  1.00  0.00     0.072 C 
ATOM      9  C   UNL A   1      46.065  21.992  24.975  1.00  0.00     0.014 C 
BRANCH   9  10
ATOM     10  C   UNL A   1      46.157  23.331  25.568  1.00  0.00    -0.024 A 
ATOM     11  C   UNL A   1      46.777  25.696  25.410  1.00  0.00    -0.047 A 
ATOM     12  C   UNL A   1      46.752  24.397  24.877  1.00  0.00     0.011 A 
ATOM     13  C   UNL A   1      46.197  25.912  26.664  1.00  0.00     0.016 A 
ATOM     14  C   UNL A   1      45.561  24.868  27.351  1.00  0.00     0.023 A 
ATOM     15  C   UNL A   1      45.557  23.577  26.807  1.00  0.00     0.020 A 
BRANCH  11  16
ATOM     16  C   UNL A   1      47.393  26.797  24.574  1.00  0.00     0.032 C 
ATOM     17  C   UNL A   1      46.553  28.049  24.354  1.00  0.00     0.009 C 
ENDBRANCH  11  16
BRANCH  14  18
ATOM     18  C   UNL A   1      44.896  25.090  28.667  1.00  0.00     0.193 C 
ATOM     19  O   UNL A   1      43.895  24.444  28.961  1.00  0.00    -0.289 OA
BRANCH  18  20
ATOM     20  C   UNL A   1      45.439  26.067  29.642  1.00  0.00     0.022 A 
ATOM     21  C   UNL A   1      45.959  25.590  30.849  1.00  0.00     0.012 A 
ATOM     22  C   UNL A   1      45.442  27.441  29.370  1.00  0.00     0.012 A 
ATOM     23  C   UNL A   1      46.532  26.481  31.757  1.00  0.00     0.001 A 
ATOM     24  C   UNL A   1      46.019  28.328  30.281  1.00  0.00     0.001 A 
ATOM     25  C   UNL A   1      46.572  27.846  31.468  1.00  0.00     0.000 A 
ENDBRANCH  18  20
ENDBRANCH  14  18
ENDBRANCH   9  10
ENDBRANCH   5   8
ENDBRANCH   3   4
ENDBRANCH   2   3
ENDBRANCH   1   2
BRANCH   1  26
ATOM     26  C   UNL A   1      40.872  20.735  26.548  1.00  0.00     0.002 C 
BRANCH  26  27
ATOM     27  C   UNL A   1      41.829  21.538  27.436  1.00  0.00     0.021 C 
BRANCH  27  28
ATOM     28  C   UNL A   1      41.470  23.014  27.586  1.00  0.00     0.116 C 
BRANCH  28  29
ATOM     29  N   UNL A   1      41.841  23.776  26.407  1.00  0.00    -0.352 N 
ATOM     30  C   UNL A   1      41.731  25.121  26.164  1.00  0.00     0.251 C 
ATOM     31  H   UNL A   1      42.231  23.248  25.673  1.00  0.00     0.163 HD
ATOM     32  O   UNL A   1      41.880  25.539  25.019  1.00  0.00    -0.269 OA
BRANCH  30  33
ATOM     33  C   UNL A   1      41.436  26.065  27.265  1.00  0.00     0.039 A 
ATOM     34  C   UNL A   1      42.263  27.180  27.430  1.00  0.00     0.014 A 
ATOM     35  C   UNL A   1      40.404  25.822  28.177  1.00  0.00     0.014 A 
ATOM     36  C   UNL A   1      42.044  28.056  28.494  1.00  0.00     0.010 A 
ATOM     37  C   UNL A   1      40.145  26.732  29.201  1.00  0.00     0.010 A 
ATOM     38  C   UNL A   1      40.981  27.842  29.385  1.00  0.00    -0.014 A 
BRANCH  38  39
ATOM     39  C   UNL A   1      40.769  28.750  30.541  1.00  0.00     0.031 A 
ATOM     40  C   UNL A   1      41.630  28.620  31.771  1.00  0.00     0.074 A 
ATOM     41  C   UNL A   1      39.791  29.675  30.493  1.00  0.00     0.049 A 
ATOM     42  N   UNL A   1      41.604  29.321  32.876  1.00  0.00    -0.248 NA
ATOM     43  C   UNL A   1      42.636  27.547  31.767  1.00  0.00     0.031 C 
ATOM     44  C   UNL A   1      38.857  29.860  29.380  1.00  0.00     0.029 A 
ATOM     45  N   UNL A   1      39.420  30.635  31.401  1.00  0.00    -0.354 N 
ATOM     46  C   UNL A   1      42.576  28.766  33.700  1.00  0.00     0.074 A 
ATOM     47  C   UNL A   1      43.137  27.638  32.991  1.00  0.00     0.031 C 
ATOM     48  C   UNL A   1      38.039  30.888  29.659  1.00  0.00     0.029 A 
ATOM     49  C   UNL A   1      38.376  31.421  30.976  1.00  0.00     0.049 A 
ATOM     50  H   UNL A   1      39.860  30.748  32.274  1.00  0.00     0.167 HD
ATOM     51  C   UNL A   1      42.984  29.176  34.926  1.00  0.00     0.037 A 
ATOM     52  C   UNL A   1      37.767  32.460  31.577  1.00  0.00     0.037 A 
ATOM     53  C   UNL A   1      42.443  30.319  35.615  1.00  0.00     0.049 A 
ATOM     54  C   UNL A   1      38.264  32.921  32.921  1.00  0.00     0.074 A 
ATOM     55  C   UNL A   1      42.821  30.851  36.835  1.00  0.00     0.029 A 
ATOM     56  N   UNL A   1      41.409  31.112  35.136  1.00  0.00    -0.354 N 
ATOM     57  N   UNL A   1      39.226  32.423  33.660  1.00  0.00    -0.248 NA
ATOM     58  C   UNL A   1      37.603  34.098  33.503  1.00  0.00     0.031 C 
ATOM     59  C   UNL A   1      41.996  31.948  37.109  1.00  0.00     0.029 A 
ATOM     60  C   UNL A   1      41.131  32.123  36.040  1.00  0.00     0.049 A 
ATOM     61  H   UNL A   1      40.942  30.976  34.280  1.00  0.00     0.167 HD
ATOM     62  C   UNL A   1      39.304  33.240  34.783  1.00  0.00     0.074 A 
ATOM     63  C   UNL A   1      38.302  34.272  34.617  1.00  0.00     0.031 C 
ATOM     64  C   UNL A   1      40.130  33.144  35.855  1.00  0.00     0.037 A 
BRANCH  51  65
ATOM     65  C   UNL A   1      44.076  28.384  35.595  1.00  0.00     0.058 A 
ATOM     66  C   UNL A   1      43.787  27.369  36.521  1.00  0.00     0.135 A 
ATOM     67  C   UNL A   1      45.425  28.629  35.293  1.00  0.00     0.135 A 
ATOM     68  F   UNL A   1      42.515  27.103  36.858  1.00  0.00    -0.206 F 
ATOM     69  C   UNL A   1      44.796  26.648  37.150  1.00  0.00     0.059 A 
ATOM     70  C   UNL A   1      46.452  27.900  35.891  1.00  0.00     0.059 A 
ATOM     71  F   UNL A   1      45.759  29.587  34.415  1.00  0.00    -0.206 F 
ATOM     72  C   UNL A   1      46.126  26.923  36.832  1.00  0.00     0.060 A 
BRANCH  72  73
ATOM     73  S   UNL A   1      47.426  25.982  37.659  1.00  0.00     0.124 S 
ATOM     74  O   UNL A   1      48.124  27.033  38.393  1.00  0.00    -0.237 OA
ATOM     75  O   UNL A   1      46.664  25.040  38.472  1.00  0.00    -0.237 OA
ATOM     76  O   UNL A   1      48.172  25.388  36.553  1.00  0.00    -0.744 OA
ENDBRANCH  72  73
ENDBRANCH  51  65
BRANCH  52  77
ATOM     77  C   UNL A   1      36.651  33.164  30.893  1.00  0.00     0.058 A 
ATOM     78  C   UNL A   1      35.327  33.010  31.330  1.00  0.00     0.135 A 
ATOM     79  C   UNL A   1      36.885  34.014  29.803  1.00  0.00     0.135 A 
ATOM     80  F   UNL A   1      35.052  32.205  32.368  1.00  0.00    -0.206 F 
ATOM     81  C   UNL A   1      34.270  33.661  30.700  1.00  0.00     0.059 A 
ATOM     82  C   UNL A   1      35.849  34.693  29.170  1.00  0.00     0.059 A 
ATOM     83  F   UNL A   1      38.137  34.209  29.358  1.00  0.00    -0.206 F 
ATOM     84  C   UNL A   1      34.542  34.501  29.619  1.00  0.00     0.060 A 
BRANCH  84  85
ATOM     85  S   UNL A   1      33.171  35.378  28.837  1.00  0.00     0.124 S 
ATOM     86  O   UNL A   1      33.878  36.379  28.045  1.00  0.00    -0.237 OA
ATOM     87  O   UNL A   1      32.515  34.315  28.081  1.00  0.00    -0.237 OA
ATOM     88  O   UNL A   1      32.410  35.891  29.972  1.00  0.00    -0.744 OA
ENDBRANCH  84  85
ENDBRANCH  52  77
BRANCH  64  89
ATOM     89  C   UNL A   1      40.001  34.204  36.912  1.00  0.00     0.058 A 
ATOM     90  C   UNL A   1      40.724  35.405  36.844  1.00  0.00     0.135 A 
ATOM     91  C   UNL A   1      39.129  34.024  37.998  1.00  0.00     0.135 A 
ATOM     92  F   UNL A   1      41.573  35.625  35.828  1.00  0.00    -0.206 F 
ATOM     93  C   UNL A   1      40.618  36.374  37.836  1.00  0.00     0.059 A 
ATOM     94  C   UNL A   1      38.986  34.991  38.987  1.00  0.00     0.059 A 
ATOM     95  F   UNL A   1      38.403  32.899  38.102  1.00  0.00    -0.206 F 
ATOM     96  C   UNL A   1      39.750  36.154  38.908  1.00  0.00     0.060 A 
BRANCH  96  97
ATOM     97  S   UNL A   1      39.617  37.417  40.191  1.00  0.00     0.124 S 
ATOM     98  O   UNL A   1      40.669  38.347  39.797  1.00  0.00    -0.237 OA
ATOM     99  O   UNL A   1      38.250  37.898  40.020  1.00  0.00    -0.237 OA
ATOM    100  O   UNL A   1      39.863  36.674  41.423  1.00  0.00    -0.744 OA
ENDBRANCH  96  97
ENDBRANCH  64  89
ENDBRANCH  38  39
ENDBRANCH  30  33
ENDBRANCH  28  29
ENDBRANCH  27  28
ENDBRANCH  26  27
ENDBRANCH   1  26
TORSDOF 20
ENDMDL
MODEL 2
REMARK VINA RESULT:      -9.8      3.625      5.346
REMARK SMILES CCc1cc(/C=C/C(=O)NCCCCCCNC(=O)c2ccc(-c3c4nc(c(-c5c(F)cc(S(=O)(=O)[O-])cc5F)c5ccc([nH]5)c(-c5c(F)cc(S(=O)(=O)[O-])cc5F)c5nc(c(-c6c(F)cc(S(=O)(=O)[O-])cc6F)c6ccc3[nH]6)C=C5)C=C4)cc2)cc(C(=O)c2ccccc2)c1
REMARK SMILES IDX 13 1 12 2 11 3 10 4 8 5 9 6 7 8 6 9 5 10 3 11 4 12 96 13
REMARK SMILES IDX 87 14 86 15 2 16 1 17 88 18 89 19 90 20 91 21 95 22 92 23
REMARK SMILES IDX 94 24 93 25 14 26 15 27 16 28 17 29 18 30 19 32 20 33 21 34
REMARK SMILES IDX 85 35 22 36 84 37 23 38 24 39 25 40 78 41 26 42 83 43 77 44
REMARK SMILES IDX 79 45 27 46 82 47 76 48 75 49 28 51 62 52 41 53 61 54 42 55
REMARK SMILES IDX 45 56 60 57 80 58 43 59 44 60 59 62 81 63 46 64 29 65 30 66
REMARK SMILES IDX 39 67 31 68 32 69 38 70 40 71 33 72 34 73 35 74 36 75 37 76
REMARK SMILES IDX 63 77 64 78 73 79 65 80 66 81 72 82 74 83 67 84 68 85 69 86
REMARK SMILES IDX 70 87 71 88 47 89 48 90 57 91 49 92 50 93 56 94 58 95 51 96
REMARK SMILES IDX 52 97 53 98 54 99 55 100
REMARK H PARENT 10 7 17 31 79 50 45 61
REMARK Flexibility Score: inf
ROOT
ATOM      1  C   UNL A   1      42.961  23.923  27.348  1.00  0.00     0.002 C 
ENDROOT
BRANCH   1   2
ATOM      2  C   UNL A   1      43.520  24.867  26.274  1.00  0.00     0.021 C 
BRANCH   2   3
ATOM      3  C   UNL A   1      44.914  25.407  26.594  1.00  0.00     0.116 C 
BRANCH   3   4
ATOM      4  N   UNL A   1      45.566  25.889  25.390  1.00  0.00    -0.353 N 
ATOM      5  C   UNL A   1      46.032  27.121  25.061  1.00  0.00     0.243 C 
ATOM      6  O   UNL A   1      46.640  27.276  24.002  1.00  0.00    -0.270 OA
ATOM      7  H   UNL A   1      45.691  25.207  24.692  1.00  0.00     0.163 HD
BRANCH   5   8
ATOM      8  C   UNL A   1      45.899  28.273  25.981  1.00  0.00     0.072 C 
ATOM      9  C   UNL A   1      46.640  29.390  25.938  1.00  0.00     0.014 C 
BRANCH   9  10
ATOM     10  C   UNL A   1      46.523  30.480  26.914  1.00  0.00    -0.024 A 
ATOM     11  C   UNL A   1      47.548  32.216  28.307  1.00  0.00    -0.047 A 
ATOM     12  C   UNL A   1      47.657  31.125  27.429  1.00  0.00     0.011 A 
ATOM     13  C   UNL A   1      46.269  32.650  28.672  1.00  0.00     0.016 A 
ATOM     14  C   UNL A   1      45.124  32.044  28.136  1.00  0.00     0.023 A 
ATOM     15  C   UNL A   1      45.256  30.950  27.271  1.00  0.00     0.020 A 
BRANCH  11  16
ATOM     16  C   UNL A   1      48.822  32.885  28.772  1.00  0.00     0.032 C 
ATOM     17  C   UNL A   1      49.940  33.029  27.746  1.00  0.00     0.009 C 
ENDBRANCH  11  16
BRANCH  14  18
ATOM     18  C   UNL A   1      43.755  32.524  28.477  1.00  0.00     0.193 C 
ATOM     19  O   UNL A   1      43.002  31.808  29.130  1.00  0.00    -0.289 OA
BRANCH  18  20
ATOM     20  C   UNL A   1      43.291  33.870  28.059  1.00  0.00     0.022 A 
ATOM     21  C   UNL A   1      43.654  34.340  26.792  1.00  0.00     0.012 A 
ATOM     22  C   UNL A   1      42.503  34.662  28.903  1.00  0.00     0.012 A 
ATOM     23  C   UNL A   1      43.181  35.575  26.350  1.00  0.00     0.001 A 
ATOM     24  C   UNL A   1      42.031  35.897  28.455  1.00  0.00     0.001 A 
ATOM     25  C   UNL A   1      42.362  36.347  27.176  1.00  0.00     0.000 A 
ENDBRANCH  18  20
ENDBRANCH  14  18
ENDBRANCH   9  10
ENDBRANCH   5   8
ENDBRANCH   3   4
ENDBRANCH   2   3
ENDBRANCH   1   2
BRANCH   1  26
ATOM     26  C   UNL A   1      42.952  22.438  26.965  1.00  0.00     0.002 C 
BRANCH  26  27
ATOM     27  C   UNL A   1      41.818  22.013  26.025  1.00  0.00     0.021 C 
BRANCH  27  28
ATOM     28  C   UNL A   1      40.474  21.785  26.711  1.00  0.00     0.116 C 
BRANCH  28  29
ATOM     29  N   UNL A   1      39.371  22.274  25.903  1.00  0.00    -0.352 N 
ATOM     30  C   UNL A   1      38.698  23.466  25.970  1.00  0.00     0.251 C 
ATOM     31  H   UNL A   1      39.060  21.655  25.203  1.00  0.00     0.163 HD
ATOM     32  O   UNL A   1      37.642  23.595  25.357  1.00  0.00    -0.269 OA
BRANCH  30  33
ATOM     33  C   UNL A   1      39.233  24.590  26.769  1.00  0.00     0.039 A 
ATOM     34  C   UNL A   1      38.928  24.648  28.132  1.00  0.00     0.014 A 
ATOM     35  C   UNL A   1      39.967  25.623  26.175  1.00  0.00     0.014 A 
ATOM     36  C   UNL A   1      39.372  25.727  28.899  1.00  0.00     0.010 A 
ATOM     37  C   UNL A   1      40.465  26.666  26.954  1.00  0.00     0.010 A 
ATOM     38  C   UNL A   1      40.148  26.742  28.318  1.00  0.00    -0.014 A 
BRANCH  38  39
ATOM     39  C   UNL A   1      40.587  27.911  29.121  1.00  0.00     0.031 A 
ATOM     40  C   UNL A   1      41.962  27.930  29.737  1.00  0.00     0.074 A 
ATOM     41  C   UNL A   1      39.745  28.944  29.312  1.00  0.00     0.049 A 
ATOM     42  N   UNL A   1      42.530  28.859  30.464  1.00  0.00    -0.248 NA
ATOM     43  C   UNL A   1      42.799  26.737  29.530  1.00  0.00     0.031 C 
ATOM     44  C   UNL A   1      38.370  29.017  28.812  1.00  0.00     0.029 A 
ATOM     45  N   UNL A   1      39.920  30.132  29.976  1.00  0.00    -0.354 N 
ATOM     46  C   UNL A   1      43.779  28.359  30.810  1.00  0.00     0.074 A 
ATOM     47  C   UNL A   1      43.868  27.024  30.260  1.00  0.00     0.031 C 
ATOM     48  C   UNL A   1      37.836  30.198  29.164  1.00  0.00     0.029 A 
ATOM     49  C   UNL A   1      38.821  30.956  29.929  1.00  0.00     0.049 A 
ATOM     50  H   UNL A   1      40.753  30.370  30.442  1.00  0.00     0.167 HD
ATOM     51  C   UNL A   1      44.775  28.967  31.500  1.00  0.00     0.037 A 
ATOM     52  C   UNL A   1      38.634  32.189  30.439  1.00  0.00     0.037 A 
ATOM     53  C   UNL A   1      44.694  30.308  32.018  1.00  0.00     0.049 A 
ATOM     54  C   UNL A   1      39.768  32.859  31.167  1.00  0.00     0.074 A 
ATOM     55  C   UNL A   1      45.663  31.037  32.684  1.00  0.00     0.029 A 
ATOM     56  N   UNL A   1      43.576  31.125  31.920  1.00  0.00    -0.354 N 
ATOM     57  N   UNL A   1      40.966  32.396  31.433  1.00  0.00    -0.248 NA
ATOM     58  C   UNL A   1      39.530  34.226  31.648  1.00  0.00     0.031 C 
ATOM     59  C   UNL A   1      45.122  32.284  33.016  1.00  0.00     0.029 A 
ATOM     60  C   UNL A   1      43.829  32.347  32.521  1.00  0.00     0.049 A 
ATOM     61  H   UNL A   1      42.728  30.874  31.488  1.00  0.00     0.167 HD
ATOM     62  C   UNL A   1      41.634  33.424  32.090  1.00  0.00     0.074 A 
ATOM     63  C   UNL A   1      40.710  34.537  32.166  1.00  0.00     0.031 C 
ATOM     64  C   UNL A   1      42.897  33.444  32.585  1.00  0.00     0.037 A 
BRANCH  51  65
ATOM     65  C   UNL A   1      46.042  28.185  31.724  1.00  0.00     0.058 A 
ATOM     66  C   UNL A   1      47.098  28.213  30.799  1.00  0.00     0.135 A 
ATOM     67  C   UNL A   1      46.211  27.413  32.886  1.00  0.00     0.135 A 
ATOM     68  F   UNL A   1      46.983  28.922  29.664  1.00  0.00    -0.206 F 
ATOM     69  C   UNL A   1      48.262  27.479  30.998  1.00  0.00     0.059 A 
ATOM     70  C   UNL A   1      47.380  26.691  33.119  1.00  0.00     0.059 A 
ATOM     71  F   UNL A   1      45.235  27.350  33.804  1.00  0.00    -0.206 F 
ATOM     72  C   UNL A   1      48.392  26.717  32.160  1.00  0.00     0.060 A 
BRANCH  72  73
ATOM     73  S   UNL A   1      49.907  25.765  32.405  1.00  0.00     0.124 S 
ATOM     74  O   UNL A   1      50.876  26.824  32.672  1.00  0.00    -0.237 OA
ATOM     75  O   UNL A   1      49.566  24.916  33.541  1.00  0.00    -0.237 OA
ATOM     76  O   UNL A   1      50.077  25.066  31.134  1.00  0.00    -0.744 OA
ENDBRANCH  72  73
ENDBRANCH  51  65
BRANCH  52  77
ATOM     77  C   UNL A   1      37.337  32.886  30.238  1.00  0.00     0.058 A 
ATOM     78  C   UNL A   1      36.346  32.863  31.231  1.00  0.00     0.135 A 
ATOM     79  C   UNL A   1      37.069  33.601  29.062  1.00  0.00     0.135 A 
ATOM     80  F   UNL A   1      36.555  32.190  32.372  1.00  0.00    -0.206 F 
ATOM     81  C   UNL A   1      35.126  33.510  31.058  1.00  0.00     0.059 A 
ATOM     82  C   UNL A   1      35.866  34.275  28.875  1.00  0.00     0.059 A 
ATOM     83  F   UNL A   1      37.993  33.669  28.091  1.00  0.00    -0.206 F 
ATOM     84  C   UNL A   1      34.895  34.214  29.875  1.00  0.00     0.060 A 
BRANCH  84  85
ATOM     85  S   UNL A   1      33.328  35.090  29.678  1.00  0.00     0.124 S 
ATOM     86  O   UNL A   1      32.735  34.929  31.001  1.00  0.00    -0.237 OA
ATOM     87  O   UNL A   1      33.770  36.439  29.337  1.00  0.00    -0.237 OA
ATOM     88  O   UNL A   1      32.671  34.361  28.597  1.00  0.00    -0.744 OA
ENDBRANCH  84  85
ENDBRANCH  52  77
BRANCH  64  89
ATOM     89  C   UNL A   1      43.357  34.724  33.223  1.00  0.00     0.058 A 
ATOM     90  C   UNL A   1      43.028  35.047  34.549  1.00  0.00     0.135 A 
ATOM     91  C   UNL A   1      44.152  35.631  32.504  1.00  0.00     0.135 A 
ATOM     92  F   UNL A   1      42.268  34.215  35.278  1.00  0.00    -0.206 F 
ATOM     93  C   UNL A   1      43.439  36.244  35.128  1.00  0.00     0.059 A 
ATOM     94  C   UNL A   1      44.596  36.821  33.072  1.00  0.00     0.059 A 
ATOM     95  F   UNL A   1      44.507  35.363  31.237  1.00  0.00    -0.206 F 
ATOM     96  C   UNL A   1      44.218  37.127  34.378  1.00  0.00     0.060 A 
BRANCH  96  97
ATOM     97  S   UNL A   1      44.746  38.678  35.137  1.00  0.00     0.124 S 
ATOM     98  O   UNL A   1      46.038  38.893  34.494  1.00  0.00    -0.237 OA
ATOM     99  O   UNL A   1      43.684  39.599  34.747  1.00  0.00    -0.237 OA
ATOM    100  O   UNL A   1      44.798  38.357  36.560  1.00  0.00    -0.744 OA
ENDBRANCH  96  97
ENDBRANCH  64  89
ENDBRANCH  38  39
ENDBRANCH  30  33
ENDBRANCH  28  29
ENDBRANCH  27  28
ENDBRANCH  26  27
ENDBRANCH   1  26
TORSDOF 20
ENDMDL
MODEL 3
REMARK VINA RESULT:      -9.7      1.089      2.181
REMARK SMILES CCc1cc(/C=C/C(=O)NCCCCCCNC(=O)c2ccc(-c3c4nc(c(-c5c(F)cc(S(=O)(=O)[O-])cc5F)c5ccc([nH]5)c(-c5c(F)cc(S(=O)(=O)[O-])cc5F)c5nc(c(-c6c(F)cc(S(=O)(=O)[O-])cc6F)c6ccc3[nH]6)C=C5)C=C4)cc2)cc(C(=O)c2ccccc2)c1
REMARK SMILES IDX 13 1 12 2 11 3 10 4 8 5 9 6 7 8 6 9 5 10 3 11 4 12 96 13
REMARK SMILES IDX 87 14 86 15 2 16 1 17 88 18 89 19 90 20 91 21 95 22 92 23
REMARK SMILES IDX 94 24 93 25 14 26 15 27 16 28 17 29 18 30 19 32 20 33 21 34
REMARK SMILES IDX 85 35 22 36 84 37 23 38 24 39 25 40 78 41 26 42 83 43 77 44
REMARK SMILES IDX 79 45 27 46 82 47 76 48 75 49 28 51 62 52 41 53 61 54 42 55
REMARK SMILES IDX 45 56 60 57 80 58 43 59 44 60 59 62 81 63 46 64 29 65 30 66
REMARK SMILES IDX 39 67 31 68 32 69 38 70 40 71 33 72 34 73 35 74 36 75 37 76
REMARK SMILES IDX 63 77 64 78 73 79 65 80 66 81 72 82 74 83 67 84 68 85 69 86
REMARK SMILES IDX 70 87 71 88 47 89 48 90 57 91 49 92 50 93 56 94 58 95 51 96
REMARK SMILES IDX 52 97 53 98 54 99 55 100
REMARK H PARENT 10 7 17 31 79 50 45 61
REMARK Flexibility Score: inf
ROOT
ATOM      1  C   UNL A   1      41.296  19.462  26.128  1.00  0.00     0.002 C 
ENDROOT
BRANCH   1   2
ATOM      2  C   UNL A   1      42.784  19.139  25.931  1.00  0.00     0.021 C 
BRANCH   2   3
ATOM      3  C   UNL A   1      43.411  19.836  24.724  1.00  0.00     0.116 C 
BRANCH   3   4
ATOM      4  N   UNL A   1      44.821  19.509  24.617  1.00  0.00    -0.353 N 
ATOM      5  C   UNL A   1      45.924  20.158  25.069  1.00  0.00     0.243 C 
ATOM      6  O   UNL A   1      47.030  19.637  24.937  1.00  0.00    -0.270 OA
ATOM      7  H   UNL A   1      45.011  18.674  24.132  1.00  0.00     0.163 HD
BRANCH   5   8
ATOM      8  C   UNL A   1      45.825  21.446  25.792  1.00  0.00     0.072 C 
ATOM      9  C   UNL A   1      45.792  22.658  25.217  1.00  0.00     0.014 C 
BRANCH   9  10
ATOM     10  C   UNL A   1      45.765  23.915  25.975  1.00  0.00    -0.024 A 
ATOM     11  C   UNL A   1      45.615  25.121  28.102  1.00  0.00    -0.047 A 
ATOM     12  C   UNL A   1      45.569  23.927  27.363  1.00  0.00     0.011 A 
ATOM     13  C   UNL A   1      45.855  26.317  27.418  1.00  0.00     0.016 A 
ATOM     14  C   UNL A   1      46.093  26.320  26.036  1.00  0.00     0.023 A 
ATOM     15  C   UNL A   1      46.032  25.119  25.317  1.00  0.00     0.020 A 
BRANCH  11  16
ATOM     16  C   UNL A   1      45.445  25.036  29.603  1.00  0.00     0.032 C 
ATOM     17  C   UNL A   1      44.090  24.566  30.118  1.00  0.00     0.009 C 
ENDBRANCH  11  16
BRANCH  14  18
ATOM     18  C   UNL A   1      46.398  27.579  25.299  1.00  0.00     0.193 C 
ATOM     19  O   UNL A   1      46.052  27.699  24.128  1.00  0.00    -0.289 OA
BRANCH  18  20
ATOM     20  C   UNL A   1      47.094  28.706  25.967  1.00  0.00     0.022 A 
ATOM     21  C   UNL A   1      46.368  29.867  26.253  1.00  0.00     0.012 A 
ATOM     22  C   UNL A   1      48.448  28.621  26.315  1.00  0.00     0.012 A 
ATOM     23  C   UNL A   1      46.981  30.918  26.936  1.00  0.00     0.001 A 
ATOM     24  C   UNL A   1      49.056  29.674  27.001  1.00  0.00     0.001 A 
ATOM     25  C   UNL A   1      48.320  30.816  27.318  1.00  0.00     0.000 A 
ENDBRANCH  18  20
ENDBRANCH  14  18
ENDBRANCH   9  10
ENDBRANCH   5   8
ENDBRANCH   3   4
ENDBRANCH   2   3
ENDBRANCH   1   2
BRANCH   1  26
ATOM     26  C   UNL A   1      41.006  20.837  26.741  1.00  0.00     0.002 C 
BRANCH  26  27
ATOM     27  C   UNL A   1      42.096  21.380  27.672  1.00  0.00     0.021 C 
BRANCH  27  28
ATOM     28  C   UNL A   1      42.048  22.889  27.896  1.00  0.00     0.116 C 
BRANCH  28  29
ATOM     29  N   UNL A   1      42.219  23.620  26.653  1.00  0.00    -0.352 N 
ATOM     30  C   UNL A   1      41.923  24.925  26.356  1.00  0.00     0.251 C 
ATOM     31  H   UNL A   1      42.607  23.099  25.912  1.00  0.00     0.163 HD
ATOM     32  O   UNL A   1      41.920  25.289  25.184  1.00  0.00    -0.269 OA
BRANCH  30  33
ATOM     33  C   UNL A   1      41.609  25.890  27.433  1.00  0.00     0.039 A 
ATOM     34  C   UNL A   1      42.503  26.938  27.673  1.00  0.00     0.014 A 
ATOM     35  C   UNL A   1      40.487  25.729  28.253  1.00  0.00     0.014 A 
ATOM     36  C   UNL A   1      42.262  27.831  28.720  1.00  0.00     0.010 A 
ATOM     37  C   UNL A   1      40.214  26.658  29.256  1.00  0.00     0.010 A 
ATOM     38  C   UNL A   1      41.113  27.701  29.516  1.00  0.00    -0.014 A 
BRANCH  38  39
ATOM     39  C   UNL A   1      40.875  28.624  30.654  1.00  0.00     0.031 A 
ATOM     40  C   UNL A   1      41.717  28.522  31.900  1.00  0.00     0.074 A 
ATOM     41  C   UNL A   1      39.889  29.539  30.576  1.00  0.00     0.049 A 
ATOM     42  N   UNL A   1      41.667  29.239  32.993  1.00  0.00    -0.248 NA
ATOM     43  C   UNL A   1      42.733  27.458  31.928  1.00  0.00     0.031 C 
ATOM     44  C   UNL A   1      38.971  29.698  29.446  1.00  0.00     0.029 A 
ATOM     45  N   UNL A   1      39.495  30.508  31.463  1.00  0.00    -0.354 N 
ATOM     46  C   UNL A   1      42.630  28.706  33.841  1.00  0.00     0.074 A 
ATOM     47  C   UNL A   1      43.214  27.572  33.158  1.00  0.00     0.031 C 
ATOM     48  C   UNL A   1      38.139  30.722  29.696  1.00  0.00     0.029 A 
ATOM     49  C   UNL A   1      38.450  31.278  31.010  1.00  0.00     0.049 A 
ATOM     50  H   UNL A   1      39.919  30.640  32.341  1.00  0.00     0.167 HD
ATOM     51  C   UNL A   1      43.015  29.138  35.067  1.00  0.00     0.037 A 
ATOM     52  C   UNL A   1      37.821  32.320  31.586  1.00  0.00     0.037 A 
ATOM     53  C   UNL A   1      42.452  30.286  35.729  1.00  0.00     0.049 A 
ATOM     54  C   UNL A   1      38.292  32.807  32.930  1.00  0.00     0.074 A 
ATOM     55  C   UNL A   1      42.806  30.840  36.946  1.00  0.00     0.029 A 
ATOM     56  N   UNL A   1      41.419  31.062  35.222  1.00  0.00    -0.354 N 
ATOM     57  N   UNL A   1      39.247  32.329  33.691  1.00  0.00    -0.248 NA
ATOM     58  C   UNL A   1      37.611  33.985  33.483  1.00  0.00     0.031 C 
ATOM     59  C   UNL A   1      41.966  31.933  37.190  1.00  0.00     0.029 A 
ATOM     60  C   UNL A   1      41.117  32.084  36.106  1.00  0.00     0.049 A 
ATOM     61  H   UNL A   1      40.967  30.908  34.361  1.00  0.00     0.167 HD
ATOM     62  C   UNL A   1      39.299  33.163  34.803  1.00  0.00     0.074 A 
ATOM     63  C   UNL A   1      38.290  34.183  34.605  1.00  0.00     0.031 C 
ATOM     64  C   UNL A   1      40.109  33.092  35.889  1.00  0.00     0.037 A 
BRANCH  51  65
ATOM     65  C   UNL A   1      44.104  28.367  35.765  1.00  0.00     0.058 A 
ATOM     66  C   UNL A   1      45.450  28.758  35.684  1.00  0.00     0.135 A 
ATOM     67  C   UNL A   1      43.797  27.236  36.539  1.00  0.00     0.135 A 
ATOM     68  F   UNL A   1      45.801  29.823  34.945  1.00  0.00    -0.206 F 
ATOM     69  C   UNL A   1      46.457  28.038  36.315  1.00  0.00     0.059 A 
ATOM     70  C   UNL A   1      44.787  26.515  37.202  1.00  0.00     0.059 A 
ATOM     71  F   UNL A   1      42.527  26.817  36.651  1.00  0.00    -0.206 F 
ATOM     72  C   UNL A   1      46.117  26.914  37.070  1.00  0.00     0.060 A 
BRANCH  72  73
ATOM     73  S   UNL A   1      47.436  25.986  37.882  1.00  0.00     0.124 S 
ATOM     74  O   UNL A   1      48.624  26.571  37.269  1.00  0.00    -0.237 OA
ATOM     75  O   UNL A   1      47.226  26.306  39.290  1.00  0.00    -0.237 OA
ATOM     76  O   UNL A   1      47.155  24.602  37.510  1.00  0.00    -0.744 OA
ENDBRANCH  72  73
ENDBRANCH  51  65
BRANCH  52  77
ATOM     77  C   UNL A   1      36.709  33.002  30.873  1.00  0.00     0.058 A 
ATOM     78  C   UNL A   1      35.379  32.830  31.282  1.00  0.00     0.135 A 
ATOM     79  C   UNL A   1      36.954  33.851  29.783  1.00  0.00     0.135 A 
ATOM     80  F   UNL A   1      35.094  32.026  32.318  1.00  0.00    -0.206 F 
ATOM     81  C   UNL A   1      34.327  33.460  30.625  1.00  0.00     0.059 A 
ATOM     82  C   UNL A   1      35.922  34.510  29.124  1.00  0.00     0.059 A 
ATOM     83  F   UNL A   1      38.212  34.063  29.366  1.00  0.00    -0.206 F 
ATOM     84  C   UNL A   1      34.609  34.299  29.546  1.00  0.00     0.060 A 
BRANCH  84  85
ATOM     85  S   UNL A   1      33.242  35.150  28.728  1.00  0.00     0.124 S 
ATOM     86  O   UNL A   1      32.703  34.093  27.881  1.00  0.00    -0.237 OA
ATOM     87  O   UNL A   1      32.407  35.550  29.858  1.00  0.00    -0.237 OA
ATOM     88  O   UNL A   1      33.902  36.248  28.028  1.00  0.00    -0.744 OA
ENDBRANCH  84  85
ENDBRANCH  52  77
BRANCH  64  89
ATOM     89  C   UNL A   1      39.953  34.167  36.927  1.00  0.00     0.058 A 
ATOM     90  C   UNL A   1      40.676  35.369  36.859  1.00  0.00     0.135 A 
ATOM     91  C   UNL A   1      39.056  34.000  37.994  1.00  0.00     0.135 A 
ATOM     92  F   UNL A   1      41.548  35.576  35.861  1.00  0.00    -0.206 F 
ATOM     93  C   UNL A   1      40.544  36.351  37.835  1.00  0.00     0.059 A 
ATOM     94  C   UNL A   1      38.888  34.981  38.966  1.00  0.00     0.059 A 
ATOM     95  F   UNL A   1      38.330  32.875  38.098  1.00  0.00    -0.206 F 
ATOM     96  C   UNL A   1      39.651  36.145  38.888  1.00  0.00     0.060 A 
BRANCH  96  97
ATOM     97  S   UNL A   1      39.486  37.426  40.150  1.00  0.00     0.124 S 
ATOM     98  O   UNL A   1      38.487  38.301  39.549  1.00  0.00    -0.237 OA
ATOM     99  O   UNL A   1      39.044  36.666  41.315  1.00  0.00    -0.237 OA
ATOM    100  O   UNL A   1      40.833  37.981  40.247  1.00  0.00    -0.744 OA
ENDBRANCH  96  97
ENDBRANCH  64  89
ENDBRANCH  38  39
ENDBRANCH  30  33
ENDBRANCH  28  29
ENDBRANCH  27  28
ENDBRANCH  26  27
ENDBRANCH   1  26
TORSDOF 20
ENDMDL
