MODEL 1
REMARK VINA RESULT:     -12.3      0.000      0.000
REMARK SMILES COc1cc(F)ccc1-c1ccc(=O)n(CC(=O)NCc2ccc(C(=O)NCCCCCCNC(=O)c3ccc(-c4c5nc(c(-c6c(F)cc(S(=O)(=O)[O-])cc6F)c6ccc([nH]6)c(-c6c(F)cc(S(=O)(=O)[O-])cc6F)c6nc(c(-c7c(F)cc(S(=O)(=O)[O-])cc7F)c7ccc4[nH]7)C=C6)C=C5)cc3)cc2)n1
REMARK SMILES IDX 29 1 28 2 27 3 25 4 26 5 24 7 21 8 22 9 104 10 23 11 103 12
REMARK SMILES IDX 20 13 19 14 17 15 18 16 16 18 15 19 10 20 11 21 105 22 12 23
REMARK SMILES IDX 13 24 14 25 9 26 3 27 4 28 5 29 8 30 6 31 7 32 2 33 1 34
REMARK SMILES IDX 30 35 31 36 32 37 33 38 34 39 35 40 36 42 37 43 38 44 102 45
REMARK SMILES IDX 39 46 101 47 40 48 41 49 42 50 95 51 43 52 100 53 94 54
REMARK SMILES IDX 96 55 44 56 99 57 93 58 92 59 45 61 79 62 58 63 78 64 59 65
REMARK SMILES IDX 62 66 77 67 97 68 60 69 61 70 76 72 98 73 63 74 46 75 47 76
REMARK SMILES IDX 56 77 48 78 49 79 55 80 57 81 50 82 51 83 52 84 53 85 54 86
REMARK SMILES IDX 80 87 81 88 90 89 82 90 83 91 89 92 91 93 84 94 85 95 86 96
REMARK SMILES IDX 87 97 88 98 64 99 65 100 74 101 66 102 67 103 73 104 75 105
REMARK SMILES IDX 68 106 69 107 70 108 71 109 72 110
REMARK H PARENT 27 6 19 17 34 41 96 60 62 71
REMARK Flexibility Score: inf
ROOT
ATOM      1  C   UNL A   1      31.148  29.191  25.745  1.00  0.00     0.021 C 
ENDROOT
BRANCH   1   2
ATOM      2  C   UNL A   1      31.580  30.103  24.600  1.00  0.00     0.116 C 
BRANCH   2   3
ATOM      3  N   UNL A   1      30.693  30.060  23.456  1.00  0.00    -0.352 N 
ATOM      4  C   UNL A   1      30.157  28.995  22.774  1.00  0.00     0.251 C 
ATOM      5  O   UNL A   1      29.459  29.225  21.787  1.00  0.00    -0.269 OA
ATOM      6  H   UNL A   1      30.430  30.942  23.108  1.00  0.00     0.163 HD
BRANCH   4   7
ATOM      7  C   UNL A   1      30.442  27.584  23.150  1.00  0.00     0.039 A 
ATOM      8  C   UNL A   1      30.777  24.863  23.846  1.00  0.00    -0.029 A 
ATOM      9  C   UNL A   1      29.691  25.600  24.333  1.00  0.00     0.006 A 
ATOM     10  C   UNL A   1      31.731  25.530  23.064  1.00  0.00     0.006 A 
ATOM     11  C   UNL A   1      29.517  26.941  23.979  1.00  0.00     0.014 A 
ATOM     12  C   UNL A   1      31.585  26.887  22.752  1.00  0.00     0.014 A 
BRANCH   8  13
ATOM     13  C   UNL A   1      30.911  23.375  24.075  1.00  0.00     0.151 C 
BRANCH  13  14
ATOM     14  N   UNL A   1      30.510  22.951  25.399  1.00  0.00    -0.350 N 
ATOM     15  C   UNL A   1      31.099  23.196  26.604  1.00  0.00     0.242 C 
ATOM     16  O   UNL A   1      30.430  22.951  27.614  1.00  0.00    -0.273 OA
ATOM     17  H   UNL A   1      29.692  22.404  25.435  1.00  0.00     0.163 HD
BRANCH  15  18
ATOM     18  C   UNL A   1      32.450  23.911  26.715  1.00  0.00     0.248 C 
BRANCH  18  19
ATOM     19  N   UNL A   1      33.510  23.337  25.895  1.00  0.00    -0.220 N 
ATOM     20  C   UNL A   1      34.372  21.464  24.910  1.00  0.00     0.095 A 
ATOM     21  C   UNL A   1      35.458  22.220  24.257  1.00  0.00     0.037 A 
ATOM     22  N   UNL A   1      33.465  21.973  25.682  1.00  0.00    -0.169 NA
ATOM     23  C   UNL A   1      35.442  23.542  24.429  1.00  0.00     0.075 A 
ATOM     24  C   UNL A   1      34.399  24.188  25.252  1.00  0.00     0.267 A 
ATOM     25  O   UNL A   1      34.401  25.412  25.356  1.00  0.00    -0.268 OA
BRANCH  20  26
ATOM     26  C   UNL A   1      34.366  20.017  24.630  1.00  0.00     0.044 A 
ATOM     27  C   UNL A   1      33.228  19.414  24.073  1.00  0.00     0.131 A 
ATOM     28  C   UNL A   1      33.245  18.046  23.798  1.00  0.00     0.086 A 
ATOM     29  C   UNL A   1      34.380  17.301  24.108  1.00  0.00     0.126 A 
ATOM     30  C   UNL A   1      35.501  19.260  24.946  1.00  0.00     0.017 A 
ATOM     31  F   UNL A   1      34.397  15.991  23.833  1.00  0.00    -0.207 F 
ATOM     32  C   UNL A   1      35.504  17.891  24.680  1.00  0.00     0.040 A 
BRANCH  27  33
ATOM     33  O   UNL A   1      32.170  20.210  23.719  1.00  0.00    -0.496 OA
ATOM     34  C   UNL A   1      32.109  20.468  22.316  1.00  0.00     0.278 C 
ENDBRANCH  27  33
ENDBRANCH  20  26
ENDBRANCH  18  19
ENDBRANCH  15  18
ENDBRANCH  13  14
ENDBRANCH   8  13
ENDBRANCH   4   7
ENDBRANCH   2   3
ENDBRANCH   1   2
BRANCH   1  35
ATOM     35  C   UNL A   1      32.260  28.508  26.546  1.00  0.00     0.002 C 
BRANCH  35  36
ATOM     36  C   UNL A   1      33.038  29.374  27.539  1.00  0.00     0.002 C 
BRANCH  36  37
ATOM     37  C   UNL A   1      34.562  29.325  27.448  1.00  0.00     0.021 C 
BRANCH  37  38
ATOM     38  C   UNL A   1      35.302  30.602  27.825  1.00  0.00     0.116 C 
BRANCH  38  39
ATOM     39  N   UNL A   1      35.348  30.853  29.254  1.00  0.00    -0.352 N 
ATOM     40  C   UNL A   1      36.352  30.569  30.156  1.00  0.00     0.251 C 
ATOM     41  H   UNL A   1      34.550  31.289  29.633  1.00  0.00     0.163 HD
ATOM     42  O   UNL A   1      36.183  30.778  31.349  1.00  0.00    -0.269 OA
BRANCH  40  43
ATOM     43  C   UNL A   1      37.619  29.964  29.677  1.00  0.00     0.039 A 
ATOM     44  C   UNL A   1      38.511  29.366  30.570  1.00  0.00     0.014 A 
ATOM     45  C   UNL A   1      37.932  30.032  28.317  1.00  0.00     0.014 A 
ATOM     46  C   UNL A   1      39.782  29.003  30.133  1.00  0.00     0.010 A 
ATOM     47  C   UNL A   1      39.179  29.586  27.865  1.00  0.00     0.010 A 
ATOM     48  C   UNL A   1      40.136  29.116  28.778  1.00  0.00    -0.014 A 
BRANCH  48  49
ATOM     49  C   UNL A   1      41.512  28.744  28.349  1.00  0.00     0.031 A 
ATOM     50  C   UNL A   1      42.636  29.748  28.392  1.00  0.00     0.074 A 
ATOM     51  C   UNL A   1      41.763  27.472  27.982  1.00  0.00     0.049 A 
ATOM     52  N   UNL A   1      43.901  29.579  28.102  1.00  0.00    -0.248 NA
ATOM     53  C   UNL A   1      42.300  31.118  28.811  1.00  0.00     0.031 C 
ATOM     54  C   UNL A   1      40.760  26.407  27.901  1.00  0.00     0.029 A 
ATOM     55  N   UNL A   1      42.936  26.848  27.638  1.00  0.00    -0.354 N 
ATOM     56  C   UNL A   1      44.508  30.817  28.287  1.00  0.00     0.074 A 
ATOM     57  C   UNL A   1      43.466  31.738  28.687  1.00  0.00     0.031 C 
ATOM     58  C   UNL A   1      41.368  25.253  27.591  1.00  0.00     0.029 A 
ATOM     59  C   UNL A   1      42.792  25.503  27.392  1.00  0.00     0.049 A 
ATOM     60  H   UNL A   1      43.798  27.319  27.574  1.00  0.00     0.167 HD
ATOM     61  C   UNL A   1      45.813  31.151  28.149  1.00  0.00     0.037 A 
ATOM     62  C   UNL A   1      43.700  24.572  27.041  1.00  0.00     0.037 A 
ATOM     63  C   UNL A   1      46.853  30.226  27.773  1.00  0.00     0.049 A 
ATOM     64  C   UNL A   1      45.136  24.974  26.869  1.00  0.00     0.074 A 
ATOM     65  C   UNL A   1      48.209  30.468  27.634  1.00  0.00     0.029 A 
ATOM     66  N   UNL A   1      46.655  28.885  27.478  1.00  0.00    -0.354 N 
ATOM     67  N   UNL A   1      45.688  26.148  27.057  1.00  0.00    -0.248 NA
ATOM     68  C   UNL A   1      46.070  23.930  26.427  1.00  0.00     0.031 C 
ATOM     69  C   UNL A   1      48.825  29.282  27.219  1.00  0.00     0.029 A 
ATOM     70  C   UNL A   1      47.860  28.293  27.139  1.00  0.00     0.049 A 
ATOM     71  H   UNL A   1      45.786  28.423  27.505  1.00  0.00     0.167 HD
ATOM     72  C   UNL A   1      47.035  25.984  26.758  1.00  0.00     0.074 A 
ATOM     73  C   UNL A   1      47.219  24.592  26.401  1.00  0.00     0.031 C 
ATOM     74  C   UNL A   1      48.027  26.907  26.775  1.00  0.00     0.037 A 
BRANCH  61  75
ATOM     75  C   UNL A   1      46.206  32.580  28.405  1.00  0.00     0.058 A 
ATOM     76  C   UNL A   1      46.226  33.513  27.356  1.00  0.00     0.135 A 
ATOM     77  C   UNL A   1      46.627  33.011  29.672  1.00  0.00     0.135 A 
ATOM     78  F   UNL A   1      45.829  33.156  26.125  1.00  0.00    -0.206 F 
ATOM     79  C   UNL A   1      46.663  34.820  27.552  1.00  0.00     0.059 A 
ATOM     80  C   UNL A   1      47.048  34.319  29.897  1.00  0.00     0.059 A 
ATOM     81  F   UNL A   1      46.607  32.164  30.715  1.00  0.00    -0.206 F 
ATOM     82  C   UNL A   1      47.075  35.213  28.826  1.00  0.00     0.060 A 
BRANCH  82  83
ATOM     83  S   UNL A   1      47.607  36.921  29.075  1.00  0.00     0.124 S 
ATOM     84  O   UNL A   1      47.277  37.528  27.791  1.00  0.00    -0.237 OA
ATOM     85  O   UNL A   1      46.785  37.336  30.208  1.00  0.00    -0.237 OA
ATOM     86  O   UNL A   1      49.033  36.790  29.363  1.00  0.00    -0.744 OA
ENDBRANCH  82  83
ENDBRANCH  61  75
BRANCH  62  87
ATOM     87  C   UNL A   1      43.261  23.167  26.837  1.00  0.00     0.058 A 
ATOM     88  C   UNL A   1      42.996  22.324  27.927  1.00  0.00     0.135 A 
ATOM     89  C   UNL A   1      43.154  22.626  25.547  1.00  0.00     0.135 A 
ATOM     90  F   UNL A   1      43.094  22.795  29.180  1.00  0.00    -0.206 F 
ATOM     91  C   UNL A   1      42.678  20.983  27.749  1.00  0.00     0.059 A 
ATOM     92  C   UNL A   1      42.812  21.293  25.343  1.00  0.00     0.059 A 
ATOM     93  F   UNL A   1      43.385  23.398  24.475  1.00  0.00    -0.206 F 
ATOM     94  C   UNL A   1      42.598  20.474  26.452  1.00  0.00     0.060 A 
BRANCH  94  95
ATOM     95  S   UNL A   1      42.213  18.723  26.241  1.00  0.00     0.124 S 
ATOM     96  O   UNL A   1      42.388  18.223  27.602  1.00  0.00    -0.237 OA
ATOM     97  O   UNL A   1      40.841  18.766  25.751  1.00  0.00    -0.237 OA
ATOM     98  O   UNL A   1      43.209  18.274  25.274  1.00  0.00    -0.744 OA
ENDBRANCH  94  95
ENDBRANCH  62  87
BRANCH  74  99
ATOM     99  C   UNL A   1      49.405  26.449  26.392  1.00  0.00     0.058 A 
ATOM    100  C   UNL A   1      50.300  25.981  27.367  1.00  0.00     0.135 A 
ATOM    101  C   UNL A   1      49.862  26.536  25.068  1.00  0.00     0.135 A 
ATOM    102  F   UNL A   1      49.914  25.880  28.649  1.00  0.00    -0.206 F 
ATOM    103  C   UNL A   1      51.606  25.628  27.044  1.00  0.00     0.059 A 
ATOM    104  C   UNL A   1      51.157  26.167  24.719  1.00  0.00     0.059 A 
ATOM    105  F   UNL A   1      49.039  26.965  24.098  1.00  0.00    -0.206 F 
ATOM    106  C   UNL A   1      52.027  25.730  25.717  1.00  0.00     0.060 A 
BRANCH 106 107
ATOM    107  S   UNL A   1      53.720  25.255  25.311  1.00  0.00     0.124 S 
ATOM    108  O   UNL A   1      54.471  25.868  26.402  1.00  0.00    -0.237 OA
ATOM    109  O   UNL A   1      53.647  23.796  25.334  1.00  0.00    -0.237 OA
ATOM    110  O   UNL A   1      53.930  25.845  23.993  1.00  0.00    -0.744 OA
ENDBRANCH 106 107
ENDBRANCH  74  99
ENDBRANCH  48  49
ENDBRANCH  40  43
ENDBRANCH  38  39
ENDBRANCH  37  38
ENDBRANCH  36  37
ENDBRANCH  35  36
ENDBRANCH   1  35
TORSDOF 22
ENDMDL
MODEL 2
REMARK VINA RESULT:     -11.4      6.363     12.012
REMARK SMILES COc1cc(F)ccc1-c1ccc(=O)n(CC(=O)NCc2ccc(C(=O)NCCCCCCNC(=O)c3ccc(-c4c5nc(c(-c6c(F)cc(S(=O)(=O)[O-])cc6F)c6ccc([nH]6)c(-c6c(F)cc(S(=O)(=O)[O-])cc6F)c6nc(c(-c7c(F)cc(S(=O)(=O)[O-])cc7F)c7ccc4[nH]7)C=C6)C=C5)cc3)cc2)n1
REMARK SMILES IDX 29 1 28 2 27 3 25 4 26 5 24 7 21 8 22 9 104 10 23 11 103 12
REMARK SMILES IDX 20 13 19 14 17 15 18 16 16 18 15 19 10 20 11 21 105 22 12 23
REMARK SMILES IDX 13 24 14 25 9 26 3 27 4 28 5 29 8 30 6 31 7 32 2 33 1 34
REMARK SMILES IDX 30 35 31 36 32 37 33 38 34 39 35 40 36 42 37 43 38 44 102 45
REMARK SMILES IDX 39 46 101 47 40 48 41 49 42 50 95 51 43 52 100 53 94 54
REMARK SMILES IDX 96 55 44 56 99 57 93 58 92 59 45 61 79 62 58 63 78 64 59 65
REMARK SMILES IDX 62 66 77 67 97 68 60 69 61 70 76 72 98 73 63 74 46 75 47 76
REMARK SMILES IDX 56 77 48 78 49 79 55 80 57 81 50 82 51 83 52 84 53 85 54 86
REMARK SMILES IDX 80 87 81 88 90 89 82 90 83 91 89 92 91 93 84 94 85 95 86 96
REMARK SMILES IDX 87 97 88 98 64 99 65 100 74 101 66 102 67 103 73 104 75 105
REMARK SMILES IDX 68 106 69 107 70 108 71 109 72 110
REMARK H PARENT 27 6 19 17 34 41 96 60 62 71
REMARK Flexibility Score: inf
ROOT
ATOM      1  C   UNL A   1      40.269  25.568  27.838  1.00  0.00     0.021 C 
ENDROOT
BRANCH   1   2
ATOM      2  C   UNL A   1      40.467  24.658  26.629  1.00  0.00     0.116 C 
BRANCH   2   3
ATOM      3  N   UNL A   1      40.656  23.265  26.975  1.00  0.00    -0.352 N 
ATOM      4  C   UNL A   1      39.855  22.169  26.761  1.00  0.00     0.251 C 
ATOM      5  O   UNL A   1      40.223  21.081  27.202  1.00  0.00    -0.269 OA
ATOM      6  H   UNL A   1      41.500  23.069  27.442  1.00  0.00     0.163 HD
BRANCH   4   7
ATOM      7  C   UNL A   1      38.539  22.267  26.074  1.00  0.00     0.039 A 
ATOM      8  C   UNL A   1      36.001  22.254  24.826  1.00  0.00    -0.029 A 
ATOM      9  C   UNL A   1      36.849  21.143  24.740  1.00  0.00     0.006 A 
ATOM     10  C   UNL A   1      36.474  23.398  25.486  1.00  0.00     0.006 A 
ATOM     11  C   UNL A   1      38.098  21.144  25.367  1.00  0.00     0.014 A 
ATOM     12  C   UNL A   1      37.746  23.417  26.071  1.00  0.00     0.014 A 
BRANCH   8  13
ATOM     13  C   UNL A   1      34.584  22.231  24.299  1.00  0.00     0.151 C 
BRANCH  13  14
ATOM     14  N   UNL A   1      34.417  22.936  23.048  1.00  0.00    -0.350 N 
ATOM     15  C   UNL A   1      33.274  23.332  22.420  1.00  0.00     0.242 C 
ATOM     16  O   UNL A   1      33.394  24.145  21.497  1.00  0.00    -0.273 OA
ATOM     17  H   UNL A   1      35.253  23.163  22.579  1.00  0.00     0.163 HD
BRANCH  15  18
ATOM     18  C   UNL A   1      31.886  22.938  22.940  1.00  0.00     0.248 C 
BRANCH  18  19
ATOM     19  N   UNL A   1      31.336  23.838  23.946  1.00  0.00    -0.220 N 
ATOM     20  C   UNL A   1      30.462  25.899  24.402  1.00  0.00     0.095 A 
ATOM     21  C   UNL A   1      30.190  25.552  25.810  1.00  0.00     0.037 A 
ATOM     22  N   UNL A   1      31.003  25.112  23.528  1.00  0.00    -0.169 NA
ATOM     23  C   UNL A   1      30.463  24.298  26.171  1.00  0.00     0.075 A 
ATOM     24  C   UNL A   1      31.029  23.335  25.203  1.00  0.00     0.267 A 
ATOM     25  O   UNL A   1      31.233  22.180  25.568  1.00  0.00    -0.268 OA
BRANCH  20  26
ATOM     26  C   UNL A   1      30.069  27.265  24.011  1.00  0.00     0.044 A 
ATOM     27  C   UNL A   1      30.928  28.344  24.268  1.00  0.00     0.131 A 
ATOM     28  C   UNL A   1      30.549  29.628  23.875  1.00  0.00     0.086 A 
ATOM     29  C   UNL A   1      29.313  29.817  23.261  1.00  0.00     0.126 A 
ATOM     30  C   UNL A   1      28.825  27.464  23.399  1.00  0.00     0.017 A 
ATOM     31  F   UNL A   1      28.956  31.049  22.876  1.00  0.00    -0.207 F 
ATOM     32  C   UNL A   1      28.448  28.752  23.023  1.00  0.00     0.040 A 
BRANCH  27  33
ATOM     33  O   UNL A   1      32.162  28.087  24.805  1.00  0.00    -0.496 OA
ATOM     34  C   UNL A   1      33.229  28.674  24.061  1.00  0.00     0.278 C 
ENDBRANCH  27  33
ENDBRANCH  20  26
ENDBRANCH  18  19
ENDBRANCH  15  18
ENDBRANCH  13  14
ENDBRANCH   8  13
ENDBRANCH   4   7
ENDBRANCH   2   3
ENDBRANCH   1   2
BRANCH   1  35
ATOM     35  C   UNL A   1      40.010  27.051  27.556  1.00  0.00     0.002 C 
BRANCH  35  36
ATOM     36  C   UNL A   1      41.066  27.801  26.741  1.00  0.00     0.002 C 
BRANCH  36  37
ATOM     37  C   UNL A   1      41.581  27.109  25.480  1.00  0.00     0.021 C 
BRANCH  37  38
ATOM     38  C   UNL A   1      43.079  27.203  25.221  1.00  0.00     0.116 C 
BRANCH  38  39
ATOM     39  N   UNL A   1      43.816  26.013  25.606  1.00  0.00    -0.352 N 
ATOM     40  C   UNL A   1      44.357  25.682  26.830  1.00  0.00     0.251 C 
ATOM     41  H   UNL A   1      43.947  25.348  24.891  1.00  0.00     0.163 HD
ATOM     42  O   UNL A   1      45.024  24.664  26.951  1.00  0.00    -0.269 OA
BRANCH  40  43
ATOM     43  C   UNL A   1      44.166  26.590  27.987  1.00  0.00     0.039 A 
ATOM     44  C   UNL A   1      43.487  26.163  29.130  1.00  0.00     0.014 A 
ATOM     45  C   UNL A   1      44.642  27.901  27.906  1.00  0.00     0.014 A 
ATOM     46  C   UNL A   1      43.132  27.090  30.106  1.00  0.00     0.010 A 
ATOM     47  C   UNL A   1      44.357  28.811  28.930  1.00  0.00     0.010 A 
ATOM     48  C   UNL A   1      43.554  28.427  30.015  1.00  0.00    -0.014 A 
BRANCH  48  49
ATOM     49  C   UNL A   1      43.134  29.398  31.062  1.00  0.00     0.031 A 
ATOM     50  C   UNL A   1      41.823  30.135  30.954  1.00  0.00     0.074 A 
ATOM     51  C   UNL A   1      43.910  29.566  32.151  1.00  0.00     0.049 A 
ATOM     52  N   UNL A   1      41.281  30.977  31.798  1.00  0.00    -0.248 NA
ATOM     53  C   UNL A   1      41.016  29.902  29.746  1.00  0.00     0.031 C 
ATOM     54  C   UNL A   1      45.200  28.909  32.372  1.00  0.00     0.029 A 
ATOM     55  N   UNL A   1      43.719  30.312  33.287  1.00  0.00    -0.354 N 
ATOM     56  C   UNL A   1      40.084  31.385  31.220  1.00  0.00     0.074 A 
ATOM     57  C   UNL A   1      39.990  30.720  29.939  1.00  0.00     0.031 C 
ATOM     58  C   UNL A   1      45.655  29.232  33.591  1.00  0.00     0.029 A 
ATOM     59  C   UNL A   1      44.722  30.165  34.216  1.00  0.00     0.049 A 
ATOM     60  H   UNL A   1      42.939  30.896  33.423  1.00  0.00     0.167 HD
ATOM     61  C   UNL A   1      39.145  32.225  31.718  1.00  0.00     0.037 A 
ATOM     62  C   UNL A   1      44.881  30.719  35.433  1.00  0.00     0.037 A 
ATOM     63  C   UNL A   1      39.230  32.868  33.004  1.00  0.00     0.049 A 
ATOM     64  C   UNL A   1      43.838  31.667  35.950  1.00  0.00     0.074 A 
ATOM     65  C   UNL A   1      38.313  33.714  33.605  1.00  0.00     0.029 A 
ATOM     66  N   UNL A   1      40.290  32.735  33.891  1.00  0.00    -0.354 N 
ATOM     67  N   UNL A   1      42.711  32.031  35.390  1.00  0.00    -0.248 NA
ATOM     68  C   UNL A   1      44.093  32.287  37.257  1.00  0.00     0.031 C 
ATOM     69  C   UNL A   1      38.836  34.123  34.837  1.00  0.00     0.029 A 
ATOM     70  C   UNL A   1      40.058  33.500  35.022  1.00  0.00     0.049 A 
ATOM     71  H   UNL A   1      41.089  32.181  33.737  1.00  0.00     0.167 HD
ATOM     72  C   UNL A   1      42.119  32.923  36.277  1.00  0.00     0.074 A 
ATOM     73  C   UNL A   1      43.002  33.024  37.421  1.00  0.00     0.031 C 
ATOM     74  C   UNL A   1      40.951  33.599  36.150  1.00  0.00     0.037 A 
BRANCH  61  75
ATOM     75  C   UNL A   1      37.932  32.506  30.874  1.00  0.00     0.058 A 
ATOM     76  C   UNL A   1      37.955  33.527  29.910  1.00  0.00     0.135 A 
ATOM     77  C   UNL A   1      36.728  31.812  31.063  1.00  0.00     0.135 A 
ATOM     78  F   UNL A   1      39.081  34.220  29.684  1.00  0.00    -0.206 F 
ATOM     79  C   UNL A   1      36.821  33.859  29.174  1.00  0.00     0.059 A 
ATOM     80  C   UNL A   1      35.587  32.112  30.323  1.00  0.00     0.059 A 
ATOM     81  F   UNL A   1      36.657  30.812  31.957  1.00  0.00    -0.206 F 
ATOM     82  C   UNL A   1      35.640  33.148  29.389  1.00  0.00     0.060 A 
BRANCH  82  83
ATOM     83  S   UNL A   1      34.186  33.565  28.404  1.00  0.00     0.124 S 
ATOM     84  O   UNL A   1      34.742  34.495  27.427  1.00  0.00    -0.237 OA
ATOM     85  O   UNL A   1      33.782  32.261  27.885  1.00  0.00    -0.237 OA
ATOM     86  O   UNL A   1      33.273  34.149  29.382  1.00  0.00    -0.744 OA
ENDBRANCH  82  83
ENDBRANCH  61  75
BRANCH  62  87
ATOM     87  C   UNL A   1      46.082  30.377  36.239  1.00  0.00     0.058 A 
ATOM     88  C   UNL A   1      47.288  31.075  36.077  1.00  0.00     0.135 A 
ATOM     89  C   UNL A   1      46.059  29.306  37.144  1.00  0.00     0.135 A 
ATOM     90  F   UNL A   1      47.360  32.102  35.216  1.00  0.00    -0.206 F 
ATOM     91  C   UNL A   1      48.441  30.702  36.756  1.00  0.00     0.059 A 
ATOM     92  C   UNL A   1      47.195  28.929  37.855  1.00  0.00     0.059 A 
ATOM     93  F   UNL A   1      44.925  28.617  37.341  1.00  0.00    -0.206 F 
ATOM     94  C   UNL A   1      48.387  29.620  37.636  1.00  0.00     0.060 A 
BRANCH  94  95
ATOM     95  S   UNL A   1      49.903  29.130  38.486  1.00  0.00     0.124 S 
ATOM     96  O   UNL A   1      50.811  28.926  37.361  1.00  0.00    -0.237 OA
ATOM     97  O   UNL A   1      50.176  30.293  39.322  1.00  0.00    -0.237 OA
ATOM     98  O   UNL A   1      49.510  27.922  39.204  1.00  0.00    -0.744 OA
ENDBRANCH  94  95
ENDBRANCH  62  87
BRANCH  74  99
ATOM     99  C   UNL A   1      40.557  34.515  37.273  1.00  0.00     0.058 A 
ATOM    100  C   UNL A   1      39.865  34.021  38.390  1.00  0.00     0.135 A 
ATOM    101  C   UNL A   1      40.806  35.894  37.212  1.00  0.00     0.135 A 
ATOM    102  F   UNL A   1      39.600  32.709  38.496  1.00  0.00    -0.206 F 
ATOM    103  C   UNL A   1      39.421  34.866  39.401  1.00  0.00     0.059 A 
ATOM    104  C   UNL A   1      40.390  36.755  38.222  1.00  0.00     0.059 A 
ATOM    105  F   UNL A   1      41.476  36.413  36.170  1.00  0.00    -0.206 F 
ATOM    106  C   UNL A   1      39.684  36.233  39.305  1.00  0.00     0.060 A 
BRANCH 106 107
ATOM    107  S   UNL A   1      39.112  37.315  40.633  1.00  0.00     0.124 S 
ATOM    108  O   UNL A   1      38.463  36.367  41.532  1.00  0.00    -0.237 OA
ATOM    109  O   UNL A   1      40.361  37.896  41.119  1.00  0.00    -0.237 OA
ATOM    110  O   UNL A   1      38.221  38.246  39.949  1.00  0.00    -0.744 OA
ENDBRANCH 106 107
ENDBRANCH  74  99
ENDBRANCH  48  49
ENDBRANCH  40  43
ENDBRANCH  38  39
ENDBRANCH  37  38
ENDBRANCH  36  37
ENDBRANCH  35  36
ENDBRANCH   1  35
TORSDOF 22
ENDMDL
MODEL 3
REMARK VINA RESULT:     -11.4      6.542      8.762
REMARK SMILES COc1cc(F)ccc1-c1ccc(=O)n(CC(=O)NCc2ccc(C(=O)NCCCCCCNC(=O)c3ccc(-c4c5nc(c(-c6c(F)cc(S(=O)(=O)[O-])cc6F)c6ccc([nH]6)c(-c6c(F)cc(S(=O)(=O)[O-])cc6F)c6nc(c(-c7c(F)cc(S(=O)(=O)[O-])cc7F)c7ccc4[nH]7)C=C6)C=C5)cc3)cc2)n1
REMARK SMILES IDX 29 1 28 2 27 3 25 4 26 5 24 7 21 8 22 9 104 10 23 11 103 12
REMARK SMILES IDX 20 13 19 14 17 15 18 16 16 18 15 19 10 20 11 21 105 22 12 23
REMARK SMILES IDX 13 24 14 25 9 26 3 27 4 28 5 29 8 30 6 31 7 32 2 33 1 34
REMARK SMILES IDX 30 35 31 36 32 37 33 38 34 39 35 40 36 42 37 43 38 44 102 45
REMARK SMILES IDX 39 46 101 47 40 48 41 49 42 50 95 51 43 52 100 53 94 54
REMARK SMILES IDX 96 55 44 56 99 57 93 58 92 59 45 61 79 62 58 63 78 64 59 65
REMARK SMILES IDX 62 66 77 67 97 68 60 69 61 70 76 72 98 73 63 74 46 75 47 76
REMARK SMILES IDX 56 77 48 78 49 79 55 80 57 81 50 82 51 83 52 84 53 85 54 86
REMARK SMILES IDX 80 87 81 88 90 89 82 90 83 91 89 92 91 93 84 94 85 95 86 96
REMARK SMILES IDX 87 97 88 98 64 99 65 100 74 101 66 102 67 103 73 104 75 105
REMARK SMILES IDX 68 106 69 107 70 108 71 109 72 110
REMARK H PARENT 27 6 19 17 34 41 96 60 62 71
REMARK Flexibility Score: inf
ROOT
ATOM      1  C   UNL A   1      36.220  31.253  27.956  1.00  0.00     0.021 C 
ENDROOT
BRANCH   1   2
ATOM      2  C   UNL A   1      34.960  30.393  27.940  1.00  0.00     0.116 C 
BRANCH   2   3
ATOM      3  N   UNL A   1      33.806  31.061  27.375  1.00  0.00    -0.352 N 
ATOM      4  C   UNL A   1      32.678  30.554  26.775  1.00  0.00     0.251 C 
ATOM      5  O   UNL A   1      31.850  31.345  26.326  1.00  0.00    -0.269 OA
ATOM      6  H   UNL A   1      33.833  32.043  27.430  1.00  0.00     0.163 HD
BRANCH   4   7
ATOM      7  C   UNL A   1      32.459  29.093  26.598  1.00  0.00     0.039 A 
ATOM      8  C   UNL A   1      31.837  26.350  26.298  1.00  0.00    -0.029 A 
ATOM      9  C   UNL A   1      31.234  27.118  27.302  1.00  0.00     0.006 A 
ATOM     10  C   UNL A   1      32.810  26.961  25.494  1.00  0.00     0.006 A 
ATOM     11  C   UNL A   1      31.530  28.477  27.443  1.00  0.00     0.014 A 
ATOM     12  C   UNL A   1      33.146  28.310  25.668  1.00  0.00     0.014 A 
BRANCH   8  13
ATOM     13  C   UNL A   1      31.423  24.925  26.013  1.00  0.00     0.151 C 
BRANCH  13  14
ATOM     14  N   UNL A   1      31.667  24.017  27.113  1.00  0.00    -0.350 N 
ATOM     15  C   UNL A   1      32.153  22.744  27.096  1.00  0.00     0.242 C 
ATOM     16  O   UNL A   1      32.518  22.269  28.178  1.00  0.00    -0.273 OA
ATOM     17  H   UNL A   1      31.448  24.372  28.005  1.00  0.00     0.163 HD
BRANCH  15  18
ATOM     18  C   UNL A   1      32.411  21.993  25.785  1.00  0.00     0.248 C 
BRANCH  18  19
ATOM     19  N   UNL A   1      33.545  22.486  25.014  1.00  0.00    -0.220 N 
ATOM     20  C   UNL A   1      35.798  22.862  24.943  1.00  0.00     0.095 A 
ATOM     21  C   UNL A   1      35.749  23.327  23.543  1.00  0.00     0.037 A 
ATOM     22  N   UNL A   1      34.777  22.477  25.640  1.00  0.00    -0.169 NA
ATOM     23  C   UNL A   1      34.560  23.267  22.944  1.00  0.00     0.075 A 
ATOM     24  C   UNL A   1      33.367  22.782  23.669  1.00  0.00     0.267 A 
ATOM     25  O   UNL A   1      32.298  22.711  23.069  1.00  0.00    -0.268 OA
BRANCH  20  26
ATOM     26  C   UNL A   1      37.141  22.858  25.550  1.00  0.00     0.044 A 
ATOM     27  C   UNL A   1      37.943  21.710  25.474  1.00  0.00     0.131 A 
ATOM     28  C   UNL A   1      39.219  21.729  26.039  1.00  0.00     0.086 A 
ATOM     29  C   UNL A   1      39.660  22.877  26.692  1.00  0.00     0.126 A 
ATOM     30  C   UNL A   1      37.589  24.007  26.215  1.00  0.00     0.017 A 
ATOM     31  F   UNL A   1      40.888  22.896  27.224  1.00  0.00    -0.207 F 
ATOM     32  C   UNL A   1      38.859  24.012  26.788  1.00  0.00     0.040 A 
BRANCH  27  33
ATOM     33  O   UNL A   1      37.487  20.637  24.754  1.00  0.00    -0.496 OA
ATOM     34  C   UNL A   1      38.156  19.419  25.080  1.00  0.00     0.278 C 
ENDBRANCH  27  33
ENDBRANCH  20  26
ENDBRANCH  18  19
ENDBRANCH  15  18
ENDBRANCH  13  14
ENDBRANCH   8  13
ENDBRANCH   4   7
ENDBRANCH   2   3
ENDBRANCH   1   2
BRANCH   1  35
ATOM     35  C   UNL A   1      36.334  32.299  29.069  1.00  0.00     0.002 C 
BRANCH  35  36
ATOM     36  C   UNL A   1      36.395  33.768  28.643  1.00  0.00     0.002 C 
BRANCH  36  37
ATOM     37  C   UNL A   1      35.109  34.580  28.787  1.00  0.00     0.021 C 
BRANCH  37  38
ATOM     38  C   UNL A   1      33.896  33.833  29.326  1.00  0.00     0.116 C 
BRANCH  38  39
ATOM     39  N   UNL A   1      33.093  34.611  30.253  1.00  0.00    -0.352 N 
ATOM     40  C   UNL A   1      33.336  34.907  31.578  1.00  0.00     0.251 C 
ATOM     41  H   UNL A   1      32.258  34.979  29.883  1.00  0.00     0.163 HD
ATOM     42  O   UNL A   1      32.499  35.512  32.234  1.00  0.00    -0.269 OA
BRANCH  40  43
ATOM     43  C   UNL A   1      34.594  34.447  32.215  1.00  0.00     0.039 A 
ATOM     44  C   UNL A   1      35.695  35.298  32.326  1.00  0.00     0.014 A 
ATOM     45  C   UNL A   1      34.680  33.129  32.672  1.00  0.00     0.014 A 
ATOM     46  C   UNL A   1      36.925  34.784  32.726  1.00  0.00     0.010 A 
ATOM     47  C   UNL A   1      35.898  32.637  33.155  1.00  0.00     0.010 A 
ATOM     48  C   UNL A   1      37.045  33.445  33.136  1.00  0.00    -0.014 A 
BRANCH  48  49
ATOM     49  C   UNL A   1      38.380  32.920  33.531  1.00  0.00     0.031 A 
ATOM     50  C   UNL A   1      38.906  33.113  34.931  1.00  0.00     0.074 A 
ATOM     51  C   UNL A   1      39.094  32.205  32.639  1.00  0.00     0.049 A 
ATOM     52  N   UNL A   1      40.024  32.678  35.456  1.00  0.00    -0.248 NA
ATOM     53  C   UNL A   1      38.076  33.894  35.861  1.00  0.00     0.031 C 
ATOM     54  C   UNL A   1      38.692  31.948  31.254  1.00  0.00     0.029 A 
ATOM     55  N   UNL A   1      40.287  31.539  32.766  1.00  0.00    -0.354 N 
ATOM     56  C   UNL A   1      40.040  33.144  36.767  1.00  0.00     0.074 A 
ATOM     57  C   UNL A   1      38.833  33.919  36.951  1.00  0.00     0.031 C 
ATOM     58  C   UNL A   1      39.589  31.133  30.680  1.00  0.00     0.029 A 
ATOM     59  C   UNL A   1      40.660  30.857  31.632  1.00  0.00     0.049 A 
ATOM     60  H   UNL A   1      40.825  31.550  33.591  1.00  0.00     0.167 HD
ATOM     61  C   UNL A   1      40.968  32.932  37.731  1.00  0.00     0.037 A 
ATOM     62  C   UNL A   1      41.743  30.098  31.379  1.00  0.00     0.037 A 
ATOM     63  C   UNL A   1      42.159  32.140  37.552  1.00  0.00     0.049 A 
ATOM     64  C   UNL A   1      42.770  29.901  32.457  1.00  0.00     0.074 A 
ATOM     65  C   UNL A   1      43.144  31.847  38.480  1.00  0.00     0.029 A 
ATOM     66  N   UNL A   1      42.526  31.512  36.370  1.00  0.00    -0.354 N 
ATOM     67  N   UNL A   1      42.760  30.343  33.690  1.00  0.00    -0.248 NA
ATOM     68  C   UNL A   1      43.959  29.112  32.106  1.00  0.00     0.031 C 
ATOM     69  C   UNL A   1      44.125  31.075  37.849  1.00  0.00     0.029 A 
ATOM     70  C   UNL A   1      43.731  30.851  36.541  1.00  0.00     0.049 A 
ATOM     71  H   UNL A   1      42.007  31.534  35.534  1.00  0.00     0.167 HD
ATOM     72  C   UNL A   1      43.940  29.885  34.265  1.00  0.00     0.074 A 
ATOM     73  C   UNL A   1      44.627  29.112  33.252  1.00  0.00     0.031 C 
ATOM     74  C   UNL A   1      44.411  30.093  35.519  1.00  0.00     0.037 A 
BRANCH  61  75
ATOM     75  C   UNL A   1      40.743  33.565  39.077  1.00  0.00     0.058 A 
ATOM     76  C   UNL A   1      39.862  32.981  40.001  1.00  0.00     0.135 A 
ATOM     77  C   UNL A   1      41.347  34.782  39.426  1.00  0.00     0.135 A 
ATOM     78  F   UNL A   1      39.262  31.814  39.721  1.00  0.00    -0.206 F 
ATOM     79  C   UNL A   1      39.577  33.590  41.220  1.00  0.00     0.059 A 
ATOM     80  C   UNL A   1      41.092  35.399  40.648  1.00  0.00     0.059 A 
ATOM     81  F   UNL A   1      42.213  35.372  38.587  1.00  0.00    -0.206 F 
ATOM     82  C   UNL A   1      40.195  34.801  41.534  1.00  0.00     0.060 A 
BRANCH  82  83
ATOM     83  S   UNL A   1      39.843  35.563  43.132  1.00  0.00     0.124 S 
ATOM     84  O   UNL A   1      38.560  36.209  42.881  1.00  0.00    -0.237 OA
ATOM     85  O   UNL A   1      39.812  34.407  44.024  1.00  0.00    -0.237 OA
ATOM     86  O   UNL A   1      40.975  36.465  43.332  1.00  0.00    -0.744 OA
ENDBRANCH  82  83
ENDBRANCH  61  75
BRANCH  62  87
ATOM     87  C   UNL A   1      41.895  29.467  30.043  1.00  0.00     0.058 A 
ATOM     88  C   UNL A   1      42.595  30.111  29.012  1.00  0.00     0.135 A 
ATOM     89  C   UNL A   1      41.293  28.233  29.756  1.00  0.00     0.135 A 
ATOM     90  F   UNL A   1      43.181  31.298  29.235  1.00  0.00    -0.206 F 
ATOM     91  C   UNL A   1      42.662  29.574  27.731  1.00  0.00     0.059 A 
ATOM     92  C   UNL A   1      41.368  27.663  28.489  1.00  0.00     0.059 A 
ATOM     93  F   UNL A   1      40.624  27.574  30.714  1.00  0.00    -0.206 F 
ATOM     94  C   UNL A   1      42.036  28.353  27.478  1.00  0.00     0.060 A 
BRANCH  94  95
ATOM     95  S   UNL A   1      42.107  27.686  25.801  1.00  0.00     0.124 S 
ATOM     96  O   UNL A   1      43.398  27.003  25.817  1.00  0.00    -0.237 OA
ATOM     97  O   UNL A   1      40.932  26.823  25.764  1.00  0.00    -0.237 OA
ATOM     98  O   UNL A   1      42.036  28.877  24.962  1.00  0.00    -0.744 OA
ENDBRANCH  94  95
ENDBRANCH  62  87
BRANCH  74  99
ATOM     99  C   UNL A   1      45.736  29.480  35.871  1.00  0.00     0.058 A 
ATOM    100  C   UNL A   1      46.932  30.170  35.620  1.00  0.00     0.135 A 
ATOM    101  C   UNL A   1      45.823  28.182  36.396  1.00  0.00     0.135 A 
ATOM    102  F   UNL A   1      46.904  31.415  35.116  1.00  0.00    -0.206 F 
ATOM    103  C   UNL A   1      48.171  29.588  35.865  1.00  0.00     0.059 A 
ATOM    104  C   UNL A   1      47.051  27.588  36.669  1.00  0.00     0.059 A 
ATOM    105  F   UNL A   1      44.706  27.487  36.666  1.00  0.00    -0.206 F 
ATOM    106  C   UNL A   1      48.220  28.293  36.385  1.00  0.00     0.060 A 
BRANCH 106 107
ATOM    107  S   UNL A   1      49.835  27.556  36.710  1.00  0.00     0.124 S 
ATOM    108  O   UNL A   1      50.731  28.681  36.465  1.00  0.00    -0.237 OA
ATOM    109  O   UNL A   1      49.710  27.136  38.103  1.00  0.00    -0.237 OA
ATOM    110  O   UNL A   1      49.912  26.468  35.740  1.00  0.00    -0.744 OA
ENDBRANCH 106 107
ENDBRANCH  74  99
ENDBRANCH  48  49
ENDBRANCH  40  43
ENDBRANCH  38  39
ENDBRANCH  37  38
ENDBRANCH  36  37
ENDBRANCH  35  36
ENDBRANCH   1  35
TORSDOF 22
ENDMDL
