MODEL 1
REMARK VINA RESULT:     -11.3      0.000      0.000
REMARK SMILES CS(=O)(=O)N1C[C@@H]2C[N@H+](Cc3cccnc3N)C[C@]2(C(=O)NCCCCCCNC(=O)c2ccc(-c3c4nc(c(-c5c(F)cc(S(=O)(=O)[O-])cc5F)c5ccc([nH]5)c(-c5c(F)cc(S(=O)(=O)[O-])cc5F)c5nc(c(-c6c(F)cc(S(=O)(=O)[O-])cc6F)c6ccc3[nH]6)C=C5)C=C4)cc2)C1
REMARK SMILES IDX 25 1 24 2 23 3 22 4 20 5 21 6 19 8 5 9 6 10 98 11 7 12 8 13
REMARK SMILES IDX 18 14 9 15 2 17 1 18 3 19 4 20 10 21 11 22 12 23 16 24 13 25
REMARK SMILES IDX 15 26 14 27 17 28 26 31 27 32 28 33 29 34 30 35 31 37 32 38
REMARK SMILES IDX 33 39 97 40 34 41 96 42 35 43 36 44 37 45 90 46 38 47 95 48
REMARK SMILES IDX 89 49 91 50 39 51 94 52 88 53 87 54 40 56 74 57 53 58 73 59
REMARK SMILES IDX 54 60 57 61 72 62 92 63 55 64 56 65 71 67 93 68 58 69 41 70
REMARK SMILES IDX 42 71 51 72 43 73 44 74 50 75 52 76 45 77 46 78 47 79 48 80
REMARK SMILES IDX 49 81 75 82 76 83 85 84 77 85 78 86 84 87 86 88 79 89 80 90
REMARK SMILES IDX 81 91 82 92 83 93 59 94 60 95 69 96 61 97 62 98 68 99 70 100
REMARK SMILES IDX 63 101 64 102 65 103 66 104 67 105
REMARK H PARENT 22 7 9 16 17 29 17 30 29 36 91 55 57 66
REMARK Flexibility Score: inf
ROOT
ATOM      1  C   UNL A   1      34.572  23.100  22.681  1.00  0.00     0.002 C 
ENDROOT
BRANCH   1   2
ATOM      2  C   UNL A   1      33.249  23.461  22.010  1.00  0.00     0.021 C 
BRANCH   2   3
ATOM      3  C   UNL A   1      33.000  24.976  21.928  1.00  0.00     0.116 C 
BRANCH   3   4
ATOM      4  N   UNL A   1      31.608  25.291  22.170  1.00  0.00    -0.355 N 
ATOM      5  C   UNL A   1      30.850  24.895  23.256  1.00  0.00     0.233 C 
ATOM      6  O   UNL A   1      29.625  24.906  23.121  1.00  0.00    -0.274 OA
ATOM      7  H   UNL A   1      31.155  25.846  21.494  1.00  0.00     0.163 HD
BRANCH   5   8
ATOM      8  C   UNL A   1      31.614  24.503  24.600  1.00  0.00     0.121 C 
ATOM      9  N   UNL A   1      32.512  26.399  26.020  1.00  0.00    -0.200 NA
ATOM     10  C   UNL A   1      32.344  25.227  26.880  1.00  0.00     0.113 C 
ATOM     11  C   UNL A   1      31.701  26.096  24.803  1.00  0.00     0.125 C 
ATOM     12  C   UNL A   1      31.259  24.440  26.165  1.00  0.00     0.082 C 
ATOM     13  C   UNL A   1      31.219  23.010  26.695  1.00  0.00     0.268 C 
ATOM     14  C   UNL A   1      30.854  23.127  24.471  1.00  0.00     0.281 C 
ATOM     15  N   UNL A   1      31.329  22.208  25.506  1.00  0.00    -0.330 N 
ATOM     16  H   UNL A   1      30.767  21.357  25.543  1.00  0.00     0.348 HD
BRANCH   9  17
ATOM     17  S   UNL A   1      32.252  27.866  26.833  1.00  0.00     0.211 S 
ATOM     18  C   UNL A   1      31.690  28.953  25.543  1.00  0.00     0.176 C 
ATOM     19  O   UNL A   1      33.534  28.341  27.299  1.00  0.00    -0.213 OA
ATOM     20  O   UNL A   1      31.154  27.667  27.761  1.00  0.00    -0.213 OA
ENDBRANCH   9  17
BRANCH  15  21
ATOM     21  C   UNL A   1      32.586  21.459  25.286  1.00  0.00     0.302 C 
BRANCH  21  22
ATOM     22  C   UNL A   1      32.597  20.103  24.605  1.00  0.00     0.048 A 
ATOM     23  C   UNL A   1      32.261  19.983  23.248  1.00  0.00     0.015 A 
ATOM     24  C   UNL A   1      32.833  18.899  25.268  1.00  0.00     0.132 A 
ATOM     25  C   UNL A   1      32.423  18.779  22.568  1.00  0.00     0.021 A 
ATOM     26  N   UNL A   1      33.030  17.729  24.629  1.00  0.00    -0.239 NA
ATOM     27  C   UNL A   1      32.857  17.694  23.294  1.00  0.00     0.113 A 
BRANCH  24  28
ATOM     28  N   UNL A   1      32.902  18.799  26.641  1.00  0.00    -0.383 N 
ATOM     29  H   UNL A   1      33.742  18.525  27.073  1.00  0.00     0.158 HD
ATOM     30  H   UNL A   1      32.110  19.001  27.190  1.00  0.00     0.158 HD
ENDBRANCH  24  28
ENDBRANCH  21  22
ENDBRANCH  15  21
ENDBRANCH   5   8
ENDBRANCH   3   4
ENDBRANCH   2   3
ENDBRANCH   1   2
BRANCH   1  31
ATOM     31  C   UNL A   1      34.906  23.952  23.909  1.00  0.00     0.002 C 
BRANCH  31  32
ATOM     32  C   UNL A   1      35.738  23.249  24.986  1.00  0.00     0.021 C 
BRANCH  32  33
ATOM     33  C   UNL A   1      37.102  23.879  25.249  1.00  0.00     0.116 C 
BRANCH  33  34
ATOM     34  N   UNL A   1      38.097  22.872  25.585  1.00  0.00    -0.352 N 
ATOM     35  C   UNL A   1      39.313  23.028  26.201  1.00  0.00     0.251 C 
ATOM     36  H   UNL A   1      37.866  21.948  25.335  1.00  0.00     0.163 HD
ATOM     37  O   UNL A   1      40.150  22.132  26.150  1.00  0.00    -0.269 OA
BRANCH  35  38
ATOM     38  C   UNL A   1      39.604  24.284  26.922  1.00  0.00     0.039 A 
ATOM     39  C   UNL A   1      39.095  24.471  28.209  1.00  0.00     0.014 A 
ATOM     40  C   UNL A   1      40.378  25.277  26.317  1.00  0.00     0.014 A 
ATOM     41  C   UNL A   1      39.412  25.635  28.912  1.00  0.00     0.010 A 
ATOM     42  C   UNL A   1      40.756  26.398  27.045  1.00  0.00     0.010 A 
ATOM     43  C   UNL A   1      40.272  26.592  28.348  1.00  0.00    -0.014 A 
BRANCH  43  44
ATOM     44  C   UNL A   1      40.672  27.815  29.087  1.00  0.00     0.031 A 
ATOM     45  C   UNL A   1      42.001  27.858  29.791  1.00  0.00     0.074 A 
ATOM     46  C   UNL A   1      39.813  28.849  29.187  1.00  0.00     0.049 A 
ATOM     47  N   UNL A   1      42.485  28.775  30.588  1.00  0.00    -0.248 NA
ATOM     48  C   UNL A   1      42.894  26.704  29.594  1.00  0.00     0.031 C 
ATOM     49  C   UNL A   1      38.486  28.910  28.570  1.00  0.00     0.029 A 
ATOM     50  N   UNL A   1      39.920  30.042  29.857  1.00  0.00    -0.354 N 
ATOM     51  C   UNL A   1      43.732  28.308  30.988  1.00  0.00     0.074 A 
ATOM     52  C   UNL A   1      43.903  26.998  30.401  1.00  0.00     0.031 C 
ATOM     53  C   UNL A   1      37.912  30.086  28.873  1.00  0.00     0.029 A 
ATOM     54  C   UNL A   1      38.806  30.841  29.745  1.00  0.00     0.049 A 
ATOM     55  H   UNL A   1      40.720  30.302  30.369  1.00  0.00     0.167 HD
ATOM     56  C   UNL A   1      44.661  28.929  31.752  1.00  0.00     0.037 A 
ATOM     57  C   UNL A   1      38.531  32.038  30.299  1.00  0.00     0.037 A 
ATOM     58  C   UNL A   1      44.486  30.239  32.320  1.00  0.00     0.049 A 
ATOM     59  C   UNL A   1      39.561  32.685  31.188  1.00  0.00     0.074 A 
ATOM     60  C   UNL A   1      45.374  30.967  33.092  1.00  0.00     0.029 A 
ATOM     61  N   UNL A   1      43.347  31.019  32.178  1.00  0.00    -0.354 N 
ATOM     62  N   UNL A   1      40.751  32.247  31.524  1.00  0.00    -0.248 NA
ATOM     63  C   UNL A   1      39.215  33.989  31.773  1.00  0.00     0.031 C 
ATOM     64  C   UNL A   1      44.755  32.166  33.455  1.00  0.00     0.029 A 
ATOM     65  C   UNL A   1      43.504  32.213  32.859  1.00  0.00     0.049 A 
ATOM     66  H   UNL A   1      42.546  30.760  31.668  1.00  0.00     0.167 HD
ATOM     67  C   UNL A   1      41.311  33.240  32.321  1.00  0.00     0.074 A 
ATOM     68  C   UNL A   1      40.330  34.301  32.416  1.00  0.00     0.031 C 
ATOM     69  C   UNL A   1      42.528  33.273  32.915  1.00  0.00     0.037 A 
BRANCH  56  70
ATOM     70  C   UNL A   1      45.956  28.206  32.007  1.00  0.00     0.058 A 
ATOM     71  C   UNL A   1      47.065  28.367  31.161  1.00  0.00     0.135 A 
ATOM     72  C   UNL A   1      46.108  27.379  33.133  1.00  0.00     0.135 A 
ATOM     73  F   UNL A   1      46.971  29.131  30.062  1.00  0.00    -0.206 F 
ATOM     74  C   UNL A   1      48.269  27.716  31.407  1.00  0.00     0.059 A 
ATOM     75  C   UNL A   1      47.314  26.744  33.415  1.00  0.00     0.059 A 
ATOM     76  F   UNL A   1      45.081  27.187  33.975  1.00  0.00    -0.206 F 
ATOM     77  C   UNL A   1      48.385  26.909  32.538  1.00  0.00     0.060 A 
BRANCH  77  78
ATOM     78  S   UNL A   1      49.961  26.084  32.847  1.00  0.00     0.124 S 
ATOM     79  O   UNL A   1      50.534  26.040  31.505  1.00  0.00    -0.237 OA
ATOM     80  O   UNL A   1      50.610  26.997  33.783  1.00  0.00    -0.237 OA
ATOM     81  O   UNL A   1      49.567  24.794  33.403  1.00  0.00    -0.744 OA
ENDBRANCH  77  78
ENDBRANCH  56  70
BRANCH  57  82
ATOM     82  C   UNL A   1      37.235  32.716  30.022  1.00  0.00     0.058 A 
ATOM     83  C   UNL A   1      37.125  33.673  29.002  1.00  0.00     0.135 A 
ATOM     84  C   UNL A   1      36.085  32.436  30.778  1.00  0.00     0.135 A 
ATOM     85  F   UNL A   1      38.196  33.979  28.253  1.00  0.00    -0.206 F 
ATOM     86  C   UNL A   1      35.935  34.352  28.761  1.00  0.00     0.059 A 
ATOM     87  C   UNL A   1      34.875  33.079  30.536  1.00  0.00     0.059 A 
ATOM     88  F   UNL A   1      36.128  31.514  31.753  1.00  0.00    -0.206 F 
ATOM     89  C   UNL A   1      34.815  34.048  29.536  1.00  0.00     0.060 A 
BRANCH  89  90
ATOM     90  S   UNL A   1      33.271  34.925  29.205  1.00  0.00     0.124 S 
ATOM     91  O   UNL A   1      32.670  34.969  30.533  1.00  0.00    -0.237 OA
ATOM     92  O   UNL A   1      33.751  36.199  28.677  1.00  0.00    -0.237 OA
ATOM     93  O   UNL A   1      32.599  34.066  28.235  1.00  0.00    -0.744 OA
ENDBRANCH  89  90
ENDBRANCH  57  82
BRANCH  69  94
ATOM     94  C   UNL A   1      42.909  34.517  33.669  1.00  0.00     0.058 A 
ATOM     95  C   UNL A   1      42.685  34.649  35.047  1.00  0.00     0.135 A 
ATOM     96  C   UNL A   1      43.595  35.554  33.012  1.00  0.00     0.135 A 
ATOM     97  F   UNL A   1      42.026  33.693  35.719  1.00  0.00    -0.206 F 
ATOM     98  C   UNL A   1      43.122  35.768  35.749  1.00  0.00     0.059 A 
ATOM     99  C   UNL A   1      44.067  36.667  33.699  1.00  0.00     0.059 A 
ATOM    100  F   UNL A   1      43.841  35.473  31.696  1.00  0.00    -0.206 F 
ATOM    101  C   UNL A   1      43.822  36.767  35.068  1.00  0.00     0.060 A 
BRANCH 101 102
ATOM    102  S   UNL A   1      44.448  38.175  36.005  1.00  0.00     0.124 S 
ATOM    103  O   UNL A   1      45.873  37.871  36.080  1.00  0.00    -0.237 OA
ATOM    104  O   UNL A   1      44.084  39.303  35.151  1.00  0.00    -0.237 OA
ATOM    105  O   UNL A   1      43.723  38.095  37.269  1.00  0.00    -0.744 OA
ENDBRANCH 101 102
ENDBRANCH  69  94
ENDBRANCH  43  44
ENDBRANCH  35  38
ENDBRANCH  33  34
ENDBRANCH  32  33
ENDBRANCH  31  32
ENDBRANCH   1  31
TORSDOF 20
ENDMDL
MODEL 2
REMARK VINA RESULT:     -11.3      3.454      9.407
REMARK SMILES CS(=O)(=O)N1C[C@@H]2C[N@H+](Cc3cccnc3N)C[C@]2(C(=O)NCCCCCCNC(=O)c2ccc(-c3c4nc(c(-c5c(F)cc(S(=O)(=O)[O-])cc5F)c5ccc([nH]5)c(-c5c(F)cc(S(=O)(=O)[O-])cc5F)c5nc(c(-c6c(F)cc(S(=O)(=O)[O-])cc6F)c6ccc3[nH]6)C=C5)C=C4)cc2)C1
REMARK SMILES IDX 25 1 24 2 23 3 22 4 20 5 21 6 19 8 5 9 6 10 98 11 7 12 8 13
REMARK SMILES IDX 18 14 9 15 2 17 1 18 3 19 4 20 10 21 11 22 12 23 16 24 13 25
REMARK SMILES IDX 15 26 14 27 17 28 26 31 27 32 28 33 29 34 30 35 31 37 32 38
REMARK SMILES IDX 33 39 97 40 34 41 96 42 35 43 36 44 37 45 90 46 38 47 95 48
REMARK SMILES IDX 89 49 91 50 39 51 94 52 88 53 87 54 40 56 74 57 53 58 73 59
REMARK SMILES IDX 54 60 57 61 72 62 92 63 55 64 56 65 71 67 93 68 58 69 41 70
REMARK SMILES IDX 42 71 51 72 43 73 44 74 50 75 52 76 45 77 46 78 47 79 48 80
REMARK SMILES IDX 49 81 75 82 76 83 85 84 77 85 78 86 84 87 86 88 79 89 80 90
REMARK SMILES IDX 81 91 82 92 83 93 59 94 60 95 69 96 61 97 62 98 68 99 70 100
REMARK SMILES IDX 63 101 64 102 65 103 66 104 67 105
REMARK H PARENT 22 7 9 16 17 29 17 30 29 36 91 55 57 66
REMARK Flexibility Score: inf
ROOT
ATOM      1  C   UNL A   1      39.153  22.179  26.353  1.00  0.00     0.002 C 
ENDROOT
BRANCH   1   2
ATOM      2  C   UNL A   1      38.409  21.309  25.342  1.00  0.00     0.021 C 
BRANCH   2   3
ATOM      3  C   UNL A   1      36.963  21.767  25.091  1.00  0.00     0.116 C 
BRANCH   3   4
ATOM      4  N   UNL A   1      36.121  21.490  26.236  1.00  0.00    -0.355 N 
ATOM      5  C   UNL A   1      34.750  21.648  26.307  1.00  0.00     0.233 C 
ATOM      6  O   UNL A   1      34.253  21.750  27.430  1.00  0.00    -0.274 OA
ATOM      7  H   UNL A   1      36.570  21.155  27.046  1.00  0.00     0.163 HD
BRANCH   5   8
ATOM      8  C   UNL A   1      33.923  21.638  24.943  1.00  0.00     0.121 C 
ATOM      9  N   UNL A   1      33.475  19.385  23.875  1.00  0.00    -0.200 NA
ATOM     10  C   UNL A   1      32.466  20.327  23.389  1.00  0.00     0.113 C 
ATOM     11  C   UNL A   1      34.056  20.041  25.084  1.00  0.00     0.125 C 
ATOM     12  C   UNL A   1      32.404  21.355  24.506  1.00  0.00     0.082 C 
ATOM     13  C   UNL A   1      31.696  22.615  24.014  1.00  0.00     0.268 C 
ATOM     14  C   UNL A   1      33.426  23.065  25.391  1.00  0.00     0.281 C 
ATOM     15  N   UNL A   1      32.631  23.665  24.319  1.00  0.00    -0.330 N 
ATOM     16  H   UNL A   1      32.179  24.528  24.620  1.00  0.00     0.348 HD
BRANCH   9  17
ATOM     17  S   UNL A   1      32.896  17.795  24.004  1.00  0.00     0.211 S 
ATOM     18  C   UNL A   1      34.323  16.884  24.545  1.00  0.00     0.176 C 
ATOM     19  O   UNL A   1      32.549  17.347  22.675  1.00  0.00    -0.213 OA
ATOM     20  O   UNL A   1      31.915  17.769  25.074  1.00  0.00    -0.213 OA
ENDBRANCH   9  17
BRANCH  15  21
ATOM     21  C   UNL A   1      33.322  24.330  23.191  1.00  0.00     0.302 C 
BRANCH  21  22
ATOM     22  C   UNL A   1      33.479  25.839  23.133  1.00  0.00     0.048 A 
ATOM     23  C   UNL A   1      33.689  26.581  24.305  1.00  0.00     0.015 A 
ATOM     24  C   UNL A   1      33.332  26.593  21.970  1.00  0.00     0.132 A 
ATOM     25  C   UNL A   1      33.997  27.937  24.254  1.00  0.00     0.021 A 
ATOM     26  N   UNL A   1      33.660  27.898  21.887  1.00  0.00    -0.239 NA
ATOM     27  C   UNL A   1      34.018  28.538  23.016  1.00  0.00     0.113 A 
BRANCH  24  28
ATOM     28  N   UNL A   1      32.851  26.068  20.789  1.00  0.00    -0.383 N 
ATOM     29  H   UNL A   1      32.097  26.500  20.329  1.00  0.00     0.158 HD
ATOM     30  H   UNL A   1      33.263  25.260  20.406  1.00  0.00     0.158 HD
ENDBRANCH  24  28
ENDBRANCH  21  22
ENDBRANCH  15  21
ENDBRANCH   5   8
ENDBRANCH   3   4
ENDBRANCH   2   3
ENDBRANCH   1   2
BRANCH   1  31
ATOM     31  C   UNL A   1      40.598  21.745  26.611  1.00  0.00     0.002 C 
BRANCH  31  32
ATOM     32  C   UNL A   1      41.254  22.357  27.853  1.00  0.00     0.021 C 
BRANCH  32  33
ATOM     33  C   UNL A   1      42.476  23.223  27.566  1.00  0.00     0.116 C 
BRANCH  33  34
ATOM     34  N   UNL A   1      42.263  24.078  26.408  1.00  0.00    -0.352 N 
ATOM     35  C   UNL A   1      41.727  25.339  26.351  1.00  0.00     0.251 C 
ATOM     36  H   UNL A   1      42.543  23.699  25.544  1.00  0.00     0.163 HD
ATOM     37  O   UNL A   1      41.353  25.802  25.278  1.00  0.00    -0.269 OA
BRANCH  35  38
ATOM     38  C   UNL A   1      41.603  26.131  27.591  1.00  0.00     0.039 A 
ATOM     39  C   UNL A   1      42.657  26.958  27.988  1.00  0.00     0.014 A 
ATOM     40  C   UNL A   1      40.441  26.047  28.363  1.00  0.00     0.014 A 
ATOM     41  C   UNL A   1      42.519  27.746  29.132  1.00  0.00     0.010 A 
ATOM     42  C   UNL A   1      40.277  26.888  29.456  1.00  0.00     0.010 A 
ATOM     43  C   UNL A   1      41.316  27.741  29.857  1.00  0.00    -0.014 A 
BRANCH  43  44
ATOM     44  C   UNL A   1      41.118  28.605  31.047  1.00  0.00     0.031 A 
ATOM     45  C   UNL A   1      40.061  29.677  31.022  1.00  0.00     0.074 A 
ATOM     46  C   UNL A   1      41.933  28.476  32.112  1.00  0.00     0.049 A 
ATOM     47  N   UNL A   1      39.810  30.610  31.902  1.00  0.00    -0.248 NA
ATOM     48  C   UNL A   1      39.187  29.719  29.837  1.00  0.00     0.031 C 
ATOM     49  C   UNL A   1      43.011  27.492  32.240  1.00  0.00     0.029 A 
ATOM     50  N   UNL A   1      41.994  29.185  33.286  1.00  0.00    -0.354 N 
ATOM     51  C   UNL A   1      38.756  31.351  31.377  1.00  0.00     0.074 A 
ATOM     52  C   UNL A   1      38.459  30.800  30.074  1.00  0.00     0.031 C 
ATOM     53  C   UNL A   1      43.611  27.647  33.431  1.00  0.00     0.029 A 
ATOM     54  C   UNL A   1      42.997  28.770  34.132  1.00  0.00     0.049 A 
ATOM     55  H   UNL A   1      41.377  29.921  33.503  1.00  0.00     0.167 HD
ATOM     56  C   UNL A   1      38.081  32.377  31.943  1.00  0.00     0.037 A 
ATOM     57  C   UNL A   1      43.387  29.254  35.327  1.00  0.00     0.037 A 
ATOM     58  C   UNL A   1      38.376  32.909  33.247  1.00  0.00     0.049 A 
ATOM     59  C   UNL A   1      42.652  30.431  35.913  1.00  0.00     0.074 A 
ATOM     60  C   UNL A   1      37.738  33.934  33.923  1.00  0.00     0.029 A 
ATOM     61  N   UNL A   1      39.394  32.457  34.076  1.00  0.00    -0.354 N 
ATOM     62  N   UNL A   1      41.633  31.094  35.420  1.00  0.00    -0.248 NA
ATOM     63  C   UNL A   1      43.116  30.927  37.217  1.00  0.00     0.031 C 
ATOM     64  C   UNL A   1      38.399  34.133  35.139  1.00  0.00     0.029 A 
ATOM     65  C   UNL A   1      39.411  33.191  35.248  1.00  0.00     0.049 A 
ATOM     66  H   UNL A   1      40.013  31.722  33.859  1.00  0.00     0.167 HD
ATOM     67  C   UNL A   1      41.307  32.054  36.374  1.00  0.00     0.074 A 
ATOM     68  C   UNL A   1      42.236  31.884  37.471  1.00  0.00     0.031 C 
ATOM     69  C   UNL A   1      40.324  32.986  36.345  1.00  0.00     0.037 A 
BRANCH  56  70
ATOM     70  C   UNL A   1      36.947  32.986  31.164  1.00  0.00     0.058 A 
ATOM     71  C   UNL A   1      37.179  33.908  30.130  1.00  0.00     0.135 A 
ATOM     72  C   UNL A   1      35.617  32.612  31.418  1.00  0.00     0.135 A 
ATOM     73  F   UNL A   1      38.428  34.315  29.854  1.00  0.00    -0.206 F 
ATOM     74  C   UNL A   1      36.134  34.455  29.395  1.00  0.00     0.059 A 
ATOM     75  C   UNL A   1      34.558  33.123  30.673  1.00  0.00     0.059 A 
ATOM     76  F   UNL A   1      35.336  31.736  32.396  1.00  0.00    -0.206 F 
ATOM     77  C   UNL A   1      34.826  34.054  29.671  1.00  0.00     0.060 A 
BRANCH  77  78
ATOM     78  S   UNL A   1      33.485  34.766  28.696  1.00  0.00     0.124 S 
ATOM     79  O   UNL A   1      33.187  33.676  27.771  1.00  0.00    -0.237 OA
ATOM     80  O   UNL A   1      32.470  35.032  29.711  1.00  0.00    -0.237 OA
ATOM     81  O   UNL A   1      34.092  35.949  28.094  1.00  0.00    -0.744 OA
ENDBRANCH  77  78
ENDBRANCH  56  70
BRANCH  57  82
ATOM     82  C   UNL A   1      44.518  28.623  36.062  1.00  0.00     0.058 A 
ATOM     83  C   UNL A   1      45.837  29.055  35.862  1.00  0.00     0.135 A 
ATOM     84  C   UNL A   1      44.308  27.567  36.963  1.00  0.00     0.135 A 
ATOM     85  F   UNL A   1      46.091  30.060  35.009  1.00  0.00    -0.206 F 
ATOM     86  C   UNL A   1      46.912  28.446  36.502  1.00  0.00     0.059 A 
ATOM     87  C   UNL A   1      45.363  26.961  37.639  1.00  0.00     0.059 A 
ATOM     88  F   UNL A   1      43.064  27.126  37.207  1.00  0.00    -0.206 F 
ATOM     89  C   UNL A   1      46.663  27.397  37.388  1.00  0.00     0.060 A 
BRANCH  89  90
ATOM     90  S   UNL A   1      48.064  26.621  38.225  1.00  0.00     0.124 S 
ATOM     91  O   UNL A   1      48.012  25.267  37.686  1.00  0.00    -0.237 OA
ATOM     92  O   UNL A   1      49.181  27.446  37.776  1.00  0.00    -0.237 OA
ATOM     93  O   UNL A   1      47.724  26.753  39.638  1.00  0.00    -0.744 OA
ENDBRANCH  89  90
ENDBRANCH  57  82
BRANCH  69  94
ATOM     94  C   UNL A   1      40.148  33.859  37.557  1.00  0.00     0.058 A 
ATOM     95  C   UNL A   1      40.855  35.059  37.717  1.00  0.00     0.135 A 
ATOM     96  C   UNL A   1      39.184  33.529  38.526  1.00  0.00     0.135 A 
ATOM     97  F   UNL A   1      41.792  35.416  36.826  1.00  0.00    -0.206 F 
ATOM     98  C   UNL A   1      40.618  35.901  38.800  1.00  0.00     0.059 A 
ATOM     99  C   UNL A   1      38.910  34.369  39.599  1.00  0.00     0.059 A 
ATOM    100  F   UNL A   1      38.475  32.395  38.415  1.00  0.00    -0.206 F 
ATOM    101  C   UNL A   1      39.635  35.552  39.729  1.00  0.00     0.060 A 
BRANCH 101 102
ATOM    102  S   UNL A   1      39.286  36.691  41.085  1.00  0.00     0.124 S 
ATOM    103  O   UNL A   1      38.616  37.784  40.388  1.00  0.00    -0.237 OA
ATOM    104  O   UNL A   1      38.440  35.883  41.958  1.00  0.00    -0.237 OA
ATOM    105  O   UNL A   1      40.608  37.004  41.618  1.00  0.00    -0.744 OA
ENDBRANCH 101 102
ENDBRANCH  69  94
ENDBRANCH  43  44
ENDBRANCH  35  38
ENDBRANCH  33  34
ENDBRANCH  32  33
ENDBRANCH  31  32
ENDBRANCH   1  31
TORSDOF 20
ENDMDL
MODEL 3
REMARK VINA RESULT:     -11.1      2.747      3.792
REMARK SMILES CS(=O)(=O)N1C[C@@H]2C[N@H+](Cc3cccnc3N)C[C@]2(C(=O)NCCCCCCNC(=O)c2ccc(-c3c4nc(c(-c5c(F)cc(S(=O)(=O)[O-])cc5F)c5ccc([nH]5)c(-c5c(F)cc(S(=O)(=O)[O-])cc5F)c5nc(c(-c6c(F)cc(S(=O)(=O)[O-])cc6F)c6ccc3[nH]6)C=C5)C=C4)cc2)C1
REMARK SMILES IDX 25 1 24 2 23 3 22 4 20 5 21 6 19 8 5 9 6 10 98 11 7 12 8 13
REMARK SMILES IDX 18 14 9 15 2 17 1 18 3 19 4 20 10 21 11 22 12 23 16 24 13 25
REMARK SMILES IDX 15 26 14 27 17 28 26 31 27 32 28 33 29 34 30 35 31 37 32 38
REMARK SMILES IDX 33 39 97 40 34 41 96 42 35 43 36 44 37 45 90 46 38 47 95 48
REMARK SMILES IDX 89 49 91 50 39 51 94 52 88 53 87 54 40 56 74 57 53 58 73 59
REMARK SMILES IDX 54 60 57 61 72 62 92 63 55 64 56 65 71 67 93 68 58 69 41 70
REMARK SMILES IDX 42 71 51 72 43 73 44 74 50 75 52 76 45 77 46 78 47 79 48 80
REMARK SMILES IDX 49 81 75 82 76 83 85 84 77 85 78 86 84 87 86 88 79 89 80 90
REMARK SMILES IDX 81 91 82 92 83 93 59 94 60 95 69 96 61 97 62 98 68 99 70 100
REMARK SMILES IDX 63 101 64 102 65 103 66 104 67 105
REMARK H PARENT 22 7 9 16 17 29 17 30 29 36 91 55 57 66
REMARK Flexibility Score: inf
ROOT
ATOM      1  C   UNL A   1      38.064  23.349  26.127  1.00  0.00     0.002 C 
ENDROOT
BRANCH   1   2
ATOM      2  C   UNL A   1      37.019  23.690  25.067  1.00  0.00     0.021 C 
BRANCH   2   3
ATOM      3  C   UNL A   1      35.654  24.074  25.658  1.00  0.00     0.116 C 
BRANCH   3   4
ATOM      4  N   UNL A   1      35.290  23.194  26.750  1.00  0.00    -0.355 N 
ATOM      5  C   UNL A   1      34.032  22.687  27.015  1.00  0.00     0.233 C 
ATOM      6  O   UNL A   1      33.815  22.296  28.164  1.00  0.00    -0.274 OA
ATOM      7  H   UNL A   1      36.013  22.929  27.364  1.00  0.00     0.163 HD
BRANCH   5   8
ATOM      8  C   UNL A   1      32.988  22.606  25.813  1.00  0.00     0.121 C 
ATOM      9  N   UNL A   1      31.302  24.485  25.612  1.00  0.00    -0.200 NA
ATOM     10  C   UNL A   1      31.440  23.856  24.298  1.00  0.00     0.113 C 
ATOM     11  C   UNL A   1      32.500  24.030  26.378  1.00  0.00     0.125 C 
ATOM     12  C   UNL A   1      32.838  23.264  24.356  1.00  0.00     0.082 C 
ATOM     13  C   UNL A   1      33.017  22.244  23.235  1.00  0.00     0.268 C 
ATOM     14  C   UNL A   1      34.028  21.621  25.154  1.00  0.00     0.281 C 
ATOM     15  N   UNL A   1      33.463  21.063  23.925  1.00  0.00    -0.330 N 
ATOM     16  H   UNL A   1      34.155  20.529  23.399  1.00  0.00     0.348 HD
BRANCH   9  17
ATOM     17  S   UNL A   1      30.969  26.147  25.523  1.00  0.00     0.211 S 
ATOM     18  C   UNL A   1      29.498  26.215  24.527  1.00  0.00     0.176 C 
ATOM     19  O   UNL A   1      32.044  26.770  24.787  1.00  0.00    -0.213 OA
ATOM     20  O   UNL A   1      30.626  26.600  26.859  1.00  0.00    -0.213 OA
ENDBRANCH   9  17
BRANCH  15  21
ATOM     21  C   UNL A   1      32.532  19.916  24.013  1.00  0.00     0.302 C 
BRANCH  21  22
ATOM     22  C   UNL A   1      33.033  18.496  24.208  1.00  0.00     0.048 A 
ATOM     23  C   UNL A   1      33.322  17.683  23.102  1.00  0.00     0.015 A 
ATOM     24  C   UNL A   1      33.148  17.874  25.450  1.00  0.00     0.132 A 
ATOM     25  C   UNL A   1      33.934  16.443  23.259  1.00  0.00     0.021 A 
ATOM     26  N   UNL A   1      33.770  16.692  25.631  1.00  0.00    -0.239 NA
ATOM     27  C   UNL A   1      34.182  16.015  24.543  1.00  0.00     0.113 A 
BRANCH  24  28
ATOM     28  N   UNL A   1      32.647  18.420  26.613  1.00  0.00    -0.383 N 
ATOM     29  H   UNL A   1      33.110  18.267  27.468  1.00  0.00     0.158 HD
ATOM     30  H   UNL A   1      31.826  18.962  26.589  1.00  0.00     0.158 HD
ENDBRANCH  24  28
ENDBRANCH  21  22
ENDBRANCH  15  21
ENDBRANCH   5   8
ENDBRANCH   3   4
ENDBRANCH   2   3
ENDBRANCH   1   2
BRANCH   1  31
ATOM     31  C   UNL A   1      38.696  21.964  25.962  1.00  0.00     0.002 C 
BRANCH  31  32
ATOM     32  C   UNL A   1      40.017  21.755  26.708  1.00  0.00     0.021 C 
BRANCH  32  33
ATOM     33  C   UNL A   1      40.683  23.037  27.197  1.00  0.00     0.116 C 
BRANCH  33  34
ATOM     34  N   UNL A   1      41.511  23.635  26.161  1.00  0.00    -0.352 N 
ATOM     35  C   UNL A   1      41.811  24.956  25.947  1.00  0.00     0.251 C 
ATOM     36  H   UNL A   1      41.913  23.002  25.522  1.00  0.00     0.163 HD
ATOM     37  O   UNL A   1      42.281  25.316  24.872  1.00  0.00    -0.269 OA
BRANCH  35  38
ATOM     38  C   UNL A   1      41.563  25.939  27.021  1.00  0.00     0.039 A 
ATOM     39  C   UNL A   1      40.573  25.683  27.972  1.00  0.00     0.014 A 
ATOM     40  C   UNL A   1      42.312  27.117  27.080  1.00  0.00     0.014 A 
ATOM     41  C   UNL A   1      40.373  26.586  29.018  1.00  0.00     0.010 A 
ATOM     42  C   UNL A   1      42.165  27.975  28.162  1.00  0.00     0.010 A 
ATOM     43  C   UNL A   1      41.190  27.722  29.139  1.00  0.00    -0.014 A 
BRANCH  43  44
ATOM     44  C   UNL A   1      41.039  28.675  30.267  1.00  0.00     0.031 A 
ATOM     45  C   UNL A   1      41.923  28.541  31.478  1.00  0.00     0.074 A 
ATOM     46  C   UNL A   1      40.065  29.606  30.233  1.00  0.00     0.049 A 
ATOM     47  N   UNL A   1      41.872  29.187  32.613  1.00  0.00    -0.248 NA
ATOM     48  C   UNL A   1      42.988  27.526  31.413  1.00  0.00     0.031 C 
ATOM     49  C   UNL A   1      39.131  29.814  29.124  1.00  0.00     0.029 A 
ATOM     50  N   UNL A   1      39.687  30.543  31.161  1.00  0.00    -0.354 N 
ATOM     51  C   UNL A   1      42.892  28.657  33.396  1.00  0.00     0.074 A 
ATOM     52  C   UNL A   1      43.501  27.591  32.632  1.00  0.00     0.031 C 
ATOM     53  C   UNL A   1      38.302  30.826  29.429  1.00  0.00     0.029 A 
ATOM     54  C   UNL A   1      38.612  31.307  30.771  1.00  0.00     0.049 A 
ATOM     55  H   UNL A   1      40.145  30.659  32.026  1.00  0.00     0.167 HD
ATOM     56  C   UNL A   1      43.300  29.043  34.627  1.00  0.00     0.037 A 
ATOM     57  C   UNL A   1      37.942  32.273  31.430  1.00  0.00     0.037 A 
ATOM     58  C   UNL A   1      42.695  30.115  35.372  1.00  0.00     0.049 A 
ATOM     59  C   UNL A   1      38.383  32.649  32.820  1.00  0.00     0.074 A 
ATOM     60  C   UNL A   1      43.046  30.601  36.619  1.00  0.00     0.029 A 
ATOM     61  N   UNL A   1      41.613  30.869  34.940  1.00  0.00    -0.354 N 
ATOM     62  N   UNL A   1      39.374  32.163  33.530  1.00  0.00    -0.248 NA
ATOM     63  C   UNL A   1      37.619  33.704  33.501  1.00  0.00     0.031 C 
ATOM     64  C   UNL A   1      42.148  31.616  36.961  1.00  0.00     0.029 A 
ATOM     65  C   UNL A   1      41.275  31.805  35.901  1.00  0.00     0.049 A 
ATOM     66  H   UNL A   1      41.154  30.753  34.076  1.00  0.00     0.167 HD
ATOM     67  C   UNL A   1      39.379  32.885  34.719  1.00  0.00     0.074 A 
ATOM     68  C   UNL A   1      38.294  33.839  34.633  1.00  0.00     0.031 C 
ATOM     69  C   UNL A   1      40.210  32.770  35.784  1.00  0.00     0.037 A 
BRANCH  56  70
ATOM     70  C   UNL A   1      44.464  28.314  35.241  1.00  0.00     0.058 A 
ATOM     71  C   UNL A   1      44.277  27.165  36.028  1.00  0.00     0.135 A 
ATOM     72  C   UNL A   1      45.782  28.736  35.005  1.00  0.00     0.135 A 
ATOM     73  F   UNL A   1      43.038  26.726  36.301  1.00  0.00    -0.206 F 
ATOM     74  C   UNL A   1      45.353  26.478  36.579  1.00  0.00     0.059 A 
ATOM     75  C   UNL A   1      46.875  28.045  35.520  1.00  0.00     0.059 A 
ATOM     76  F   UNL A   1      46.020  29.828  34.262  1.00  0.00    -0.206 F 
ATOM     77  C   UNL A   1      46.649  26.923  36.317  1.00  0.00     0.060 A 
BRANCH  77  78
ATOM     78  S   UNL A   1      48.031  26.008  37.030  1.00  0.00     0.124 S 
ATOM     79  O   UNL A   1      47.673  24.633  36.697  1.00  0.00    -0.237 OA
ATOM     80  O   UNL A   1      49.174  26.559  36.307  1.00  0.00    -0.237 OA
ATOM     81  O   UNL A   1      47.968  26.345  38.449  1.00  0.00    -0.744 OA
ENDBRANCH  77  78
ENDBRANCH  56  70
BRANCH  57  82
ATOM     82  C   UNL A   1      36.793  32.965  30.785  1.00  0.00     0.058 A 
ATOM     83  C   UNL A   1      37.001  33.975  29.835  1.00  0.00     0.135 A 
ATOM     84  C   UNL A   1      35.466  32.646  31.114  1.00  0.00     0.135 A 
ATOM     85  F   UNL A   1      38.251  34.321  29.488  1.00  0.00    -0.206 F 
ATOM     86  C   UNL A   1      35.941  34.668  29.257  1.00  0.00     0.059 A 
ATOM     87  C   UNL A   1      34.387  33.302  30.528  1.00  0.00     0.059 A 
ATOM     88  F   UNL A   1      35.207  31.673  32.003  1.00  0.00    -0.206 F 
ATOM     89  C   UNL A   1      34.637  34.324  29.614  1.00  0.00     0.060 A 
BRANCH  89  90
ATOM     90  S   UNL A   1      33.267  35.219  28.848  1.00  0.00     0.124 S 
ATOM     91  O   UNL A   1      33.976  36.231  28.074  1.00  0.00    -0.237 OA
ATOM     92  O   UNL A   1      32.610  34.168  28.077  1.00  0.00    -0.237 OA
ATOM     93  O   UNL A   1      32.509  35.714  29.993  1.00  0.00    -0.744 OA
ENDBRANCH  89  90
ENDBRANCH  57  82
BRANCH  69  94
ATOM     94  C   UNL A   1      40.033  33.739  36.920  1.00  0.00     0.058 A 
ATOM     95  C   UNL A   1      40.668  34.989  36.936  1.00  0.00     0.135 A 
ATOM     96  C   UNL A   1      39.137  33.443  37.962  1.00  0.00     0.135 A 
ATOM     97  F   UNL A   1      41.540  35.317  35.971  1.00  0.00    -0.206 F 
ATOM     98  C   UNL A   1      40.426  35.912  37.949  1.00  0.00     0.059 A 
ATOM     99  C   UNL A   1      38.857  34.362  38.968  1.00  0.00     0.059 A 
ATOM    100  F   UNL A   1      38.497  32.264  37.989  1.00  0.00    -0.206 F 
ATOM    101  C   UNL A   1      39.510  35.593  38.954  1.00  0.00     0.060 A 
BRANCH 101 102
ATOM    102  S   UNL A   1      39.150  36.830  40.218  1.00  0.00     0.124 S 
ATOM    103  O   UNL A   1      38.188  36.123  41.058  1.00  0.00    -0.237 OA
ATOM    104  O   UNL A   1      40.464  37.056  40.813  1.00  0.00    -0.237 OA
ATOM    105  O   UNL A   1      38.612  37.952  39.455  1.00  0.00    -0.744 OA
ENDBRANCH 101 102
ENDBRANCH  69  94
ENDBRANCH  43  44
ENDBRANCH  35  38
ENDBRANCH  33  34
ENDBRANCH  32  33
ENDBRANCH  31  32
ENDBRANCH   1  31
TORSDOF 20
ENDMDL
