MODEL 1
REMARK VINA RESULT:     -13.8      0.000      0.000
REMARK SMILES Cc1ccc(-c2cc(OCC(=O)NCCCCCCNC(=O)c3ccc(-c4c5nc(c(-c6c(F)cc(S(=O)(=O)[O-])cc6F)c6ccc([nH]6)c(-c6c(F)cc(S(=O)(=O)[O-])cc6F)c6nc(c(-c7c(F)cc(S(=O)(=O)[O-])cc7F)c7ccc4[nH]7)C=C6)C=C5)cc3)nc(NCc3ccc4c(c3)OCO4)n2)cc1
REMARK SMILES IDX 15 1 14 2 13 3 11 4 12 5 10 7 9 8 8 9 6 10 7 11 102 12 90 13
REMARK SMILES IDX 89 14 5 15 1 16 2 17 3 18 104 19 4 20 103 21 91 22 92 24
REMARK SMILES IDX 93 25 94 26 98 27 95 28 97 29 96 30 99 31 101 32 100 33
REMARK SMILES IDX 16 34 17 35 18 36 19 37 20 38 21 39 22 41 23 42 24 43 88 44
REMARK SMILES IDX 25 45 87 46 26 47 27 48 28 49 81 50 29 51 86 52 80 53 82 54
REMARK SMILES IDX 30 55 85 56 79 57 78 58 31 60 65 61 44 62 64 63 45 64 48 65
REMARK SMILES IDX 63 66 83 67 46 68 47 69 62 71 84 72 49 73 32 74 33 75 42 76
REMARK SMILES IDX 34 77 35 78 41 79 43 80 36 81 37 82 38 83 39 84 40 85 66 86
REMARK SMILES IDX 67 87 76 88 68 89 69 90 75 91 77 92 70 93 71 94 72 95 73 96
REMARK SMILES IDX 74 97 50 98 51 99 60 100 52 101 53 102 59 103 61 104 54 105
REMARK SMILES IDX 55 106 56 107 57 108 58 109
REMARK H PARENT 13 6 91 23 20 40 82 59 48 70
REMARK Flexibility Score: inf
ROOT
ATOM      1  C   UNL A   1      31.257  27.716  24.335  1.00  0.00     0.021 C 
ENDROOT
BRANCH   1   2
ATOM      2  C   UNL A   1      32.721  27.543  23.935  1.00  0.00     0.116 C 
BRANCH   2   3
ATOM      3  N   UNL A   1      32.885  27.084  22.570  1.00  0.00    -0.353 N 
ATOM      4  C   UNL A   1      33.358  25.885  22.130  1.00  0.00     0.258 C 
ATOM      5  O   UNL A   1      33.334  25.634  20.922  1.00  0.00    -0.271 OA
ATOM      6  H   UNL A   1      32.618  27.722  21.868  1.00  0.00     0.163 HD
BRANCH   4   7
ATOM      7  C   UNL A   1      33.892  24.859  23.138  1.00  0.00     0.331 C 
BRANCH   7   8
ATOM      8  O   UNL A   1      33.495  23.514  22.948  1.00  0.00    -0.467 OA
BRANCH   8   9
ATOM      9  C   UNL A   1      33.976  22.576  23.814  1.00  0.00     0.219 A 
ATOM     10  C   UNL A   1      34.182  20.482  24.825  1.00  0.00     0.080 A 
ATOM     11  C   UNL A   1      33.536  21.282  23.906  1.00  0.00     0.097 A 
ATOM     12  N   UNL A   1      35.137  20.950  25.650  1.00  0.00    -0.213 NA
ATOM     13  C   UNL A   1      35.504  22.226  25.489  1.00  0.00     0.226 A 
ATOM     14  N   UNL A   1      34.959  23.052  24.588  1.00  0.00    -0.177 NA
BRANCH  10  15
ATOM     15  C   UNL A   1      33.891  19.047  24.888  1.00  0.00     0.000 A 
ATOM     16  C   UNL A   1      33.059  14.823  25.334  1.00  0.00     0.044 C 
ATOM     17  C   UNL A   1      33.334  16.286  25.162  1.00  0.00    -0.051 A 
ATOM     18  C   UNL A   1      34.548  16.720  24.615  1.00  0.00     0.004 A 
ATOM     19  C   UNL A   1      32.391  17.239  25.557  1.00  0.00     0.004 A 
ATOM     20  C   UNL A   1      34.820  18.086  24.471  1.00  0.00     0.010 A 
ATOM     21  C   UNL A   1      32.668  18.601  25.422  1.00  0.00     0.010 A 
ENDBRANCH  10  15
BRANCH  13  22
ATOM     22  N   UNL A   1      36.499  22.776  26.245  1.00  0.00    -0.350 N 
ATOM     23  H   UNL A   1      36.356  22.874  27.215  1.00  0.00     0.164 HD
BRANCH  22  24
ATOM     24  C   UNL A   1      37.749  23.217  25.685  1.00  0.00     0.152 C 
BRANCH  24  25
ATOM     25  C   UNL A   1      38.941  22.418  26.189  1.00  0.00    -0.025 A 
ATOM     26  C   UNL A   1      39.736  22.970  27.224  1.00  0.00     0.009 A 
ATOM     27  C   UNL A   1      39.261  21.139  25.699  1.00  0.00     0.056 A 
ATOM     28  C   UNL A   1      40.845  22.287  27.736  1.00  0.00     0.051 A 
ATOM     29  C   UNL A   1      40.368  20.494  26.211  1.00  0.00     0.166 A 
ATOM     30  C   UNL A   1      41.142  21.055  27.197  1.00  0.00     0.165 A 
ATOM     31  O   UNL A   1      40.830  19.279  25.813  1.00  0.00    -0.454 OA
ATOM     32  O   UNL A   1      42.192  20.263  27.545  1.00  0.00    -0.454 OA
ATOM     33  C   UNL A   1      42.008  19.159  26.635  1.00  0.00     0.468 C 
ENDBRANCH  24  25
ENDBRANCH  22  24
ENDBRANCH  13  22
ENDBRANCH   8   9
ENDBRANCH   7   8
ENDBRANCH   4   7
ENDBRANCH   2   3
ENDBRANCH   1   2
BRANCH   1  34
ATOM     34  C   UNL A   1      30.837  27.076  25.664  1.00  0.00     0.002 C 
BRANCH  34  35
ATOM     35  C   UNL A   1      31.455  27.641  26.953  1.00  0.00     0.002 C 
BRANCH  35  36
ATOM     36  C   UNL A   1      32.012  29.065  26.898  1.00  0.00     0.021 C 
BRANCH  36  37
ATOM     37  C   UNL A   1      33.502  29.176  27.190  1.00  0.00     0.116 C 
BRANCH  37  38
ATOM     38  N   UNL A   1      34.037  30.518  27.037  1.00  0.00    -0.352 N 
ATOM     39  C   UNL A   1      35.005  31.062  27.873  1.00  0.00     0.251 C 
ATOM     40  H   UNL A   1      33.694  31.073  26.300  1.00  0.00     0.163 HD
ATOM     41  O   UNL A   1      35.010  32.223  28.240  1.00  0.00    -0.269 OA
BRANCH  39  42
ATOM     42  C   UNL A   1      36.135  30.159  28.190  1.00  0.00     0.039 A 
ATOM     43  C   UNL A   1      36.196  29.606  29.474  1.00  0.00     0.014 A 
ATOM     44  C   UNL A   1      37.222  30.090  27.323  1.00  0.00     0.014 A 
ATOM     45  C   UNL A   1      37.410  29.114  29.948  1.00  0.00     0.010 A 
ATOM     46  C   UNL A   1      38.441  29.676  27.824  1.00  0.00     0.010 A 
ATOM     47  C   UNL A   1      38.547  29.230  29.150  1.00  0.00    -0.014 A 
BRANCH  47  48
ATOM     48  C   UNL A   1      39.907  28.983  29.623  1.00  0.00     0.031 A 
ATOM     49  C   UNL A   1      40.603  27.721  29.272  1.00  0.00     0.074 A 
ATOM     50  C   UNL A   1      40.575  29.948  30.289  1.00  0.00     0.049 A 
ATOM     51  N   UNL A   1      41.705  27.314  29.809  1.00  0.00    -0.248 NA
ATOM     52  C   UNL A   1      40.039  26.757  28.332  1.00  0.00     0.031 C 
ATOM     53  C   UNL A   1      42.019  30.049  30.475  1.00  0.00     0.029 A 
ATOM     54  N   UNL A   1      40.048  30.933  31.125  1.00  0.00    -0.354 N 
ATOM     55  C   UNL A   1      42.143  26.218  29.098  1.00  0.00     0.074 A 
ATOM     56  C   UNL A   1      41.007  25.839  28.297  1.00  0.00     0.031 C 
ATOM     57  C   UNL A   1      42.270  30.854  31.517  1.00  0.00     0.029 A 
ATOM     58  C   UNL A   1      40.997  31.165  32.140  1.00  0.00     0.049 A 
ATOM     59  H   UNL A   1      39.176  31.380  31.024  1.00  0.00     0.167 HD
ATOM     60  C   UNL A   1      43.460  25.863  29.178  1.00  0.00     0.037 A 
ATOM     61  C   UNL A   1      40.703  30.928  33.454  1.00  0.00     0.037 A 
ATOM     62  C   UNL A   1      44.102  26.530  30.318  1.00  0.00     0.049 A 
ATOM     63  C   UNL A   1      41.568  29.874  34.107  1.00  0.00     0.074 A 
ATOM     64  C   UNL A   1      44.975  27.600  30.430  1.00  0.00     0.029 A 
ATOM     65  N   UNL A   1      43.654  26.256  31.610  1.00  0.00    -0.354 N 
ATOM     66  N   UNL A   1      42.350  29.058  33.454  1.00  0.00    -0.248 NA
ATOM     67  C   UNL A   1      41.604  29.638  35.549  1.00  0.00     0.031 C 
ATOM     68  C   UNL A   1      44.973  28.026  31.787  1.00  0.00     0.029 A 
ATOM     69  C   UNL A   1      44.128  27.197  32.504  1.00  0.00     0.049 A 
ATOM     70  H   UNL A   1      43.079  25.495  31.853  1.00  0.00     0.167 HD
ATOM     71  C   UNL A   1      42.931  28.179  34.329  1.00  0.00     0.074 A 
ATOM     72  C   UNL A   1      42.464  28.607  35.634  1.00  0.00     0.031 C 
ATOM     73  C   UNL A   1      43.733  27.156  33.907  1.00  0.00     0.037 A 
BRANCH  60  74
ATOM     74  C   UNL A   1      44.242  25.123  28.088  1.00  0.00     0.058 A 
ATOM     75  C   UNL A   1      44.779  25.832  26.986  1.00  0.00     0.135 A 
ATOM     76  C   UNL A   1      44.394  23.722  27.981  1.00  0.00     0.135 A 
ATOM     77  F   UNL A   1      44.767  27.172  26.946  1.00  0.00    -0.206 F 
ATOM     78  C   UNL A   1      45.335  25.208  25.858  1.00  0.00     0.059 A 
ATOM     79  C   UNL A   1      44.950  23.077  26.872  1.00  0.00     0.059 A 
ATOM     80  F   UNL A   1      44.006  22.875  28.933  1.00  0.00    -0.206 F 
ATOM     81  C   UNL A   1      45.397  23.824  25.801  1.00  0.00     0.060 A 
BRANCH  81  82
ATOM     82  S   UNL A   1      46.047  23.008  24.331  1.00  0.00     0.124 S 
ATOM     83  O   UNL A   1      47.069  23.950  23.889  1.00  0.00    -0.237 OA
ATOM     84  O   UNL A   1      46.532  21.742  24.868  1.00  0.00    -0.237 OA
ATOM     85  O   UNL A   1      44.881  22.904  23.456  1.00  0.00    -0.744 OA
ENDBRANCH  81  82
ENDBRANCH  60  74
BRANCH  61  86
ATOM     86  C   UNL A   1      39.282  31.220  33.790  1.00  0.00     0.058 A 
ATOM     87  C   UNL A   1      38.955  32.554  34.096  1.00  0.00     0.135 A 
ATOM     88  C   UNL A   1      38.248  30.380  33.353  1.00  0.00     0.135 A 
ATOM     89  F   UNL A   1      39.904  33.389  34.552  1.00  0.00    -0.206 F 
ATOM     90  C   UNL A   1      37.709  33.088  33.792  1.00  0.00     0.059 A 
ATOM     91  C   UNL A   1      36.984  30.893  33.053  1.00  0.00     0.059 A 
ATOM     92  F   UNL A   1      38.498  29.095  33.060  1.00  0.00    -0.206 F 
ATOM     93  C   UNL A   1      36.759  32.265  33.191  1.00  0.00     0.060 A 
BRANCH  93  94
ATOM     94  S   UNL A   1      35.307  33.046  32.443  1.00  0.00     0.124 S 
ATOM     95  O   UNL A   1      35.859  34.297  31.935  1.00  0.00    -0.237 OA
ATOM     96  O   UNL A   1      34.924  32.066  31.426  1.00  0.00    -0.237 OA
ATOM     97  O   UNL A   1      34.383  33.173  33.563  1.00  0.00    -0.744 OA
ENDBRANCH  93  94
ENDBRANCH  61  86
BRANCH  73  98
ATOM     98  C   UNL A   1      44.277  26.064  34.796  1.00  0.00     0.058 A 
ATOM     99  C   UNL A   1      43.535  24.940  35.199  1.00  0.00     0.135 A 
ATOM    100  C   UNL A   1      45.640  26.065  35.171  1.00  0.00     0.135 A 
ATOM    101  F   UNL A   1      42.261  24.775  34.812  1.00  0.00    -0.206 F 
ATOM    102  C   UNL A   1      44.084  23.921  35.981  1.00  0.00     0.059 A 
ATOM    103  C   UNL A   1      46.222  25.036  35.909  1.00  0.00     0.059 A 
ATOM    104  F   UNL A   1      46.454  27.074  34.827  1.00  0.00    -0.206 F 
ATOM    105  C   UNL A   1      45.429  23.979  36.335  1.00  0.00     0.060 A 
BRANCH 105 106
ATOM    106  S   UNL A   1      46.168  22.648  37.302  1.00  0.00     0.124 S 
ATOM    107  O   UNL A   1      45.649  21.468  36.619  1.00  0.00    -0.237 OA
ATOM    108  O   UNL A   1      47.601  22.884  37.147  1.00  0.00    -0.237 OA
ATOM    109  O   UNL A   1      45.644  22.887  38.643  1.00  0.00    -0.744 OA
ENDBRANCH 105 106
ENDBRANCH  73  98
ENDBRANCH  47  48
ENDBRANCH  39  42
ENDBRANCH  37  38
ENDBRANCH  36  37
ENDBRANCH  35  36
ENDBRANCH  34  35
ENDBRANCH   1  34
TORSDOF 22
ENDMDL
MODEL 2
REMARK VINA RESULT:     -13.5      3.946     10.453
REMARK SMILES Cc1ccc(-c2cc(OCC(=O)NCCCCCCNC(=O)c3ccc(-c4c5nc(c(-c6c(F)cc(S(=O)(=O)[O-])cc6F)c6ccc([nH]6)c(-c6c(F)cc(S(=O)(=O)[O-])cc6F)c6nc(c(-c7c(F)cc(S(=O)(=O)[O-])cc7F)c7ccc4[nH]7)C=C6)C=C5)cc3)nc(NCc3ccc4c(c3)OCO4)n2)cc1
REMARK SMILES IDX 15 1 14 2 13 3 11 4 12 5 10 7 9 8 8 9 6 10 7 11 102 12 90 13
REMARK SMILES IDX 89 14 5 15 1 16 2 17 3 18 104 19 4 20 103 21 91 22 92 24
REMARK SMILES IDX 93 25 94 26 98 27 95 28 97 29 96 30 99 31 101 32 100 33
REMARK SMILES IDX 16 34 17 35 18 36 19 37 20 38 21 39 22 41 23 42 24 43 88 44
REMARK SMILES IDX 25 45 87 46 26 47 27 48 28 49 81 50 29 51 86 52 80 53 82 54
REMARK SMILES IDX 30 55 85 56 79 57 78 58 31 60 65 61 44 62 64 63 45 64 48 65
REMARK SMILES IDX 63 66 83 67 46 68 47 69 62 71 84 72 49 73 32 74 33 75 42 76
REMARK SMILES IDX 34 77 35 78 41 79 43 80 36 81 37 82 38 83 39 84 40 85 66 86
REMARK SMILES IDX 67 87 76 88 68 89 69 90 75 91 77 92 70 93 71 94 72 95 73 96
REMARK SMILES IDX 74 97 50 98 51 99 60 100 52 101 53 102 59 103 61 104 54 105
REMARK SMILES IDX 55 106 56 107 57 108 58 109
REMARK H PARENT 13 6 91 23 20 40 82 59 48 70
REMARK Flexibility Score: inf
ROOT
ATOM      1  C   UNL A   1      35.077  24.498  24.502  1.00  0.00     0.021 C 
ENDROOT
BRANCH   1   2
ATOM      2  C   UNL A   1      34.107  25.642  24.211  1.00  0.00     0.116 C 
BRANCH   2   3
ATOM      3  N   UNL A   1      34.037  25.980  22.802  1.00  0.00    -0.353 N 
ATOM      4  C   UNL A   1      33.078  25.639  21.896  1.00  0.00     0.258 C 
ATOM      5  O   UNL A   1      33.137  26.103  20.754  1.00  0.00    -0.271 OA
ATOM      6  H   UNL A   1      34.779  26.527  22.455  1.00  0.00     0.163 HD
BRANCH   4   7
ATOM      7  C   UNL A   1      31.933  24.706  22.311  1.00  0.00     0.331 C 
BRANCH   7   8
ATOM      8  O   UNL A   1      32.161  23.316  22.164  1.00  0.00    -0.467 OA
BRANCH   8   9
ATOM      9  C   UNL A   1      32.190  22.549  23.292  1.00  0.00     0.219 A 
ATOM     10  C   UNL A   1      32.620  20.671  24.608  1.00  0.00     0.080 A 
ATOM     11  C   UNL A   1      32.642  21.258  23.361  1.00  0.00     0.097 A 
ATOM     12  N   UNL A   1      32.113  21.287  25.692  1.00  0.00    -0.213 NA
ATOM     13  C   UNL A   1      31.694  22.547  25.531  1.00  0.00     0.226 A 
ATOM     14  N   UNL A   1      31.727  23.201  24.365  1.00  0.00    -0.177 NA
BRANCH  10  15
ATOM     15  C   UNL A   1      33.227  19.352  24.813  1.00  0.00     0.000 A 
ATOM     16  C   UNL A   1      35.024  15.429  25.156  1.00  0.00     0.044 C 
ATOM     17  C   UNL A   1      34.412  16.794  25.056  1.00  0.00    -0.051 A 
ATOM     18  C   UNL A   1      33.069  16.996  25.401  1.00  0.00     0.004 A 
ATOM     19  C   UNL A   1      35.165  17.881  24.603  1.00  0.00     0.004 A 
ATOM     20  C   UNL A   1      32.486  18.264  25.290  1.00  0.00     0.010 A 
ATOM     21  C   UNL A   1      34.579  19.142  24.483  1.00  0.00     0.010 A 
ENDBRANCH  10  15
BRANCH  13  22
ATOM     22  N   UNL A   1      31.210  23.270  26.584  1.00  0.00    -0.350 N 
ATOM     23  H   UNL A   1      31.657  23.191  27.457  1.00  0.00     0.164 HD
BRANCH  22  24
ATOM     24  C   UNL A   1      30.071  24.142  26.469  1.00  0.00     0.152 C 
BRANCH  24  25
ATOM     25  C   UNL A   1      30.433  25.528  25.958  1.00  0.00    -0.025 A 
ATOM     26  C   UNL A   1      31.437  26.260  26.641  1.00  0.00     0.009 A 
ATOM     27  C   UNL A   1      29.843  26.094  24.813  1.00  0.00     0.056 A 
ATOM     28  C   UNL A   1      31.820  27.539  26.220  1.00  0.00     0.051 A 
ATOM     29  C   UNL A   1      30.228  27.363  24.431  1.00  0.00     0.166 A 
ATOM     30  C   UNL A   1      31.186  28.067  25.118  1.00  0.00     0.165 A 
ATOM     31  O   UNL A   1      29.723  28.060  23.379  1.00  0.00    -0.454 OA
ATOM     32  O   UNL A   1      31.404  29.301  24.586  1.00  0.00    -0.454 OA
ATOM     33  C   UNL A   1      30.444  29.300  23.509  1.00  0.00     0.468 C 
ENDBRANCH  24  25
ENDBRANCH  22  24
ENDBRANCH  13  22
ENDBRANCH   8   9
ENDBRANCH   7   8
ENDBRANCH   4   7
ENDBRANCH   2   3
ENDBRANCH   1   2
BRANCH   1  34
ATOM     34  C   UNL A   1      35.001  23.887  25.907  1.00  0.00     0.002 C 
BRANCH  34  35
ATOM     35  C   UNL A   1      35.599  22.485  26.107  1.00  0.00     0.002 C 
BRANCH  35  36
ATOM     36  C   UNL A   1      37.056  22.278  25.691  1.00  0.00     0.021 C 
BRANCH  36  37
ATOM     37  C   UNL A   1      37.997  23.409  26.085  1.00  0.00     0.116 C 
BRANCH  37  38
ATOM     38  N   UNL A   1      39.009  23.028  27.054  1.00  0.00    -0.352 N 
ATOM     39  C   UNL A   1      40.069  23.847  27.425  1.00  0.00     0.251 C 
ATOM     40  H   UNL A   1      38.942  22.138  27.470  1.00  0.00     0.163 HD
ATOM     41  O   UNL A   1      41.197  23.443  27.639  1.00  0.00    -0.269 OA
BRANCH  39  42
ATOM     42  C   UNL A   1      39.705  25.258  27.684  1.00  0.00     0.039 A 
ATOM     43  C   UNL A   1      40.240  26.242  26.845  1.00  0.00     0.014 A 
ATOM     44  C   UNL A   1      39.073  25.596  28.878  1.00  0.00     0.014 A 
ATOM     45  C   UNL A   1      40.278  27.565  27.282  1.00  0.00     0.010 A 
ATOM     46  C   UNL A   1      39.184  26.892  29.342  1.00  0.00     0.010 A 
ATOM     47  C   UNL A   1      39.826  27.869  28.565  1.00  0.00    -0.014 A 
BRANCH  47  48
ATOM     48  C   UNL A   1      40.038  29.156  29.223  1.00  0.00     0.031 A 
ATOM     49  C   UNL A   1      39.020  30.228  29.114  1.00  0.00     0.074 A 
ATOM     50  C   UNL A   1      41.110  29.334  30.024  1.00  0.00     0.049 A 
ATOM     51  N   UNL A   1      39.204  31.457  29.469  1.00  0.00    -0.248 NA
ATOM     52  C   UNL A   1      37.719  30.006  28.492  1.00  0.00     0.031 C 
ATOM     53  C   UNL A   1      41.278  30.355  31.054  1.00  0.00     0.029 A 
ATOM     54  N   UNL A   1      42.369  28.744  29.912  1.00  0.00    -0.354 N 
ATOM     55  C   UNL A   1      37.989  32.103  29.405  1.00  0.00     0.074 A 
ATOM     56  C   UNL A   1      37.148  31.200  28.662  1.00  0.00     0.031 C 
ATOM     57  C   UNL A   1      42.584  30.497  31.320  1.00  0.00     0.029 A 
ATOM     58  C   UNL A   1      43.312  29.693  30.355  1.00  0.00     0.049 A 
ATOM     59  H   UNL A   1      42.563  27.836  29.584  1.00  0.00     0.167 HD
ATOM     60  C   UNL A   1      37.817  33.258  30.115  1.00  0.00     0.037 A 
ATOM     61  C   UNL A   1      44.276  30.181  29.517  1.00  0.00     0.037 A 
ATOM     62  C   UNL A   1      39.115  33.792  30.545  1.00  0.00     0.049 A 
ATOM     63  C   UNL A   1      44.201  31.672  29.279  1.00  0.00     0.074 A 
ATOM     64  C   UNL A   1      39.781  33.819  31.760  1.00  0.00     0.029 A 
ATOM     65  N   UNL A   1      40.045  34.186  29.583  1.00  0.00    -0.354 N 
ATOM     66  N   UNL A   1      43.180  32.417  29.605  1.00  0.00    -0.248 NA
ATOM     67  C   UNL A   1      45.262  32.442  28.631  1.00  0.00     0.031 C 
ATOM     68  C   UNL A   1      41.143  34.139  31.506  1.00  0.00     0.029 A 
ATOM     69  C   UNL A   1      41.298  34.340  30.145  1.00  0.00     0.049 A 
ATOM     70  H   UNL A   1      39.837  34.333  28.632  1.00  0.00     0.167 HD
ATOM     71  C   UNL A   1      43.394  33.703  29.183  1.00  0.00     0.074 A 
ATOM     72  C   UNL A   1      44.729  33.677  28.614  1.00  0.00     0.031 C 
ATOM     73  C   UNL A   1      42.448  34.680  29.316  1.00  0.00     0.037 A 
BRANCH  60  74
ATOM     74  C   UNL A   1      36.477  33.775  30.647  1.00  0.00     0.058 A 
ATOM     75  C   UNL A   1      35.488  34.253  29.753  1.00  0.00     0.135 A 
ATOM     76  C   UNL A   1      36.138  33.957  32.007  1.00  0.00     0.135 A 
ATOM     77  F   UNL A   1      35.622  34.116  28.426  1.00  0.00    -0.206 F 
ATOM     78  C   UNL A   1      34.322  34.917  30.168  1.00  0.00     0.059 A 
ATOM     79  C   UNL A   1      34.981  34.608  32.446  1.00  0.00     0.059 A 
ATOM     80  F   UNL A   1      36.905  33.530  33.009  1.00  0.00    -0.206 F 
ATOM     81  C   UNL A   1      34.088  35.110  31.521  1.00  0.00     0.060 A 
BRANCH  81  82
ATOM     82  S   UNL A   1      32.630  36.018  32.065  1.00  0.00     0.124 S 
ATOM     83  O   UNL A   1      33.182  36.887  33.099  1.00  0.00    -0.237 OA
ATOM     84  O   UNL A   1      32.200  36.678  30.838  1.00  0.00    -0.237 OA
ATOM     85  O   UNL A   1      31.736  34.969  32.551  1.00  0.00    -0.744 OA
ENDBRANCH  81  82
ENDBRANCH  60  74
BRANCH  61  86
ATOM     86  C   UNL A   1      44.760  29.167  28.541  1.00  0.00     0.058 A 
ATOM     87  C   UNL A   1      45.719  28.243  28.997  1.00  0.00     0.135 A 
ATOM     88  C   UNL A   1      43.987  28.807  27.428  1.00  0.00     0.135 A 
ATOM     89  F   UNL A   1      46.508  28.555  30.038  1.00  0.00    -0.206 F 
ATOM     90  C   UNL A   1      45.773  26.945  28.504  1.00  0.00     0.059 A 
ATOM     91  C   UNL A   1      44.035  27.511  26.908  1.00  0.00     0.059 A 
ATOM     92  F   UNL A   1      43.068  29.653  26.940  1.00  0.00    -0.206 F 
ATOM     93  C   UNL A   1      44.865  26.567  27.517  1.00  0.00     0.060 A 
BRANCH  93  94
ATOM     94  S   UNL A   1      44.673  24.802  27.168  1.00  0.00     0.124 S 
ATOM     95  O   UNL A   1      43.691  24.807  26.089  1.00  0.00    -0.237 OA
ATOM     96  O   UNL A   1      46.031  24.417  26.781  1.00  0.00    -0.237 OA
ATOM     97  O   UNL A   1      44.211  24.258  28.439  1.00  0.00    -0.744 OA
ENDBRANCH  93  94
ENDBRANCH  61  86
BRANCH  73  98
ATOM     98  C   UNL A   1      42.556  36.069  28.737  1.00  0.00     0.058 A 
ATOM     99  C   UNL A   1      41.955  36.463  27.529  1.00  0.00     0.135 A 
ATOM    100  C   UNL A   1      43.186  37.100  29.473  1.00  0.00     0.135 A 
ATOM    101  F   UNL A   1      41.238  35.598  26.797  1.00  0.00    -0.206 F 
ATOM    102  C   UNL A   1      42.032  37.772  27.046  1.00  0.00     0.059 A 
ATOM    103  C   UNL A   1      43.233  38.421  29.035  1.00  0.00     0.059 A 
ATOM    104  F   UNL A   1      43.777  36.850  30.652  1.00  0.00    -0.206 F 
ATOM    105  C   UNL A   1      42.677  38.745  27.804  1.00  0.00     0.060 A 
BRANCH 105 106
ATOM    106  S   UNL A   1      42.743  40.450  27.220  1.00  0.00     0.124 S 
ATOM    107  O   UNL A   1      43.525  40.309  25.997  1.00  0.00    -0.237 OA
ATOM    108  O   UNL A   1      41.335  40.788  27.029  1.00  0.00    -0.237 OA
ATOM    109  O   UNL A   1      43.403  41.148  28.319  1.00  0.00    -0.744 OA
ENDBRANCH 105 106
ENDBRANCH  73  98
ENDBRANCH  47  48
ENDBRANCH  39  42
ENDBRANCH  37  38
ENDBRANCH  36  37
ENDBRANCH  35  36
ENDBRANCH  34  35
ENDBRANCH   1  34
TORSDOF 22
ENDMDL
MODEL 3
REMARK VINA RESULT:     -13.5      1.377      3.536
REMARK SMILES Cc1ccc(-c2cc(OCC(=O)NCCCCCCNC(=O)c3ccc(-c4c5nc(c(-c6c(F)cc(S(=O)(=O)[O-])cc6F)c6ccc([nH]6)c(-c6c(F)cc(S(=O)(=O)[O-])cc6F)c6nc(c(-c7c(F)cc(S(=O)(=O)[O-])cc7F)c7ccc4[nH]7)C=C6)C=C5)cc3)nc(NCc3ccc4c(c3)OCO4)n2)cc1
REMARK SMILES IDX 15 1 14 2 13 3 11 4 12 5 10 7 9 8 8 9 6 10 7 11 102 12 90 13
REMARK SMILES IDX 89 14 5 15 1 16 2 17 3 18 104 19 4 20 103 21 91 22 92 24
REMARK SMILES IDX 93 25 94 26 98 27 95 28 97 29 96 30 99 31 101 32 100 33
REMARK SMILES IDX 16 34 17 35 18 36 19 37 20 38 21 39 22 41 23 42 24 43 88 44
REMARK SMILES IDX 25 45 87 46 26 47 27 48 28 49 81 50 29 51 86 52 80 53 82 54
REMARK SMILES IDX 30 55 85 56 79 57 78 58 31 60 65 61 44 62 64 63 45 64 48 65
REMARK SMILES IDX 63 66 83 67 46 68 47 69 62 71 84 72 49 73 32 74 33 75 42 76
REMARK SMILES IDX 34 77 35 78 41 79 43 80 36 81 37 82 38 83 39 84 40 85 66 86
REMARK SMILES IDX 67 87 76 88 68 89 69 90 75 91 77 92 70 93 71 94 72 95 73 96
REMARK SMILES IDX 74 97 50 98 51 99 60 100 52 101 53 102 59 103 61 104 54 105
REMARK SMILES IDX 55 106 56 107 57 108 58 109
REMARK H PARENT 13 6 91 23 20 40 82 59 48 70
REMARK Flexibility Score: inf
ROOT
ATOM      1  C   UNL A   1      31.388  28.970  24.297  1.00  0.00     0.021 C 
ENDROOT
BRANCH   1   2
ATOM      2  C   UNL A   1      32.504  28.668  23.300  1.00  0.00     0.116 C 
BRANCH   2   3
ATOM      3  N   UNL A   1      32.038  27.949  22.130  1.00  0.00    -0.353 N 
ATOM      4  C   UNL A   1      32.103  26.612  21.876  1.00  0.00     0.258 C 
ATOM      5  O   UNL A   1      31.563  26.164  20.860  1.00  0.00    -0.271 OA
ATOM      6  H   UNL A   1      31.619  28.497  21.428  1.00  0.00     0.163 HD
BRANCH   4   7
ATOM      7  C   UNL A   1      32.826  25.682  22.860  1.00  0.00     0.331 C 
BRANCH   7   8
ATOM      8  O   UNL A   1      33.976  25.014  22.375  1.00  0.00    -0.467 OA
BRANCH   8   9
ATOM      9  C   UNL A   1      34.449  23.953  23.091  1.00  0.00     0.219 A 
ATOM     10  C   UNL A   1      35.952  22.732  24.394  1.00  0.00     0.080 A 
ATOM     11  C   UNL A   1      35.682  23.882  23.683  1.00  0.00     0.097 A 
ATOM     12  N   UNL A   1      35.097  21.694  24.447  1.00  0.00    -0.213 NA
ATOM     13  C   UNL A   1      33.916  21.851  23.839  1.00  0.00     0.226 A 
ATOM     14  N   UNL A   1      33.561  22.954  23.170  1.00  0.00    -0.177 NA
BRANCH  10  15
ATOM     15  C   UNL A   1      37.178  22.628  25.192  1.00  0.00     0.000 A 
ATOM     16  C   UNL A   1      40.916  22.475  27.368  1.00  0.00     0.044 C 
ATOM     17  C   UNL A   1      39.610  22.526  26.633  1.00  0.00    -0.051 A 
ATOM     18  C   UNL A   1      39.143  21.403  25.938  1.00  0.00     0.004 A 
ATOM     19  C   UNL A   1      38.847  23.697  26.618  1.00  0.00     0.004 A 
ATOM     20  C   UNL A   1      37.935  21.451  25.232  1.00  0.00     0.010 A 
ATOM     21  C   UNL A   1      37.648  23.746  25.905  1.00  0.00     0.010 A 
ENDBRANCH  10  15
BRANCH  13  22
ATOM     22  N   UNL A   1      32.965  20.872  23.879  1.00  0.00    -0.350 N 
ATOM     23  H   UNL A   1      32.507  20.623  23.044  1.00  0.00     0.164 HD
BRANCH  22  24
ATOM     24  C   UNL A   1      32.605  20.188  25.093  1.00  0.00     0.152 C 
BRANCH  24  25
ATOM     25  C   UNL A   1      33.039  18.731  25.106  1.00  0.00    -0.025 A 
ATOM     26  C   UNL A   1      34.324  18.403  24.606  1.00  0.00     0.009 A 
ATOM     27  C   UNL A   1      32.234  17.702  25.630  1.00  0.00     0.056 A 
ATOM     28  C   UNL A   1      34.787  17.083  24.593  1.00  0.00     0.051 A 
ATOM     29  C   UNL A   1      32.709  16.408  25.589  1.00  0.00     0.166 A 
ATOM     30  C   UNL A   1      33.949  16.106  25.080  1.00  0.00     0.165 A 
ATOM     31  O   UNL A   1      32.037  15.305  26.015  1.00  0.00    -0.454 OA
ATOM     32  O   UNL A   1      34.214  14.771  25.119  1.00  0.00    -0.454 OA
ATOM     33  C   UNL A   1      32.981  14.270  25.676  1.00  0.00     0.468 C 
ENDBRANCH  24  25
ENDBRANCH  22  24
ENDBRANCH  13  22
ENDBRANCH   8   9
ENDBRANCH   7   8
ENDBRANCH   4   7
ENDBRANCH   2   3
ENDBRANCH   1   2
BRANCH   1  34
ATOM     34  C   UNL A   1      31.009  27.832  25.255  1.00  0.00     0.002 C 
BRANCH  34  35
ATOM     35  C   UNL A   1      31.601  27.868  26.673  1.00  0.00     0.002 C 
BRANCH  35  36
ATOM     36  C   UNL A   1      32.184  29.197  27.156  1.00  0.00     0.021 C 
BRANCH  36  37
ATOM     37  C   UNL A   1      33.657  29.402  26.830  1.00  0.00     0.116 C 
BRANCH  37  38
ATOM     38  N   UNL A   1      34.122  30.765  27.017  1.00  0.00    -0.352 N 
ATOM     39  C   UNL A   1      34.948  31.162  28.062  1.00  0.00     0.251 C 
ATOM     40  H   UNL A   1      33.834  31.446  26.367  1.00  0.00     0.163 HD
ATOM     41  O   UNL A   1      34.838  32.221  28.650  1.00  0.00    -0.269 OA
BRANCH  39  42
ATOM     42  C   UNL A   1      36.086  30.255  28.335  1.00  0.00     0.039 A 
ATOM     43  C   UNL A   1      36.167  29.662  29.600  1.00  0.00     0.014 A 
ATOM     44  C   UNL A   1      37.162  30.219  27.452  1.00  0.00     0.014 A 
ATOM     45  C   UNL A   1      37.390  29.162  30.043  1.00  0.00     0.010 A 
ATOM     46  C   UNL A   1      38.390  29.797  27.924  1.00  0.00     0.010 A 
ATOM     47  C   UNL A   1      38.516  29.309  29.234  1.00  0.00    -0.014 A 
BRANCH  47  48
ATOM     48  C   UNL A   1      39.883  29.054  29.681  1.00  0.00     0.031 A 
ATOM     49  C   UNL A   1      40.558  27.780  29.335  1.00  0.00     0.074 A 
ATOM     50  C   UNL A   1      40.576  30.023  30.316  1.00  0.00     0.049 A 
ATOM     51  N   UNL A   1      41.667  27.369  29.854  1.00  0.00    -0.248 NA
ATOM     52  C   UNL A   1      39.964  26.808  28.422  1.00  0.00     0.031 C 
ATOM     53  C   UNL A   1      42.025  30.111  30.470  1.00  0.00     0.029 A 
ATOM     54  N   UNL A   1      40.077  31.026  31.148  1.00  0.00    -0.354 N 
ATOM     55  C   UNL A   1      42.078  26.258  29.152  1.00  0.00     0.074 A 
ATOM     56  C   UNL A   1      40.920  25.879  28.382  1.00  0.00     0.031 C 
ATOM     57  C   UNL A   1      42.307  30.930  31.493  1.00  0.00     0.029 A 
ATOM     58  C   UNL A   1      41.051  31.264  32.138  1.00  0.00     0.049 A 
ATOM     59  H   UNL A   1      39.209  31.481  31.059  1.00  0.00     0.167 HD
ATOM     60  C   UNL A   1      43.392  25.890  29.209  1.00  0.00     0.037 A 
ATOM     61  C   UNL A   1      40.784  31.051  33.462  1.00  0.00     0.037 A 
ATOM     62  C   UNL A   1      44.066  26.567  30.324  1.00  0.00     0.049 A 
ATOM     63  C   UNL A   1      41.652  29.998  34.113  1.00  0.00     0.074 A 
ATOM     64  C   UNL A   1      44.953  27.629  30.400  1.00  0.00     0.029 A 
ATOM     65  N   UNL A   1      43.644  26.318  31.629  1.00  0.00    -0.354 N 
ATOM     66  N   UNL A   1      42.410  29.163  33.456  1.00  0.00    -0.248 NA
ATOM     67  C   UNL A   1      41.716  29.784  35.558  1.00  0.00     0.031 C 
ATOM     68  C   UNL A   1      44.986  28.077  31.749  1.00  0.00     0.029 A 
ATOM     69  C   UNL A   1      44.148  27.268  32.497  1.00  0.00     0.049 A 
ATOM     70  H   UNL A   1      43.066  25.568  31.897  1.00  0.00     0.167 HD
ATOM     71  C   UNL A   1      43.001  28.292  34.332  1.00  0.00     0.074 A 
ATOM     72  C   UNL A   1      42.568  28.746  35.640  1.00  0.00     0.031 C 
ATOM     73  C   UNL A   1      43.783  27.253  33.909  1.00  0.00     0.037 A 
BRANCH  60  74
ATOM     74  C   UNL A   1      44.143  25.124  28.114  1.00  0.00     0.058 A 
ATOM     75  C   UNL A   1      44.323  25.701  26.833  1.00  0.00     0.135 A 
ATOM     76  C   UNL A   1      44.593  23.787  28.195  1.00  0.00     0.135 A 
ATOM     77  F   UNL A   1      43.997  26.978  26.591  1.00  0.00    -0.206 F 
ATOM     78  C   UNL A   1      44.823  24.995  25.727  1.00  0.00     0.059 A 
ATOM     79  C   UNL A   1      45.102  23.064  27.112  1.00  0.00     0.059 A 
ATOM     80  F   UNL A   1      44.564  23.079  29.323  1.00  0.00    -0.206 F 
ATOM     81  C   UNL A   1      45.191  23.665  25.872  1.00  0.00     0.060 A 
BRANCH  81  82
ATOM     82  S   UNL A   1      45.772  22.727  24.447  1.00  0.00     0.124 S 
ATOM     83  O   UNL A   1      44.529  22.467  23.728  1.00  0.00    -0.237 OA
ATOM     84  O   UNL A   1      46.692  23.665  23.814  1.00  0.00    -0.237 OA
ATOM     85  O   UNL A   1      46.399  21.551  25.045  1.00  0.00    -0.744 OA
ENDBRANCH  81  82
ENDBRANCH  60  74
BRANCH  61  86
ATOM     86  C   UNL A   1      39.374  31.363  33.824  1.00  0.00     0.058 A 
ATOM     87  C   UNL A   1      39.066  32.707  34.109  1.00  0.00     0.135 A 
ATOM     88  C   UNL A   1      38.322  30.524  33.430  1.00  0.00     0.135 A 
ATOM     89  F   UNL A   1      40.033  33.542  34.524  1.00  0.00    -0.206 F 
ATOM     90  C   UNL A   1      37.818  33.246  33.821  1.00  0.00     0.059 A 
ATOM     91  C   UNL A   1      37.056  31.042  33.148  1.00  0.00     0.059 A 
ATOM     92  F   UNL A   1      38.553  29.231  33.159  1.00  0.00    -0.206 F 
ATOM     93  C   UNL A   1      36.847  32.419  33.260  1.00  0.00     0.060 A 
BRANCH  93  94
ATOM     94  S   UNL A   1      35.385  33.197  32.530  1.00  0.00     0.124 S 
ATOM     95  O   UNL A   1      34.615  32.043  32.080  1.00  0.00    -0.237 OA
ATOM     96  O   UNL A   1      34.825  33.925  33.669  1.00  0.00    -0.237 OA
ATOM     97  O   UNL A   1      35.944  34.032  31.473  1.00  0.00    -0.744 OA
ENDBRANCH  93  94
ENDBRANCH  61  86
BRANCH  73  98
ATOM     98  C   UNL A   1      44.334  26.170  34.803  1.00  0.00     0.058 A 
ATOM     99  C   UNL A   1      43.597  25.047  35.219  1.00  0.00     0.135 A 
ATOM    100  C   UNL A   1      45.700  26.177  35.171  1.00  0.00     0.135 A 
ATOM    101  F   UNL A   1      42.322  24.876  34.841  1.00  0.00    -0.206 F 
ATOM    102  C   UNL A   1      44.154  24.036  36.006  1.00  0.00     0.059 A 
ATOM    103  C   UNL A   1      46.288  25.155  35.913  1.00  0.00     0.059 A 
ATOM    104  F   UNL A   1      46.510  27.185  34.814  1.00  0.00    -0.206 F 
ATOM    105  C   UNL A   1      45.500  24.099  36.352  1.00  0.00     0.060 A 
BRANCH 105 106
ATOM    106  S   UNL A   1      46.248  22.778  37.325  1.00  0.00     0.124 S 
ATOM    107  O   UNL A   1      45.635  22.995  38.631  1.00  0.00    -0.237 OA
ATOM    108  O   UNL A   1      45.820  21.570  36.624  1.00  0.00    -0.237 OA
ATOM    109  O   UNL A   1      47.674  23.071  37.236  1.00  0.00    -0.744 OA
ENDBRANCH 105 106
ENDBRANCH  73  98
ENDBRANCH  47  48
ENDBRANCH  39  42
ENDBRANCH  37  38
ENDBRANCH  36  37
ENDBRANCH  35  36
ENDBRANCH  34  35
ENDBRANCH   1  34
TORSDOF 22
ENDMDL
