MODEL 1
REMARK VINA RESULT:     -10.9      0.000      0.000
REMARK SMILES C[C@@H](Oc1cncc(C(=O)NCCCCCCNC(=O)c2ccc(-c3c4nc(c(-c5c(F)cc(S(=O)(=O)[O-])cc5F)c5ccc([nH]5)c(-c5c(F)cc(S(=O)(=O)[O-])cc5F)c5nc(c(-c6c(F)cc(S(=O)(=O)[O-])cc6F)c6ccc3[nH]6)C=C5)C=C4)cc2)n1)C(F)(F)F
REMARK SMILES IDX 14 1 13 2 12 3 11 4 9 5 10 6 8 8 4 9 5 10 87 11 6 12 7 13
REMARK SMILES IDX 3 14 2 15 1 16 88 17 89 18 90 19 91 20 15 21 16 22 17 23
REMARK SMILES IDX 18 24 19 25 20 27 21 28 22 29 86 30 23 31 85 32 24 33 25 34
REMARK SMILES IDX 26 35 79 36 27 37 84 38 78 39 80 40 28 41 83 42 77 43 76 44
REMARK SMILES IDX 29 46 63 47 42 48 62 49 43 50 46 51 61 52 81 53 44 54 45 55
REMARK SMILES IDX 60 57 82 58 47 59 30 60 31 61 40 62 32 63 33 64 39 65 41 66
REMARK SMILES IDX 34 67 35 68 36 69 37 70 38 71 64 72 65 73 74 74 66 75 67 76
REMARK SMILES IDX 73 77 75 78 68 79 69 80 70 81 71 82 72 83 48 84 49 85 58 86
REMARK SMILES IDX 50 87 51 88 57 89 59 90 52 91 53 92 54 93 55 94 56 95
REMARK H PARENT 11 7 18 26 80 45 46 56
REMARK Flexibility Score: inf
ROOT
ATOM      1  C   UNL A   1      31.969  25.182  25.744  1.00  0.00     0.002 C 
ENDROOT
BRANCH   1   2
ATOM      2  C   UNL A   1      31.085  25.311  24.496  1.00  0.00     0.021 C 
BRANCH   2   3
ATOM      3  C   UNL A   1      30.844  23.989  23.769  1.00  0.00     0.116 C 
BRANCH   3   4
ATOM      4  N   UNL A   1      31.788  23.836  22.676  1.00  0.00    -0.351 N 
ATOM      5  C   UNL A   1      33.051  23.303  22.624  1.00  0.00     0.271 C 
ATOM      6  O   UNL A   1      33.665  23.410  21.558  1.00  0.00    -0.267 OA
ATOM      7  H   UNL A   1      31.462  24.178  21.813  1.00  0.00     0.163 HD
BRANCH   5   8
ATOM      8  C   UNL A   1      33.690  22.566  23.754  1.00  0.00     0.150 A 
ATOM      9  C   UNL A   1      33.956  20.714  25.078  1.00  0.00     0.233 A 
ATOM     10  C   UNL A   1      35.149  21.235  25.565  1.00  0.00     0.179 A 
ATOM     11  N   UNL A   1      33.206  21.365  24.167  1.00  0.00    -0.205 NA
ATOM     12  N   UNL A   1      35.609  22.458  25.218  1.00  0.00    -0.257 NA
ATOM     13  C   UNL A   1      34.857  23.104  24.291  1.00  0.00     0.145 A 
BRANCH   9  14
ATOM     14  O   UNL A   1      33.607  19.415  25.328  1.00  0.00    -0.464 OA
BRANCH  14  15
ATOM     15  C   UNL A   1      33.563  18.591  24.145  1.00  0.00     0.277 C 
ATOM     16  C   UNL A   1      32.186  17.929  24.037  1.00  0.00     0.063 C 
BRANCH  15  17
ATOM     17  C   UNL A   1      34.637  17.501  24.257  1.00  0.00     0.425 C 
ATOM     18  F   UNL A   1      35.850  18.049  24.514  1.00  0.00    -0.167 F 
ATOM     19  F   UNL A   1      34.368  16.639  25.262  1.00  0.00    -0.167 F 
ATOM     20  F   UNL A   1      34.749  16.792  23.112  1.00  0.00    -0.167 F 
ENDBRANCH  15  17
ENDBRANCH  14  15
ENDBRANCH   9  14
ENDBRANCH   5   8
ENDBRANCH   3   4
ENDBRANCH   2   3
ENDBRANCH   1   2
BRANCH   1  21
ATOM     21  C   UNL A   1      33.188  26.109  25.772  1.00  0.00     0.002 C 
BRANCH  21  22
ATOM     22  C   UNL A   1      32.961  27.454  26.468  1.00  0.00     0.021 C 
BRANCH  22  23
ATOM     23  C   UNL A   1      34.031  28.501  26.179  1.00  0.00     0.116 C 
BRANCH  23  24
ATOM     24  N   UNL A   1      33.756  29.758  26.859  1.00  0.00    -0.352 N 
ATOM     25  C   UNL A   1      34.499  30.406  27.812  1.00  0.00     0.251 C 
ATOM     26  H   UNL A   1      32.919  30.206  26.597  1.00  0.00     0.163 HD
ATOM     27  O   UNL A   1      34.011  31.350  28.433  1.00  0.00    -0.269 OA
BRANCH  25  28
ATOM     28  C   UNL A   1      35.876  29.956  28.102  1.00  0.00     0.039 A 
ATOM     29  C   UNL A   1      36.854  30.082  27.112  1.00  0.00     0.014 A 
ATOM     30  C   UNL A   1      36.202  29.411  29.347  1.00  0.00     0.014 A 
ATOM     31  C   UNL A   1      38.171  29.714  27.392  1.00  0.00     0.010 A 
ATOM     32  C   UNL A   1      37.528  29.117  29.650  1.00  0.00     0.010 A 
ATOM     33  C   UNL A   1      38.526  29.260  28.674  1.00  0.00    -0.014 A 
BRANCH  33  34
ATOM     34  C   UNL A   1      39.935  28.932  29.011  1.00  0.00     0.031 A 
ATOM     35  C   UNL A   1      40.819  29.963  29.660  1.00  0.00     0.074 A 
ATOM     36  C   UNL A   1      40.434  27.724  28.679  1.00  0.00     0.049 A 
ATOM     37  N   UNL A   1      42.086  29.884  29.973  1.00  0.00    -0.248 NA
ATOM     38  C   UNL A   1      40.204  31.263  29.974  1.00  0.00     0.031 C 
ATOM     39  C   UNL A   1      39.691  26.657  28.005  1.00  0.00     0.029 A 
ATOM     40  N   UNL A   1      41.689  27.193  28.852  1.00  0.00    -0.354 N 
ATOM     41  C   UNL A   1      42.423  31.123  30.509  1.00  0.00     0.074 A 
ATOM     42  C   UNL A   1      41.242  31.953  30.425  1.00  0.00     0.031 C 
ATOM     43  C   UNL A   1      40.493  25.593  27.844  1.00  0.00     0.029 A 
ATOM     44  C   UNL A   1      41.820  25.914  28.362  1.00  0.00     0.049 A 
ATOM     45  H   UNL A   1      42.425  27.681  29.287  1.00  0.00     0.167 HD
ATOM     46  C   UNL A   1      43.603  31.523  31.042  1.00  0.00     0.037 A 
ATOM     47  C   UNL A   1      42.890  25.097  28.323  1.00  0.00     0.037 A 
ATOM     48  C   UNL A   1      44.769  30.683  31.136  1.00  0.00     0.049 A 
ATOM     49  C   UNL A   1      44.192  25.568  28.909  1.00  0.00     0.074 A 
ATOM     50  C   UNL A   1      45.994  30.975  31.710  1.00  0.00     0.029 A 
ATOM     51  N   UNL A   1      44.859  29.390  30.640  1.00  0.00    -0.354 N 
ATOM     52  N   UNL A   1      44.474  26.720  29.473  1.00  0.00    -0.248 NA
ATOM     53  C   UNL A   1      45.323  24.631  28.860  1.00  0.00     0.031 C 
ATOM     54  C   UNL A   1      46.841  29.880  31.512  1.00  0.00     0.029 A 
ATOM     55  C   UNL A   1      46.127  28.881  30.870  1.00  0.00     0.049 A 
ATOM     56  H   UNL A   1      44.129  28.906  30.191  1.00  0.00     0.167 HD
ATOM     57  C   UNL A   1      45.804  26.632  29.873  1.00  0.00     0.074 A 
ATOM     58  C   UNL A   1      46.265  25.312  29.497  1.00  0.00     0.031 C 
ATOM     59  C   UNL A   1      46.571  27.560  30.497  1.00  0.00     0.037 A 
BRANCH  46  60
ATOM     60  C   UNL A   1      43.693  32.932  31.564  1.00  0.00     0.058 A 
ATOM     61  C   UNL A   1      43.436  33.241  32.910  1.00  0.00     0.135 A 
ATOM     62  C   UNL A   1      44.081  33.984  30.717  1.00  0.00     0.135 A 
ATOM     63  F   UNL A   1      43.046  32.279  33.762  1.00  0.00    -0.206 F 
ATOM     64  C   UNL A   1      43.528  34.544  33.390  1.00  0.00     0.059 A 
ATOM     65  C   UNL A   1      44.212  35.289  31.183  1.00  0.00     0.059 A 
ATOM     66  F   UNL A   1      44.341  33.749  29.422  1.00  0.00    -0.206 F 
ATOM     67  C   UNL A   1      43.919  35.561  32.518  1.00  0.00     0.060 A 
BRANCH  67  68
ATOM     68  S   UNL A   1      44.040  37.244  33.160  1.00  0.00     0.124 S 
ATOM     69  O   UNL A   1      45.276  37.173  33.934  1.00  0.00    -0.237 OA
ATOM     70  O   UNL A   1      44.105  38.039  31.937  1.00  0.00    -0.237 OA
ATOM     71  O   UNL A   1      42.818  37.400  33.943  1.00  0.00    -0.744 OA
ENDBRANCH  67  68
ENDBRANCH  46  60
BRANCH  47  72
ATOM     72  C   UNL A   1      42.767  23.740  27.721  1.00  0.00     0.058 A 
ATOM     73  C   UNL A   1      42.976  23.535  26.349  1.00  0.00     0.135 A 
ATOM     74  C   UNL A   1      42.449  22.620  28.507  1.00  0.00     0.135 A 
ATOM     75  F   UNL A   1      43.276  24.574  25.555  1.00  0.00    -0.206 F 
ATOM     76  C   UNL A   1      42.856  22.275  25.773  1.00  0.00     0.059 A 
ATOM     77  C   UNL A   1      42.353  21.345  27.959  1.00  0.00     0.059 A 
ATOM     78  F   UNL A   1      42.256  22.758  29.828  1.00  0.00    -0.206 F 
ATOM     79  C   UNL A   1      42.547  21.185  26.588  1.00  0.00     0.060 A 
BRANCH  79  80
ATOM     80  S   UNL A   1      42.437  19.546  25.836  1.00  0.00     0.124 S 
ATOM     81  O   UNL A   1      42.825  18.687  26.948  1.00  0.00    -0.237 OA
ATOM     82  O   UNL A   1      41.034  19.484  25.441  1.00  0.00    -0.237 OA
ATOM     83  O   UNL A   1      43.389  19.619  24.732  1.00  0.00    -0.744 OA
ENDBRANCH  79  80
ENDBRANCH  47  72
BRANCH  59  84
ATOM     84  C   UNL A   1      47.982  27.173  30.851  1.00  0.00     0.058 A 
ATOM     85  C   UNL A   1      48.275  26.385  31.975  1.00  0.00     0.135 A 
ATOM     86  C   UNL A   1      49.049  27.552  30.021  1.00  0.00     0.135 A 
ATOM     87  F   UNL A   1      47.293  26.000  32.806  1.00  0.00    -0.206 F 
ATOM     88  C   UNL A   1      49.580  26.008  32.277  1.00  0.00     0.059 A 
ATOM     89  C   UNL A   1      50.357  27.159  30.285  1.00  0.00     0.059 A 
ATOM     90  F   UNL A   1      48.825  28.297  28.926  1.00  0.00    -0.206 F 
ATOM     91  C   UNL A   1      50.614  26.397  31.423  1.00  0.00     0.060 A 
BRANCH  91  92
ATOM     92  S   UNL A   1      52.297  25.869  31.807  1.00  0.00     0.124 S 
ATOM     93  O   UNL A   1      52.076  24.511  32.295  1.00  0.00    -0.237 OA
ATOM     94  O   UNL A   1      52.961  25.977  30.512  1.00  0.00    -0.237 OA
ATOM     95  O   UNL A   1      52.735  26.833  32.812  1.00  0.00    -0.744 OA
ENDBRANCH  91  92
ENDBRANCH  59  84
ENDBRANCH  33  34
ENDBRANCH  25  28
ENDBRANCH  23  24
ENDBRANCH  22  23
ENDBRANCH  21  22
ENDBRANCH   1  21
TORSDOF 19
ENDMDL
MODEL 2
REMARK VINA RESULT:     -10.9      3.018      4.025
REMARK SMILES C[C@@H](Oc1cncc(C(=O)NCCCCCCNC(=O)c2ccc(-c3c4nc(c(-c5c(F)cc(S(=O)(=O)[O-])cc5F)c5ccc([nH]5)c(-c5c(F)cc(S(=O)(=O)[O-])cc5F)c5nc(c(-c6c(F)cc(S(=O)(=O)[O-])cc6F)c6ccc3[nH]6)C=C5)C=C4)cc2)n1)C(F)(F)F
REMARK SMILES IDX 14 1 13 2 12 3 11 4 9 5 10 6 8 8 4 9 5 10 87 11 6 12 7 13
REMARK SMILES IDX 3 14 2 15 1 16 88 17 89 18 90 19 91 20 15 21 16 22 17 23
REMARK SMILES IDX 18 24 19 25 20 27 21 28 22 29 86 30 23 31 85 32 24 33 25 34
REMARK SMILES IDX 26 35 79 36 27 37 84 38 78 39 80 40 28 41 83 42 77 43 76 44
REMARK SMILES IDX 29 46 63 47 42 48 62 49 43 50 46 51 61 52 81 53 44 54 45 55
REMARK SMILES IDX 60 57 82 58 47 59 30 60 31 61 40 62 32 63 33 64 39 65 41 66
REMARK SMILES IDX 34 67 35 68 36 69 37 70 38 71 64 72 65 73 74 74 66 75 67 76
REMARK SMILES IDX 73 77 75 78 68 79 69 80 70 81 71 82 72 83 48 84 49 85 58 86
REMARK SMILES IDX 50 87 51 88 57 89 59 90 52 91 53 92 54 93 55 94 56 95
REMARK H PARENT 11 7 18 26 80 45 46 56
REMARK Flexibility Score: inf
ROOT
ATOM      1  C   UNL A   1      32.719  28.586  27.067  1.00  0.00     0.002 C 
ENDROOT
BRANCH   1   2
ATOM      2  C   UNL A   1      32.753  27.293  26.241  1.00  0.00     0.021 C 
BRANCH   2   3
ATOM      3  C   UNL A   1      31.378  26.669  26.011  1.00  0.00     0.116 C 
BRANCH   3   4
ATOM      4  N   UNL A   1      31.207  25.503  26.859  1.00  0.00    -0.351 N 
ATOM      5  C   UNL A   1      31.331  24.159  26.607  1.00  0.00     0.271 C 
ATOM      6  O   UNL A   1      31.013  23.384  27.513  1.00  0.00    -0.267 OA
ATOM      7  H   UNL A   1      30.956  25.714  27.787  1.00  0.00     0.163 HD
BRANCH   5   8
ATOM      8  C   UNL A   1      31.871  23.599  25.333  1.00  0.00     0.150 A 
ATOM      9  C   UNL A   1      33.411  22.397  24.136  1.00  0.00     0.233 A 
ATOM     10  C   UNL A   1      32.539  22.358  23.055  1.00  0.00     0.179 A 
ATOM     11  N   UNL A   1      33.096  23.014  25.292  1.00  0.00    -0.205 NA
ATOM     12  N   UNL A   1      31.346  22.995  23.054  1.00  0.00    -0.257 NA
ATOM     13  C   UNL A   1      31.028  23.604  24.224  1.00  0.00     0.145 A 
BRANCH   9  14
ATOM     14  O   UNL A   1      34.533  21.613  24.157  1.00  0.00    -0.464 OA
BRANCH  14  15
ATOM     15  C   UNL A   1      35.738  22.338  24.476  1.00  0.00     0.277 C 
ATOM     16  C   UNL A   1      36.313  22.955  23.199  1.00  0.00     0.063 C 
BRANCH  15  17
ATOM     17  C   UNL A   1      36.763  21.362  25.069  1.00  0.00     0.425 C 
ATOM     18  F   UNL A   1      36.190  20.159  25.317  1.00  0.00    -0.167 F 
ATOM     19  F   UNL A   1      37.792  21.147  24.222  1.00  0.00    -0.167 F 
ATOM     20  F   UNL A   1      37.266  21.818  26.238  1.00  0.00    -0.167 F 
ENDBRANCH  15  17
ENDBRANCH  14  15
ENDBRANCH   9  14
ENDBRANCH   5   8
ENDBRANCH   3   4
ENDBRANCH   2   3
ENDBRANCH   1   2
BRANCH   1  21
ATOM     21  C   UNL A   1      33.893  29.541  26.825  1.00  0.00     0.002 C 
BRANCH  21  22
ATOM     22  C   UNL A   1      35.052  29.403  27.814  1.00  0.00     0.021 C 
BRANCH  22  23
ATOM     23  C   UNL A   1      35.540  30.723  28.401  1.00  0.00     0.116 C 
BRANCH  23  24
ATOM     24  N   UNL A   1      35.448  30.737  29.854  1.00  0.00    -0.352 N 
ATOM     25  C   UNL A   1      36.385  30.365  30.783  1.00  0.00     0.251 C 
ATOM     26  H   UNL A   1      34.593  31.059  30.220  1.00  0.00     0.163 HD
ATOM     27  O   UNL A   1      36.062  30.239  31.964  1.00  0.00    -0.269 OA
BRANCH  25  28
ATOM     28  C   UNL A   1      37.776  30.099  30.359  1.00  0.00     0.039 A 
ATOM     29  C   UNL A   1      38.656  29.496  31.260  1.00  0.00     0.014 A 
ATOM     30  C   UNL A   1      38.209  30.444  29.075  1.00  0.00     0.014 A 
ATOM     31  C   UNL A   1      39.955  29.187  30.854  1.00  0.00     0.010 A 
ATOM     32  C   UNL A   1      39.478  30.066  28.648  1.00  0.00     0.010 A 
ATOM     33  C   UNL A   1      40.367  29.439  29.534  1.00  0.00    -0.014 A 
BRANCH  33  34
ATOM     34  C   UNL A   1      41.722  29.052  29.063  1.00  0.00     0.031 A 
ATOM     35  C   UNL A   1      42.820  30.079  28.987  1.00  0.00     0.074 A 
ATOM     36  C   UNL A   1      41.947  27.789  28.649  1.00  0.00     0.049 A 
ATOM     37  N   UNL A   1      44.045  29.948  28.549  1.00  0.00    -0.248 NA
ATOM     38  C   UNL A   1      42.489  31.440  29.441  1.00  0.00     0.031 C 
ATOM     39  C   UNL A   1      40.951  26.715  28.629  1.00  0.00     0.029 A 
ATOM     40  N   UNL A   1      43.081  27.196  28.153  1.00  0.00    -0.354 N 
ATOM     41  C   UNL A   1      44.626  31.206  28.662  1.00  0.00     0.074 A 
ATOM     42  C   UNL A   1      43.603  32.100  29.157  1.00  0.00     0.031 C 
ATOM     43  C   UNL A   1      41.523  25.591  28.171  1.00  0.00     0.029 A 
ATOM     44  C   UNL A   1      42.912  25.871  27.821  1.00  0.00     0.049 A 
ATOM     45  H   UNL A   1      43.935  27.673  28.045  1.00  0.00     0.167 HD
ATOM     46  C   UNL A   1      45.902  31.577  28.398  1.00  0.00     0.037 A 
ATOM     47  C   UNL A   1      43.775  24.986  27.286  1.00  0.00     0.037 A 
ATOM     48  C   UNL A   1      46.919  30.675  27.921  1.00  0.00     0.049 A 
ATOM     49  C   UNL A   1      45.183  25.424  26.989  1.00  0.00     0.074 A 
ATOM     50  C   UNL A   1      48.256  30.938  27.678  1.00  0.00     0.029 A 
ATOM     51  N   UNL A   1      46.713  29.338  27.609  1.00  0.00    -0.354 N 
ATOM     52  N   UNL A   1      45.735  26.602  27.166  1.00  0.00    -0.248 NA
ATOM     53  C   UNL A   1      46.089  24.414  26.425  1.00  0.00     0.031 C 
ATOM     54  C   UNL A   1      48.844  29.776  27.167  1.00  0.00     0.029 A 
ATOM     55  C   UNL A   1      47.891  28.771  27.150  1.00  0.00     0.049 A 
ATOM     56  H   UNL A   1      45.856  28.863  27.701  1.00  0.00     0.167 HD
ATOM     57  C   UNL A   1      47.060  26.465  26.764  1.00  0.00     0.074 A 
ATOM     58  C   UNL A   1      47.229  25.088  26.347  1.00  0.00     0.031 C 
ATOM     59  C   UNL A   1      48.046  27.395  26.745  1.00  0.00     0.037 A 
BRANCH  46  60
ATOM     60  C   UNL A   1      46.273  33.019  28.617  1.00  0.00     0.058 A 
ATOM     61  C   UNL A   1      46.163  33.975  27.594  1.00  0.00     0.135 A 
ATOM     62  C   UNL A   1      46.706  33.461  29.878  1.00  0.00     0.135 A 
ATOM     63  F   UNL A   1      45.768  33.608  26.364  1.00  0.00    -0.206 F 
ATOM     64  C   UNL A   1      46.499  35.309  27.803  1.00  0.00     0.059 A 
ATOM     65  C   UNL A   1      47.017  34.796  30.119  1.00  0.00     0.059 A 
ATOM     66  F   UNL A   1      46.829  32.592  30.894  1.00  0.00    -0.206 F 
ATOM     67  C   UNL A   1      46.924  35.710  29.071  1.00  0.00     0.060 A 
BRANCH  67  68
ATOM     68  S   UNL A   1      47.349  37.446  29.327  1.00  0.00     0.124 S 
ATOM     69  O   UNL A   1      48.094  37.382  30.580  1.00  0.00    -0.237 OA
ATOM     70  O   UNL A   1      48.137  37.752  28.137  1.00  0.00    -0.237 OA
ATOM     71  O   UNL A   1      46.050  38.108  29.402  1.00  0.00    -0.744 OA
ENDBRANCH  67  68
ENDBRANCH  46  60
BRANCH  47  72
ATOM     72  C   UNL A   1      43.334  23.590  27.013  1.00  0.00     0.058 A 
ATOM     73  C   UNL A   1      43.058  23.161  25.706  1.00  0.00     0.135 A 
ATOM     74  C   UNL A   1      43.188  22.655  28.050  1.00  0.00     0.135 A 
ATOM     75  F   UNL A   1      43.176  24.018  24.680  1.00  0.00    -0.206 F 
ATOM     76  C   UNL A   1      42.636  21.863  25.438  1.00  0.00     0.059 A 
ATOM     77  C   UNL A   1      42.797  21.343  27.805  1.00  0.00     0.059 A 
ATOM     78  F   UNL A   1      43.455  23.009  29.318  1.00  0.00    -0.206 F 
ATOM     79  C   UNL A   1      42.512  20.960  26.494  1.00  0.00     0.060 A 
BRANCH  79  80
ATOM     80  S   UNL A   1      42.006  19.264  26.129  1.00  0.00     0.124 S 
ATOM     81  O   UNL A   1      42.349  18.582  27.371  1.00  0.00    -0.237 OA
ATOM     82  O   UNL A   1      40.581  19.422  25.859  1.00  0.00    -0.237 OA
ATOM     83  O   UNL A   1      42.822  18.913  24.970  1.00  0.00    -0.744 OA
ENDBRANCH  79  80
ENDBRANCH  47  72
BRANCH  59  84
ATOM     84  C   UNL A   1      49.413  26.951  26.295  1.00  0.00     0.058 A 
ATOM     85  C   UNL A   1      50.341  26.389  27.184  1.00  0.00     0.135 A 
ATOM     86  C   UNL A   1      49.775  27.041  24.941  1.00  0.00     0.135 A 
ATOM     87  F   UNL A   1      50.049  26.286  28.490  1.00  0.00    -0.206 F 
ATOM     88  C   UNL A   1      51.590  25.955  26.752  1.00  0.00     0.059 A 
ATOM     89  C   UNL A   1      51.005  26.583  24.480  1.00  0.00     0.059 A 
ATOM     90  F   UNL A   1      48.921  27.560  24.044  1.00  0.00    -0.206 F 
ATOM     91  C   UNL A   1      51.911  26.052  25.396  1.00  0.00     0.060 A 
BRANCH  91  92
ATOM     92  S   UNL A   1      53.522  25.451  24.844  1.00  0.00     0.124 S 
ATOM     93  O   UNL A   1      54.424  26.134  25.767  1.00  0.00    -0.237 OA
ATOM     94  O   UNL A   1      53.396  24.009  25.031  1.00  0.00    -0.237 OA
ATOM     95  O   UNL A   1      53.592  25.892  23.455  1.00  0.00    -0.744 OA
ENDBRANCH  91  92
ENDBRANCH  59  84
ENDBRANCH  33  34
ENDBRANCH  25  28
ENDBRANCH  23  24
ENDBRANCH  22  23
ENDBRANCH  21  22
ENDBRANCH   1  21
TORSDOF 19
ENDMDL
MODEL 3
REMARK VINA RESULT:     -10.8      2.542      3.254
REMARK SMILES C[C@@H](Oc1cncc(C(=O)NCCCCCCNC(=O)c2ccc(-c3c4nc(c(-c5c(F)cc(S(=O)(=O)[O-])cc5F)c5ccc([nH]5)c(-c5c(F)cc(S(=O)(=O)[O-])cc5F)c5nc(c(-c6c(F)cc(S(=O)(=O)[O-])cc6F)c6ccc3[nH]6)C=C5)C=C4)cc2)n1)C(F)(F)F
REMARK SMILES IDX 14 1 13 2 12 3 11 4 9 5 10 6 8 8 4 9 5 10 87 11 6 12 7 13
REMARK SMILES IDX 3 14 2 15 1 16 88 17 89 18 90 19 91 20 15 21 16 22 17 23
REMARK SMILES IDX 18 24 19 25 20 27 21 28 22 29 86 30 23 31 85 32 24 33 25 34
REMARK SMILES IDX 26 35 79 36 27 37 84 38 78 39 80 40 28 41 83 42 77 43 76 44
REMARK SMILES IDX 29 46 63 47 42 48 62 49 43 50 46 51 61 52 81 53 44 54 45 55
REMARK SMILES IDX 60 57 82 58 47 59 30 60 31 61 40 62 32 63 33 64 39 65 41 66
REMARK SMILES IDX 34 67 35 68 36 69 37 70 38 71 64 72 65 73 74 74 66 75 67 76
REMARK SMILES IDX 73 77 75 78 68 79 69 80 70 81 71 82 72 83 48 84 49 85 58 86
REMARK SMILES IDX 50 87 51 88 57 89 59 90 52 91 53 92 54 93 55 94 56 95
REMARK H PARENT 11 7 18 26 80 45 46 56
REMARK Flexibility Score: inf
ROOT
ATOM      1  C   UNL A   1      31.906  25.341  25.957  1.00  0.00     0.002 C 
ENDROOT
BRANCH   1   2
ATOM      2  C   UNL A   1      31.027  25.556  24.718  1.00  0.00     0.021 C 
BRANCH   2   3
ATOM      3  C   UNL A   1      30.780  24.286  23.906  1.00  0.00     0.116 C 
BRANCH   3   4
ATOM      4  N   UNL A   1      31.729  24.197  22.810  1.00  0.00    -0.351 N 
ATOM      5  C   UNL A   1      32.946  23.571  22.698  1.00  0.00     0.271 C 
ATOM      6  O   UNL A   1      33.585  23.763  21.661  1.00  0.00    -0.267 OA
ATOM      7  H   UNL A   1      31.448  24.674  21.996  1.00  0.00     0.163 HD
BRANCH   5   8
ATOM      8  C   UNL A   1      33.501  22.644  23.728  1.00  0.00     0.150 A 
ATOM      9  C   UNL A   1      33.607  20.613  24.785  1.00  0.00     0.233 A 
ATOM     10  C   UNL A   1      34.815  20.980  25.366  1.00  0.00     0.179 A 
ATOM     11  N   UNL A   1      32.929  21.433  23.958  1.00  0.00    -0.205 NA
ATOM     12  N   UNL A   1      35.362  22.206  25.204  1.00  0.00    -0.257 NA
ATOM     13  C   UNL A   1      34.682  23.023  24.361  1.00  0.00     0.145 A 
BRANCH   9  14
ATOM     14  O   UNL A   1      33.170  19.318  24.843  1.00  0.00    -0.464 OA
BRANCH  14  15
ATOM     15  C   UNL A   1      33.506  18.542  23.674  1.00  0.00     0.277 C 
ATOM     16  C   UNL A   1      32.222  18.120  22.956  1.00  0.00     0.063 C 
BRANCH  15  17
ATOM     17  C   UNL A   1      34.271  17.287  24.114  1.00  0.00     0.425 C 
ATOM     18  F   UNL A   1      35.522  17.609  24.527  1.00  0.00    -0.167 F 
ATOM     19  F   UNL A   1      33.658  16.667  25.145  1.00  0.00    -0.167 F 
ATOM     20  F   UNL A   1      34.397  16.400  23.102  1.00  0.00    -0.167 F 
ENDBRANCH  15  17
ENDBRANCH  14  15
ENDBRANCH   9  14
ENDBRANCH   5   8
ENDBRANCH   3   4
ENDBRANCH   2   3
ENDBRANCH   1   2
BRANCH   1  21
ATOM     21  C   UNL A   1      33.197  26.166  25.986  1.00  0.00     0.002 C 
BRANCH  21  22
ATOM     22  C   UNL A   1      33.027  27.613  26.456  1.00  0.00     0.021 C 
BRANCH  22  23
ATOM     23  C   UNL A   1      34.076  28.578  25.914  1.00  0.00     0.116 C 
BRANCH  23  24
ATOM     24  N   UNL A   1      33.801  29.953  26.303  1.00  0.00    -0.352 N 
ATOM     25  C   UNL A   1      34.396  30.711  27.278  1.00  0.00     0.251 C 
ATOM     26  H   UNL A   1      33.087  30.401  25.795  1.00  0.00     0.163 HD
ATOM     27  O   UNL A   1      33.892  31.783  27.616  1.00  0.00    -0.269 OA
BRANCH  25  28
ATOM     28  C   UNL A   1      35.630  30.230  27.934  1.00  0.00     0.039 A 
ATOM     29  C   UNL A   1      36.851  30.379  27.272  1.00  0.00     0.014 A 
ATOM     30  C   UNL A   1      35.582  29.634  29.197  1.00  0.00     0.014 A 
ATOM     31  C   UNL A   1      38.031  29.981  27.903  1.00  0.00     0.010 A 
ATOM     32  C   UNL A   1      36.764  29.310  29.855  1.00  0.00     0.010 A 
ATOM     33  C   UNL A   1      38.001  29.473  29.214  1.00  0.00    -0.014 A 
BRANCH  33  34
ATOM     34  C   UNL A   1      39.252  29.111  29.928  1.00  0.00     0.031 A 
ATOM     35  C   UNL A   1      39.669  29.870  31.159  1.00  0.00     0.074 A 
ATOM     36  C   UNL A   1      40.043  28.139  29.432  1.00  0.00     0.049 A 
ATOM     37  N   UNL A   1      40.751  29.742  31.882  1.00  0.00    -0.248 NA
ATOM     38  C   UNL A   1      38.760  30.930  31.626  1.00  0.00     0.031 C 
ATOM     39  C   UNL A   1      39.771  27.363  28.220  1.00  0.00     0.029 A 
ATOM     40  N   UNL A   1      41.242  27.642  29.880  1.00  0.00    -0.354 N 
ATOM     41  C   UNL A   1      40.661  30.709  32.877  1.00  0.00     0.074 A 
ATOM     42  C   UNL A   1      39.445  31.453  32.633  1.00  0.00     0.031 C 
ATOM     43  C   UNL A   1      40.759  26.474  28.034  1.00  0.00     0.029 A 
ATOM     44  C   UNL A   1      41.758  26.644  29.086  1.00  0.00     0.049 A 
ATOM     45  H   UNL A   1      41.691  27.968  30.693  1.00  0.00     0.167 HD
ATOM     46  C   UNL A   1      41.503  30.939  33.913  1.00  0.00     0.037 A 
ATOM     47  C   UNL A   1      42.909  25.951  29.186  1.00  0.00     0.037 A 
ATOM     48  C   UNL A   1      42.703  30.181  34.159  1.00  0.00     0.049 A 
ATOM     49  C   UNL A   1      43.834  26.234  30.338  1.00  0.00     0.074 A 
ATOM     50  C   UNL A   1      43.593  30.297  35.212  1.00  0.00     0.029 A 
ATOM     51  N   UNL A   1      43.185  29.169  33.339  1.00  0.00    -0.354 N 
ATOM     52  N   UNL A   1      43.700  27.106  31.310  1.00  0.00    -0.248 NA
ATOM     53  C   UNL A   1      45.066  25.437  30.413  1.00  0.00     0.031 C 
ATOM     54  C   UNL A   1      44.641  29.396  34.999  1.00  0.00     0.029 A 
ATOM     55  C   UNL A   1      44.374  28.673  33.849  1.00  0.00     0.049 A 
ATOM     56  H   UNL A   1      42.746  28.852  32.517  1.00  0.00     0.167 HD
ATOM     57  C   UNL A   1      44.813  26.941  32.127  1.00  0.00     0.074 A 
ATOM     58  C   UNL A   1      45.604  25.878  31.542  1.00  0.00     0.031 C 
ATOM     59  C   UNL A   1      45.148  27.607  33.259  1.00  0.00     0.037 A 
BRANCH  46  60
ATOM     60  C   UNL A   1      41.159  32.057  34.861  1.00  0.00     0.058 A 
ATOM     61  C   UNL A   1      40.337  31.851  35.982  1.00  0.00     0.135 A 
ATOM     62  C   UNL A   1      41.688  33.344  34.670  1.00  0.00     0.135 A 
ATOM     63  F   UNL A   1      39.790  30.645  36.207  1.00  0.00    -0.206 F 
ATOM     64  C   UNL A   1      40.027  32.885  36.859  1.00  0.00     0.059 A 
ATOM     65  C   UNL A   1      41.419  34.386  35.553  1.00  0.00     0.059 A 
ATOM     66  F   UNL A   1      42.480  33.600  33.617  1.00  0.00    -0.206 F 
ATOM     67  C   UNL A   1      40.575  34.149  36.637  1.00  0.00     0.060 A 
BRANCH  67  68
ATOM     68  S   UNL A   1      40.168  35.478  37.790  1.00  0.00     0.124 S 
ATOM     69  O   UNL A   1      39.986  36.606  36.882  1.00  0.00    -0.237 OA
ATOM     70  O   UNL A   1      38.955  34.976  38.427  1.00  0.00    -0.237 OA
ATOM     71  O   UNL A   1      41.343  35.552  38.653  1.00  0.00    -0.744 OA
ENDBRANCH  67  68
ENDBRANCH  46  60
BRANCH  47  72
ATOM     72  C   UNL A   1      43.241  24.909  28.175  1.00  0.00     0.058 A 
ATOM     73  C   UNL A   1      42.898  23.565  28.383  1.00  0.00     0.135 A 
ATOM     74  C   UNL A   1      43.899  25.238  26.979  1.00  0.00     0.135 A 
ATOM     75  F   UNL A   1      42.273  23.199  29.513  1.00  0.00    -0.206 F 
ATOM     76  C   UNL A   1      43.211  22.580  27.451  1.00  0.00     0.059 A 
ATOM     77  C   UNL A   1      44.196  24.276  26.019  1.00  0.00     0.059 A 
ATOM     78  F   UNL A   1      44.235  26.512  26.724  1.00  0.00    -0.206 F 
ATOM     79  C   UNL A   1      43.857  22.947  26.270  1.00  0.00     0.060 A 
BRANCH  79  80
ATOM     80  S   UNL A   1      44.218  21.666  25.048  1.00  0.00     0.124 S 
ATOM     81  O   UNL A   1      43.212  20.662  25.369  1.00  0.00    -0.237 OA
ATOM     82  O   UNL A   1      44.027  22.382  23.790  1.00  0.00    -0.237 OA
ATOM     83  O   UNL A   1      45.598  21.297  25.346  1.00  0.00    -0.744 OA
ENDBRANCH  79  80
ENDBRANCH  47  72
BRANCH  59  84
ATOM     84  C   UNL A   1      46.406  27.184  33.969  1.00  0.00     0.058 A 
ATOM     85  C   UNL A   1      47.646  27.786  33.704  1.00  0.00     0.135 A 
ATOM     86  C   UNL A   1      46.358  26.198  34.968  1.00  0.00     0.135 A 
ATOM     87  F   UNL A   1      47.750  28.729  32.754  1.00  0.00    -0.206 F 
ATOM     88  C   UNL A   1      48.797  27.408  34.387  1.00  0.00     0.059 A 
ATOM     89  C   UNL A   1      47.490  25.827  35.686  1.00  0.00     0.059 A 
ATOM     90  F   UNL A   1      45.196  25.596  35.271  1.00  0.00    -0.206 F 
ATOM     91  C   UNL A   1      48.708  26.430  35.380  1.00  0.00     0.060 A 
BRANCH  91  92
ATOM     92  S   UNL A   1      50.204  25.976  36.282  1.00  0.00     0.124 S 
ATOM     93  O   UNL A   1      51.164  25.805  35.196  1.00  0.00    -0.237 OA
ATOM     94  O   UNL A   1      50.416  27.139  37.138  1.00  0.00    -0.237 OA
ATOM     95  O   UNL A   1      49.823  24.753  36.981  1.00  0.00    -0.744 OA
ENDBRANCH  91  92
ENDBRANCH  59  84
ENDBRANCH  33  34
ENDBRANCH  25  28
ENDBRANCH  23  24
ENDBRANCH  22  23
ENDBRANCH  21  22
ENDBRANCH   1  21
TORSDOF 19
ENDMDL
