MODEL 1
REMARK VINA RESULT:     -10.7      0.000      0.000
REMARK SMILES O=C(NCCCCCCNC(=O)c1cccnc1NC[C@H](c1ccccc1)[NH+]1CCOCC1)c1ccc(-c2c3nc(c(-c4c(F)cc(S(=O)(=O)[O-])cc4F)c4ccc([nH]4)c(-c4c(F)cc(S(=O)(=O)[O-])cc4F)c4nc(c(-c5c(F)cc(S(=O)(=O)[O-])cc5F)c5ccc2[nH]5)C=C4)C=C3)cc1
REMARK SMILES IDX 7 1 6 2 5 3 4 4 3 5 1 6 2 7 34 9 35 10 99 11 36 12 98 13
REMARK SMILES IDX 37 14 38 15 39 16 92 17 40 18 97 19 91 20 93 21 41 22 96 23
REMARK SMILES IDX 90 24 89 25 42 27 76 28 55 29 75 30 56 31 59 32 74 33 94 34
REMARK SMILES IDX 57 35 58 36 73 38 95 39 60 40 43 41 44 42 53 43 45 44 46 45
REMARK SMILES IDX 52 46 54 47 47 48 48 49 49 50 50 51 51 52 77 53 78 54 87 55
REMARK SMILES IDX 79 56 80 57 86 58 88 59 81 60 82 61 83 62 84 63 85 64 61 65
REMARK SMILES IDX 62 66 71 67 63 68 64 69 70 70 72 71 65 72 66 73 67 74 68 75
REMARK SMILES IDX 69 76 8 77 9 78 10 79 11 80 12 82 13 83 14 84 18 85 15 86
REMARK SMILES IDX 17 87 16 88 19 89 20 91 21 92 28 93 29 94 33 95 30 97 32 98
REMARK SMILES IDX 31 99 22 100 23 101 27 102 24 103 26 104 25 105
REMARK H PARENT 3 8 93 26 59 37 10 81 19 90 28 96
REMARK Flexibility Score: inf
ROOT
ATOM      1  C   UNL A   1      40.239  22.730  26.939  1.00  0.00     0.002 C 
ENDROOT
BRANCH   1   2
ATOM      2  C   UNL A   1      41.511  21.876  26.924  1.00  0.00     0.002 C 
BRANCH   2   3
ATOM      3  C   UNL A   1      41.420  20.557  26.159  1.00  0.00     0.021 C 
BRANCH   3   4
ATOM      4  C   UNL A   1      42.538  19.561  26.435  1.00  0.00     0.116 C 
BRANCH   4   5
ATOM      5  N   UNL A   1      43.267  19.184  25.237  1.00  0.00    -0.352 N 
ATOM      6  O   UNL A   1      44.536  19.498  23.400  1.00  0.00    -0.269 OA
ATOM      7  C   UNL A   1      44.114  19.942  24.460  1.00  0.00     0.251 C 
ATOM      8  H   UNL A   1      43.138  18.255  24.937  1.00  0.00     0.163 HD
BRANCH   7   9
ATOM      9  C   UNL A   1      44.489  21.308  24.897  1.00  0.00     0.039 A 
ATOM     10  C   UNL A   1      45.287  21.506  26.025  1.00  0.00     0.014 A 
ATOM     11  C   UNL A   1      44.029  22.407  24.164  1.00  0.00     0.014 A 
ATOM     12  C   UNL A   1      45.501  22.794  26.504  1.00  0.00     0.010 A 
ATOM     13  C   UNL A   1      44.317  23.705  24.601  1.00  0.00     0.010 A 
ATOM     14  C   UNL A   1      45.026  23.910  25.794  1.00  0.00    -0.014 A 
BRANCH  14  15
ATOM     15  C   UNL A   1      45.328  25.275  26.299  1.00  0.00     0.031 A 
ATOM     16  C   UNL A   1      46.705  25.869  26.170  1.00  0.00     0.074 A 
ATOM     17  C   UNL A   1      44.330  25.996  26.846  1.00  0.00     0.049 A 
ATOM     18  N   UNL A   1      47.121  27.063  26.513  1.00  0.00    -0.248 NA
ATOM     19  C   UNL A   1      47.753  25.015  25.591  1.00  0.00     0.031 C 
ATOM     20  C   UNL A   1      42.957  25.520  27.039  1.00  0.00     0.029 A 
ATOM     21  N   UNL A   1      44.303  27.285  27.315  1.00  0.00    -0.354 N 
ATOM     22  C   UNL A   1      48.478  27.098  26.213  1.00  0.00     0.074 A 
ATOM     23  C   UNL A   1      48.821  25.797  25.680  1.00  0.00     0.031 C 
ATOM     24  C   UNL A   1      42.210  26.519  27.531  1.00  0.00     0.029 A 
ATOM     25  C   UNL A   1      43.059  27.686  27.741  1.00  0.00     0.049 A 
ATOM     26  H   UNL A   1      45.097  27.865  27.344  1.00  0.00     0.167 HD
ATOM     27  C   UNL A   1      49.353  28.122  26.363  1.00  0.00     0.037 A 
ATOM     28  C   UNL A   1      42.645  28.861  28.251  1.00  0.00     0.037 A 
ATOM     29  C   UNL A   1      49.000  29.422  26.876  1.00  0.00     0.049 A 
ATOM     30  C   UNL A   1      43.636  29.978  28.410  1.00  0.00     0.074 A 
ATOM     31  C   UNL A   1      49.805  30.538  27.027  1.00  0.00     0.029 A 
ATOM     32  N   UNL A   1      47.737  29.780  27.328  1.00  0.00    -0.354 N 
ATOM     33  N   UNL A   1      44.907  30.001  28.089  1.00  0.00    -0.248 NA
ATOM     34  C   UNL A   1      43.138  31.224  29.005  1.00  0.00     0.031 C 
ATOM     35  C   UNL A   1      49.039  31.558  27.604  1.00  0.00     0.029 A 
ATOM     36  C   UNL A   1      47.746  31.092  27.774  1.00  0.00     0.049 A 
ATOM     37  H   UNL A   1      46.950  29.189  27.330  1.00  0.00     0.167 HD
ATOM     38  C   UNL A   1      45.359  31.270  28.428  1.00  0.00     0.074 A 
ATOM     39  C   UNL A   1      44.220  31.990  28.965  1.00  0.00     0.031 C 
ATOM     40  C   UNL A   1      46.605  31.793  28.309  1.00  0.00     0.037 A 
BRANCH  27  41
ATOM     41  C   UNL A   1      50.788  27.873  25.984  1.00  0.00     0.058 A 
ATOM     42  C   UNL A   1      51.762  27.551  26.943  1.00  0.00     0.135 A 
ATOM     43  C   UNL A   1      51.188  27.929  24.638  1.00  0.00     0.135 A 
ATOM     44  F   UNL A   1      51.438  27.496  28.244  1.00  0.00    -0.206 F 
ATOM     45  C   UNL A   1      53.088  27.326  26.585  1.00  0.00     0.059 A 
ATOM     46  C   UNL A   1      52.505  27.683  24.255  1.00  0.00     0.059 A 
ATOM     47  F   UNL A   1      50.298  28.228  23.681  1.00  0.00    -0.206 F 
ATOM     48  C   UNL A   1      53.451  27.400  25.239  1.00  0.00     0.060 A 
BRANCH  48  49
ATOM     49  S   UNL A   1      55.179  27.120  24.792  1.00  0.00     0.124 S 
ATOM     50  O   UNL A   1      55.329  28.014  23.647  1.00  0.00    -0.237 OA
ATOM     51  O   UNL A   1      55.885  27.519  26.004  1.00  0.00    -0.237 OA
ATOM     52  O   UNL A   1      55.223  25.694  24.483  1.00  0.00    -0.744 OA
ENDBRANCH  48  49
ENDBRANCH  27  41
BRANCH  28  53
ATOM     53  C   UNL A   1      41.220  29.037  28.631  1.00  0.00     0.058 A 
ATOM     54  C   UNL A   1      40.824  29.000  29.975  1.00  0.00     0.135 A 
ATOM     55  C   UNL A   1      40.234  29.283  27.663  1.00  0.00     0.135 A 
ATOM     56  F   UNL A   1      41.732  28.765  30.936  1.00  0.00    -0.206 F 
ATOM     57  C   UNL A   1      39.500  29.195  30.349  1.00  0.00     0.059 A 
ATOM     58  C   UNL A   1      38.907  29.506  28.014  1.00  0.00     0.059 A 
ATOM     59  F   UNL A   1      40.567  29.346  26.365  1.00  0.00    -0.206 F 
ATOM     60  C   UNL A   1      38.548  29.451  29.360  1.00  0.00     0.060 A 
BRANCH  60  61
ATOM     61  S   UNL A   1      36.842  29.766  29.858  1.00  0.00     0.124 S 
ATOM     62  O   UNL A   1      36.732  28.950  31.061  1.00  0.00    -0.237 OA
ATOM     63  O   UNL A   1      36.841  31.211  30.063  1.00  0.00    -0.237 OA
ATOM     64  O   UNL A   1      36.069  29.306  28.707  1.00  0.00    -0.744 OA
ENDBRANCH  60  61
ENDBRANCH  28  53
BRANCH  40  65
ATOM     65  C   UNL A   1      46.790  33.218  28.745  1.00  0.00     0.058 A 
ATOM     66  C   UNL A   1      47.169  33.542  30.057  1.00  0.00     0.135 A 
ATOM     67  C   UNL A   1      46.605  34.270  27.835  1.00  0.00     0.135 A 
ATOM     68  F   UNL A   1      47.350  32.572  30.967  1.00  0.00    -0.206 F 
ATOM     69  C   UNL A   1      47.331  34.863  30.460  1.00  0.00     0.059 A 
ATOM     70  C   UNL A   1      46.784  35.598  28.209  1.00  0.00     0.059 A 
ATOM     71  F   UNL A   1      46.249  34.012  26.566  1.00  0.00    -0.206 F 
ATOM     72  C   UNL A   1      47.133  35.885  29.528  1.00  0.00     0.060 A 
BRANCH  72  73
ATOM     73  S   UNL A   1      47.359  37.597  30.054  1.00  0.00     0.124 S 
ATOM     74  O   UNL A   1      48.637  37.522  30.754  1.00  0.00    -0.237 OA
ATOM     75  O   UNL A   1      47.372  38.318  28.785  1.00  0.00    -0.237 OA
ATOM     76  O   UNL A   1      46.193  37.848  30.898  1.00  0.00    -0.744 OA
ENDBRANCH  72  73
ENDBRANCH  40  65
ENDBRANCH  14  15
ENDBRANCH   7   9
ENDBRANCH   4   5
ENDBRANCH   3   4
ENDBRANCH   2   3
ENDBRANCH   1   2
BRANCH   1  77
ATOM     77  C   UNL A   1      39.050  22.182  26.143  1.00  0.00     0.021 C 
BRANCH  77  78
ATOM     78  C   UNL A   1      37.847  23.116  26.019  1.00  0.00     0.116 C 
BRANCH  78  79
ATOM     79  N   UNL A   1      37.471  23.352  24.636  1.00  0.00    -0.352 N 
ATOM     80  C   UNL A   1      36.398  22.853  23.940  1.00  0.00     0.255 C 
ATOM     81  H   UNL A   1      38.067  23.950  24.130  1.00  0.00     0.163 HD
ATOM     82  O   UNL A   1      36.324  23.014  22.723  1.00  0.00    -0.269 OA
BRANCH  80  83
ATOM     83  C   UNL A   1      35.335  22.117  24.651  1.00  0.00     0.082 A 
ATOM     84  C   UNL A   1      35.285  20.720  24.568  1.00  0.00     0.019 A 
ATOM     85  C   UNL A   1      34.397  22.804  25.432  1.00  0.00     0.139 A 
ATOM     86  C   UNL A   1      34.257  20.042  25.208  1.00  0.00     0.021 A 
ATOM     87  N   UNL A   1      33.381  22.136  26.029  1.00  0.00    -0.239 NA
ATOM     88  C   UNL A   1      33.332  20.790  25.911  1.00  0.00     0.113 A 
BRANCH  85  89
ATOM     89  N   UNL A   1      34.440  24.186  25.541  1.00  0.00    -0.363 N 
ATOM     90  H   UNL A   1      35.288  24.657  25.369  1.00  0.00     0.162 HD
BRANCH  89  91
ATOM     91  C   UNL A   1      33.257  24.958  25.904  1.00  0.00     0.184 C 
BRANCH  91  92
ATOM     92  C   UNL A   1      33.022  26.188  24.961  1.00  0.00     0.234 C 
BRANCH  92  93
ATOM     93  N   UNL A   1      32.065  26.044  23.822  1.00  0.00    -0.323 N 
ATOM     94  C   UNL A   1      31.853  24.696  23.266  1.00  0.00     0.291 C 
ATOM     95  C   UNL A   1      32.269  26.983  22.701  1.00  0.00     0.291 C 
ATOM     96  H   UNL A   1      31.213  26.288  24.326  1.00  0.00     0.348 HD
ATOM     97  C   UNL A   1      32.922  24.264  22.258  1.00  0.00     0.221 C 
ATOM     98  C   UNL A   1      33.266  26.506  21.620  1.00  0.00     0.221 C 
ATOM     99  O   UNL A   1      32.967  25.182  21.158  1.00  0.00    -0.370 OA
ENDBRANCH  92  93
BRANCH  92 100
ATOM    100  C   UNL A   1      32.839  27.501  25.737  1.00  0.00     0.011 A 
ATOM    101  C   UNL A   1      33.744  28.570  25.606  1.00  0.00     0.010 A 
ATOM    102  C   UNL A   1      31.765  27.649  26.629  1.00  0.00     0.010 A 
ATOM    103  C   UNL A   1      33.596  29.736  26.360  1.00  0.00     0.001 A 
ATOM    104  C   UNL A   1      31.606  28.825  27.368  1.00  0.00     0.001 A 
ATOM    105  C   UNL A   1      32.526  29.864  27.240  1.00  0.00     0.000 A 
ENDBRANCH  92 100
ENDBRANCH  91  92
ENDBRANCH  89  91
ENDBRANCH  85  89
ENDBRANCH  80  83
ENDBRANCH  78  79
ENDBRANCH  77  78
ENDBRANCH   1  77
TORSDOF 21
ENDMDL
MODEL 2
REMARK VINA RESULT:     -10.5      6.364      8.444
REMARK SMILES O=C(NCCCCCCNC(=O)c1cccnc1NC[C@H](c1ccccc1)[NH+]1CCOCC1)c1ccc(-c2c3nc(c(-c4c(F)cc(S(=O)(=O)[O-])cc4F)c4ccc([nH]4)c(-c4c(F)cc(S(=O)(=O)[O-])cc4F)c4nc(c(-c5c(F)cc(S(=O)(=O)[O-])cc5F)c5ccc2[nH]5)C=C4)C=C3)cc1
REMARK SMILES IDX 7 1 6 2 5 3 4 4 3 5 1 6 2 7 34 9 35 10 99 11 36 12 98 13
REMARK SMILES IDX 37 14 38 15 39 16 92 17 40 18 97 19 91 20 93 21 41 22 96 23
REMARK SMILES IDX 90 24 89 25 42 27 76 28 55 29 75 30 56 31 59 32 74 33 94 34
REMARK SMILES IDX 57 35 58 36 73 38 95 39 60 40 43 41 44 42 53 43 45 44 46 45
REMARK SMILES IDX 52 46 54 47 47 48 48 49 49 50 50 51 51 52 77 53 78 54 87 55
REMARK SMILES IDX 79 56 80 57 86 58 88 59 81 60 82 61 83 62 84 63 85 64 61 65
REMARK SMILES IDX 62 66 71 67 63 68 64 69 70 70 72 71 65 72 66 73 67 74 68 75
REMARK SMILES IDX 69 76 8 77 9 78 10 79 11 80 12 82 13 83 14 84 18 85 15 86
REMARK SMILES IDX 17 87 16 88 19 89 20 91 21 92 28 93 29 94 33 95 30 97 32 98
REMARK SMILES IDX 31 99 22 100 23 101 27 102 24 103 26 104 25 105
REMARK H PARENT 3 8 93 26 59 37 10 81 19 90 28 96
REMARK Flexibility Score: inf
ROOT
ATOM      1  C   UNL A   1      36.750  23.254  25.764  1.00  0.00     0.002 C 
ENDROOT
BRANCH   1   2
ATOM      2  C   UNL A   1      38.152  23.756  26.122  1.00  0.00     0.002 C 
BRANCH   2   3
ATOM      3  C   UNL A   1      39.167  22.681  26.508  1.00  0.00     0.021 C 
BRANCH   3   4
ATOM      4  C   UNL A   1      40.487  23.196  27.065  1.00  0.00     0.116 C 
BRANCH   4   5
ATOM      5  N   UNL A   1      41.314  23.837  26.057  1.00  0.00    -0.352 N 
ATOM      6  O   UNL A   1      42.316  25.546  24.981  1.00  0.00    -0.269 OA
ATOM      7  C   UNL A   1      41.735  25.146  25.982  1.00  0.00     0.251 C 
ATOM      8  H   UNL A   1      41.617  23.253  25.324  1.00  0.00     0.163 HD
BRANCH   7   9
ATOM      9  C   UNL A   1      41.455  26.074  27.102  1.00  0.00     0.039 A 
ATOM     10  C   UNL A   1      42.193  27.248  27.262  1.00  0.00     0.014 A 
ATOM     11  C   UNL A   1      40.436  25.760  28.008  1.00  0.00     0.014 A 
ATOM     12  C   UNL A   1      42.016  28.027  28.401  1.00  0.00     0.010 A 
ATOM     13  C   UNL A   1      40.202  26.591  29.109  1.00  0.00     0.010 A 
ATOM     14  C   UNL A   1      41.014  27.713  29.334  1.00  0.00    -0.014 A 
BRANCH  14  15
ATOM     15  C   UNL A   1      40.809  28.603  30.507  1.00  0.00     0.031 A 
ATOM     16  C   UNL A   1      41.708  28.528  31.712  1.00  0.00     0.074 A 
ATOM     17  C   UNL A   1      39.818  29.515  30.459  1.00  0.00     0.049 A 
ATOM     18  N   UNL A   1      41.695  29.266  32.794  1.00  0.00    -0.248 NA
ATOM     19  C   UNL A   1      42.749  27.490  31.709  1.00  0.00     0.031 C 
ATOM     20  C   UNL A   1      38.872  29.671  29.351  1.00  0.00     0.029 A 
ATOM     21  N   UNL A   1      39.455  30.497  31.345  1.00  0.00    -0.354 N 
ATOM     22  C   UNL A   1      42.707  28.770  33.609  1.00  0.00     0.074 A 
ATOM     23  C   UNL A   1      43.300  27.654  32.904  1.00  0.00     0.031 C 
ATOM     24  C   UNL A   1      38.076  30.722  29.596  1.00  0.00     0.029 A 
ATOM     25  C   UNL A   1      38.415  31.279  30.900  1.00  0.00     0.049 A 
ATOM     26  H   UNL A   1      39.895  30.628  32.215  1.00  0.00     0.167 HD
ATOM     27  C   UNL A   1      43.107  29.210  34.827  1.00  0.00     0.037 A 
ATOM     28  C   UNL A   1      37.798  32.326  31.478  1.00  0.00     0.037 A 
ATOM     29  C   UNL A   1      42.524  30.336  35.514  1.00  0.00     0.049 A 
ATOM     30  C   UNL A   1      38.257  32.791  32.830  1.00  0.00     0.074 A 
ATOM     31  C   UNL A   1      42.887  30.885  36.732  1.00  0.00     0.029 A 
ATOM     32  N   UNL A   1      41.452  31.083  35.046  1.00  0.00    -0.354 N 
ATOM     33  N   UNL A   1      39.239  32.329  33.567  1.00  0.00    -0.248 NA
ATOM     34  C   UNL A   1      37.524  33.912  33.428  1.00  0.00     0.031 C 
ATOM     35  C   UNL A   1      42.010  31.939  37.017  1.00  0.00     0.029 A 
ATOM     36  C   UNL A   1      41.128  32.074  35.958  1.00  0.00     0.049 A 
ATOM     37  H   UNL A   1      40.989  30.930  34.190  1.00  0.00     0.167 HD
ATOM     38  C   UNL A   1      39.251  33.116  34.713  1.00  0.00     0.074 A 
ATOM     39  C   UNL A   1      38.190  34.092  34.562  1.00  0.00     0.031 C 
ATOM     40  C   UNL A   1      40.066  33.036  35.794  1.00  0.00     0.037 A 
BRANCH  27  41
ATOM     41  C   UNL A   1      44.219  28.460  35.508  1.00  0.00     0.058 A 
ATOM     42  C   UNL A   1      45.567  28.802  35.320  1.00  0.00     0.135 A 
ATOM     43  C   UNL A   1      43.929  27.402  36.386  1.00  0.00     0.135 A 
ATOM     44  F   UNL A   1      45.902  29.797  34.484  1.00  0.00    -0.206 F 
ATOM     45  C   UNL A   1      46.591  28.102  35.952  1.00  0.00     0.059 A 
ATOM     46  C   UNL A   1      44.936  26.702  37.047  1.00  0.00     0.059 A 
ATOM     47  F   UNL A   1      42.658  27.035  36.606  1.00  0.00    -0.206 F 
ATOM     48  C   UNL A   1      46.265  27.049  36.809  1.00  0.00     0.060 A 
BRANCH  48  49
ATOM     49  S   UNL A   1      47.605  26.139  37.610  1.00  0.00     0.124 S 
ATOM     50  O   UNL A   1      46.864  25.100  38.320  1.00  0.00    -0.237 OA
ATOM     51  O   UNL A   1      48.399  25.686  36.474  1.00  0.00    -0.237 OA
ATOM     52  O   UNL A   1      48.241  27.145  38.455  1.00  0.00    -0.744 OA
ENDBRANCH  48  49
ENDBRANCH  27  41
BRANCH  28  53
ATOM     53  C   UNL A   1      36.688  33.010  30.766  1.00  0.00     0.058 A 
ATOM     54  C   UNL A   1      35.352  32.664  31.015  1.00  0.00     0.135 A 
ATOM     55  C   UNL A   1      36.938  34.047  29.854  1.00  0.00     0.135 A 
ATOM     56  F   UNL A   1      35.065  31.676  31.878  1.00  0.00    -0.206 F 
ATOM     57  C   UNL A   1      34.302  33.316  30.380  1.00  0.00     0.059 A 
ATOM     58  C   UNL A   1      35.903  34.731  29.226  1.00  0.00     0.059 A 
ATOM     59  F   UNL A   1      38.199  34.426  29.597  1.00  0.00    -0.206 F 
ATOM     60  C   UNL A   1      34.587  34.352  29.489  1.00  0.00     0.060 A 
BRANCH  60  61
ATOM     61  S   UNL A   1      33.217  35.237  28.718  1.00  0.00     0.124 S 
ATOM     62  O   UNL A   1      33.923  36.216  27.901  1.00  0.00    -0.237 OA
ATOM     63  O   UNL A   1      32.531  34.173  27.992  1.00  0.00    -0.237 OA
ATOM     64  O   UNL A   1      32.484  35.777  29.860  1.00  0.00    -0.744 OA
ENDBRANCH  60  61
ENDBRANCH  28  53
BRANCH  40  65
ATOM     65  C   UNL A   1      39.854  34.048  36.883  1.00  0.00     0.058 A 
ATOM     66  C   UNL A   1      39.039  33.774  37.992  1.00  0.00     0.135 A 
ATOM     67  C   UNL A   1      40.489  35.299  36.825  1.00  0.00     0.135 A 
ATOM     68  F   UNL A   1      38.403  32.596  38.089  1.00  0.00    -0.206 F 
ATOM     69  C   UNL A   1      38.837  34.718  38.994  1.00  0.00     0.059 A 
ATOM     70  C   UNL A   1      40.321  36.248  37.828  1.00  0.00     0.059 A 
ATOM     71  F   UNL A   1      41.285  35.606  35.789  1.00  0.00    -0.206 F 
ATOM     72  C   UNL A   1      39.481  35.954  38.901  1.00  0.00     0.060 A 
BRANCH  72  73
ATOM     73  S   UNL A   1      39.226  37.167  40.213  1.00  0.00     0.124 S 
ATOM     74  O   UNL A   1      38.478  36.387  41.193  1.00  0.00    -0.237 OA
ATOM     75  O   UNL A   1      40.593  37.515  40.591  1.00  0.00    -0.237 OA
ATOM     76  O   UNL A   1      38.477  38.230  39.549  1.00  0.00    -0.744 OA
ENDBRANCH  72  73
ENDBRANCH  40  65
ENDBRANCH  14  15
ENDBRANCH   7   9
ENDBRANCH   4   5
ENDBRANCH   3   4
ENDBRANCH   2   3
ENDBRANCH   1   2
BRANCH   1  77
ATOM     77  C   UNL A   1      36.553  22.775  24.321  1.00  0.00     0.021 C 
BRANCH  77  78
ATOM     78  C   UNL A   1      35.108  22.511  23.902  1.00  0.00     0.116 C 
BRANCH  78  79
ATOM     79  N   UNL A   1      34.626  23.483  22.936  1.00  0.00    -0.352 N 
ATOM     80  C   UNL A   1      33.497  24.264  22.990  1.00  0.00     0.255 C 
ATOM     81  H   UNL A   1      35.185  23.598  22.133  1.00  0.00     0.163 HD
ATOM     82  O   UNL A   1      33.146  24.908  22.004  1.00  0.00    -0.269 OA
BRANCH  80  83
ATOM     83  C   UNL A   1      32.702  24.323  24.232  1.00  0.00     0.082 A 
ATOM     84  C   UNL A   1      31.801  23.293  24.528  1.00  0.00     0.019 A 
ATOM     85  C   UNL A   1      32.864  25.388  25.128  1.00  0.00     0.139 A 
ATOM     86  C   UNL A   1      31.029  23.380  25.677  1.00  0.00     0.021 A 
ATOM     87  N   UNL A   1      32.086  25.479  26.232  1.00  0.00    -0.239 NA
ATOM     88  C   UNL A   1      31.199  24.489  26.484  1.00  0.00     0.113 A 
BRANCH  85  89
ATOM     89  N   UNL A   1      33.763  26.409  24.860  1.00  0.00    -0.363 N 
ATOM     90  H   UNL A   1      34.606  26.455  25.369  1.00  0.00     0.162 HD
BRANCH  89  91
ATOM     91  C   UNL A   1      33.489  27.417  23.842  1.00  0.00     0.184 C 
BRANCH  91  92
ATOM     92  C   UNL A   1      32.715  28.657  24.408  1.00  0.00     0.234 C 
BRANCH  92  93
ATOM     93  N   UNL A   1      31.224  28.596  24.485  1.00  0.00    -0.323 N 
ATOM     94  C   UNL A   1      30.551  27.417  23.910  1.00  0.00     0.291 C 
ATOM     95  C   UNL A   1      30.516  29.807  24.023  1.00  0.00     0.291 C 
ATOM     96  H   UNL A   1      31.140  28.513  25.498  1.00  0.00     0.348 HD
ATOM     97  C   UNL A   1      30.344  27.497  22.395  1.00  0.00     0.221 C 
ATOM     98  C   UNL A   1      30.204  29.846  22.509  1.00  0.00     0.221 C 
ATOM     99  O   UNL A   1      29.558  28.648  22.061  1.00  0.00    -0.370 OA
ENDBRANCH  92  93
BRANCH  92 100
ATOM    100  C   UNL A   1      33.358  29.226  25.682  1.00  0.00     0.011 A 
ATOM    101  C   UNL A   1      32.803  30.322  26.366  1.00  0.00     0.010 A 
ATOM    102  C   UNL A   1      34.551  28.674  26.175  1.00  0.00     0.010 A 
ATOM    103  C   UNL A   1      33.429  30.863  27.490  1.00  0.00     0.001 A 
ATOM    104  C   UNL A   1      35.167  29.202  27.313  1.00  0.00     0.001 A 
ATOM    105  C   UNL A   1      34.612  30.303  27.964  1.00  0.00     0.000 A 
ENDBRANCH  92 100
ENDBRANCH  91  92
ENDBRANCH  89  91
ENDBRANCH  85  89
ENDBRANCH  80  83
ENDBRANCH  78  79
ENDBRANCH  77  78
ENDBRANCH   1  77
TORSDOF 21
ENDMDL
MODEL 3
REMARK VINA RESULT:     -10.2      2.642      9.147
REMARK SMILES O=C(NCCCCCCNC(=O)c1cccnc1NC[C@H](c1ccccc1)[NH+]1CCOCC1)c1ccc(-c2c3nc(c(-c4c(F)cc(S(=O)(=O)[O-])cc4F)c4ccc([nH]4)c(-c4c(F)cc(S(=O)(=O)[O-])cc4F)c4nc(c(-c5c(F)cc(S(=O)(=O)[O-])cc5F)c5ccc2[nH]5)C=C4)C=C3)cc1
REMARK SMILES IDX 7 1 6 2 5 3 4 4 3 5 1 6 2 7 34 9 35 10 99 11 36 12 98 13
REMARK SMILES IDX 37 14 38 15 39 16 92 17 40 18 97 19 91 20 93 21 41 22 96 23
REMARK SMILES IDX 90 24 89 25 42 27 76 28 55 29 75 30 56 31 59 32 74 33 94 34
REMARK SMILES IDX 57 35 58 36 73 38 95 39 60 40 43 41 44 42 53 43 45 44 46 45
REMARK SMILES IDX 52 46 54 47 47 48 48 49 49 50 50 51 51 52 77 53 78 54 87 55
REMARK SMILES IDX 79 56 80 57 86 58 88 59 81 60 82 61 83 62 84 63 85 64 61 65
REMARK SMILES IDX 62 66 71 67 63 68 64 69 70 70 72 71 65 72 66 73 67 74 68 75
REMARK SMILES IDX 69 76 8 77 9 78 10 79 11 80 12 82 13 83 14 84 18 85 15 86
REMARK SMILES IDX 17 87 16 88 19 89 20 91 21 92 28 93 29 94 33 95 30 97 32 98
REMARK SMILES IDX 31 99 22 100 23 101 27 102 24 103 26 104 25 105
REMARK H PARENT 3 8 93 26 59 37 10 81 19 90 28 96
REMARK Flexibility Score: inf
ROOT
ATOM      1  C   UNL A   1      32.856  32.232  27.914  1.00  0.00     0.002 C 
ENDROOT
BRANCH   1   2
ATOM      2  C   UNL A   1      33.917  32.902  28.792  1.00  0.00     0.002 C 
BRANCH   2   3
ATOM      3  C   UNL A   1      35.286  33.105  28.145  1.00  0.00     0.021 C 
BRANCH   3   4
ATOM      4  C   UNL A   1      36.413  32.254  28.715  1.00  0.00     0.116 C 
BRANCH   4   5
ATOM      5  N   UNL A   1      36.055  31.604  29.964  1.00  0.00    -0.352 N 
ATOM      6  O   UNL A   1      36.178  30.068  31.609  1.00  0.00    -0.269 OA
ATOM      7  C   UNL A   1      36.702  30.589  30.633  1.00  0.00     0.251 C 
ATOM      8  H   UNL A   1      35.234  31.937  30.393  1.00  0.00     0.163 HD
BRANCH   7   9
ATOM      9  C   UNL A   1      38.019  30.112  30.149  1.00  0.00     0.039 A 
ATOM     10  C   UNL A   1      39.037  29.787  31.047  1.00  0.00     0.014 A 
ATOM     11  C   UNL A   1      38.234  29.990  28.773  1.00  0.00     0.014 A 
ATOM     12  C   UNL A   1      40.309  29.487  30.571  1.00  0.00     0.010 A 
ATOM     13  C   UNL A   1      39.493  29.604  28.296  1.00  0.00     0.010 A 
ATOM     14  C   UNL A   1      40.551  29.384  29.191  1.00  0.00    -0.014 A 
BRANCH  14  15
ATOM     15  C   UNL A   1      41.906  28.997  28.718  1.00  0.00     0.031 A 
ATOM     16  C   UNL A   1      43.054  29.970  28.754  1.00  0.00     0.074 A 
ATOM     17  C   UNL A   1      42.103  27.736  28.286  1.00  0.00     0.049 A 
ATOM     18  N   UNL A   1      44.307  29.776  28.425  1.00  0.00    -0.248 NA
ATOM     19  C   UNL A   1      42.761  31.337  29.207  1.00  0.00     0.031 C 
ATOM     20  C   UNL A   1      41.063  26.708  28.190  1.00  0.00     0.029 A 
ATOM     21  N   UNL A   1      43.242  27.093  27.873  1.00  0.00    -0.354 N 
ATOM     22  C   UNL A   1      44.946  30.996  28.611  1.00  0.00     0.074 A 
ATOM     23  C   UNL A   1      43.938  31.931  29.061  1.00  0.00     0.031 C 
ATOM     24  C   UNL A   1      41.620  25.551  27.804  1.00  0.00     0.029 A 
ATOM     25  C   UNL A   1      43.044  25.767  27.569  1.00  0.00     0.049 A 
ATOM     26  H   UNL A   1      44.117  27.539  27.801  1.00  0.00     0.167 HD
ATOM     27  C   UNL A   1      46.254  31.305  28.429  1.00  0.00     0.037 A 
ATOM     28  C   UNL A   1      43.908  24.827  27.144  1.00  0.00     0.037 A 
ATOM     29  C   UNL A   1      47.257  30.362  28.000  1.00  0.00     0.049 A 
ATOM     30  C   UNL A   1      45.350  25.196  26.947  1.00  0.00     0.074 A 
ATOM     31  C   UNL A   1      48.615  30.568  27.826  1.00  0.00     0.029 A 
ATOM     32  N   UNL A   1      47.012  29.037  27.671  1.00  0.00    -0.354 N 
ATOM     33  N   UNL A   1      45.940  26.348  27.160  1.00  0.00    -0.248 NA
ATOM     34  C   UNL A   1      46.240  24.142  26.446  1.00  0.00     0.031 C 
ATOM     35  C   UNL A   1      49.183  29.377  27.357  1.00  0.00     0.029 A 
ATOM     36  C   UNL A   1      48.188  28.418  27.278  1.00  0.00     0.049 A 
ATOM     37  H   UNL A   1      46.130  28.599  27.711  1.00  0.00     0.167 HD
ATOM     38  C   UNL A   1      47.277  26.152  26.835  1.00  0.00     0.074 A 
ATOM     39  C   UNL A   1      47.409  24.768  26.425  1.00  0.00     0.031 C 
ATOM     40  C   UNL A   1      48.302  27.040  26.870  1.00  0.00     0.037 A 
BRANCH  27  41
ATOM     41  C   UNL A   1      46.675  32.728  28.675  1.00  0.00     0.058 A 
ATOM     42  C   UNL A   1      46.656  33.693  27.655  1.00  0.00     0.135 A 
ATOM     43  C   UNL A   1      47.074  33.140  29.958  1.00  0.00     0.135 A 
ATOM     44  F   UNL A   1      46.295  33.352  26.409  1.00  0.00    -0.206 F 
ATOM     45  C   UNL A   1      47.050  35.007  27.890  1.00  0.00     0.059 A 
ATOM     46  C   UNL A   1      47.449  34.455  30.221  1.00  0.00     0.059 A 
ATOM     47  F   UNL A   1      47.106  32.260  30.970  1.00  0.00    -0.206 F 
ATOM     48  C   UNL A   1      47.450  35.377  29.176  1.00  0.00     0.060 A 
BRANCH  48  49
ATOM     49  S   UNL A   1      47.973  37.082  29.462  1.00  0.00     0.124 S 
ATOM     50  O   UNL A   1      47.797  37.200  30.906  1.00  0.00    -0.237 OA
ATOM     51  O   UNL A   1      49.354  37.071  28.992  1.00  0.00    -0.237 OA
ATOM     52  O   UNL A   1      47.044  37.863  28.650  1.00  0.00    -0.744 OA
ENDBRANCH  48  49
ENDBRANCH  27  41
BRANCH  28  53
ATOM     53  C   UNL A   1      43.427  23.445  26.893  1.00  0.00     0.058 A 
ATOM     54  C   UNL A   1      43.294  22.956  25.585  1.00  0.00     0.135 A 
ATOM     55  C   UNL A   1      43.127  22.575  27.952  1.00  0.00     0.135 A 
ATOM     56  F   UNL A   1      43.566  23.753  24.540  1.00  0.00    -0.206 F 
ATOM     57  C   UNL A   1      42.875  21.654  25.335  1.00  0.00     0.059 A 
ATOM     58  C   UNL A   1      42.731  21.261  27.727  1.00  0.00     0.059 A 
ATOM     59  F   UNL A   1      43.257  22.991  29.221  1.00  0.00    -0.206 F 
ATOM     60  C   UNL A   1      42.599  20.812  26.414  1.00  0.00     0.060 A 
BRANCH  60  61
ATOM     61  S   UNL A   1      42.118  19.104  26.082  1.00  0.00     0.124 S 
ATOM     62  O   UNL A   1      42.880  18.815  24.873  1.00  0.00    -0.237 OA
ATOM     63  O   UNL A   1      42.557  18.419  27.294  1.00  0.00    -0.237 OA
ATOM     64  O   UNL A   1      40.671  19.193  25.913  1.00  0.00    -0.744 OA
ENDBRANCH  60  61
ENDBRANCH  28  53
BRANCH  40  65
ATOM     65  C   UNL A   1      49.659  26.528  26.477  1.00  0.00     0.058 A 
ATOM     66  C   UNL A   1      50.162  26.702  25.178  1.00  0.00     0.135 A 
ATOM     67  C   UNL A   1      50.472  25.874  27.416  1.00  0.00     0.135 A 
ATOM     68  F   UNL A   1      49.419  27.313  24.242  1.00  0.00    -0.206 F 
ATOM     69  C   UNL A   1      51.415  26.219  24.816  1.00  0.00     0.059 A 
ATOM     70  C   UNL A   1      51.737  25.405  27.083  1.00  0.00     0.059 A 
ATOM     71  F   UNL A   1      50.039  25.691  28.674  1.00  0.00    -0.206 F 
ATOM     72  C   UNL A   1      52.195  25.568  25.775  1.00  0.00     0.060 A 
BRANCH  72  73
ATOM     73  S   UNL A   1      53.825  24.958  25.301  1.00  0.00     0.124 S 
ATOM     74  O   UNL A   1      54.076  25.710  24.077  1.00  0.00    -0.237 OA
ATOM     75  O   UNL A   1      54.647  25.327  26.451  1.00  0.00    -0.237 OA
ATOM     76  O   UNL A   1      53.612  23.524  25.127  1.00  0.00    -0.744 OA
ENDBRANCH  72  73
ENDBRANCH  40  65
ENDBRANCH  14  15
ENDBRANCH   7   9
ENDBRANCH   4   5
ENDBRANCH   3   4
ENDBRANCH   2   3
ENDBRANCH   1   2
BRANCH   1  77
ATOM     77  C   UNL A   1      33.381  31.332  26.789  1.00  0.00     0.021 C 
BRANCH  77  78
ATOM     78  C   UNL A   1      34.081  30.050  27.238  1.00  0.00     0.116 C 
BRANCH  78  79
ATOM     79  N   UNL A   1      33.154  29.083  27.800  1.00  0.00    -0.352 N 
ATOM     80  C   UNL A   1      32.081  28.470  27.201  1.00  0.00     0.255 C 
ATOM     81  H   UNL A   1      33.317  28.834  28.739  1.00  0.00     0.163 HD
ATOM     82  O   UNL A   1      31.294  27.808  27.875  1.00  0.00    -0.269 OA
BRANCH  80  83
ATOM     83  C   UNL A   1      31.869  28.612  25.747  1.00  0.00     0.082 A 
ATOM     84  C   UNL A   1      31.027  29.622  25.265  1.00  0.00     0.019 A 
ATOM     85  C   UNL A   1      32.527  27.763  24.848  1.00  0.00     0.139 A 
ATOM     86  C   UNL A   1      30.803  29.720  23.900  1.00  0.00     0.021 A 
ATOM     87  N   UNL A   1      32.280  27.848  23.519  1.00  0.00    -0.239 NA
ATOM     88  C   UNL A   1      31.439  28.810  23.076  1.00  0.00     0.113 A 
BRANCH  85  89
ATOM     89  N   UNL A   1      33.378  26.768  25.305  1.00  0.00    -0.363 N 
ATOM     90  H   UNL A   1      33.690  26.792  26.239  1.00  0.00     0.162 HD
BRANCH  89  91
ATOM     91  C   UNL A   1      33.820  25.685  24.433  1.00  0.00     0.184 C 
BRANCH  91  92
ATOM     92  C   UNL A   1      33.730  24.278  25.119  1.00  0.00     0.234 C 
BRANCH  92  93
ATOM     93  N   UNL A   1      32.460  23.501  24.995  1.00  0.00    -0.323 N 
ATOM     94  C   UNL A   1      31.211  24.251  24.779  1.00  0.00     0.291 C 
ATOM     95  C   UNL A   1      32.225  22.499  26.053  1.00  0.00     0.291 C 
ATOM     96  H   UNL A   1      32.672  23.030  24.115  1.00  0.00     0.348 HD
ATOM     97  C   UNL A   1      30.593  24.812  26.064  1.00  0.00     0.221 C 
ATOM     98  C   UNL A   1      31.502  23.033  27.311  1.00  0.00     0.221 C 
ATOM     99  O   UNL A   1      30.306  23.750  26.982  1.00  0.00    -0.370 OA
ENDBRANCH  92  93
BRANCH  92 100
ATOM    100  C   UNL A   1      34.984  23.423  24.880  1.00  0.00     0.011 A 
ATOM    101  C   UNL A   1      35.596  22.700  25.920  1.00  0.00     0.010 A 
ATOM    102  C   UNL A   1      35.571  23.373  23.606  1.00  0.00     0.010 A 
ATOM    103  C   UNL A   1      36.767  21.972  25.700  1.00  0.00     0.001 A 
ATOM    104  C   UNL A   1      36.731  22.627  23.381  1.00  0.00     0.001 A 
ATOM    105  C   UNL A   1      37.334  21.936  24.430  1.00  0.00     0.000 A 
ENDBRANCH  92 100
ENDBRANCH  91  92
ENDBRANCH  89  91
ENDBRANCH  85  89
ENDBRANCH  80  83
ENDBRANCH  78  79
ENDBRANCH  77  78
ENDBRANCH   1  77
TORSDOF 21
ENDMDL
