MODEL 1
REMARK VINA RESULT:     -11.1      0.000      0.000
REMARK SMILES Cc1nc(C[C@H](C(=O)NCCCCCCNC(=O)c2ccc(-c3c4nc(c(-c5c(F)cc(S(=O)(=O)[O-])cc5F)c5ccc([nH]5)c(-c5c(F)cc(S(=O)(=O)[O-])cc5F)c5nc(c(-c6c(F)cc(S(=O)(=O)[O-])cc6F)c6ccc3[nH]6)C=C5)C=C4)cc2)c2ccccc2Br)cs1
REMARK SMILES IDX 13 1 12 2 11 3 10 4 9 5 7 6 8 7 6 9 5 10 4 11 1 12 2 13 3 14
REMARK SMILES IDX 93 15 92 16 85 17 86 18 90 19 87 20 89 21 91 22 88 23 14 24
REMARK SMILES IDX 15 25 16 26 17 27 18 29 19 30 20 31 84 32 21 33 83 34 22 35
REMARK SMILES IDX 23 36 24 37 77 38 25 39 82 40 76 41 78 42 26 43 81 44 75 45
REMARK SMILES IDX 74 46 27 48 61 49 40 50 60 51 41 52 44 53 59 54 79 55 42 56
REMARK SMILES IDX 43 57 58 59 80 60 45 61 28 62 29 63 38 64 30 65 31 66 37 67
REMARK SMILES IDX 39 68 32 69 33 70 34 71 35 72 36 73 62 74 63 75 72 76 64 77
REMARK SMILES IDX 65 78 71 79 73 80 66 81 67 82 68 83 69 84 70 85 46 86 47 87
REMARK SMILES IDX 56 88 48 89 49 90 55 91 57 92 50 93 51 94 52 95 53 96 54 97
REMARK H PARENT 9 8 16 28 78 47 44 58
REMARK Flexibility Score: inf
ROOT
ATOM      1  C   UNL A   1      36.911  20.690  24.987  1.00  0.00     0.002 C 
ENDROOT
BRANCH   1   2
ATOM      2  C   UNL A   1      36.972  22.007  24.202  1.00  0.00     0.002 C 
BRANCH   2   3
ATOM      3  C   UNL A   1      36.963  23.262  25.080  1.00  0.00     0.021 C 
BRANCH   3   4
ATOM      4  C   UNL A   1      35.631  24.013  25.019  1.00  0.00     0.116 C 
BRANCH   4   5
ATOM      5  N   UNL A   1      35.096  23.976  23.676  1.00  0.00    -0.356 N 
ATOM      6  C   UNL A   1      33.941  23.422  23.207  1.00  0.00     0.227 C 
ATOM      7  O   UNL A   1      33.792  23.433  21.981  1.00  0.00    -0.274 OA
ATOM      8  H   UNL A   1      35.651  24.420  22.995  1.00  0.00     0.163 HD
BRANCH   6   9
ATOM      9  C   UNL A   1      32.849  22.911  24.170  1.00  0.00     0.115 C 
BRANCH   9  10
ATOM     10  C   UNL A   1      31.518  23.582  23.763  1.00  0.00     0.075 C 
BRANCH  10  11
ATOM     11  C   UNL A   1      31.263  25.011  24.142  1.00  0.00     0.053 A 
ATOM     12  C   UNL A   1      29.168  27.872  23.236  1.00  0.00     0.079 C 
ATOM     13  C   UNL A   1      30.132  26.903  23.819  1.00  0.00     0.090 A 
ATOM     14  N   UNL A   1      30.294  25.672  23.391  1.00  0.00    -0.247 NA
ATOM     15  S   UNL A   1      31.129  27.359  25.135  1.00  0.00    -0.127 S 
ATOM     16  C   UNL A   1      31.830  25.795  25.127  1.00  0.00     0.090 A 
ENDBRANCH  10  11
ENDBRANCH   9  10
BRANCH   9  17
ATOM     17  C   UNL A   1      32.827  21.387  24.325  1.00  0.00    -0.021 A 
ATOM     18  C   UNL A   1      32.377  20.634  23.210  1.00  0.00     0.006 A 
ATOM     19  C   UNL A   1      33.191  20.668  25.475  1.00  0.00     0.021 A 
ATOM     20  C   UNL A   1      32.257  19.244  23.249  1.00  0.00     0.000 A 
ATOM     21  C   UNL A   1      33.099  19.265  25.498  1.00  0.00     0.016 A 
ATOM     22  Br  UNL A   1      33.794  21.475  27.081  1.00  0.00    -0.051 Br
ATOM     23  C   UNL A   1      32.621  18.558  24.397  1.00  0.00     0.001 A 
ENDBRANCH   9  17
ENDBRANCH   6   9
ENDBRANCH   4   5
ENDBRANCH   3   4
ENDBRANCH   2   3
ENDBRANCH   1   2
BRANCH   1  24
ATOM     24  C   UNL A   1      38.196  19.856  24.947  1.00  0.00     0.021 C 
BRANCH  24  25
ATOM     25  C   UNL A   1      39.304  20.370  25.861  1.00  0.00     0.116 C 
BRANCH  25  26
ATOM     26  N   UNL A   1      40.342  19.367  26.051  1.00  0.00    -0.352 N 
ATOM     27  C   UNL A   1      41.702  19.529  26.144  1.00  0.00     0.251 C 
ATOM     28  H   UNL A   1      40.023  18.438  26.125  1.00  0.00     0.163 HD
ATOM     29  O   UNL A   1      42.444  18.560  26.027  1.00  0.00    -0.269 OA
BRANCH  27  30
ATOM     30  C   UNL A   1      42.263  20.874  26.382  1.00  0.00     0.039 A 
ATOM     31  C   UNL A   1      42.595  21.679  25.290  1.00  0.00     0.014 A 
ATOM     32  C   UNL A   1      42.484  21.330  27.686  1.00  0.00     0.014 A 
ATOM     33  C   UNL A   1      43.102  22.960  25.507  1.00  0.00     0.010 A 
ATOM     34  C   UNL A   1      42.920  22.633  27.900  1.00  0.00     0.010 A 
ATOM     35  C   UNL A   1      43.243  23.458  26.813  1.00  0.00    -0.014 A 
BRANCH  35  36
ATOM     36  C   UNL A   1      43.731  24.838  27.064  1.00  0.00     0.031 A 
ATOM     37  C   UNL A   1      45.186  25.169  26.872  1.00  0.00     0.074 A 
ATOM     38  C   UNL A   1      42.876  25.769  27.528  1.00  0.00     0.049 A 
ATOM     39  N   UNL A   1      45.813  26.295  27.100  1.00  0.00    -0.248 NA
ATOM     40  C   UNL A   1      46.056  24.087  26.386  1.00  0.00     0.031 C 
ATOM     41  C   UNL A   1      41.453  25.552  27.798  1.00  0.00     0.029 A 
ATOM     42  N   UNL A   1      43.079  27.084  27.863  1.00  0.00    -0.354 N 
ATOM     43  C   UNL A   1      47.148  26.052  26.803  1.00  0.00     0.074 A 
ATOM     44  C   UNL A   1      47.251  24.658  26.429  1.00  0.00     0.031 C 
ATOM     45  C   UNL A   1      40.907  26.699  28.232  1.00  0.00     0.029 A 
ATOM     46  C   UNL A   1      41.945  27.721  28.311  1.00  0.00     0.049 A 
ATOM     47  H   UNL A   1      43.954  27.530  27.791  1.00  0.00     0.167 HD
ATOM     48  C   UNL A   1      48.190  26.917  26.819  1.00  0.00     0.037 A 
ATOM     49  C   UNL A   1      41.765  28.985  28.740  1.00  0.00     0.037 A 
ATOM     50  C   UNL A   1      48.073  28.309  27.169  1.00  0.00     0.049 A 
ATOM     51  C   UNL A   1      42.937  29.927  28.751  1.00  0.00     0.074 A 
ATOM     52  C   UNL A   1      49.052  29.286  27.154  1.00  0.00     0.029 A 
ATOM     53  N   UNL A   1      46.905  28.921  27.602  1.00  0.00    -0.354 N 
ATOM     54  N   UNL A   1      44.181  29.700  28.401  1.00  0.00    -0.248 NA
ATOM     55  C   UNL A   1      42.682  31.300  29.209  1.00  0.00     0.031 C 
ATOM     56  C   UNL A   1      48.490  30.476  27.625  1.00  0.00     0.029 A 
ATOM     57  C   UNL A   1      47.146  30.256  27.883  1.00  0.00     0.049 A 
ATOM     58  H   UNL A   1      46.034  28.473  27.697  1.00  0.00     0.167 HD
ATOM     59  C   UNL A   1      44.851  30.907  28.570  1.00  0.00     0.074 A 
ATOM     60  C   UNL A   1      43.871  31.864  29.043  1.00  0.00     0.031 C 
ATOM     61  C   UNL A   1      46.157  31.197  28.349  1.00  0.00     0.037 A 
BRANCH  48  62
ATOM     62  C   UNL A   1      49.548  26.382  26.452  1.00  0.00     0.058 A 
ATOM     63  C   UNL A   1      50.386  25.773  27.401  1.00  0.00     0.135 A 
ATOM     64  C   UNL A   1      50.010  26.456  25.127  1.00  0.00     0.135 A 
ATOM     65  F   UNL A   1      50.003  25.688  28.685  1.00  0.00    -0.206 F 
ATOM     66  C   UNL A   1      51.644  25.289  27.059  1.00  0.00     0.059 A 
ATOM     67  C   UNL A   1      51.253  25.950  24.756  1.00  0.00     0.059 A 
ATOM     68  F   UNL A   1      49.252  27.027  24.178  1.00  0.00    -0.206 F 
ATOM     69  C   UNL A   1      52.070  25.384  25.733  1.00  0.00     0.060 A 
BRANCH  69  70
ATOM     70  S   UNL A   1      53.707  24.755  25.307  1.00  0.00     0.124 S 
ATOM     71  O   UNL A   1      54.049  25.589  24.158  1.00  0.00    -0.237 OA
ATOM     72  O   UNL A   1      54.468  25.013  26.525  1.00  0.00    -0.237 OA
ATOM     73  O   UNL A   1      53.464  23.347  25.009  1.00  0.00    -0.744 OA
ENDBRANCH  69  70
ENDBRANCH  48  62
BRANCH  49  74
ATOM     74  C   UNL A   1      40.414  29.436  29.169  1.00  0.00     0.058 A 
ATOM     75  C   UNL A   1      40.123  29.648  30.524  1.00  0.00     0.135 A 
ATOM     76  C   UNL A   1      39.397  29.689  28.235  1.00  0.00     0.135 A 
ATOM     77  F   UNL A   1      41.060  29.414  31.456  1.00  0.00    -0.206 F 
ATOM     78  C   UNL A   1      38.869  30.081  30.942  1.00  0.00     0.059 A 
ATOM     79  C   UNL A   1      38.143  30.148  28.626  1.00  0.00     0.059 A 
ATOM     80  F   UNL A   1      39.630  29.520  26.924  1.00  0.00    -0.206 F 
ATOM     81  C   UNL A   1      37.887  30.333  29.984  1.00  0.00     0.060 A 
BRANCH  81  82
ATOM     82  S   UNL A   1      36.280  30.951  30.532  1.00  0.00     0.124 S 
ATOM     83  O   UNL A   1      35.918  29.968  31.547  1.00  0.00    -0.237 OA
ATOM     84  O   UNL A   1      36.617  32.284  31.024  1.00  0.00    -0.237 OA
ATOM     85  O   UNL A   1      35.478  30.925  29.313  1.00  0.00    -0.744 OA
ENDBRANCH  81  82
ENDBRANCH  49  74
BRANCH  61  86
ATOM     86  C   UNL A   1      46.600  32.615  28.585  1.00  0.00     0.058 A 
ATOM     87  C   UNL A   1      47.011  33.061  29.851  1.00  0.00     0.135 A 
ATOM     88  C   UNL A   1      46.665  33.524  27.516  1.00  0.00     0.135 A 
ATOM     89  F   UNL A   1      46.961  32.234  30.908  1.00  0.00    -0.206 F 
ATOM     90  C   UNL A   1      47.447  34.365  30.054  1.00  0.00     0.059 A 
ATOM     91  C   UNL A   1      47.127  34.826  27.691  1.00  0.00     0.059 A 
ATOM     92  F   UNL A   1      46.294  33.147  26.283  1.00  0.00    -0.206 F 
ATOM     93  C   UNL A   1      47.504  35.240  28.967  1.00  0.00     0.060 A 
BRANCH  93  94
ATOM     94  S   UNL A   1      48.107  36.919  29.238  1.00  0.00     0.124 S 
ATOM     95  O   UNL A   1      46.965  37.715  28.800  1.00  0.00    -0.237 OA
ATOM     96  O   UNL A   1      48.373  36.928  30.674  1.00  0.00    -0.237 OA
ATOM     97  O   UNL A   1      49.291  36.998  28.387  1.00  0.00    -0.744 OA
ENDBRANCH  93  94
ENDBRANCH  61  86
ENDBRANCH  35  36
ENDBRANCH  27  30
ENDBRANCH  25  26
ENDBRANCH  24  25
ENDBRANCH   1  24
TORSDOF 19
ENDMDL
MODEL 2
REMARK VINA RESULT:     -11.0      2.599      9.009
REMARK SMILES Cc1nc(C[C@H](C(=O)NCCCCCCNC(=O)c2ccc(-c3c4nc(c(-c5c(F)cc(S(=O)(=O)[O-])cc5F)c5ccc([nH]5)c(-c5c(F)cc(S(=O)(=O)[O-])cc5F)c5nc(c(-c6c(F)cc(S(=O)(=O)[O-])cc6F)c6ccc3[nH]6)C=C5)C=C4)cc2)c2ccccc2Br)cs1
REMARK SMILES IDX 13 1 12 2 11 3 10 4 9 5 7 6 8 7 6 9 5 10 4 11 1 12 2 13 3 14
REMARK SMILES IDX 93 15 92 16 85 17 86 18 90 19 87 20 89 21 91 22 88 23 14 24
REMARK SMILES IDX 15 25 16 26 17 27 18 29 19 30 20 31 84 32 21 33 83 34 22 35
REMARK SMILES IDX 23 36 24 37 77 38 25 39 82 40 76 41 78 42 26 43 81 44 75 45
REMARK SMILES IDX 74 46 27 48 61 49 40 50 60 51 41 52 44 53 59 54 79 55 42 56
REMARK SMILES IDX 43 57 58 59 80 60 45 61 28 62 29 63 38 64 30 65 31 66 37 67
REMARK SMILES IDX 39 68 32 69 33 70 34 71 35 72 36 73 62 74 63 75 72 76 64 77
REMARK SMILES IDX 65 78 71 79 73 80 66 81 67 82 68 83 69 84 70 85 46 86 47 87
REMARK SMILES IDX 56 88 48 89 49 90 55 91 57 92 50 93 51 94 52 95 53 96 54 97
REMARK H PARENT 9 8 16 28 78 47 44 58
REMARK Flexibility Score: inf
ROOT
ATOM      1  C   UNL A   1      35.021  29.354  27.306  1.00  0.00     0.002 C 
ENDROOT
BRANCH   1   2
ATOM      2  C   UNL A   1      34.191  28.730  26.177  1.00  0.00     0.002 C 
BRANCH   2   3
ATOM      3  C   UNL A   1      33.270  27.592  26.629  1.00  0.00     0.021 C 
BRANCH   3   4
ATOM      4  C   UNL A   1      31.805  28.025  26.726  1.00  0.00     0.116 C 
BRANCH   4   5
ATOM      5  N   UNL A   1      30.949  26.868  26.873  1.00  0.00    -0.356 N 
ATOM      6  C   UNL A   1      30.349  26.095  25.923  1.00  0.00     0.227 C 
ATOM      7  O   UNL A   1      29.566  25.236  26.338  1.00  0.00    -0.274 OA
ATOM      8  H   UNL A   1      30.774  26.597  27.802  1.00  0.00     0.163 HD
BRANCH   6   9
ATOM      9  C   UNL A   1      30.717  26.230  24.430  1.00  0.00     0.115 C 
BRANCH   9  10
ATOM     10  C   UNL A   1      30.596  24.828  23.792  1.00  0.00     0.075 C 
BRANCH  10  11
ATOM     11  C   UNL A   1      31.664  23.806  24.044  1.00  0.00     0.053 A 
ATOM     12  C   UNL A   1      35.223  23.194  23.446  1.00  0.00     0.079 C 
ATOM     13  C   UNL A   1      33.789  23.169  23.833  1.00  0.00     0.090 A 
ATOM     14  N   UNL A   1      32.925  24.113  23.538  1.00  0.00    -0.247 NA
ATOM     15  S   UNL A   1      33.156  21.848  24.722  1.00  0.00    -0.127 S 
ATOM     16  C   UNL A   1      31.613  22.595  24.705  1.00  0.00     0.090 A 
ENDBRANCH  10  11
ENDBRANCH   9  10
BRANCH   9  17
ATOM     17  C   UNL A   1      29.987  27.372  23.715  1.00  0.00    -0.021 A 
ATOM     18  C   UNL A   1      28.568  27.341  23.737  1.00  0.00     0.006 A 
ATOM     19  C   UNL A   1      30.591  28.436  23.024  1.00  0.00     0.021 A 
ATOM     20  C   UNL A   1      27.792  28.292  23.072  1.00  0.00     0.000 A 
ATOM     21  C   UNL A   1      29.804  29.409  22.384  1.00  0.00     0.016 A 
ATOM     22  Br  UNL A   1      32.466  28.655  22.852  1.00  0.00    -0.051 Br
ATOM     23  C   UNL A   1      28.413  29.330  22.397  1.00  0.00     0.001 A 
ENDBRANCH   9  17
ENDBRANCH   6   9
ENDBRANCH   4   5
ENDBRANCH   3   4
ENDBRANCH   2   3
ENDBRANCH   1   2
BRANCH   1  24
ATOM     24  C   UNL A   1      34.588  30.763  27.723  1.00  0.00     0.021 C 
BRANCH  24  25
ATOM     25  C   UNL A   1      35.660  31.555  28.463  1.00  0.00     0.116 C 
BRANCH  25  26
ATOM     26  N   UNL A   1      35.551  31.378  29.904  1.00  0.00    -0.352 N 
ATOM     27  C   UNL A   1      36.345  30.650  30.754  1.00  0.00     0.251 C 
ATOM     28  H   UNL A   1      34.799  31.850  30.331  1.00  0.00     0.163 HD
ATOM     29  O   UNL A   1      35.952  30.387  31.885  1.00  0.00    -0.269 OA
BRANCH  27  30
ATOM     30  C   UNL A   1      37.670  30.185  30.297  1.00  0.00     0.039 A 
ATOM     31  C   UNL A   1      37.985  30.248  28.938  1.00  0.00     0.014 A 
ATOM     32  C   UNL A   1      38.593  29.664  31.210  1.00  0.00     0.014 A 
ATOM     33  C   UNL A   1      39.244  29.834  28.502  1.00  0.00     0.010 A 
ATOM     34  C   UNL A   1      39.871  29.322  30.785  1.00  0.00     0.010 A 
ATOM     35  C   UNL A   1      40.207  29.394  29.425  1.00  0.00    -0.014 A 
BRANCH  35  36
ATOM     36  C   UNL A   1      41.570  28.999  28.988  1.00  0.00     0.031 A 
ATOM     37  C   UNL A   1      42.670  30.024  28.930  1.00  0.00     0.074 A 
ATOM     38  C   UNL A   1      41.795  27.735  28.580  1.00  0.00     0.049 A 
ATOM     39  N   UNL A   1      43.903  29.888  28.516  1.00  0.00    -0.248 NA
ATOM     40  C   UNL A   1      42.332  31.387  29.370  1.00  0.00     0.031 C 
ATOM     41  C   UNL A   1      40.794  26.667  28.546  1.00  0.00     0.029 A 
ATOM     42  N   UNL A   1      42.935  27.136  28.108  1.00  0.00    -0.354 N 
ATOM     43  C   UNL A   1      44.482  31.146  28.629  1.00  0.00     0.074 A 
ATOM     44  C   UNL A   1      43.451  32.045  29.100  1.00  0.00     0.031 C 
ATOM     45  C   UNL A   1      41.371  25.538  28.103  1.00  0.00     0.029 A 
ATOM     46  C   UNL A   1      42.768  25.809  27.784  1.00  0.00     0.049 A 
ATOM     47  H   UNL A   1      43.792  27.610  28.010  1.00  0.00     0.167 HD
ATOM     48  C   UNL A   1      45.762  31.515  28.384  1.00  0.00     0.037 A 
ATOM     49  C   UNL A   1      43.641  24.916  27.280  1.00  0.00     0.037 A 
ATOM     50  C   UNL A   1      46.787  30.607  27.938  1.00  0.00     0.049 A 
ATOM     51  C   UNL A   1      45.057  25.349  27.014  1.00  0.00     0.074 A 
ATOM     52  C   UNL A   1      48.131  30.863  27.724  1.00  0.00     0.029 A 
ATOM     53  N   UNL A   1      46.584  29.268  27.636  1.00  0.00    -0.354 N 
ATOM     54  N   UNL A   1      45.607  26.527  27.191  1.00  0.00    -0.248 NA
ATOM     55  C   UNL A   1      45.975  24.331  26.485  1.00  0.00     0.031 C 
ATOM     56  C   UNL A   1      48.727  29.694  27.244  1.00  0.00     0.029 A 
ATOM     57  C   UNL A   1      47.770  28.692  27.210  1.00  0.00     0.049 A 
ATOM     58  H   UNL A   1      45.723  28.797  27.710  1.00  0.00     0.167 HD
ATOM     59  C   UNL A   1      46.940  26.385  26.822  1.00  0.00     0.074 A 
ATOM     60  C   UNL A   1      47.116  25.004  26.423  1.00  0.00     0.031 C 
ATOM     61  C   UNL A   1      47.929  27.313  26.819  1.00  0.00     0.037 A 
BRANCH  48  62
ATOM     62  C   UNL A   1      46.124  32.961  28.587  1.00  0.00     0.058 A 
ATOM     63  C   UNL A   1      46.011  33.906  27.553  1.00  0.00     0.135 A 
ATOM     64  C   UNL A   1      46.567  33.418  29.840  1.00  0.00     0.135 A 
ATOM     65  F   UNL A   1      45.606  33.525  26.331  1.00  0.00    -0.206 F 
ATOM     66  C   UNL A   1      46.355  35.240  27.743  1.00  0.00     0.059 A 
ATOM     67  C   UNL A   1      46.888  34.754  30.061  1.00  0.00     0.059 A 
ATOM     68  F   UNL A   1      46.694  32.560  30.864  1.00  0.00    -0.206 F 
ATOM     69  C   UNL A   1      46.795  35.654  29.001  1.00  0.00     0.060 A 
BRANCH  69  70
ATOM     70  S   UNL A   1      47.243  37.387  29.229  1.00  0.00     0.124 S 
ATOM     71  O   UNL A   1      48.659  37.371  28.873  1.00  0.00    -0.237 OA
ATOM     72  O   UNL A   1      46.360  38.065  28.286  1.00  0.00    -0.237 OA
ATOM     73  O   UNL A   1      46.954  37.631  30.639  1.00  0.00    -0.744 OA
ENDBRANCH  69  70
ENDBRANCH  48  62
BRANCH  49  74
ATOM     74  C   UNL A   1      43.205  23.518  27.023  1.00  0.00     0.058 A 
ATOM     75  C   UNL A   1      42.878  23.094  25.727  1.00  0.00     0.135 A 
ATOM     76  C   UNL A   1      43.131  22.572  28.057  1.00  0.00     0.135 A 
ATOM     77  F   UNL A   1      42.927  23.962  24.704  1.00  0.00    -0.206 F 
ATOM     78  C   UNL A   1      42.480  21.788  25.465  1.00  0.00     0.059 A 
ATOM     79  C   UNL A   1      42.761  21.253  27.817  1.00  0.00     0.059 A 
ATOM     80  F   UNL A   1      43.452  22.922  29.313  1.00  0.00    -0.206 F 
ATOM     81  C   UNL A   1      42.429  20.873  26.518  1.00  0.00     0.060 A 
BRANCH  81  82
ATOM     82  S   UNL A   1      41.967  19.163  26.159  1.00  0.00     0.124 S 
ATOM     83  O   UNL A   1      42.248  18.510  27.432  1.00  0.00    -0.237 OA
ATOM     84  O   UNL A   1      40.556  19.296  25.806  1.00  0.00    -0.237 OA
ATOM     85  O   UNL A   1      42.850  18.803  25.054  1.00  0.00    -0.744 OA
ENDBRANCH  81  82
ENDBRANCH  49  74
BRANCH  61  86
ATOM     86  C   UNL A   1      49.301  26.861  26.401  1.00  0.00     0.058 A 
ATOM     87  C   UNL A   1      50.185  26.249  27.303  1.00  0.00     0.135 A 
ATOM     88  C   UNL A   1      49.714  26.994  25.065  1.00  0.00     0.135 A 
ATOM     89  F   UNL A   1      49.842  26.104  28.594  1.00  0.00    -0.206 F 
ATOM     90  C   UNL A   1      51.441  25.806  26.901  1.00  0.00     0.059 A 
ATOM     91  C   UNL A   1      50.954  26.531  24.635  1.00  0.00     0.059 A 
ATOM     92  F   UNL A   1      48.904  27.562  24.159  1.00  0.00    -0.206 F 
ATOM     93  C   UNL A   1      51.815  25.949  25.564  1.00  0.00     0.060 A 
BRANCH  93  94
ATOM     94  S   UNL A   1      53.433  25.338  25.048  1.00  0.00     0.124 S 
ATOM     95  O   UNL A   1      53.432  25.669  23.627  1.00  0.00    -0.237 OA
ATOM     96  O   UNL A   1      54.343  26.120  25.881  1.00  0.00    -0.237 OA
ATOM     97  O   UNL A   1      53.375  23.913  25.361  1.00  0.00    -0.744 OA
ENDBRANCH  93  94
ENDBRANCH  61  86
ENDBRANCH  35  36
ENDBRANCH  27  30
ENDBRANCH  25  26
ENDBRANCH  24  25
ENDBRANCH   1  24
TORSDOF 19
ENDMDL
MODEL 3
REMARK VINA RESULT:     -11.0      3.627      9.295
REMARK SMILES Cc1nc(C[C@H](C(=O)NCCCCCCNC(=O)c2ccc(-c3c4nc(c(-c5c(F)cc(S(=O)(=O)[O-])cc5F)c5ccc([nH]5)c(-c5c(F)cc(S(=O)(=O)[O-])cc5F)c5nc(c(-c6c(F)cc(S(=O)(=O)[O-])cc6F)c6ccc3[nH]6)C=C5)C=C4)cc2)c2ccccc2Br)cs1
REMARK SMILES IDX 13 1 12 2 11 3 10 4 9 5 7 6 8 7 6 9 5 10 4 11 1 12 2 13 3 14
REMARK SMILES IDX 93 15 92 16 85 17 86 18 90 19 87 20 89 21 91 22 88 23 14 24
REMARK SMILES IDX 15 25 16 26 17 27 18 29 19 30 20 31 84 32 21 33 83 34 22 35
REMARK SMILES IDX 23 36 24 37 77 38 25 39 82 40 76 41 78 42 26 43 81 44 75 45
REMARK SMILES IDX 74 46 27 48 61 49 40 50 60 51 41 52 44 53 59 54 79 55 42 56
REMARK SMILES IDX 43 57 58 59 80 60 45 61 28 62 29 63 38 64 30 65 31 66 37 67
REMARK SMILES IDX 39 68 32 69 33 70 34 71 35 72 36 73 62 74 63 75 72 76 64 77
REMARK SMILES IDX 65 78 71 79 73 80 66 81 67 82 68 83 69 84 70 85 46 86 47 87
REMARK SMILES IDX 56 88 48 89 49 90 55 91 57 92 50 93 51 94 52 95 53 96 54 97
REMARK H PARENT 9 8 16 28 78 47 44 58
REMARK Flexibility Score: inf
ROOT
ATOM      1  C   UNL A   1      31.928  26.665  26.549  1.00  0.00     0.002 C 
ENDROOT
BRANCH   1   2
ATOM      2  C   UNL A   1      31.829  25.313  25.830  1.00  0.00     0.002 C 
BRANCH   2   3
ATOM      3  C   UNL A   1      30.646  24.449  26.279  1.00  0.00     0.021 C 
BRANCH   3   4
ATOM      4  C   UNL A   1      30.985  22.957  26.306  1.00  0.00     0.116 C 
BRANCH   4   5
ATOM      5  N   UNL A   1      32.117  22.715  27.173  1.00  0.00    -0.356 N 
ATOM      6  C   UNL A   1      33.201  21.908  26.994  1.00  0.00     0.227 C 
ATOM      7  O   UNL A   1      33.963  21.799  27.959  1.00  0.00    -0.274 OA
ATOM      8  H   UNL A   1      32.104  23.212  28.022  1.00  0.00     0.163 HD
BRANCH   6   9
ATOM      9  C   UNL A   1      33.500  21.258  25.626  1.00  0.00     0.115 C 
BRANCH   9  10
ATOM     10  C   UNL A   1      32.530  20.067  25.455  1.00  0.00     0.075 C 
BRANCH  10  11
ATOM     11  C   UNL A   1      33.074  18.714  25.104  1.00  0.00     0.053 A 
ATOM     12  C   UNL A   1      32.430  15.153  25.647  1.00  0.00     0.079 C 
ATOM     13  C   UNL A   1      32.928  16.496  25.255  1.00  0.00     0.090 A 
ATOM     14  N   UNL A   1      32.387  17.629  25.642  1.00  0.00    -0.247 NA
ATOM     15  S   UNL A   1      34.297  16.648  24.235  1.00  0.00    -0.127 S 
ATOM     16  C   UNL A   1      34.154  18.354  24.323  1.00  0.00     0.090 A 
ENDBRANCH  10  11
ENDBRANCH   9  10
BRANCH   9  17
ATOM     17  C   UNL A   1      33.565  22.260  24.468  1.00  0.00    -0.021 A 
ATOM     18  C   UNL A   1      32.639  22.077  23.408  1.00  0.00     0.006 A 
ATOM     19  C   UNL A   1      34.468  23.329  24.349  1.00  0.00     0.021 A 
ATOM     20  C   UNL A   1      32.639  22.888  22.272  1.00  0.00     0.000 A 
ATOM     21  C   UNL A   1      34.441  24.162  23.217  1.00  0.00     0.016 A 
ATOM     22  Br  UNL A   1      35.799  23.736  25.635  1.00  0.00    -0.051 Br
ATOM     23  C   UNL A   1      33.541  23.935  22.178  1.00  0.00     0.001 A 
ENDBRANCH   9  17
ENDBRANCH   6   9
ENDBRANCH   4   5
ENDBRANCH   3   4
ENDBRANCH   2   3
ENDBRANCH   1   2
BRANCH   1  24
ATOM     24  C   UNL A   1      32.730  27.735  25.800  1.00  0.00     0.021 C 
BRANCH  24  25
ATOM     25  C   UNL A   1      33.951  28.247  26.557  1.00  0.00     0.116 C 
BRANCH  25  26
ATOM     26  N   UNL A   1      33.743  29.602  27.045  1.00  0.00    -0.352 N 
ATOM     27  C   UNL A   1      34.528  30.355  27.883  1.00  0.00     0.251 C 
ATOM     28  H   UNL A   1      32.921  30.043  26.729  1.00  0.00     0.163 HD
ATOM     29  O   UNL A   1      34.070  31.364  28.408  1.00  0.00    -0.269 OA
BRANCH  27  30
ATOM     30  C   UNL A   1      35.920  29.942  28.148  1.00  0.00     0.039 A 
ATOM     31  C   UNL A   1      36.872  30.059  27.132  1.00  0.00     0.014 A 
ATOM     32  C   UNL A   1      36.280  29.416  29.393  1.00  0.00     0.014 A 
ATOM     33  C   UNL A   1      38.195  29.695  27.382  1.00  0.00     0.010 A 
ATOM     34  C   UNL A   1      37.612  29.124  29.663  1.00  0.00     0.010 A 
ATOM     35  C   UNL A   1      38.582  29.251  28.657  1.00  0.00    -0.014 A 
BRANCH  35  36
ATOM     36  C   UNL A   1      39.995  28.908  28.959  1.00  0.00     0.031 A 
ATOM     37  C   UNL A   1      40.908  29.940  29.562  1.00  0.00     0.074 A 
ATOM     38  C   UNL A   1      40.468  27.692  28.626  1.00  0.00     0.049 A 
ATOM     39  N   UNL A   1      42.184  29.852  29.837  1.00  0.00    -0.248 NA
ATOM     40  C   UNL A   1      40.318  31.251  29.873  1.00  0.00     0.031 C 
ATOM     41  C   UNL A   1      39.688  26.626  27.992  1.00  0.00     0.029 A 
ATOM     42  N   UNL A   1      41.719  27.148  28.765  1.00  0.00    -0.354 N 
ATOM     43  C   UNL A   1      42.552  31.097  30.335  1.00  0.00     0.074 A 
ATOM     44  C   UNL A   1      41.377  31.939  30.275  1.00  0.00     0.031 C 
ATOM     45  C   UNL A   1      40.473  25.549  27.822  1.00  0.00     0.029 A 
ATOM     46  C   UNL A   1      41.817  25.859  28.295  1.00  0.00     0.049 A 
ATOM     47  H   UNL A   1      42.477  27.634  29.164  1.00  0.00     0.167 HD
ATOM     48  C   UNL A   1      43.753  31.495  30.819  1.00  0.00     0.037 A 
ATOM     49  C   UNL A   1      42.873  25.024  28.247  1.00  0.00     0.037 A 
ATOM     50  C   UNL A   1      44.909  30.641  30.897  1.00  0.00     0.049 A 
ATOM     51  C   UNL A   1      44.197  25.489  28.788  1.00  0.00     0.074 A 
ATOM     52  C   UNL A   1      46.154  30.924  31.431  1.00  0.00     0.029 A 
ATOM     53  N   UNL A   1      44.966  29.337  30.425  1.00  0.00    -0.354 N 
ATOM     54  N   UNL A   1      44.511  26.647  29.319  1.00  0.00    -0.248 NA
ATOM     55  C   UNL A   1      45.311  24.533  28.730  1.00  0.00     0.031 C 
ATOM     56  C   UNL A   1      46.977  29.811  31.236  1.00  0.00     0.029 A 
ATOM     57  C   UNL A   1      46.231  28.812  30.630  1.00  0.00     0.049 A 
ATOM     58  H   UNL A   1      44.216  28.856  30.005  1.00  0.00     0.167 HD
ATOM     59  C   UNL A   1      45.849  26.550  29.683  1.00  0.00     0.074 A 
ATOM     60  C   UNL A   1      46.282  25.215  29.323  1.00  0.00     0.031 C 
ATOM     61  C   UNL A   1      46.645  27.479  30.268  1.00  0.00     0.037 A 
BRANCH  48  62
ATOM     62  C   UNL A   1      43.877  32.916  31.297  1.00  0.00     0.058 A 
ATOM     63  C   UNL A   1      44.275  33.955  30.437  1.00  0.00     0.135 A 
ATOM     64  C   UNL A   1      43.571  33.253  32.626  1.00  0.00     0.135 A 
ATOM     65  F   UNL A   1      44.594  33.690  29.160  1.00  0.00    -0.206 F 
ATOM     66  C   UNL A   1      44.397  35.265  30.886  1.00  0.00     0.059 A 
ATOM     67  C   UNL A   1      43.656  34.562  33.088  1.00  0.00     0.059 A 
ATOM     68  F   UNL A   1      43.185  32.302  33.491  1.00  0.00    -0.206 F 
ATOM     69  C   UNL A   1      44.088  35.559  32.215  1.00  0.00     0.060 A 
BRANCH  69  70
ATOM     70  S   UNL A   1      44.257  37.264  32.782  1.00  0.00     0.124 S 
ATOM     71  O   UNL A   1      43.198  37.344  33.783  1.00  0.00    -0.237 OA
ATOM     72  O   UNL A   1      45.621  37.287  33.300  1.00  0.00    -0.237 OA
ATOM     73  O   UNL A   1      44.037  38.049  31.572  1.00  0.00    -0.744 OA
ENDBRANCH  69  70
ENDBRANCH  48  62
BRANCH  49  74
ATOM     74  C   UNL A   1      42.710  23.656  27.688  1.00  0.00     0.058 A 
ATOM     75  C   UNL A   1      42.813  23.425  26.309  1.00  0.00     0.135 A 
ATOM     76  C   UNL A   1      42.475  22.549  28.519  1.00  0.00     0.135 A 
ATOM     77  F   UNL A   1      43.032  24.451  25.471  1.00  0.00    -0.206 F 
ATOM     78  C   UNL A   1      42.676  22.150  25.770  1.00  0.00     0.059 A 
ATOM     79  C   UNL A   1      42.360  21.261  28.007  1.00  0.00     0.059 A 
ATOM     80  F   UNL A   1      42.387  22.713  29.849  1.00  0.00    -0.206 F 
ATOM     81  C   UNL A   1      42.454  21.073  26.629  1.00  0.00     0.060 A 
BRANCH  81  82
ATOM     82  S   UNL A   1      42.335  19.414  25.925  1.00  0.00     0.124 S 
ATOM     83  O   UNL A   1      43.175  19.537  24.740  1.00  0.00    -0.237 OA
ATOM     84  O   UNL A   1      42.868  18.586  27.003  1.00  0.00    -0.237 OA
ATOM     85  O   UNL A   1      40.905  19.258  25.674  1.00  0.00    -0.744 OA
ENDBRANCH  81  82
ENDBRANCH  49  74
BRANCH  61  86
ATOM     86  C   UNL A   1      48.060  27.077  30.586  1.00  0.00     0.058 A 
ATOM     87  C   UNL A   1      49.122  27.363  29.714  1.00  0.00     0.135 A 
ATOM     88  C   UNL A   1      48.361  26.446  31.803  1.00  0.00     0.135 A 
ATOM     89  F   UNL A   1      48.888  27.958  28.533  1.00  0.00    -0.206 F 
ATOM     90  C   UNL A   1      50.431  27.015  30.029  1.00  0.00     0.059 A 
ATOM     91  C   UNL A   1      49.667  26.116  32.152  1.00  0.00     0.059 A 
ATOM     92  F   UNL A   1      47.383  26.160  32.677  1.00  0.00    -0.206 F 
ATOM     93  C   UNL A   1      50.694  26.394  31.251  1.00  0.00     0.060 A 
BRANCH  93  94
ATOM     94  S   UNL A   1      52.402  25.980  31.663  1.00  0.00     0.124 S 
ATOM     95  O   UNL A   1      52.258  24.627  32.189  1.00  0.00    -0.237 OA
ATOM     96  O   UNL A   1      53.070  26.089  30.369  1.00  0.00    -0.237 OA
ATOM     97  O   UNL A   1      52.773  26.998  32.641  1.00  0.00    -0.744 OA
ENDBRANCH  93  94
ENDBRANCH  61  86
ENDBRANCH  35  36
ENDBRANCH  27  30
ENDBRANCH  25  26
ENDBRANCH  24  25
ENDBRANCH   1  24
TORSDOF 19
ENDMDL
