MODEL 1
REMARK VINA RESULT:     -11.1      0.000      0.000
REMARK SMILES CC(C)[C@@H](NC(=O)N[C@H]1CCS(=O)(=O)C1)C(=O)NCCCCCCNC(=O)c1ccc(-c2c3nc(c(-c4c(F)cc(S(=O)(=O)[O-])cc4F)c4ccc([nH]4)c(-c4c(F)cc(S(=O)(=O)[O-])cc4F)c4nc(c(-c5c(F)cc(S(=O)(=O)[O-])cc5F)c5ccc2[nH]5)C=C4)C=C3)cc1
REMARK SMILES IDX 22 1 21 2 20 3 19 4 18 5 16 6 17 7 4 9 2 10 1 11 3 12 5 13
REMARK SMILES IDX 6 14 7 16 8 17 9 19 10 20 15 21 11 22 12 23 13 24 14 25
REMARK SMILES IDX 23 26 24 27 25 28 26 29 27 31 28 32 29 33 93 34 30 35 92 36
REMARK SMILES IDX 31 37 32 38 33 39 86 40 34 41 91 42 85 43 87 44 35 45 90 46
REMARK SMILES IDX 84 47 83 48 36 50 70 51 49 52 69 53 50 54 53 55 68 56 88 57
REMARK SMILES IDX 51 58 52 59 67 61 89 62 54 63 37 64 38 65 47 66 39 67 40 68
REMARK SMILES IDX 46 69 48 70 41 71 42 72 43 73 44 74 45 75 71 76 72 77 81 78
REMARK SMILES IDX 73 79 74 80 80 81 82 82 75 83 76 84 77 85 78 86 79 87 55 88
REMARK SMILES IDX 56 89 65 90 57 91 58 92 64 93 66 94 59 95 60 96 61 97 62 98
REMARK SMILES IDX 63 99
REMARK H PARENT 18 8 5 15 8 18 25 30 87 49 53 60
REMARK Flexibility Score: inf
ROOT
ATOM      1  C   UNL A   1      37.365  20.470  24.942  1.00  0.00     0.002 C 
ENDROOT
BRANCH   1   2
ATOM      2  C   UNL A   1      37.462  21.805  25.687  1.00  0.00     0.002 C 
BRANCH   2   3
ATOM      3  C   UNL A   1      36.937  23.017  24.910  1.00  0.00     0.021 C 
BRANCH   3   4
ATOM      4  C   UNL A   1      35.576  23.496  25.392  1.00  0.00     0.116 C 
BRANCH   4   5
ATOM      5  N   UNL A   1      35.176  22.762  26.574  1.00  0.00    -0.354 N 
ATOM      6  C   UNL A   1      33.969  22.233  26.893  1.00  0.00     0.242 C 
ATOM      7  O   UNL A   1      33.861  21.679  27.991  1.00  0.00    -0.273 OA
ATOM      8  H   UNL A   1      35.885  22.625  27.244  1.00  0.00     0.163 HD
BRANCH   6   9
ATOM      9  C   UNL A   1      32.734  22.416  25.994  1.00  0.00     0.175 C 
BRANCH   9  10
ATOM     10  C   UNL A   1      32.722  21.276  24.929  1.00  0.00     0.015 C 
ATOM     11  C   UNL A   1      33.052  21.792  23.527  1.00  0.00     0.010 C 
ATOM     12  C   UNL A   1      33.695  20.136  25.275  1.00  0.00     0.010 C 
ENDBRANCH   9  10
BRANCH   9  13
ATOM     13  N   UNL A   1      31.492  22.443  26.777  1.00  0.00    -0.326 N 
ATOM     14  C   UNL A   1      30.441  23.266  26.852  1.00  0.00     0.315 C 
ATOM     15  H   UNL A   1      31.415  21.677  27.390  1.00  0.00     0.166 HD
ATOM     16  O   UNL A   1      29.531  22.955  27.624  1.00  0.00    -0.249 OA
ATOM     17  N   UNL A   1      30.323  24.431  26.207  1.00  0.00    -0.334 N 
ATOM     18  H   UNL A   1      29.587  24.983  26.557  1.00  0.00     0.165 HD
BRANCH  17  19
ATOM     19  C   UNL A   1      31.028  25.073  25.110  1.00  0.00     0.099 C 
ATOM     20  C   UNL A   1      30.603  24.490  23.757  1.00  0.00     0.042 C 
ATOM     21  C   UNL A   1      30.750  26.574  24.993  1.00  0.00     0.161 C 
ATOM     22  C   UNL A   1      31.377  25.309  22.733  1.00  0.00     0.139 C 
ATOM     23  S   UNL A   1      31.281  26.989  23.335  1.00  0.00     0.152 S 
ATOM     24  O   UNL A   1      32.615  27.547  23.368  1.00  0.00    -0.229 OA
ATOM     25  O   UNL A   1      30.190  27.655  22.653  1.00  0.00    -0.229 OA
ENDBRANCH  17  19
ENDBRANCH   9  13
ENDBRANCH   6   9
ENDBRANCH   4   5
ENDBRANCH   3   4
ENDBRANCH   2   3
ENDBRANCH   1   2
BRANCH   1  26
ATOM     26  C   UNL A   1      38.619  19.595  25.005  1.00  0.00     0.021 C 
BRANCH  26  27
ATOM     27  C   UNL A   1      39.657  20.034  26.030  1.00  0.00     0.116 C 
BRANCH  27  28
ATOM     28  N   UNL A   1      40.819  19.164  26.074  1.00  0.00    -0.352 N 
ATOM     29  C   UNL A   1      42.132  19.527  26.243  1.00  0.00     0.251 C 
ATOM     30  H   UNL A   1      40.644  18.200  25.971  1.00  0.00     0.163 HD
ATOM     31  O   UNL A   1      43.028  18.695  26.168  1.00  0.00    -0.269 OA
BRANCH  29  32
ATOM     32  C   UNL A   1      42.443  20.952  26.476  1.00  0.00     0.039 A 
ATOM     33  C   UNL A   1      42.610  21.396  27.789  1.00  0.00     0.014 A 
ATOM     34  C   UNL A   1      42.630  21.822  25.398  1.00  0.00     0.014 A 
ATOM     35  C   UNL A   1      43.016  22.710  28.020  1.00  0.00     0.010 A 
ATOM     36  C   UNL A   1      43.096  23.112  25.629  1.00  0.00     0.010 A 
ATOM     37  C   UNL A   1      43.289  23.569  26.943  1.00  0.00    -0.014 A 
BRANCH  37  38
ATOM     38  C   UNL A   1      43.770  24.953  27.173  1.00  0.00     0.031 A 
ATOM     39  C   UNL A   1      45.220  25.287  26.965  1.00  0.00     0.074 A 
ATOM     40  C   UNL A   1      42.912  25.891  27.620  1.00  0.00     0.049 A 
ATOM     41  N   UNL A   1      45.843  26.421  27.160  1.00  0.00    -0.248 NA
ATOM     42  C   UNL A   1      46.093  24.195  26.504  1.00  0.00     0.031 C 
ATOM     43  C   UNL A   1      41.493  25.670  27.910  1.00  0.00     0.029 A 
ATOM     44  N   UNL A   1      43.108  27.215  27.918  1.00  0.00    -0.354 N 
ATOM     45  C   UNL A   1      47.177  26.177  26.860  1.00  0.00     0.074 A 
ATOM     46  C   UNL A   1      47.285  24.774  26.520  1.00  0.00     0.031 C 
ATOM     47  C   UNL A   1      40.943  26.824  28.324  1.00  0.00     0.029 A 
ATOM     48  C   UNL A   1      41.974  27.857  28.359  1.00  0.00     0.049 A 
ATOM     49  H   UNL A   1      43.979  27.664  27.826  1.00  0.00     0.167 HD
ATOM     50  C   UNL A   1      48.213  27.047  26.845  1.00  0.00     0.037 A 
ATOM     51  C   UNL A   1      41.789  29.133  28.747  1.00  0.00     0.037 A 
ATOM     52  C   UNL A   1      48.091  28.447  27.153  1.00  0.00     0.049 A 
ATOM     53  C   UNL A   1      42.951  30.088  28.703  1.00  0.00     0.074 A 
ATOM     54  C   UNL A   1      49.067  29.428  27.108  1.00  0.00     0.029 A 
ATOM     55  N   UNL A   1      46.920  29.068  27.564  1.00  0.00    -0.354 N 
ATOM     56  N   UNL A   1      44.194  29.854  28.353  1.00  0.00    -0.248 NA
ATOM     57  C   UNL A   1      42.687  31.478  29.098  1.00  0.00     0.031 C 
ATOM     58  C   UNL A   1      48.494  30.634  27.525  1.00  0.00     0.029 A 
ATOM     59  C   UNL A   1      47.152  30.415  27.791  1.00  0.00     0.049 A 
ATOM     60  H   UNL A   1      46.052  28.617  27.678  1.00  0.00     0.167 HD
ATOM     61  C   UNL A   1      44.854  31.074  28.461  1.00  0.00     0.074 A 
ATOM     62  C   UNL A   1      43.870  32.043  28.899  1.00  0.00     0.031 C 
ATOM     63  C   UNL A   1      46.156  31.365  28.218  1.00  0.00     0.037 A 
BRANCH  50  64
ATOM     64  C   UNL A   1      49.569  26.509  26.477  1.00  0.00     0.058 A 
ATOM     65  C   UNL A   1      50.002  26.459  25.142  1.00  0.00     0.135 A 
ATOM     66  C   UNL A   1      50.453  26.060  27.470  1.00  0.00     0.135 A 
ATOM     67  F   UNL A   1      49.190  26.860  24.152  1.00  0.00    -0.206 F 
ATOM     68  C   UNL A   1      51.253  25.955  24.802  1.00  0.00     0.059 A 
ATOM     69  C   UNL A   1      51.720  25.577  27.155  1.00  0.00     0.059 A 
ATOM     70  F   UNL A   1      50.089  26.084  28.762  1.00  0.00    -0.206 F 
ATOM     71  C   UNL A   1      52.105  25.514  25.816  1.00  0.00     0.060 A 
BRANCH  71  72
ATOM     72  S   UNL A   1      53.725  24.862  25.360  1.00  0.00     0.124 S 
ATOM     73  O   UNL A   1      54.093  25.746  24.257  1.00  0.00    -0.237 OA
ATOM     74  O   UNL A   1      54.490  25.035  26.591  1.00  0.00    -0.237 OA
ATOM     75  O   UNL A   1      53.444  23.480  24.989  1.00  0.00    -0.744 OA
ENDBRANCH  71  72
ENDBRANCH  50  64
BRANCH  51  76
ATOM     76  C   UNL A   1      40.442  29.587  29.183  1.00  0.00     0.058 A 
ATOM     77  C   UNL A   1      40.171  29.843  30.537  1.00  0.00     0.135 A 
ATOM     78  C   UNL A   1      39.406  29.793  28.259  1.00  0.00     0.135 A 
ATOM     79  F   UNL A   1      41.129  29.656  31.458  1.00  0.00    -0.206 F 
ATOM     80  C   UNL A   1      38.918  30.271  30.961  1.00  0.00     0.059 A 
ATOM     81  C   UNL A   1      38.151  30.243  28.656  1.00  0.00     0.059 A 
ATOM     82  F   UNL A   1      39.621  29.580  26.952  1.00  0.00    -0.206 F 
ATOM     83  C   UNL A   1      37.913  30.470  30.011  1.00  0.00     0.060 A 
BRANCH  83  84
ATOM     84  S   UNL A   1      36.305  31.075  30.566  1.00  0.00     0.124 S 
ATOM     85  O   UNL A   1      36.647  32.400  31.070  1.00  0.00    -0.237 OA
ATOM     86  O   UNL A   1      35.522  31.042  29.335  1.00  0.00    -0.237 OA
ATOM     87  O   UNL A   1      35.911  30.097  31.576  1.00  0.00    -0.744 OA
ENDBRANCH  83  84
ENDBRANCH  51  76
BRANCH  63  88
ATOM     88  C   UNL A   1      46.588  32.794  28.389  1.00  0.00     0.058 A 
ATOM     89  C   UNL A   1      47.111  33.265  29.602  1.00  0.00     0.135 A 
ATOM     90  C   UNL A   1      46.528  33.687  27.307  1.00  0.00     0.135 A 
ATOM     91  F   UNL A   1      47.183  32.452  30.669  1.00  0.00    -0.206 F 
ATOM     92  C   UNL A   1      47.545  34.579  29.744  1.00  0.00     0.059 A 
ATOM     93  C   UNL A   1      46.979  34.998  27.419  1.00  0.00     0.059 A 
ATOM     94  F   UNL A   1      46.045  33.282  26.122  1.00  0.00    -0.206 F 
ATOM     95  C   UNL A   1      47.476  35.438  28.645  1.00  0.00     0.060 A 
BRANCH  95  96
ATOM     96  S   UNL A   1      48.077  37.130  28.829  1.00  0.00     0.124 S 
ATOM     97  O   UNL A   1      49.426  37.023  28.283  1.00  0.00    -0.237 OA
ATOM     98  O   UNL A   1      47.126  37.890  28.023  1.00  0.00    -0.237 OA
ATOM     99  O   UNL A   1      47.999  37.365  30.267  1.00  0.00    -0.744 OA
ENDBRANCH  95  96
ENDBRANCH  63  88
ENDBRANCH  37  38
ENDBRANCH  29  32
ENDBRANCH  27  28
ENDBRANCH  26  27
ENDBRANCH   1  26
TORSDOF 19
ENDMDL
MODEL 2
REMARK VINA RESULT:     -11.0      0.532      8.276
REMARK SMILES CC(C)[C@@H](NC(=O)N[C@H]1CCS(=O)(=O)C1)C(=O)NCCCCCCNC(=O)c1ccc(-c2c3nc(c(-c4c(F)cc(S(=O)(=O)[O-])cc4F)c4ccc([nH]4)c(-c4c(F)cc(S(=O)(=O)[O-])cc4F)c4nc(c(-c5c(F)cc(S(=O)(=O)[O-])cc5F)c5ccc2[nH]5)C=C4)C=C3)cc1
REMARK SMILES IDX 22 1 21 2 20 3 19 4 18 5 16 6 17 7 4 9 2 10 1 11 3 12 5 13
REMARK SMILES IDX 6 14 7 16 8 17 9 19 10 20 15 21 11 22 12 23 13 24 14 25
REMARK SMILES IDX 23 26 24 27 25 28 26 29 27 31 28 32 29 33 93 34 30 35 92 36
REMARK SMILES IDX 31 37 32 38 33 39 86 40 34 41 91 42 85 43 87 44 35 45 90 46
REMARK SMILES IDX 84 47 83 48 36 50 70 51 49 52 69 53 50 54 53 55 68 56 88 57
REMARK SMILES IDX 51 58 52 59 67 61 89 62 54 63 37 64 38 65 47 66 39 67 40 68
REMARK SMILES IDX 46 69 48 70 41 71 42 72 43 73 44 74 45 75 71 76 72 77 81 78
REMARK SMILES IDX 73 79 74 80 80 81 82 82 75 83 76 84 77 85 78 86 79 87 55 88
REMARK SMILES IDX 56 89 65 90 57 91 58 92 64 93 66 94 59 95 60 96 61 97 62 98
REMARK SMILES IDX 63 99
REMARK H PARENT 18 8 5 15 8 18 25 30 87 49 53 60
REMARK Flexibility Score: inf
ROOT
ATOM      1  C   UNL A   1      37.024  20.749  24.777  1.00  0.00     0.002 C 
ENDROOT
BRANCH   1   2
ATOM      2  C   UNL A   1      37.340  22.169  25.257  1.00  0.00     0.002 C 
BRANCH   2   3
ATOM      3  C   UNL A   1      36.422  23.260  24.696  1.00  0.00     0.021 C 
BRANCH   3   4
ATOM      4  C   UNL A   1      35.492  23.858  25.740  1.00  0.00     0.116 C 
BRANCH   4   5
ATOM      5  N   UNL A   1      35.130  22.857  26.721  1.00  0.00    -0.354 N 
ATOM      6  C   UNL A   1      33.956  22.199  26.888  1.00  0.00     0.242 C 
ATOM      7  O   UNL A   1      33.874  21.410  27.834  1.00  0.00    -0.273 OA
ATOM      8  H   UNL A   1      35.840  22.618  27.360  1.00  0.00     0.163 HD
BRANCH   6   9
ATOM      9  C   UNL A   1      32.719  22.503  26.024  1.00  0.00     0.175 C 
BRANCH   9  10
ATOM     10  C   UNL A   1      32.664  21.470  24.856  1.00  0.00     0.015 C 
ATOM     11  C   UNL A   1      33.196  22.053  23.544  1.00  0.00     0.010 C 
ATOM     12  C   UNL A   1      33.440  20.180  25.172  1.00  0.00     0.010 C 
ENDBRANCH   9  10
BRANCH   9  13
ATOM     13  N   UNL A   1      31.485  22.492  26.820  1.00  0.00    -0.326 N 
ATOM     14  C   UNL A   1      30.410  23.282  26.906  1.00  0.00     0.315 C 
ATOM     15  H   UNL A   1      31.439  21.725  27.434  1.00  0.00     0.166 HD
ATOM     16  O   UNL A   1      29.519  22.944  27.687  1.00  0.00    -0.249 OA
ATOM     17  N   UNL A   1      30.249  24.442  26.261  1.00  0.00    -0.334 N 
ATOM     18  H   UNL A   1      29.500  24.972  26.618  1.00  0.00     0.165 HD
BRANCH  17  19
ATOM     19  C   UNL A   1      30.922  25.105  25.156  1.00  0.00     0.099 C 
ATOM     20  C   UNL A   1      30.519  24.492  23.810  1.00  0.00     0.042 C 
ATOM     21  C   UNL A   1      30.579  26.592  25.028  1.00  0.00     0.161 C 
ATOM     22  C   UNL A   1      31.253  25.336  22.776  1.00  0.00     0.139 C 
ATOM     23  S   UNL A   1      31.086  27.015  23.364  1.00  0.00     0.152 S 
ATOM     24  O   UNL A   1      32.396  27.630  23.388  1.00  0.00    -0.229 OA
ATOM     25  O   UNL A   1      29.966  27.628  22.681  1.00  0.00    -0.229 OA
ENDBRANCH  17  19
ENDBRANCH   9  13
ENDBRANCH   6   9
ENDBRANCH   4   5
ENDBRANCH   3   4
ENDBRANCH   2   3
ENDBRANCH   1   2
BRANCH   1  26
ATOM     26  C   UNL A   1      38.135  19.721  25.005  1.00  0.00     0.021 C 
BRANCH  26  27
ATOM     27  C   UNL A   1      39.260  20.184  25.923  1.00  0.00     0.116 C 
BRANCH  27  28
ATOM     28  N   UNL A   1      40.330  19.211  26.048  1.00  0.00    -0.352 N 
ATOM     29  C   UNL A   1      41.657  19.453  26.307  1.00  0.00     0.251 C 
ATOM     30  H   UNL A   1      40.075  18.266  25.935  1.00  0.00     0.163 HD
ATOM     31  O   UNL A   1      42.476  18.541  26.295  1.00  0.00    -0.269 OA
BRANCH  29  32
ATOM     32  C   UNL A   1      42.082  20.845  26.558  1.00  0.00     0.039 A 
ATOM     33  C   UNL A   1      42.288  21.256  27.876  1.00  0.00     0.014 A 
ATOM     34  C   UNL A   1      42.334  21.713  25.491  1.00  0.00     0.014 A 
ATOM     35  C   UNL A   1      42.798  22.530  28.124  1.00  0.00     0.010 A 
ATOM     36  C   UNL A   1      42.903  22.958  25.738  1.00  0.00     0.010 A 
ATOM     37  C   UNL A   1      43.136  23.379  27.057  1.00  0.00    -0.014 A 
BRANCH  37  38
ATOM     38  C   UNL A   1      43.726  24.718  27.304  1.00  0.00     0.031 A 
ATOM     39  C   UNL A   1      42.848  25.852  27.753  1.00  0.00     0.074 A 
ATOM     40  C   UNL A   1      45.037  24.921  27.073  1.00  0.00     0.049 A 
ATOM     41  N   UNL A   1      43.163  27.102  27.974  1.00  0.00    -0.248 NA
ATOM     42  C   UNL A   1      41.422  25.548  27.953  1.00  0.00     0.031 C 
ATOM     43  C   UNL A   1      45.977  23.909  26.585  1.00  0.00     0.029 A 
ATOM     44  N   UNL A   1      45.807  26.048  27.208  1.00  0.00    -0.354 N 
ATOM     45  C   UNL A   1      41.977  27.735  28.324  1.00  0.00     0.074 A 
ATOM     46  C   UNL A   1      40.926  26.744  28.236  1.00  0.00     0.031 C 
ATOM     47  C   UNL A   1      47.200  24.457  26.481  1.00  0.00     0.029 A 
ATOM     48  C   UNL A   1      47.126  25.863  26.866  1.00  0.00     0.049 A 
ATOM     49  H   UNL A   1      45.448  26.910  27.522  1.00  0.00     0.167 HD
ATOM     50  C   UNL A   1      41.784  29.019  28.707  1.00  0.00     0.037 A 
ATOM     51  C   UNL A   1      48.156  26.730  26.862  1.00  0.00     0.037 A 
ATOM     52  C   UNL A   1      42.840  29.990  28.823  1.00  0.00     0.049 A 
ATOM     53  C   UNL A   1      47.923  28.147  27.311  1.00  0.00     0.074 A 
ATOM     54  C   UNL A   1      42.761  31.300  29.262  1.00  0.00     0.029 A 
ATOM     55  N   UNL A   1      44.169  29.757  28.498  1.00  0.00    -0.354 N 
ATOM     56  N   UNL A   1      46.805  28.712  27.702  1.00  0.00    -0.248 NA
ATOM     57  C   UNL A   1      49.088  29.042  27.327  1.00  0.00     0.031 C 
ATOM     58  C   UNL A   1      44.036  31.868  29.169  1.00  0.00     0.029 A 
ATOM     59  C   UNL A   1      44.917  30.902  28.712  1.00  0.00     0.049 A 
ATOM     60  H   UNL A   1      44.526  28.902  28.164  1.00  0.00     0.167 HD
ATOM     61  C   UNL A   1      47.138  30.021  28.035  1.00  0.00     0.074 A 
ATOM     62  C   UNL A   1      48.561  30.159  27.809  1.00  0.00     0.031 C 
ATOM     63  C   UNL A   1      46.337  31.017  28.488  1.00  0.00     0.037 A 
BRANCH  50  64
ATOM     64  C   UNL A   1      40.380  29.444  29.036  1.00  0.00     0.058 A 
ATOM     65  C   UNL A   1      39.955  29.617  30.363  1.00  0.00     0.135 A 
ATOM     66  C   UNL A   1      39.454  29.703  28.013  1.00  0.00     0.135 A 
ATOM     67  F   UNL A   1      40.795  29.366  31.380  1.00  0.00    -0.206 F 
ATOM     68  C   UNL A   1      38.654  30.003  30.666  1.00  0.00     0.059 A 
ATOM     69  C   UNL A   1      38.155  30.117  28.292  1.00  0.00     0.059 A 
ATOM     70  F   UNL A   1      39.806  29.552  26.727  1.00  0.00    -0.206 F 
ATOM     71  C   UNL A   1      37.759  30.249  29.623  1.00  0.00     0.060 A 
BRANCH  71  72
ATOM     72  S   UNL A   1      36.074  30.750  30.031  1.00  0.00     0.124 S 
ATOM     73  O   UNL A   1      35.925  30.197  31.375  1.00  0.00    -0.237 OA
ATOM     74  O   UNL A   1      36.152  32.205  29.951  1.00  0.00    -0.237 OA
ATOM     75  O   UNL A   1      35.269  30.110  28.997  1.00  0.00    -0.744 OA
ENDBRANCH  71  72
ENDBRANCH  50  64
BRANCH  51  76
ATOM     76  C   UNL A   1      49.508  26.272  26.444  1.00  0.00     0.058 A 
ATOM     77  C   UNL A   1      49.982  26.517  25.146  1.00  0.00     0.135 A 
ATOM     78  C   UNL A   1      50.359  25.601  27.335  1.00  0.00     0.135 A 
ATOM     79  F   UNL A   1      49.202  27.151  24.257  1.00  0.00    -0.206 F 
ATOM     80  C   UNL A   1      51.245  26.099  24.740  1.00  0.00     0.059 A 
ATOM     81  C   UNL A   1      51.635  25.193  26.960  1.00  0.00     0.059 A 
ATOM     82  F   UNL A   1      49.959  25.360  28.593  1.00  0.00    -0.206 F 
ATOM     83  C   UNL A   1      52.066  25.438  25.657  1.00  0.00     0.060 A 
BRANCH  83  84
ATOM     84  S   UNL A   1      53.723  24.945  25.136  1.00  0.00     0.124 S 
ATOM     85  O   UNL A   1      53.832  25.603  23.840  1.00  0.00    -0.237 OA
ATOM     86  O   UNL A   1      54.556  25.490  26.203  1.00  0.00    -0.237 OA
ATOM     87  O   UNL A   1      53.641  23.487  25.100  1.00  0.00    -0.744 OA
ENDBRANCH  83  84
ENDBRANCH  51  76
BRANCH  63  88
ATOM     88  C   UNL A   1      46.984  32.336  28.801  1.00  0.00     0.058 A 
ATOM     89  C   UNL A   1      47.090  33.350  27.838  1.00  0.00     0.135 A 
ATOM     90  C   UNL A   1      47.454  32.607  30.096  1.00  0.00     0.135 A 
ATOM     91  F   UNL A   1      46.662  33.139  26.583  1.00  0.00    -0.206 F 
ATOM     92  C   UNL A   1      47.657  34.584  28.142  1.00  0.00     0.059 A 
ATOM     93  C   UNL A   1      48.002  33.841  30.430  1.00  0.00     0.059 A 
ATOM     94  F   UNL A   1      47.367  31.672  31.056  1.00  0.00    -0.206 F 
ATOM     95  C   UNL A   1      48.108  34.820  29.442  1.00  0.00     0.060 A 
BRANCH  95  96
ATOM     96  S   UNL A   1      48.806  36.437  29.837  1.00  0.00     0.124 S 
ATOM     97  O   UNL A   1      49.183  36.924  28.514  1.00  0.00    -0.237 OA
ATOM     98  O   UNL A   1      47.680  37.120  30.467  1.00  0.00    -0.237 OA
ATOM     99  O   UNL A   1      49.917  36.120  30.729  1.00  0.00    -0.744 OA
ENDBRANCH  95  96
ENDBRANCH  63  88
ENDBRANCH  37  38
ENDBRANCH  29  32
ENDBRANCH  27  28
ENDBRANCH  26  27
ENDBRANCH   1  26
TORSDOF 19
ENDMDL
MODEL 3
REMARK VINA RESULT:     -11.0      6.010      8.243
REMARK SMILES CC(C)[C@@H](NC(=O)N[C@H]1CCS(=O)(=O)C1)C(=O)NCCCCCCNC(=O)c1ccc(-c2c3nc(c(-c4c(F)cc(S(=O)(=O)[O-])cc4F)c4ccc([nH]4)c(-c4c(F)cc(S(=O)(=O)[O-])cc4F)c4nc(c(-c5c(F)cc(S(=O)(=O)[O-])cc5F)c5ccc2[nH]5)C=C4)C=C3)cc1
REMARK SMILES IDX 22 1 21 2 20 3 19 4 18 5 16 6 17 7 4 9 2 10 1 11 3 12 5 13
REMARK SMILES IDX 6 14 7 16 8 17 9 19 10 20 15 21 11 22 12 23 13 24 14 25
REMARK SMILES IDX 23 26 24 27 25 28 26 29 27 31 28 32 29 33 93 34 30 35 92 36
REMARK SMILES IDX 31 37 32 38 33 39 86 40 34 41 91 42 85 43 87 44 35 45 90 46
REMARK SMILES IDX 84 47 83 48 36 50 70 51 49 52 69 53 50 54 53 55 68 56 88 57
REMARK SMILES IDX 51 58 52 59 67 61 89 62 54 63 37 64 38 65 47 66 39 67 40 68
REMARK SMILES IDX 46 69 48 70 41 71 42 72 43 73 44 74 45 75 71 76 72 77 81 78
REMARK SMILES IDX 73 79 74 80 80 81 82 82 75 83 76 84 77 85 78 86 79 87 55 88
REMARK SMILES IDX 56 89 65 90 57 91 58 92 64 93 66 94 59 95 60 96 61 97 62 98
REMARK SMILES IDX 63 99
REMARK H PARENT 18 8 5 15 8 18 25 30 87 49 53 60
REMARK Flexibility Score: inf
ROOT
ATOM      1  C   UNL A   1      39.551  21.817  26.073  1.00  0.00     0.002 C 
ENDROOT
BRANCH   1   2
ATOM      2  C   UNL A   1      38.064  22.043  25.781  1.00  0.00     0.002 C 
BRANCH   2   3
ATOM      3  C   UNL A   1      37.621  23.510  25.786  1.00  0.00     0.021 C 
BRANCH   3   4
ATOM      4  C   UNL A   1      36.126  23.685  26.001  1.00  0.00     0.116 C 
BRANCH   4   5
ATOM      5  N   UNL A   1      35.575  22.521  26.664  1.00  0.00    -0.354 N 
ATOM      6  C   UNL A   1      34.295  22.075  26.701  1.00  0.00     0.242 C 
ATOM      7  O   UNL A   1      34.062  21.068  27.376  1.00  0.00    -0.273 OA
ATOM      8  H   UNL A   1      36.226  21.974  27.161  1.00  0.00     0.163 HD
BRANCH   6   9
ATOM      9  C   UNL A   1      33.141  22.848  26.041  1.00  0.00     0.175 C 
BRANCH   9  10
ATOM     10  C   UNL A   1      33.002  22.367  24.563  1.00  0.00     0.015 C 
ATOM     11  C   UNL A   1      33.643  23.344  23.575  1.00  0.00     0.010 C 
ATOM     12  C   UNL A   1      33.607  20.971  24.339  1.00  0.00     0.010 C 
ENDBRANCH   9  10
BRANCH   9  13
ATOM     13  N   UNL A   1      31.886  22.691  26.786  1.00  0.00    -0.326 N 
ATOM     14  C   UNL A   1      30.777  23.423  26.933  1.00  0.00     0.315 C 
ATOM     15  H   UNL A   1      31.853  21.851  27.297  1.00  0.00     0.166 HD
ATOM     16  O   UNL A   1      29.878  22.956  27.635  1.00  0.00    -0.249 OA
ATOM     17  N   UNL A   1      30.587  24.649  26.434  1.00  0.00    -0.334 N 
ATOM     18  H   UNL A   1      29.807  25.101  26.829  1.00  0.00     0.165 HD
BRANCH  17  19
ATOM     19  C   UNL A   1      31.265  25.471  25.445  1.00  0.00     0.099 C 
ATOM     20  C   UNL A   1      30.272  26.357  24.683  1.00  0.00     0.042 C 
ATOM     21  C   UNL A   1      32.279  26.449  26.046  1.00  0.00     0.161 C 
ATOM     22  C   UNL A   1      31.145  27.186  23.750  1.00  0.00     0.139 C 
ATOM     23  S   UNL A   1      32.558  27.645  24.744  1.00  0.00     0.152 S 
ATOM     24  O   UNL A   1      33.764  27.313  24.017  1.00  0.00    -0.229 OA
ATOM     25  O   UNL A   1      32.327  28.971  25.278  1.00  0.00    -0.229 OA
ENDBRANCH  17  19
ENDBRANCH   9  13
ENDBRANCH   6   9
ENDBRANCH   4   5
ENDBRANCH   3   4
ENDBRANCH   2   3
ENDBRANCH   1   2
BRANCH   1  26
ATOM     26  C   UNL A   1      40.039  22.352  27.421  1.00  0.00     0.021 C 
BRANCH  26  27
ATOM     27  C   UNL A   1      41.386  23.063  27.381  1.00  0.00     0.116 C 
BRANCH  27  28
ATOM     28  N   UNL A   1      41.581  23.848  26.175  1.00  0.00    -0.352 N 
ATOM     29  C   UNL A   1      41.593  25.216  26.058  1.00  0.00     0.251 C 
ATOM     30  H   UNL A   1      41.720  23.339  25.342  1.00  0.00     0.163 HD
ATOM     31  O   UNL A   1      41.676  25.752  24.959  1.00  0.00    -0.269 OA
BRANCH  29  32
ATOM     32  C   UNL A   1      41.463  26.028  27.284  1.00  0.00     0.039 A 
ATOM     33  C   UNL A   1      42.482  26.925  27.607  1.00  0.00     0.014 A 
ATOM     34  C   UNL A   1      40.310  25.944  28.071  1.00  0.00     0.014 A 
ATOM     35  C   UNL A   1      42.323  27.779  28.698  1.00  0.00     0.010 A 
ATOM     36  C   UNL A   1      40.126  26.840  29.118  1.00  0.00     0.010 A 
ATOM     37  C   UNL A   1      41.133  27.763  29.443  1.00  0.00    -0.014 A 
BRANCH  37  38
ATOM     38  C   UNL A   1      40.929  28.701  30.575  1.00  0.00     0.031 A 
ATOM     39  C   UNL A   1      41.772  28.575  31.813  1.00  0.00     0.074 A 
ATOM     40  C   UNL A   1      39.952  29.626  30.507  1.00  0.00     0.049 A 
ATOM     41  N   UNL A   1      41.714  29.262  32.924  1.00  0.00    -0.248 NA
ATOM     42  C   UNL A   1      42.796  27.518  31.814  1.00  0.00     0.031 C 
ATOM     43  C   UNL A   1      39.036  29.807  29.378  1.00  0.00     0.029 A 
ATOM     44  N   UNL A   1      39.559  30.582  31.408  1.00  0.00    -0.354 N 
ATOM     45  C   UNL A   1      42.680  28.714  33.759  1.00  0.00     0.074 A 
ATOM     46  C   UNL A   1      43.274  27.604  33.047  1.00  0.00     0.031 C 
ATOM     47  C   UNL A   1      38.202  30.826  29.647  1.00  0.00     0.029 A 
ATOM     48  C   UNL A   1      38.503  31.350  30.976  1.00  0.00     0.049 A 
ATOM     49  H   UNL A   1      39.993  30.708  32.283  1.00  0.00     0.167 HD
ATOM     50  C   UNL A   1      43.055  29.115  34.996  1.00  0.00     0.037 A 
ATOM     51  C   UNL A   1      37.852  32.360  31.583  1.00  0.00     0.037 A 
ATOM     52  C   UNL A   1      42.481  30.241  35.684  1.00  0.00     0.049 A 
ATOM     53  C   UNL A   1      38.299  32.801  32.951  1.00  0.00     0.074 A 
ATOM     54  C   UNL A   1      42.831  30.769  36.915  1.00  0.00     0.029 A 
ATOM     55  N   UNL A   1      41.434  31.014  35.201  1.00  0.00    -0.354 N 
ATOM     56  N   UNL A   1      39.259  32.313  33.699  1.00  0.00    -0.248 NA
ATOM     57  C   UNL A   1      37.582  33.933  33.553  1.00  0.00     0.031 C 
ATOM     58  C   UNL A   1      41.974  31.840  37.191  1.00  0.00     0.029 A 
ATOM     59  C   UNL A   1      41.116  32.005  36.115  1.00  0.00     0.049 A 
ATOM     60  H   UNL A   1      40.984  30.878  34.336  1.00  0.00     0.167 HD
ATOM     61  C   UNL A   1      39.279  33.095  34.849  1.00  0.00     0.074 A 
ATOM     62  C   UNL A   1      38.241  34.093  34.692  1.00  0.00     0.031 C 
ATOM     63  C   UNL A   1      40.084  32.996  35.936  1.00  0.00     0.037 A 
BRANCH  50  64
ATOM     64  C   UNL A   1      44.142  28.335  35.681  1.00  0.00     0.058 A 
ATOM     65  C   UNL A   1      43.848  27.297  36.580  1.00  0.00     0.135 A 
ATOM     66  C   UNL A   1      45.493  28.611  35.420  1.00  0.00     0.135 A 
ATOM     67  F   UNL A   1      42.573  27.002  36.878  1.00  0.00    -0.206 F 
ATOM     68  C   UNL A   1      44.854  26.580  37.218  1.00  0.00     0.059 A 
ATOM     69  C   UNL A   1      46.517  27.888  36.026  1.00  0.00     0.059 A 
ATOM     70  F   UNL A   1      45.832  29.594  34.571  1.00  0.00    -0.206 F 
ATOM     71  C   UNL A   1      46.187  26.885  36.937  1.00  0.00     0.060 A 
BRANCH  71  72
ATOM     72  S   UNL A   1      47.483  25.946  37.772  1.00  0.00     0.124 S 
ATOM     73  O   UNL A   1      46.774  24.715  38.113  1.00  0.00    -0.237 OA
ATOM     74  O   UNL A   1      48.500  25.824  36.734  1.00  0.00    -0.237 OA
ATOM     75  O   UNL A   1      47.843  26.796  38.902  1.00  0.00    -0.744 OA
ENDBRANCH  71  72
ENDBRANCH  50  64
BRANCH  51  76
ATOM     76  C   UNL A   1      36.726  33.039  30.890  1.00  0.00     0.058 A 
ATOM     77  C   UNL A   1      35.402  32.862  31.320  1.00  0.00     0.135 A 
ATOM     78  C   UNL A   1      36.950  33.893  29.799  1.00  0.00     0.135 A 
ATOM     79  F   UNL A   1      35.137  32.051  32.356  1.00  0.00    -0.206 F 
ATOM     80  C   UNL A   1      34.337  33.493  30.684  1.00  0.00     0.059 A 
ATOM     81  C   UNL A   1      35.904  34.554  29.161  1.00  0.00     0.059 A 
ATOM     82  F   UNL A   1      38.199  34.110  29.362  1.00  0.00    -0.206 F 
ATOM     83  C   UNL A   1      34.600  34.339  29.605  1.00  0.00     0.060 A 
BRANCH  83  84
ATOM     84  S   UNL A   1      33.217  35.194  28.819  1.00  0.00     0.124 S 
ATOM     85  O   UNL A   1      33.907  36.215  28.039  1.00  0.00    -0.237 OA
ATOM     86  O   UNL A   1      32.587  34.123  28.056  1.00  0.00    -0.237 OA
ATOM     87  O   UNL A   1      32.440  35.685  29.954  1.00  0.00    -0.744 OA
ENDBRANCH  83  84
ENDBRANCH  51  76
BRANCH  63  88
ATOM     88  C   UNL A   1      39.899  34.011  37.028  1.00  0.00     0.058 A 
ATOM     89  C   UNL A   1      40.437  35.303  36.930  1.00  0.00     0.135 A 
ATOM     90  C   UNL A   1      39.126  33.704  38.159  1.00  0.00     0.135 A 
ATOM     91  F   UNL A   1      41.189  35.644  35.872  1.00  0.00    -0.206 F 
ATOM     92  C   UNL A   1      40.232  36.251  37.927  1.00  0.00     0.059 A 
ATOM     93  C   UNL A   1      38.887  34.644  39.156  1.00  0.00     0.059 A 
ATOM     94  F   UNL A   1      38.581  32.484  38.295  1.00  0.00    -0.206 F 
ATOM     95  C   UNL A   1      39.454  35.913  39.036  1.00  0.00     0.060 A 
BRANCH  95  96
ATOM     96  S   UNL A   1      39.161  37.163  40.304  1.00  0.00     0.124 S 
ATOM     97  O   UNL A   1      38.261  36.456  41.210  1.00  0.00    -0.237 OA
ATOM     98  O   UNL A   1      40.505  37.413  40.814  1.00  0.00    -0.237 OA
ATOM     99  O   UNL A   1      38.563  38.267  39.561  1.00  0.00    -0.744 OA
ENDBRANCH  95  96
ENDBRANCH  63  88
ENDBRANCH  37  38
ENDBRANCH  29  32
ENDBRANCH  27  28
ENDBRANCH  26  27
ENDBRANCH   1  26
TORSDOF 19
ENDMDL
