MODEL 1
REMARK VINA RESULT:     -11.9      0.000      0.000
REMARK SMILES C[N@@H+]1CC[N@H+](Cc2ccc(C#CC(C)(C)O)s2)C[C@H]1C(=O)NCCCCCCNC(=O)c1ccc(-c2c3nc(c(-c4c(F)cc(S(=O)(=O)[O-])cc4F)c4ccc([nH]4)c(-c4c(F)cc(S(=O)(=O)[O-])cc4F)c4nc(c(-c5c(F)cc(S(=O)(=O)[O-])cc5F)c5ccc2[nH]5)C=C4)C=C3)cc1
REMARK SMILES IDX 24 1 23 2 22 3 20 4 21 5 19 7 1 8 2 9 3 10 4 12 18 13 5 14
REMARK SMILES IDX 6 16 7 17 8 18 17 19 9 20 10 21 11 22 12 23 13 24 14 25
REMARK SMILES IDX 15 26 16 27 25 29 26 30 27 31 28 32 29 33 30 34 31 36 32 37
REMARK SMILES IDX 33 38 97 39 34 40 96 41 35 42 36 43 37 44 90 45 38 46 95 47
REMARK SMILES IDX 89 48 91 49 39 50 94 51 88 52 87 53 40 55 74 56 53 57 73 58
REMARK SMILES IDX 54 59 57 60 72 61 92 62 55 63 56 64 71 66 93 67 58 68 41 69
REMARK SMILES IDX 42 70 51 71 43 72 44 73 50 74 52 75 45 76 46 77 47 78 48 79
REMARK SMILES IDX 49 80 75 81 76 82 85 83 77 84 78 85 84 86 86 87 79 88 80 89
REMARK SMILES IDX 81 90 82 91 83 92 59 93 60 94 69 95 61 96 62 97 68 98 70 99
REMARK SMILES IDX 63 100 64 101 65 102 66 103 67 104
REMARK H PARENT 22 6 2 11 5 15 16 28 29 35 91 54 57 65
REMARK Flexibility Score: inf
ROOT
ATOM      1  C   UNL A   1      30.852  29.547  24.553  1.00  0.00     0.021 C 
ENDROOT
BRANCH   1   2
ATOM      2  C   UNL A   1      30.931  28.746  23.260  1.00  0.00     0.116 C 
BRANCH   2   3
ATOM      3  N   UNL A   1      32.216  28.914  22.609  1.00  0.00    -0.351 N 
ATOM      4  C   UNL A   1      33.206  27.990  22.438  1.00  0.00     0.284 C 
ATOM      5  O   UNL A   1      34.247  28.352  21.879  1.00  0.00    -0.268 OA
ATOM      6  H   UNL A   1      32.396  29.809  22.242  1.00  0.00     0.163 HD
BRANCH   4   7
ATOM      7  C   UNL A   1      32.987  26.529  22.864  1.00  0.00     0.329 C 
ATOM      8  C   UNL A   1      32.460  25.665  20.647  1.00  0.00     0.333 C 
ATOM      9  N   UNL A   1      33.383  25.584  21.785  1.00  0.00    -0.318 N 
ATOM     10  C   UNL A   1      33.460  24.201  22.279  1.00  0.00     0.325 C 
ATOM     11  H   UNL A   1      34.313  25.860  21.470  1.00  0.00     0.348 HD
ATOM     12  C   UNL A   1      34.184  24.024  23.638  1.00  0.00     0.324 C 
ATOM     13  C   UNL A   1      33.716  26.330  24.226  1.00  0.00     0.339 C 
ATOM     14  N   UNL A   1      33.832  24.951  24.724  1.00  0.00    -0.320 N 
ATOM     15  H   UNL A   1      34.621  24.931  25.369  1.00  0.00     0.348 HD
BRANCH  14  16
ATOM     16  C   UNL A   1      32.747  24.517  25.616  1.00  0.00     0.310 C 
BRANCH  16  17
ATOM     17  C   UNL A   1      32.854  23.103  26.087  1.00  0.00     0.060 A 
ATOM     18  C   UNL A   1      33.559  22.596  27.160  1.00  0.00     0.022 A 
ATOM     19  S   UNL A   1      32.041  21.845  25.246  1.00  0.00    -0.126 S 
ATOM     20  C   UNL A   1      33.731  21.186  27.051  1.00  0.00     0.029 A 
ATOM     21  C   UNL A   1      33.040  20.672  25.978  1.00  0.00     0.077 A 
BRANCH  21  22
ATOM     22  C   UNL A   1      33.036  19.313  25.580  1.00  0.00    -0.053 C 
ATOM     23  C   UNL A   1      33.314  18.155  25.049  1.00  0.00    -0.063 C 
BRANCH  23  24
ATOM     24  C   UNL A   1      33.636  16.806  24.429  1.00  0.00     0.120 C 
ATOM     25  C   UNL A   1      33.884  16.974  22.931  1.00  0.00     0.056 C 
ATOM     26  C   UNL A   1      34.850  16.196  25.125  1.00  0.00     0.056 C 
BRANCH  24  27
ATOM     27  O   UNL A   1      32.512  15.952  24.611  1.00  0.00    -0.378 OA
ATOM     28  H   UNL A   1      32.810  15.088  24.937  1.00  0.00     0.212 HD
ENDBRANCH  24  27
ENDBRANCH  23  24
ENDBRANCH  21  22
ENDBRANCH  16  17
ENDBRANCH  14  16
ENDBRANCH   4   7
ENDBRANCH   2   3
ENDBRANCH   1   2
BRANCH   1  29
ATOM     29  C   UNL A   1      32.180  29.621  25.310  1.00  0.00     0.002 C 
BRANCH  29  30
ATOM     30  C   UNL A   1      32.190  28.930  26.682  1.00  0.00     0.002 C 
BRANCH  30  31
ATOM     31  C   UNL A   1      33.574  28.698  27.307  1.00  0.00     0.021 C 
BRANCH  31  32
ATOM     32  C   UNL A   1      34.581  29.779  26.956  1.00  0.00     0.116 C 
BRANCH  32  33
ATOM     33  N   UNL A   1      34.298  31.031  27.650  1.00  0.00    -0.352 N 
ATOM     34  C   UNL A   1      34.886  31.512  28.798  1.00  0.00     0.251 C 
ATOM     35  H   UNL A   1      33.603  31.601  27.248  1.00  0.00     0.163 HD
ATOM     36  O   UNL A   1      34.324  32.376  29.472  1.00  0.00    -0.269 OA
BRANCH  34  37
ATOM     37  C   UNL A   1      36.194  30.977  29.204  1.00  0.00     0.039 A 
ATOM     38  C   UNL A   1      36.340  29.643  29.591  1.00  0.00     0.014 A 
ATOM     39  C   UNL A   1      37.292  31.837  29.175  1.00  0.00     0.014 A 
ATOM     40  C   UNL A   1      37.614  29.163  29.880  1.00  0.00     0.010 A 
ATOM     41  C   UNL A   1      38.559  31.329  29.320  1.00  0.00     0.010 A 
ATOM     42  C   UNL A   1      38.723  30.010  29.725  1.00  0.00    -0.014 A 
BRANCH  42  43
ATOM     43  C   UNL A   1      40.084  29.489  29.837  1.00  0.00     0.031 A 
ATOM     44  C   UNL A   1      40.552  29.358  31.246  1.00  0.00     0.074 A 
ATOM     45  C   UNL A   1      40.739  28.947  28.784  1.00  0.00     0.049 A 
ATOM     46  N   UNL A   1      41.465  30.044  31.847  1.00  0.00    -0.248 NA
ATOM     47  C   UNL A   1      39.783  28.487  32.155  1.00  0.00     0.031 C 
ATOM     48  C   UNL A   1      40.222  28.737  27.424  1.00  0.00     0.029 A 
ATOM     49  N   UNL A   1      41.965  28.355  28.724  1.00  0.00    -0.354 N 
ATOM     50  C   UNL A   1      41.574  29.492  33.125  1.00  0.00     0.074 A 
ATOM     51  C   UNL A   1      40.376  28.728  33.327  1.00  0.00     0.031 C 
ATOM     52  C   UNL A   1      41.008  27.858  26.766  1.00  0.00     0.029 A 
ATOM     53  C   UNL A   1      42.177  27.585  27.579  1.00  0.00     0.049 A 
ATOM     54  H   UNL A   1      42.645  28.459  29.429  1.00  0.00     0.167 HD
ATOM     55  C   UNL A   1      42.780  29.454  33.761  1.00  0.00     0.037 A 
ATOM     56  C   UNL A   1      43.231  26.772  27.319  1.00  0.00     0.037 A 
ATOM     57  C   UNL A   1      43.724  30.307  33.082  1.00  0.00     0.049 A 
ATOM     58  C   UNL A   1      44.338  27.213  28.200  1.00  0.00     0.074 A 
ATOM     59  C   UNL A   1      43.899  31.661  32.896  1.00  0.00     0.029 A 
ATOM     60  N   UNL A   1      44.454  29.662  32.118  1.00  0.00    -0.354 N 
ATOM     61  N   UNL A   1      44.913  28.382  28.101  1.00  0.00    -0.248 NA
ATOM     62  C   UNL A   1      44.557  26.518  29.460  1.00  0.00     0.031 C 
ATOM     63  C   UNL A   1      44.548  31.796  31.633  1.00  0.00     0.029 A 
ATOM     64  C   UNL A   1      44.801  30.524  31.115  1.00  0.00     0.049 A 
ATOM     65  H   UNL A   1      44.698  28.708  32.144  1.00  0.00     0.167 HD
ATOM     66  C   UNL A   1      45.184  28.748  29.406  1.00  0.00     0.074 A 
ATOM     67  C   UNL A   1      45.102  27.509  30.172  1.00  0.00     0.031 C 
ATOM     68  C   UNL A   1      45.135  30.060  29.785  1.00  0.00     0.037 A 
BRANCH  55  69
ATOM     69  C   UNL A   1      43.281  28.308  34.633  1.00  0.00     0.058 A 
ATOM     70  C   UNL A   1      43.738  28.604  35.939  1.00  0.00     0.135 A 
ATOM     71  C   UNL A   1      43.638  27.028  34.153  1.00  0.00     0.135 A 
ATOM     72  F   UNL A   1      43.450  29.783  36.515  1.00  0.00    -0.206 F 
ATOM     73  C   UNL A   1      44.572  27.745  36.661  1.00  0.00     0.059 A 
ATOM     74  C   UNL A   1      44.428  26.139  34.875  1.00  0.00     0.059 A 
ATOM     75  F   UNL A   1      43.321  26.601  32.927  1.00  0.00    -0.206 F 
ATOM     76  C   UNL A   1      44.928  26.521  36.108  1.00  0.00     0.060 A 
BRANCH  76  77
ATOM     77  S   UNL A   1      46.082  25.451  36.984  1.00  0.00     0.124 S 
ATOM     78  O   UNL A   1      45.886  24.182  36.293  1.00  0.00    -0.237 OA
ATOM     79  O   UNL A   1      47.356  26.121  36.747  1.00  0.00    -0.237 OA
ATOM     80  O   UNL A   1      45.602  25.500  38.362  1.00  0.00    -0.744 OA
ENDBRANCH  76  77
ENDBRANCH  55  69
BRANCH  56  81
ATOM     81  C   UNL A   1      43.262  25.488  26.570  1.00  0.00     0.058 A 
ATOM     82  C   UNL A   1      44.011  25.335  25.389  1.00  0.00     0.135 A 
ATOM     83  C   UNL A   1      42.783  24.299  27.158  1.00  0.00     0.135 A 
ATOM     84  F   UNL A   1      44.523  26.411  24.772  1.00  0.00    -0.206 F 
ATOM     85  C   UNL A   1      44.307  24.077  24.847  1.00  0.00     0.059 A 
ATOM     86  C   UNL A   1      43.062  23.035  26.634  1.00  0.00     0.059 A 
ATOM     87  F   UNL A   1      42.105  24.331  28.315  1.00  0.00    -0.206 F 
ATOM     88  C   UNL A   1      43.844  22.929  25.491  1.00  0.00     0.060 A 
BRANCH  88  89
ATOM     89  S   UNL A   1      44.359  21.299  24.893  1.00  0.00     0.124 S 
ATOM     90  O   UNL A   1      44.497  21.532  23.460  1.00  0.00    -0.237 OA
ATOM     91  O   UNL A   1      45.601  21.077  25.625  1.00  0.00    -0.237 OA
ATOM     92  O   UNL A   1      43.249  20.430  25.279  1.00  0.00    -0.744 OA
ENDBRANCH  88  89
ENDBRANCH  56  81
BRANCH  68  93
ATOM     93  C   UNL A   1      45.295  31.102  28.714  1.00  0.00     0.058 A 
ATOM     94  C   UNL A   1      44.249  31.672  27.971  1.00  0.00     0.135 A 
ATOM     95  C   UNL A   1      46.582  31.624  28.520  1.00  0.00     0.135 A 
ATOM     96  F   UNL A   1      42.978  31.287  28.158  1.00  0.00    -0.206 F 
ATOM     97  C   UNL A   1      44.480  32.697  27.050  1.00  0.00     0.059 A 
ATOM     98  C   UNL A   1      46.832  32.664  27.634  1.00  0.00     0.059 A 
ATOM     99  F   UNL A   1      47.614  31.153  29.240  1.00  0.00    -0.206 F 
ATOM    100  C   UNL A   1      45.776  33.188  26.891  1.00  0.00     0.060 A 
BRANCH 100 101
ATOM    101  S   UNL A   1      46.072  34.557  25.752  1.00  0.00     0.124 S 
ATOM    102  O   UNL A   1      47.478  34.374  25.411  1.00  0.00    -0.237 OA
ATOM    103  O   UNL A   1      45.117  34.289  24.680  1.00  0.00    -0.237 OA
ATOM    104  O   UNL A   1      45.775  35.741  26.556  1.00  0.00    -0.744 OA
ENDBRANCH 100 101
ENDBRANCH  68  93
ENDBRANCH  42  43
ENDBRANCH  34  37
ENDBRANCH  32  33
ENDBRANCH  31  32
ENDBRANCH  30  31
ENDBRANCH  29  30
ENDBRANCH   1  29
TORSDOF 21
ENDMDL
MODEL 2
REMARK VINA RESULT:     -11.8      1.775      4.143
REMARK SMILES C[N@@H+]1CC[N@H+](Cc2ccc(C#CC(C)(C)O)s2)C[C@H]1C(=O)NCCCCCCNC(=O)c1ccc(-c2c3nc(c(-c4c(F)cc(S(=O)(=O)[O-])cc4F)c4ccc([nH]4)c(-c4c(F)cc(S(=O)(=O)[O-])cc4F)c4nc(c(-c5c(F)cc(S(=O)(=O)[O-])cc5F)c5ccc2[nH]5)C=C4)C=C3)cc1
REMARK SMILES IDX 24 1 23 2 22 3 20 4 21 5 19 7 1 8 2 9 3 10 4 12 18 13 5 14
REMARK SMILES IDX 6 16 7 17 8 18 17 19 9 20 10 21 11 22 12 23 13 24 14 25
REMARK SMILES IDX 15 26 16 27 25 29 26 30 27 31 28 32 29 33 30 34 31 36 32 37
REMARK SMILES IDX 33 38 97 39 34 40 96 41 35 42 36 43 37 44 90 45 38 46 95 47
REMARK SMILES IDX 89 48 91 49 39 50 94 51 88 52 87 53 40 55 74 56 53 57 73 58
REMARK SMILES IDX 54 59 57 60 72 61 92 62 55 63 56 64 71 66 93 67 58 68 41 69
REMARK SMILES IDX 42 70 51 71 43 72 44 73 50 74 52 75 45 76 46 77 47 78 48 79
REMARK SMILES IDX 49 80 75 81 76 82 85 83 77 84 78 85 84 86 86 87 79 88 80 89
REMARK SMILES IDX 81 90 82 91 83 92 59 93 60 94 69 95 61 96 62 97 68 98 70 99
REMARK SMILES IDX 63 100 64 101 65 102 66 103 67 104
REMARK H PARENT 22 6 2 11 5 15 16 28 29 35 91 54 57 65
REMARK Flexibility Score: inf
ROOT
ATOM      1  C   UNL A   1      31.414  27.458  26.949  1.00  0.00     0.021 C 
ENDROOT
BRANCH   1   2
ATOM      2  C   UNL A   1      31.807  26.112  26.352  1.00  0.00     0.116 C 
BRANCH   2   3
ATOM      3  N   UNL A   1      31.053  25.026  26.947  1.00  0.00    -0.351 N 
ATOM      4  C   UNL A   1      31.142  23.690  26.684  1.00  0.00     0.284 C 
ATOM      5  O   UNL A   1      30.377  22.928  27.284  1.00  0.00    -0.268 OA
ATOM      6  H   UNL A   1      30.394  25.285  27.630  1.00  0.00     0.163 HD
BRANCH   4   7
ATOM      7  C   UNL A   1      32.219  23.157  25.724  1.00  0.00     0.329 C 
ATOM      8  C   UNL A   1      33.359  21.734  27.341  1.00  0.00     0.333 C 
ATOM      9  N   UNL A   1      32.619  21.768  26.074  1.00  0.00    -0.318 N 
ATOM     10  C   UNL A   1      33.415  21.148  25.004  1.00  0.00     0.325 C 
ATOM     11  H   UNL A   1      31.760  21.227  26.184  1.00  0.00     0.348 HD
ATOM     12  C   UNL A   1      32.869  21.358  23.568  1.00  0.00     0.324 C 
ATOM     13  C   UNL A   1      31.684  23.353  24.274  1.00  0.00     0.339 C 
ATOM     14  N   UNL A   1      32.448  22.715  23.190  1.00  0.00    -0.320 N 
ATOM     15  H   UNL A   1      31.809  22.596  22.405  1.00  0.00     0.348 HD
BRANCH  14  16
ATOM     16  C   UNL A   1      33.478  23.562  22.573  1.00  0.00     0.310 C 
BRANCH  16  17
ATOM     17  C   UNL A   1      33.155  25.022  22.551  1.00  0.00     0.060 A 
ATOM     18  C   UNL A   1      33.771  26.057  23.227  1.00  0.00     0.022 A 
ATOM     19  S   UNL A   1      31.849  25.607  21.602  1.00  0.00    -0.126 S 
ATOM     20  C   UNL A   1      32.948  27.220  23.257  1.00  0.00     0.029 A 
ATOM     21  C   UNL A   1      31.813  27.059  22.497  1.00  0.00     0.077 A 
BRANCH  21  22
ATOM     22  C   UNL A   1      30.781  28.017  22.353  1.00  0.00    -0.053 C 
ATOM     23  C   UNL A   1      29.678  28.706  22.453  1.00  0.00    -0.063 C 
BRANCH  23  24
ATOM     24  C   UNL A   1      28.393  29.509  22.570  1.00  0.00     0.120 C 
ATOM     25  C   UNL A   1      27.300  28.644  23.194  1.00  0.00     0.056 C 
ATOM     26  C   UNL A   1      28.644  30.766  23.398  1.00  0.00     0.056 C 
BRANCH  24  27
ATOM     27  O   UNL A   1      27.983  29.884  21.259  1.00  0.00    -0.378 OA
ATOM     28  H   UNL A   1      28.758  30.155  20.742  1.00  0.00     0.212 HD
ENDBRANCH  24  27
ENDBRANCH  23  24
ENDBRANCH  21  22
ENDBRANCH  16  17
ENDBRANCH  14  16
ENDBRANCH   4   7
ENDBRANCH   2   3
ENDBRANCH   1   2
BRANCH   1  29
ATOM     29  C   UNL A   1      31.779  28.650  26.063  1.00  0.00     0.002 C 
BRANCH  29  30
ATOM     30  C   UNL A   1      31.773  30.015  26.769  1.00  0.00     0.002 C 
BRANCH  30  31
ATOM     31  C   UNL A   1      32.951  30.945  26.442  1.00  0.00     0.021 C 
BRANCH  31  32
ATOM     32  C   UNL A   1      34.125  30.785  27.391  1.00  0.00     0.116 C 
BRANCH  32  33
ATOM     33  N   UNL A   1      34.030  31.690  28.532  1.00  0.00    -0.352 N 
ATOM     34  C   UNL A   1      34.883  31.787  29.607  1.00  0.00     0.251 C 
ATOM     35  H   UNL A   1      33.261  32.304  28.534  1.00  0.00     0.163 HD
ATOM     36  O   UNL A   1      34.509  32.312  30.656  1.00  0.00    -0.269 OA
BRANCH  34  37
ATOM     37  C   UNL A   1      36.248  31.253  29.480  1.00  0.00     0.039 A 
ATOM     38  C   UNL A   1      37.331  32.095  29.215  1.00  0.00     0.014 A 
ATOM     39  C   UNL A   1      36.435  29.882  29.650  1.00  0.00     0.014 A 
ATOM     40  C   UNL A   1      38.613  31.555  29.193  1.00  0.00     0.010 A 
ATOM     41  C   UNL A   1      37.706  29.377  29.770  1.00  0.00     0.010 A 
ATOM     42  C   UNL A   1      38.795  30.195  29.489  1.00  0.00    -0.014 A 
BRANCH  42  43
ATOM     43  C   UNL A   1      40.135  29.638  29.660  1.00  0.00     0.031 A 
ATOM     44  C   UNL A   1      40.531  29.483  31.089  1.00  0.00     0.074 A 
ATOM     45  C   UNL A   1      40.826  29.089  28.635  1.00  0.00     0.049 A 
ATOM     46  N   UNL A   1      41.432  30.141  31.740  1.00  0.00    -0.248 NA
ATOM     47  C   UNL A   1      39.698  28.625  31.952  1.00  0.00     0.031 C 
ATOM     48  C   UNL A   1      40.370  28.904  27.249  1.00  0.00     0.029 A 
ATOM     49  N   UNL A   1      42.038  28.466  28.627  1.00  0.00    -0.354 N 
ATOM     50  C   UNL A   1      41.465  29.575  33.015  1.00  0.00     0.074 A 
ATOM     51  C   UNL A   1      40.240  28.840  33.152  1.00  0.00     0.031 C 
ATOM     52  C   UNL A   1      41.163  28.012  26.621  1.00  0.00     0.029 A 
ATOM     53  C   UNL A   1      42.285  27.702  27.486  1.00  0.00     0.049 A 
ATOM     54  H   UNL A   1      42.686  28.546  29.364  1.00  0.00     0.167 HD
ATOM     55  C   UNL A   1      42.638  29.500  33.708  1.00  0.00     0.037 A 
ATOM     56  C   UNL A   1      43.330  26.864  27.269  1.00  0.00     0.037 A 
ATOM     57  C   UNL A   1      43.635  30.335  33.083  1.00  0.00     0.049 A 
ATOM     58  C   UNL A   1      44.404  27.269  28.205  1.00  0.00     0.074 A 
ATOM     59  C   UNL A   1      43.853  31.685  32.920  1.00  0.00     0.029 A 
ATOM     60  N   UNL A   1      44.394  29.680  32.149  1.00  0.00    -0.354 N 
ATOM     61  N   UNL A   1      45.012  28.424  28.146  1.00  0.00    -0.248 NA
ATOM     62  C   UNL A   1      44.544  26.557  29.468  1.00  0.00     0.031 C 
ATOM     63  C   UNL A   1      44.564  31.814  31.690  1.00  0.00     0.029 A 
ATOM     64  C   UNL A   1      44.810  30.541  31.172  1.00  0.00     0.049 A 
ATOM     65  H   UNL A   1      44.612  28.719  32.177  1.00  0.00     0.167 HD
ATOM     66  C   UNL A   1      45.230  28.771  29.466  1.00  0.00     0.074 A 
ATOM     67  C   UNL A   1      45.080  27.528  30.215  1.00  0.00     0.031 C 
ATOM     68  C   UNL A   1      45.195  30.080  29.855  1.00  0.00     0.037 A 
BRANCH  55  69
ATOM     69  C   UNL A   1      43.068  28.334  34.592  1.00  0.00     0.058 A 
ATOM     70  C   UNL A   1      43.435  28.603  35.932  1.00  0.00     0.135 A 
ATOM     71  C   UNL A   1      43.447  27.060  34.114  1.00  0.00     0.135 A 
ATOM     72  F   UNL A   1      43.117  29.773  36.508  1.00  0.00    -0.206 F 
ATOM     73  C   UNL A   1      44.209  27.723  36.693  1.00  0.00     0.059 A 
ATOM     74  C   UNL A   1      44.177  26.150  34.873  1.00  0.00     0.059 A 
ATOM     75  F   UNL A   1      43.214  26.658  32.861  1.00  0.00    -0.206 F 
ATOM     76  C   UNL A   1      44.594  26.506  36.144  1.00  0.00     0.060 A 
BRANCH  76  77
ATOM     77  S   UNL A   1      45.675  25.409  37.079  1.00  0.00     0.124 S 
ATOM     78  O   UNL A   1      46.458  24.795  36.014  1.00  0.00    -0.237 OA
ATOM     79  O   UNL A   1      46.385  26.348  37.940  1.00  0.00    -0.237 OA
ATOM     80  O   UNL A   1      44.738  24.524  37.766  1.00  0.00    -0.744 OA
ENDBRANCH  76  77
ENDBRANCH  55  69
BRANCH  56  81
ATOM     81  C   UNL A   1      43.364  25.586  26.510  1.00  0.00     0.058 A 
ATOM     82  C   UNL A   1      44.237  25.390  25.423  1.00  0.00     0.135 A 
ATOM     83  C   UNL A   1      42.739  24.428  27.017  1.00  0.00     0.135 A 
ATOM     84  F   UNL A   1      44.890  26.433  24.889  1.00  0.00    -0.206 F 
ATOM     85  C   UNL A   1      44.511  24.119  24.902  1.00  0.00     0.059 A 
ATOM     86  C   UNL A   1      42.994  23.152  26.512  1.00  0.00     0.059 A 
ATOM     87  F   UNL A   1      41.931  24.498  28.086  1.00  0.00    -0.206 F 
ATOM     88  C   UNL A   1      43.898  23.001  25.468  1.00  0.00     0.060 A 
BRANCH  88  89
ATOM     89  S   UNL A   1      44.370  21.343  24.911  1.00  0.00     0.124 S 
ATOM     90  O   UNL A   1      44.496  21.533  23.471  1.00  0.00    -0.237 OA
ATOM     91  O   UNL A   1      45.617  21.116  25.635  1.00  0.00    -0.237 OA
ATOM     92  O   UNL A   1      43.247  20.510  25.335  1.00  0.00    -0.744 OA
ENDBRANCH  88  89
ENDBRANCH  56  81
BRANCH  68  93
ATOM     93  C   UNL A   1      45.432  31.127  28.803  1.00  0.00     0.058 A 
ATOM     94  C   UNL A   1      44.439  31.721  28.008  1.00  0.00     0.135 A 
ATOM     95  C   UNL A   1      46.738  31.627  28.685  1.00  0.00     0.135 A 
ATOM     96  F   UNL A   1      43.154  31.357  28.122  1.00  0.00    -0.206 F 
ATOM     97  C   UNL A   1      44.740  32.749  27.110  1.00  0.00     0.059 A 
ATOM     98  C   UNL A   1      47.054  32.669  27.823  1.00  0.00     0.059 A 
ATOM     99  F   UNL A   1      47.719  31.132  29.457  1.00  0.00    -0.206 F 
ATOM    100  C   UNL A   1      46.051  33.217  27.027  1.00  0.00     0.060 A 
BRANCH 100 101
ATOM    101  S   UNL A   1      46.433  34.589  25.918  1.00  0.00     0.124 S 
ATOM    102  O   UNL A   1      46.344  35.739  26.811  1.00  0.00    -0.237 OA
ATOM    103  O   UNL A   1      47.774  34.251  25.448  1.00  0.00    -0.237 OA
ATOM    104  O   UNL A   1      45.388  34.508  24.900  1.00  0.00    -0.744 OA
ENDBRANCH 100 101
ENDBRANCH  68  93
ENDBRANCH  42  43
ENDBRANCH  34  37
ENDBRANCH  32  33
ENDBRANCH  31  32
ENDBRANCH  30  31
ENDBRANCH  29  30
ENDBRANCH   1  29
TORSDOF 21
ENDMDL
MODEL 3
REMARK VINA RESULT:     -11.4      1.943      2.616
REMARK SMILES C[N@@H+]1CC[N@H+](Cc2ccc(C#CC(C)(C)O)s2)C[C@H]1C(=O)NCCCCCCNC(=O)c1ccc(-c2c3nc(c(-c4c(F)cc(S(=O)(=O)[O-])cc4F)c4ccc([nH]4)c(-c4c(F)cc(S(=O)(=O)[O-])cc4F)c4nc(c(-c5c(F)cc(S(=O)(=O)[O-])cc5F)c5ccc2[nH]5)C=C4)C=C3)cc1
REMARK SMILES IDX 24 1 23 2 22 3 20 4 21 5 19 7 1 8 2 9 3 10 4 12 18 13 5 14
REMARK SMILES IDX 6 16 7 17 8 18 17 19 9 20 10 21 11 22 12 23 13 24 14 25
REMARK SMILES IDX 15 26 16 27 25 29 26 30 27 31 28 32 29 33 30 34 31 36 32 37
REMARK SMILES IDX 33 38 97 39 34 40 96 41 35 42 36 43 37 44 90 45 38 46 95 47
REMARK SMILES IDX 89 48 91 49 39 50 94 51 88 52 87 53 40 55 74 56 53 57 73 58
REMARK SMILES IDX 54 59 57 60 72 61 92 62 55 63 56 64 71 66 93 67 58 68 41 69
REMARK SMILES IDX 42 70 51 71 43 72 44 73 50 74 52 75 45 76 46 77 47 78 48 79
REMARK SMILES IDX 49 80 75 81 76 82 85 83 77 84 78 85 84 86 86 87 79 88 80 89
REMARK SMILES IDX 81 90 82 91 83 92 59 93 60 94 69 95 61 96 62 97 68 98 70 99
REMARK SMILES IDX 63 100 64 101 65 102 66 103 67 104
REMARK H PARENT 22 6 2 11 5 15 16 28 29 35 91 54 57 65
REMARK Flexibility Score: inf
ROOT
ATOM      1  C   UNL A   1      34.992  29.779  27.829  1.00  0.00     0.021 C 
ENDROOT
BRANCH   1   2
ATOM      2  C   UNL A   1      34.698  29.197  26.452  1.00  0.00     0.116 C 
BRANCH   2   3
ATOM      3  N   UNL A   1      33.476  29.742  25.894  1.00  0.00    -0.351 N 
ATOM      4  C   UNL A   1      32.545  29.113  25.120  1.00  0.00     0.284 C 
ATOM      5  O   UNL A   1      31.583  29.775  24.717  1.00  0.00    -0.268 OA
ATOM      6  H   UNL A   1      33.293  30.686  26.102  1.00  0.00     0.163 HD
BRANCH   4   7
ATOM      7  C   UNL A   1      32.663  27.608  24.831  1.00  0.00     0.329 C 
ATOM      8  C   UNL A   1      33.340  27.820  22.499  1.00  0.00     0.333 C 
ATOM      9  N   UNL A   1      33.725  27.329  23.828  1.00  0.00    -0.318 N 
ATOM     10  C   UNL A   1      34.048  25.895  23.766  1.00  0.00     0.325 C 
ATOM     11  H   UNL A   1      34.562  27.829  24.129  1.00  0.00     0.348 HD
ATOM     12  C   UNL A   1      34.207  25.194  25.139  1.00  0.00     0.324 C 
ATOM     13  C   UNL A   1      32.832  26.885  26.201  1.00  0.00     0.339 C 
ATOM     14  N   UNL A   1      33.185  25.458  26.162  1.00  0.00    -0.320 N 
ATOM     15  H   UNL A   1      33.626  25.235  27.054  1.00  0.00     0.348 HD
BRANCH  14  16
ATOM     16  C   UNL A   1      32.044  24.533  26.189  1.00  0.00     0.310 C 
BRANCH  16  17
ATOM     17  C   UNL A   1      32.405  23.101  26.423  1.00  0.00     0.060 A 
ATOM     18  C   UNL A   1      33.263  22.565  27.362  1.00  0.00     0.022 A 
ATOM     19  S   UNL A   1      31.734  21.866  25.438  1.00  0.00    -0.126 S 
ATOM     20  C   UNL A   1      33.642  21.235  27.021  1.00  0.00     0.029 A 
ATOM     21  C   UNL A   1      32.956  20.778  25.919  1.00  0.00     0.077 A 
BRANCH  21  22
ATOM     22  C   UNL A   1      33.132  19.512  25.311  1.00  0.00    -0.053 C 
ATOM     23  C   UNL A   1      33.547  18.322  24.976  1.00  0.00    -0.063 C 
BRANCH  23  24
ATOM     24  C   UNL A   1      34.031  16.936  24.584  1.00  0.00     0.120 C 
ATOM     25  C   UNL A   1      33.084  15.881  25.152  1.00  0.00     0.056 C 
ATOM     26  C   UNL A   1      34.126  16.833  23.064  1.00  0.00     0.056 C 
BRANCH  24  27
ATOM     27  O   UNL A   1      35.323  16.739  25.149  1.00  0.00    -0.378 OA
ATOM     28  H   UNL A   1      35.868  17.526  24.993  1.00  0.00     0.212 HD
ENDBRANCH  24  27
ENDBRANCH  23  24
ENDBRANCH  21  22
ENDBRANCH  16  17
ENDBRANCH  14  16
ENDBRANCH   4   7
ENDBRANCH   2   3
ENDBRANCH   1   2
BRANCH   1  29
ATOM     29  C   UNL A   1      35.041  31.308  27.849  1.00  0.00     0.002 C 
BRANCH  29  30
ATOM     30  C   UNL A   1      33.704  32.002  28.151  1.00  0.00     0.002 C 
BRANCH  30  31
ATOM     31  C   UNL A   1      33.679  33.525  27.956  1.00  0.00     0.021 C 
BRANCH  31  32
ATOM     32  C   UNL A   1      34.760  34.250  28.737  1.00  0.00     0.116 C 
BRANCH  32  33
ATOM     33  N   UNL A   1      34.271  34.729  30.026  1.00  0.00    -0.352 N 
ATOM     34  C   UNL A   1      34.529  34.209  31.273  1.00  0.00     0.251 C 
ATOM     35  H   UNL A   1      33.685  35.520  30.000  1.00  0.00     0.163 HD
ATOM     36  O   UNL A   1      33.787  34.465  32.223  1.00  0.00    -0.269 OA
BRANCH  34  37
ATOM     37  C   UNL A   1      35.705  33.344  31.453  1.00  0.00     0.039 A 
ATOM     38  C   UNL A   1      35.574  31.956  31.539  1.00  0.00     0.014 A 
ATOM     39  C   UNL A   1      36.960  33.948  31.518  1.00  0.00     0.014 A 
ATOM     40  C   UNL A   1      36.724  31.176  31.619  1.00  0.00     0.010 A 
ATOM     41  C   UNL A   1      38.092  33.176  31.452  1.00  0.00     0.010 A 
ATOM     42  C   UNL A   1      37.983  31.794  31.557  1.00  0.00    -0.014 A 
BRANCH  42  43
ATOM     43  C   UNL A   1      39.204  30.997  31.448  1.00  0.00     0.031 A 
ATOM     44  C   UNL A   1      39.881  30.773  32.757  1.00  0.00     0.074 A 
ATOM     45  C   UNL A   1      39.531  30.327  30.320  1.00  0.00     0.049 A 
ATOM     46  N   UNL A   1      41.010  31.253  33.160  1.00  0.00    -0.248 NA
ATOM     47  C   UNL A   1      39.125  30.088  33.822  1.00  0.00     0.031 C 
ATOM     48  C   UNL A   1      38.744  30.227  29.081  1.00  0.00     0.029 A 
ATOM     49  N   UNL A   1      40.575  29.488  30.069  1.00  0.00    -0.354 N 
ATOM     50  C   UNL A   1      41.230  30.693  34.420  1.00  0.00     0.074 A 
ATOM     51  C   UNL A   1      39.956  30.200  34.860  1.00  0.00     0.031 C 
ATOM     52  C   UNL A   1      39.198  29.201  28.331  1.00  0.00     0.029 A 
ATOM     53  C   UNL A   1      40.412  28.688  28.937  1.00  0.00     0.049 A 
ATOM     54  H   UNL A   1      41.378  29.447  30.638  1.00  0.00     0.167 HD
ATOM     55  C   UNL A   1      42.497  30.402  34.835  1.00  0.00     0.037 A 
ATOM     56  C   UNL A   1      41.210  27.669  28.528  1.00  0.00     0.037 A 
ATOM     57  C   UNL A   1      43.459  31.034  33.966  1.00  0.00     0.049 A 
ATOM     58  C   UNL A   1      42.525  27.869  29.181  1.00  0.00     0.074 A 
ATOM     59  C   UNL A   1      43.875  32.320  33.697  1.00  0.00     0.029 A 
ATOM     60  N   UNL A   1      43.853  30.247  32.915  1.00  0.00    -0.354 N 
ATOM     61  N   UNL A   1      43.302  28.890  28.936  1.00  0.00    -0.248 NA
ATOM     62  C   UNL A   1      42.818  27.146  30.411  1.00  0.00     0.031 C 
ATOM     63  C   UNL A   1      44.299  32.311  32.335  1.00  0.00     0.029 A 
ATOM     64  C   UNL A   1      44.184  31.014  31.833  1.00  0.00     0.049 A 
ATOM     65  H   UNL A   1      43.893  29.263  32.936  1.00  0.00     0.167 HD
ATOM     66  C   UNL A   1      43.875  29.193  30.157  1.00  0.00     0.074 A 
ATOM     67  C   UNL A   1      43.677  28.001  30.975  1.00  0.00     0.031 C 
ATOM     68  C   UNL A   1      44.168  30.486  30.485  1.00  0.00     0.037 A 
BRANCH  55  69
ATOM     69  C   UNL A   1      42.898  29.178  35.651  1.00  0.00     0.058 A 
ATOM     70  C   UNL A   1      43.832  29.344  36.701  1.00  0.00     0.135 A 
ATOM     71  C   UNL A   1      42.679  27.840  35.255  1.00  0.00     0.135 A 
ATOM     72  F   UNL A   1      44.115  30.567  37.179  1.00  0.00    -0.206 F 
ATOM     73  C   UNL A   1      44.565  28.281  37.235  1.00  0.00     0.059 A 
ATOM     74  C   UNL A   1      43.364  26.762  35.807  1.00  0.00     0.059 A 
ATOM     75  F   UNL A   1      41.859  27.507  34.253  1.00  0.00    -0.206 F 
ATOM     76  C   UNL A   1      44.337  26.993  36.764  1.00  0.00     0.060 A 
BRANCH  76  77
ATOM     77  S   UNL A   1      45.346  25.631  37.372  1.00  0.00     0.124 S 
ATOM     78  O   UNL A   1      46.557  26.328  37.787  1.00  0.00    -0.237 OA
ATOM     79  O   UNL A   1      44.515  25.093  38.443  1.00  0.00    -0.237 OA
ATOM     80  O   UNL A   1      45.484  24.769  36.200  1.00  0.00    -0.744 OA
ENDBRANCH  76  77
ENDBRANCH  55  69
BRANCH  56  81
ATOM     81  C   UNL A   1      40.837  26.406  27.838  1.00  0.00     0.058 A 
ATOM     82  C   UNL A   1      41.637  25.852  26.821  1.00  0.00     0.135 A 
ATOM     83  C   UNL A   1      39.833  25.567  28.363  1.00  0.00     0.135 A 
ATOM     84  F   UNL A   1      42.629  26.571  26.278  1.00  0.00    -0.206 F 
ATOM     85  C   UNL A   1      41.481  24.529  26.384  1.00  0.00     0.059 A 
ATOM     86  C   UNL A   1      39.657  24.248  27.941  1.00  0.00     0.059 A 
ATOM     87  F   UNL A   1      39.053  25.981  29.373  1.00  0.00    -0.206 F 
ATOM     88  C   UNL A   1      40.499  23.727  26.966  1.00  0.00     0.060 A 
BRANCH  88  89
ATOM     89  S   UNL A   1      40.399  21.973  26.525  1.00  0.00     0.124 S 
ATOM     90  O   UNL A   1      41.493  21.839  25.570  1.00  0.00    -0.237 OA
ATOM     91  O   UNL A   1      40.595  21.318  27.814  1.00  0.00    -0.237 OA
ATOM     92  O   UNL A   1      39.058  21.841  25.960  1.00  0.00    -0.744 OA
ENDBRANCH  88  89
ENDBRANCH  56  81
BRANCH  68  93
ATOM     93  C   UNL A   1      44.345  31.468  29.361  1.00  0.00     0.058 A 
ATOM     94  C   UNL A   1      43.407  32.438  28.973  1.00  0.00     0.135 A 
ATOM     95  C   UNL A   1      45.593  31.486  28.720  1.00  0.00     0.135 A 
ATOM     96  F   UNL A   1      42.223  32.541  29.593  1.00  0.00    -0.206 F 
ATOM     97  C   UNL A   1      43.689  33.367  27.968  1.00  0.00     0.059 A 
ATOM     98  C   UNL A   1      45.908  32.420  27.742  1.00  0.00     0.059 A 
ATOM     99  F   UNL A   1      46.548  30.614  29.085  1.00  0.00    -0.206 F 
ATOM    100  C   UNL A   1      44.944  33.350  27.360  1.00  0.00     0.060 A 
BRANCH 100 101
ATOM    101  S   UNL A   1      45.339  34.589  26.108  1.00  0.00     0.124 S 
ATOM    102  O   UNL A   1      45.503  35.796  26.911  1.00  0.00    -0.237 OA
ATOM    103  O   UNL A   1      46.558  34.055  25.507  1.00  0.00    -0.237 OA
ATOM    104  O   UNL A   1      44.169  34.577  25.233  1.00  0.00    -0.744 OA
ENDBRANCH 100 101
ENDBRANCH  68  93
ENDBRANCH  42  43
ENDBRANCH  34  37
ENDBRANCH  32  33
ENDBRANCH  31  32
ENDBRANCH  30  31
ENDBRANCH  29  30
ENDBRANCH   1  29
TORSDOF 21
ENDMDL
