MODEL 1
REMARK VINA RESULT:     -12.3      0.000      0.000
REMARK SMILES Cc1cc([N+](=O)[O-])ccc1N1CCC(CC(=O)NCCCCCCNC(=O)c2ccc(-c3c4nc(c(-c5c(F)cc(S(=O)(=O)[O-])cc5F)c5ccc([nH]5)c(-c5c(F)cc(S(=O)(=O)[O-])cc5F)c5nc(c(-c6c(F)cc(S(=O)(=O)[O-])cc6F)c6ccc3[nH]6)C=C5)C=C4)cc2)CC1
REMARK SMILES IDX 21 1 20 2 19 3 18 4 16 5 17 6 15 8 14 9 11 10 12 11 95 12
REMARK SMILES IDX 13 13 94 14 10 15 1 16 2 17 3 18 4 19 9 20 8 21 5 22 6 23
REMARK SMILES IDX 7 24 22 25 23 26 24 27 25 28 26 29 27 31 28 32 29 33 93 34
REMARK SMILES IDX 30 35 92 36 31 37 32 38 33 39 86 40 34 41 91 42 85 43 87 44
REMARK SMILES IDX 35 45 90 46 84 47 83 48 36 50 70 51 49 52 69 53 50 54 53 55
REMARK SMILES IDX 68 56 88 57 51 58 52 59 67 61 89 62 54 63 37 64 38 65 47 66
REMARK SMILES IDX 39 67 40 68 46 69 48 70 41 71 42 72 43 73 44 74 45 75 71 76
REMARK SMILES IDX 72 77 81 78 73 79 74 80 80 81 82 82 75 83 76 84 77 85 78 86
REMARK SMILES IDX 79 87 55 88 56 89 65 90 57 91 58 92 64 93 66 94 59 95 60 96
REMARK SMILES IDX 61 97 62 98 63 99
REMARK H PARENT 18 7 25 30 87 49 53 60
REMARK Flexibility Score: inf
ROOT
ATOM      1  C   UNL A   1      35.083  33.368  28.707  1.00  0.00     0.002 C 
ENDROOT
BRANCH   1   2
ATOM      2  C   UNL A   1      34.055  32.276  28.485  1.00  0.00     0.021 C 
BRANCH   2   3
ATOM      3  C   UNL A   1      34.512  31.131  27.582  1.00  0.00     0.116 C 
BRANCH   3   4
ATOM      4  N   UNL A   1      33.666  29.971  27.800  1.00  0.00    -0.356 N 
ATOM      5  C   UNL A   1      32.543  29.557  27.147  1.00  0.00     0.220 C 
ATOM      6  O   UNL A   1      31.878  28.650  27.652  1.00  0.00    -0.275 OA
ATOM      7  H   UNL A   1      33.950  29.388  28.541  1.00  0.00     0.163 HD
BRANCH   5   8
ATOM      8  C   UNL A   1      32.146  30.152  25.802  1.00  0.00     0.103 C 
BRANCH   8   9
ATOM      9  C   UNL A   1      32.291  29.226  24.570  1.00  0.00     0.002 C 
ATOM     10  N   UNL A   1      32.329  26.433  23.913  1.00  0.00    -0.371 N 
ATOM     11  C   UNL A   1      33.596  27.125  23.799  1.00  0.00     0.117 C 
ATOM     12  C   UNL A   1      31.161  27.173  23.469  1.00  0.00     0.117 C 
ATOM     13  C   UNL A   1      33.520  28.326  24.718  1.00  0.00     0.025 C 
ATOM     14  C   UNL A   1      30.996  28.397  24.384  1.00  0.00     0.025 C 
BRANCH  10  15
ATOM     15  C   UNL A   1      32.365  25.060  24.024  1.00  0.00     0.040 A 
ATOM     16  C   UNL A   1      32.236  25.081  26.578  1.00  0.00     0.047 C 
ATOM     17  C   UNL A   1      32.295  24.376  25.250  1.00  0.00    -0.021 A 
ATOM     18  C   UNL A   1      32.250  22.966  25.259  1.00  0.00     0.091 A 
ATOM     19  C   UNL A   1      32.245  22.248  24.057  1.00  0.00     0.269 A 
ATOM     20  C   UNL A   1      32.356  24.313  22.831  1.00  0.00     0.033 A 
ATOM     21  C   UNL A   1      32.293  22.919  22.835  1.00  0.00     0.088 A 
BRANCH  19  22
ATOM     22  N   UNL A   1      32.187  20.781  24.077  1.00  0.00     0.062 N 
ATOM     23  O   UNL A   1      31.855  20.229  25.134  1.00  0.00    -0.258 OA
ATOM     24  O   UNL A   1      32.499  20.179  23.038  1.00  0.00    -0.258 OA
ENDBRANCH  19  22
ENDBRANCH  10  15
ENDBRANCH   8   9
ENDBRANCH   5   8
ENDBRANCH   3   4
ENDBRANCH   2   3
ENDBRANCH   1   2
BRANCH   1  25
ATOM     25  C   UNL A   1      36.271  32.989  29.590  1.00  0.00     0.002 C 
BRANCH  25  26
ATOM     26  C   UNL A   1      36.015  32.042  30.775  1.00  0.00     0.021 C 
BRANCH  26  27
ATOM     27  C   UNL A   1      37.236  31.379  31.390  1.00  0.00     0.116 C 
BRANCH  27  28
ATOM     28  N   UNL A   1      38.380  31.637  30.577  1.00  0.00    -0.352 N 
ATOM     29  C   UNL A   1      38.988  30.894  29.610  1.00  0.00     0.251 C 
ATOM     30  H   UNL A   1      38.808  32.507  30.746  1.00  0.00     0.163 HD
ATOM     31  O   UNL A   1      40.128  31.248  29.348  1.00  0.00    -0.269 OA
BRANCH  29  32
ATOM     32  C   UNL A   1      38.161  29.987  28.682  1.00  0.00     0.039 A 
ATOM     33  C   UNL A   1      37.861  28.832  29.417  1.00  0.00     0.014 A 
ATOM     34  C   UNL A   1      38.893  29.758  27.516  1.00  0.00     0.014 A 
ATOM     35  C   UNL A   1      38.889  27.911  29.571  1.00  0.00     0.010 A 
ATOM     36  C   UNL A   1      39.994  28.960  27.677  1.00  0.00     0.010 A 
ATOM     37  C   UNL A   1      40.026  28.133  28.802  1.00  0.00    -0.014 A 
BRANCH  37  38
ATOM     38  C   UNL A   1      41.320  27.573  29.090  1.00  0.00     0.031 A 
ATOM     39  C   UNL A   1      41.435  26.149  28.753  1.00  0.00     0.074 A 
ATOM     40  C   UNL A   1      42.283  28.441  29.485  1.00  0.00     0.049 A 
ATOM     41  N   UNL A   1      42.297  25.329  29.223  1.00  0.00    -0.248 NA
ATOM     42  C   UNL A   1      40.447  25.492  27.886  1.00  0.00     0.031 C 
ATOM     43  C   UNL A   1      43.727  28.245  29.586  1.00  0.00     0.029 A 
ATOM     44  N   UNL A   1      42.095  29.698  30.089  1.00  0.00    -0.354 N 
ATOM     45  C   UNL A   1      42.208  24.176  28.463  1.00  0.00     0.074 A 
ATOM     46  C   UNL A   1      40.942  24.259  27.796  1.00  0.00     0.031 C 
ATOM     47  C   UNL A   1      44.212  29.130  30.484  1.00  0.00     0.029 A 
ATOM     48  C   UNL A   1      43.058  29.784  31.098  1.00  0.00     0.049 A 
ATOM     49  H   UNL A   1      41.422  30.375  29.851  1.00  0.00     0.167 HD
ATOM     50  C   UNL A   1      43.329  23.410  28.338  1.00  0.00     0.037 A 
ATOM     51  C   UNL A   1      42.728  29.667  32.423  1.00  0.00     0.037 A 
ATOM     52  C   UNL A   1      44.349  23.942  29.249  1.00  0.00     0.049 A 
ATOM     53  C   UNL A   1      43.362  28.401  32.996  1.00  0.00     0.074 A 
ATOM     54  C   UNL A   1      45.377  24.848  29.045  1.00  0.00     0.029 A 
ATOM     55  N   UNL A   1      44.096  23.936  30.620  1.00  0.00    -0.354 N 
ATOM     56  N   UNL A   1      43.538  27.285  32.330  1.00  0.00    -0.248 NA
ATOM     57  C   UNL A   1      43.948  28.356  34.333  1.00  0.00     0.031 C 
ATOM     58  C   UNL A   1      45.647  25.481  30.292  1.00  0.00     0.029 A 
ATOM     59  C   UNL A   1      44.801  24.948  31.252  1.00  0.00     0.049 A 
ATOM     60  H   UNL A   1      43.499  23.300  31.076  1.00  0.00     0.167 HD
ATOM     61  C   UNL A   1      44.264  26.407  33.098  1.00  0.00     0.074 A 
ATOM     62  C   UNL A   1      44.493  27.128  34.341  1.00  0.00     0.031 C 
ATOM     63  C   UNL A   1      44.661  25.163  32.687  1.00  0.00     0.037 A 
BRANCH  50  64
ATOM     64  C   UNL A   1      43.619  22.444  27.196  1.00  0.00     0.058 A 
ATOM     65  C   UNL A   1      42.920  21.217  27.131  1.00  0.00     0.135 A 
ATOM     66  C   UNL A   1      44.598  22.595  26.188  1.00  0.00     0.135 A 
ATOM     67  F   UNL A   1      41.926  20.935  27.985  1.00  0.00    -0.206 F 
ATOM     68  C   UNL A   1      43.206  20.215  26.196  1.00  0.00     0.059 A 
ATOM     69  C   UNL A   1      44.919  21.601  25.256  1.00  0.00     0.059 A 
ATOM     70  F   UNL A   1      45.285  23.725  26.016  1.00  0.00    -0.206 F 
ATOM     71  C   UNL A   1      44.220  20.408  25.269  1.00  0.00     0.060 A 
BRANCH  71  72
ATOM     72  S   UNL A   1      44.578  19.112  24.073  1.00  0.00     0.124 S 
ATOM     73  O   UNL A   1      45.935  18.722  24.443  1.00  0.00    -0.237 OA
ATOM     74  O   UNL A   1      43.534  18.134  24.360  1.00  0.00    -0.237 OA
ATOM     75  O   UNL A   1      44.456  19.789  22.784  1.00  0.00    -0.744 OA
ENDBRANCH  71  72
ENDBRANCH  50  64
BRANCH  51  76
ATOM     76  C   UNL A   1      41.381  30.215  32.819  1.00  0.00     0.058 A 
ATOM     77  C   UNL A   1      40.423  29.355  33.404  1.00  0.00     0.135 A 
ATOM     78  C   UNL A   1      41.125  31.588  32.927  1.00  0.00     0.135 A 
ATOM     79  F   UNL A   1      40.579  28.023  33.311  1.00  0.00    -0.206 F 
ATOM     80  C   UNL A   1      39.347  29.830  34.167  1.00  0.00     0.059 A 
ATOM     81  C   UNL A   1      40.058  32.089  33.691  1.00  0.00     0.059 A 
ATOM     82  F   UNL A   1      41.970  32.476  32.383  1.00  0.00    -0.206 F 
ATOM     83  C   UNL A   1      39.208  31.204  34.360  1.00  0.00     0.060 A 
BRANCH  83  84
ATOM     84  S   UNL A   1      38.052  31.806  35.636  1.00  0.00     0.124 S 
ATOM     85  O   UNL A   1      38.864  32.794  36.339  1.00  0.00    -0.237 OA
ATOM     86  O   UNL A   1      36.934  32.354  34.873  1.00  0.00    -0.237 OA
ATOM     87  O   UNL A   1      37.732  30.605  36.403  1.00  0.00    -0.744 OA
ENDBRANCH  83  84
ENDBRANCH  51  76
BRANCH  63  88
ATOM     88  C   UNL A   1      45.044  24.036  33.628  1.00  0.00     0.058 A 
ATOM     89  C   UNL A   1      44.172  22.992  33.981  1.00  0.00     0.135 A 
ATOM     90  C   UNL A   1      46.382  23.881  34.073  1.00  0.00     0.135 A 
ATOM     91  F   UNL A   1      42.918  22.933  33.512  1.00  0.00    -0.206 F 
ATOM     92  C   UNL A   1      44.562  21.933  34.798  1.00  0.00     0.059 A 
ATOM     93  C   UNL A   1      46.813  22.788  34.818  1.00  0.00     0.059 A 
ATOM     94  F   UNL A   1      47.335  24.780  33.782  1.00  0.00    -0.206 F 
ATOM     95  C   UNL A   1      45.884  21.841  35.214  1.00  0.00     0.060 A 
BRANCH  95  96
ATOM     96  S   UNL A   1      46.382  20.465  36.257  1.00  0.00     0.124 S 
ATOM     97  O   UNL A   1      45.718  19.347  35.594  1.00  0.00    -0.237 OA
ATOM     98  O   UNL A   1      47.838  20.490  36.146  1.00  0.00    -0.237 OA
ATOM     99  O   UNL A   1      45.855  20.825  37.569  1.00  0.00    -0.744 OA
ENDBRANCH  95  96
ENDBRANCH  63  88
ENDBRANCH  37  38
ENDBRANCH  29  32
ENDBRANCH  27  28
ENDBRANCH  26  27
ENDBRANCH  25  26
ENDBRANCH   1  25
TORSDOF 19
ENDMDL
MODEL 2
REMARK VINA RESULT:     -11.5      3.996     10.756
REMARK SMILES Cc1cc([N+](=O)[O-])ccc1N1CCC(CC(=O)NCCCCCCNC(=O)c2ccc(-c3c4nc(c(-c5c(F)cc(S(=O)(=O)[O-])cc5F)c5ccc([nH]5)c(-c5c(F)cc(S(=O)(=O)[O-])cc5F)c5nc(c(-c6c(F)cc(S(=O)(=O)[O-])cc6F)c6ccc3[nH]6)C=C5)C=C4)cc2)CC1
REMARK SMILES IDX 21 1 20 2 19 3 18 4 16 5 17 6 15 8 14 9 11 10 12 11 95 12
REMARK SMILES IDX 13 13 94 14 10 15 1 16 2 17 3 18 4 19 9 20 8 21 5 22 6 23
REMARK SMILES IDX 7 24 22 25 23 26 24 27 25 28 26 29 27 31 28 32 29 33 93 34
REMARK SMILES IDX 30 35 92 36 31 37 32 38 33 39 86 40 34 41 91 42 85 43 87 44
REMARK SMILES IDX 35 45 90 46 84 47 83 48 36 50 70 51 49 52 69 53 50 54 53 55
REMARK SMILES IDX 68 56 88 57 51 58 52 59 67 61 89 62 54 63 37 64 38 65 47 66
REMARK SMILES IDX 39 67 40 68 46 69 48 70 41 71 42 72 43 73 44 74 45 75 71 76
REMARK SMILES IDX 72 77 81 78 73 79 74 80 80 81 82 82 75 83 76 84 77 85 78 86
REMARK SMILES IDX 79 87 55 88 56 89 65 90 57 91 58 92 64 93 66 94 59 95 60 96
REMARK SMILES IDX 61 97 62 98 63 99
REMARK H PARENT 18 7 25 30 87 49 53 60
REMARK Flexibility Score: inf
ROOT
ATOM      1  C   UNL A   1      39.175  20.610  25.750  1.00  0.00     0.002 C 
ENDROOT
BRANCH   1   2
ATOM      2  C   UNL A   1      38.080  19.824  25.056  1.00  0.00     0.021 C 
BRANCH   2   3
ATOM      3  C   UNL A   1      36.784  20.597  24.813  1.00  0.00     0.116 C 
BRANCH   3   4
ATOM      4  N   UNL A   1      37.033  21.685  23.884  1.00  0.00    -0.356 N 
ATOM      5  C   UNL A   1      36.556  22.962  23.865  1.00  0.00     0.220 C 
ATOM      6  O   UNL A   1      36.747  23.639  22.853  1.00  0.00    -0.275 OA
ATOM      7  H   UNL A   1      37.648  21.465  23.147  1.00  0.00     0.163 HD
BRANCH   5   8
ATOM      8  C   UNL A   1      35.856  23.562  25.078  1.00  0.00     0.103 C 
BRANCH   8   9
ATOM      9  C   UNL A   1      34.308  23.593  25.035  1.00  0.00     0.002 C 
ATOM     10  N   UNL A   1      32.166  25.327  24.236  1.00  0.00    -0.371 N 
ATOM     11  C   UNL A   1      32.327  25.139  25.662  1.00  0.00     0.117 C 
ATOM     12  C   UNL A   1      32.365  24.146  23.415  1.00  0.00     0.117 C 
ATOM     13  C   UNL A   1      33.771  24.743  25.889  1.00  0.00     0.025 C 
ATOM     14  C   UNL A   1      33.829  23.702  23.566  1.00  0.00     0.025 C 
BRANCH  10  15
ATOM     15  C   UNL A   1      31.463  26.437  23.818  1.00  0.00     0.040 A 
ATOM     16  C   UNL A   1      33.538  27.649  22.944  1.00  0.00     0.047 C 
ATOM     17  C   UNL A   1      32.057  27.540  23.180  1.00  0.00    -0.021 A 
ATOM     18  C   UNL A   1      31.243  28.592  22.709  1.00  0.00     0.091 A 
ATOM     19  C   UNL A   1      29.852  28.529  22.845  1.00  0.00     0.269 A 
ATOM     20  C   UNL A   1      30.061  26.399  23.940  1.00  0.00     0.033 A 
ATOM     21  C   UNL A   1      29.251  27.428  23.458  1.00  0.00     0.088 A 
BRANCH  19  22
ATOM     22  N   UNL A   1      29.013  29.624  22.342  1.00  0.00     0.062 N 
ATOM     23  O   UNL A   1      28.134  30.072  23.091  1.00  0.00    -0.258 OA
ATOM     24  O   UNL A   1      29.217  30.020  21.184  1.00  0.00    -0.258 OA
ENDBRANCH  19  22
ENDBRANCH  10  15
ENDBRANCH   8   9
ENDBRANCH   5   8
ENDBRANCH   3   4
ENDBRANCH   2   3
ENDBRANCH   1   2
BRANCH   1  25
ATOM     25  C   UNL A   1      40.454  19.831  26.059  1.00  0.00     0.002 C 
BRANCH  25  26
ATOM     26  C   UNL A   1      41.547  20.537  26.877  1.00  0.00     0.021 C 
BRANCH  26  27
ATOM     27  C   UNL A   1      41.153  21.017  28.265  1.00  0.00     0.116 C 
BRANCH  27  28
ATOM     28  N   UNL A   1      41.727  22.302  28.507  1.00  0.00    -0.352 N 
ATOM     29  C   UNL A   1      41.719  23.449  27.771  1.00  0.00     0.251 C 
ATOM     30  H   UNL A   1      42.217  22.371  29.357  1.00  0.00     0.163 HD
ATOM     31  O   UNL A   1      42.576  24.257  28.094  1.00  0.00    -0.269 OA
BRANCH  29  32
ATOM     32  C   UNL A   1      40.495  23.825  26.918  1.00  0.00     0.039 A 
ATOM     33  C   UNL A   1      40.916  24.830  26.036  1.00  0.00     0.014 A 
ATOM     34  C   UNL A   1      39.457  24.201  27.771  1.00  0.00     0.014 A 
ATOM     35  C   UNL A   1      41.062  26.102  26.572  1.00  0.00     0.010 A 
ATOM     36  C   UNL A   1      39.647  25.393  28.417  1.00  0.00     0.010 A 
ATOM     37  C   UNL A   1      40.570  26.282  27.859  1.00  0.00    -0.014 A 
BRANCH  37  38
ATOM     38  C   UNL A   1      40.966  27.352  28.736  1.00  0.00     0.031 A 
ATOM     39  C   UNL A   1      40.063  28.510  28.697  1.00  0.00     0.074 A 
ATOM     40  C   UNL A   1      42.006  27.103  29.568  1.00  0.00     0.049 A 
ATOM     41  N   UNL A   1      40.348  29.702  29.063  1.00  0.00    -0.248 NA
ATOM     42  C   UNL A   1      38.724  28.409  28.101  1.00  0.00     0.031 C 
ATOM     43  C   UNL A   1      42.465  27.854  30.734  1.00  0.00     0.029 A 
ATOM     44  N   UNL A   1      43.027  26.152  29.387  1.00  0.00    -0.354 N 
ATOM     45  C   UNL A   1      39.157  30.406  29.097  1.00  0.00     0.074 A 
ATOM     46  C   UNL A   1      38.237  29.629  28.319  1.00  0.00     0.031 C 
ATOM     47  C   UNL A   1      43.772  27.578  30.927  1.00  0.00     0.029 A 
ATOM     48  C   UNL A   1      44.210  26.783  29.781  1.00  0.00     0.049 A 
ATOM     49  H   UNL A   1      42.927  25.232  29.051  1.00  0.00     0.167 HD
ATOM     50  C   UNL A   1      39.061  31.450  29.969  1.00  0.00     0.037 A 
ATOM     51  C   UNL A   1      45.141  27.205  28.868  1.00  0.00     0.037 A 
ATOM     52  C   UNL A   1      40.389  31.685  30.547  1.00  0.00     0.049 A 
ATOM     53  C   UNL A   1      45.230  28.729  28.899  1.00  0.00     0.074 A 
ATOM     54  C   UNL A   1      40.974  31.226  31.716  1.00  0.00     0.029 A 
ATOM     55  N   UNL A   1      41.434  32.055  29.703  1.00  0.00    -0.354 N 
ATOM     56  N   UNL A   1      44.220  29.534  29.126  1.00  0.00    -0.248 NA
ATOM     57  C   UNL A   1      46.501  29.441  28.789  1.00  0.00     0.031 C 
ATOM     58  C   UNL A   1      42.383  31.203  31.513  1.00  0.00     0.029 A 
ATOM     59  C   UNL A   1      42.653  31.664  30.233  1.00  0.00     0.049 A 
ATOM     60  H   UNL A   1      41.322  32.530  28.848  1.00  0.00     0.167 HD
ATOM     61  C   UNL A   1      44.680  30.825  29.227  1.00  0.00     0.074 A 
ATOM     62  C   UNL A   1      46.113  30.709  29.007  1.00  0.00     0.031 C 
ATOM     63  C   UNL A   1      43.891  31.909  29.503  1.00  0.00     0.037 A 
BRANCH  50  64
ATOM     64  C   UNL A   1      37.764  32.008  30.542  1.00  0.00     0.058 A 
ATOM     65  C   UNL A   1      37.463  33.379  30.370  1.00  0.00     0.135 A 
ATOM     66  C   UNL A   1      36.816  31.310  31.324  1.00  0.00     0.135 A 
ATOM     67  F   UNL A   1      38.235  34.172  29.615  1.00  0.00    -0.206 F 
ATOM     68  C   UNL A   1      36.364  34.007  30.966  1.00  0.00     0.059 A 
ATOM     69  C   UNL A   1      35.721  31.919  31.949  1.00  0.00     0.059 A 
ATOM     70  F   UNL A   1      36.866  29.991  31.508  1.00  0.00    -0.206 F 
ATOM     71  C   UNL A   1      35.503  33.273  31.769  1.00  0.00     0.060 A 
BRANCH  71  72
ATOM     72  S   UNL A   1      34.092  34.092  32.529  1.00  0.00     0.124 S 
ATOM     73  O   UNL A   1      33.433  32.988  33.219  1.00  0.00    -0.237 OA
ATOM     74  O   UNL A   1      34.739  35.081  33.386  1.00  0.00    -0.237 OA
ATOM     75  O   UNL A   1      33.358  34.641  31.392  1.00  0.00    -0.744 OA
ENDBRANCH  71  72
ENDBRANCH  50  64
BRANCH  51  76
ATOM     76  C   UNL A   1      45.287  26.355  27.633  1.00  0.00     0.058 A 
ATOM     77  C   UNL A   1      46.010  25.142  27.702  1.00  0.00     0.135 A 
ATOM     78  C   UNL A   1      44.494  26.537  26.492  1.00  0.00     0.135 A 
ATOM     79  F   UNL A   1      46.821  24.909  28.748  1.00  0.00    -0.206 F 
ATOM     80  C   UNL A   1      45.851  24.113  26.763  1.00  0.00     0.059 A 
ATOM     81  C   UNL A   1      44.314  25.519  25.540  1.00  0.00     0.059 A 
ATOM     82  F   UNL A   1      43.791  27.667  26.333  1.00  0.00    -0.206 F 
ATOM     83  C   UNL A   1      44.947  24.285  25.715  1.00  0.00     0.060 A 
BRANCH  83  84
ATOM     84  S   UNL A   1      44.461  22.839  24.717  1.00  0.00     0.124 S 
ATOM     85  O   UNL A   1      43.023  23.040  24.571  1.00  0.00    -0.237 OA
ATOM     86  O   UNL A   1      45.233  22.980  23.485  1.00  0.00    -0.237 OA
ATOM     87  O   UNL A   1      44.849  21.703  25.549  1.00  0.00    -0.744 OA
ENDBRANCH  83  84
ENDBRANCH  51  76
BRANCH  63  88
ATOM     88  C   UNL A   1      44.268  33.342  29.177  1.00  0.00     0.058 A 
ATOM     89  C   UNL A   1      44.736  34.256  30.137  1.00  0.00     0.135 A 
ATOM     90  C   UNL A   1      44.333  33.792  27.834  1.00  0.00     0.135 A 
ATOM     91  F   UNL A   1      44.866  33.918  31.427  1.00  0.00    -0.206 F 
ATOM     92  C   UNL A   1      45.135  35.550  29.807  1.00  0.00     0.059 A 
ATOM     93  C   UNL A   1      44.809  35.049  27.475  1.00  0.00     0.059 A 
ATOM     94  F   UNL A   1      43.954  33.015  26.807  1.00  0.00    -0.206 F 
ATOM     95  C   UNL A   1      45.166  35.938  28.474  1.00  0.00     0.060 A 
BRANCH  95  96
ATOM     96  S   UNL A   1      45.694  37.605  28.057  1.00  0.00     0.124 S 
ATOM     97  O   UNL A   1      44.479  38.367  28.327  1.00  0.00    -0.237 OA
ATOM     98  O   UNL A   1      46.800  37.831  28.985  1.00  0.00    -0.237 OA
ATOM     99  O   UNL A   1      46.075  37.498  26.653  1.00  0.00    -0.744 OA
ENDBRANCH  95  96
ENDBRANCH  63  88
ENDBRANCH  37  38
ENDBRANCH  29  32
ENDBRANCH  27  28
ENDBRANCH  26  27
ENDBRANCH  25  26
ENDBRANCH   1  25
TORSDOF 19
ENDMDL
MODEL 3
REMARK VINA RESULT:     -11.5      1.547      2.153
REMARK SMILES Cc1cc([N+](=O)[O-])ccc1N1CCC(CC(=O)NCCCCCCNC(=O)c2ccc(-c3c4nc(c(-c5c(F)cc(S(=O)(=O)[O-])cc5F)c5ccc([nH]5)c(-c5c(F)cc(S(=O)(=O)[O-])cc5F)c5nc(c(-c6c(F)cc(S(=O)(=O)[O-])cc6F)c6ccc3[nH]6)C=C5)C=C4)cc2)CC1
REMARK SMILES IDX 21 1 20 2 19 3 18 4 16 5 17 6 15 8 14 9 11 10 12 11 95 12
REMARK SMILES IDX 13 13 94 14 10 15 1 16 2 17 3 18 4 19 9 20 8 21 5 22 6 23
REMARK SMILES IDX 7 24 22 25 23 26 24 27 25 28 26 29 27 31 28 32 29 33 93 34
REMARK SMILES IDX 30 35 92 36 31 37 32 38 33 39 86 40 34 41 91 42 85 43 87 44
REMARK SMILES IDX 35 45 90 46 84 47 83 48 36 50 70 51 49 52 69 53 50 54 53 55
REMARK SMILES IDX 68 56 88 57 51 58 52 59 67 61 89 62 54 63 37 64 38 65 47 66
REMARK SMILES IDX 39 67 40 68 46 69 48 70 41 71 42 72 43 73 44 74 45 75 71 76
REMARK SMILES IDX 72 77 81 78 73 79 74 80 80 81 82 82 75 83 76 84 77 85 78 86
REMARK SMILES IDX 79 87 55 88 56 89 65 90 57 91 58 92 64 93 66 94 59 95 60 96
REMARK SMILES IDX 61 97 62 98 63 99
REMARK H PARENT 18 7 25 30 87 49 53 60
REMARK Flexibility Score: inf
ROOT
ATOM      1  C   UNL A   1      35.090  31.041  28.221  1.00  0.00     0.002 C 
ENDROOT
BRANCH   1   2
ATOM      2  C   UNL A   1      34.380  30.574  26.965  1.00  0.00     0.021 C 
BRANCH   2   3
ATOM      3  C   UNL A   1      33.153  29.695  27.203  1.00  0.00     0.116 C 
BRANCH   3   4
ATOM      4  N   UNL A   1      32.168  29.942  26.165  1.00  0.00    -0.356 N 
ATOM      5  C   UNL A   1      31.408  29.075  25.439  1.00  0.00     0.220 C 
ATOM      6  O   UNL A   1      30.795  29.514  24.464  1.00  0.00    -0.275 OA
ATOM      7  H   UNL A   1      32.026  30.893  25.950  1.00  0.00     0.163 HD
BRANCH   5   8
ATOM      8  C   UNL A   1      31.268  27.613  25.847  1.00  0.00     0.103 C 
BRANCH   8   9
ATOM      9  C   UNL A   1      31.729  26.561  24.809  1.00  0.00     0.002 C 
ATOM     10  N   UNL A   1      33.621  24.420  24.543  1.00  0.00    -0.371 N 
ATOM     11  C   UNL A   1      33.900  25.609  23.766  1.00  0.00     0.117 C 
ATOM     12  C   UNL A   1      32.225  24.027  24.620  1.00  0.00     0.117 C 
ATOM     13  C   UNL A   1      33.207  26.759  24.465  1.00  0.00     0.025 C 
ATOM     14  C   UNL A   1      31.457  25.136  25.354  1.00  0.00     0.025 C 
BRANCH  10  15
ATOM     15  C   UNL A   1      34.670  23.559  24.783  1.00  0.00     0.040 A 
ATOM     16  C   UNL A   1      33.672  22.657  26.957  1.00  0.00     0.047 C 
ATOM     17  C   UNL A   1      34.728  22.690  25.887  1.00  0.00    -0.021 A 
ATOM     18  C   UNL A   1      35.801  21.782  26.002  1.00  0.00     0.091 A 
ATOM     19  C   UNL A   1      36.789  21.721  25.013  1.00  0.00     0.269 A 
ATOM     20  C   UNL A   1      35.677  23.475  23.802  1.00  0.00     0.033 A 
ATOM     21  C   UNL A   1      36.730  22.564  23.904  1.00  0.00     0.088 A 
BRANCH  19  22
ATOM     22  N   UNL A   1      37.896  20.764  25.137  1.00  0.00     0.062 N 
ATOM     23  O   UNL A   1      37.655  19.569  24.925  1.00  0.00    -0.258 OA
ATOM     24  O   UNL A   1      39.005  21.208  25.472  1.00  0.00    -0.258 OA
ENDBRANCH  19  22
ENDBRANCH  10  15
ENDBRANCH   8   9
ENDBRANCH   5   8
ENDBRANCH   3   4
ENDBRANCH   2   3
ENDBRANCH   1   2
BRANCH   1  25
ATOM     25  C   UNL A   1      35.266  32.553  28.357  1.00  0.00     0.002 C 
BRANCH  25  26
ATOM     26  C   UNL A   1      36.676  33.089  28.658  1.00  0.00     0.021 C 
BRANCH  26  27
ATOM     27  C   UNL A   1      37.325  32.606  29.945  1.00  0.00     0.116 C 
BRANCH  27  28
ATOM     28  N   UNL A   1      38.634  32.110  29.663  1.00  0.00    -0.352 N 
ATOM     29  C   UNL A   1      39.082  30.857  29.371  1.00  0.00     0.251 C 
ATOM     30  H   UNL A   1      39.339  32.797  29.685  1.00  0.00     0.163 HD
ATOM     31  O   UNL A   1      40.287  30.710  29.516  1.00  0.00    -0.269 OA
BRANCH  29  32
ATOM     32  C   UNL A   1      38.213  29.883  28.558  1.00  0.00     0.039 A 
ATOM     33  C   UNL A   1      37.942  28.793  29.398  1.00  0.00     0.014 A 
ATOM     34  C   UNL A   1      38.891  29.555  27.384  1.00  0.00     0.014 A 
ATOM     35  C   UNL A   1      38.974  27.882  29.580  1.00  0.00     0.010 A 
ATOM     36  C   UNL A   1      39.996  28.766  27.560  1.00  0.00     0.010 A 
ATOM     37  C   UNL A   1      40.076  28.033  28.747  1.00  0.00    -0.014 A 
BRANCH  37  38
ATOM     38  C   UNL A   1      41.380  27.491  29.022  1.00  0.00     0.031 A 
ATOM     39  C   UNL A   1      41.509  26.067  28.686  1.00  0.00     0.074 A 
ATOM     40  C   UNL A   1      42.336  28.372  29.405  1.00  0.00     0.049 A 
ATOM     41  N   UNL A   1      42.387  25.260  29.149  1.00  0.00    -0.248 NA
ATOM     42  C   UNL A   1      40.521  25.396  27.832  1.00  0.00     0.031 C 
ATOM     43  C   UNL A   1      43.783  28.195  29.490  1.00  0.00     0.029 A 
ATOM     44  N   UNL A   1      42.138  29.627  30.008  1.00  0.00    -0.354 N 
ATOM     45  C   UNL A   1      42.305  24.104  28.392  1.00  0.00     0.074 A 
ATOM     46  C   UNL A   1      41.031  24.169  27.739  1.00  0.00     0.031 C 
ATOM     47  C   UNL A   1      44.267  29.088  30.381  1.00  0.00     0.029 A 
ATOM     48  C   UNL A   1      43.111  29.729  31.006  1.00  0.00     0.049 A 
ATOM     49  H   UNL A   1      41.454  30.296  29.775  1.00  0.00     0.167 HD
ATOM     50  C   UNL A   1      43.434  23.352  28.257  1.00  0.00     0.037 A 
ATOM     51  C   UNL A   1      42.797  29.610  32.335  1.00  0.00     0.037 A 
ATOM     52  C   UNL A   1      44.458  23.899  29.156  1.00  0.00     0.049 A 
ATOM     53  C   UNL A   1      43.453  28.354  32.903  1.00  0.00     0.074 A 
ATOM     54  C   UNL A   1      45.472  24.818  28.939  1.00  0.00     0.029 A 
ATOM     55  N   UNL A   1      44.219  23.893  30.529  1.00  0.00    -0.354 N 
ATOM     56  N   UNL A   1      43.637  27.239  32.238  1.00  0.00    -0.248 NA
ATOM     57  C   UNL A   1      44.055  28.319  34.235  1.00  0.00     0.031 C 
ATOM     58  C   UNL A   1      45.747  25.457  30.181  1.00  0.00     0.029 A 
ATOM     59  C   UNL A   1      44.918  24.915  31.152  1.00  0.00     0.049 A 
ATOM     60  H   UNL A   1      43.635  23.251  30.993  1.00  0.00     0.167 HD
ATOM     61  C   UNL A   1      44.382  26.372  33.000  1.00  0.00     0.074 A 
ATOM     62  C   UNL A   1      44.615  27.098  34.238  1.00  0.00     0.031 C 
ATOM     63  C   UNL A   1      44.790  25.132  32.588  1.00  0.00     0.037 A 
BRANCH  50  64
ATOM     64  C   UNL A   1      43.724  22.387  27.114  1.00  0.00     0.058 A 
ATOM     65  C   UNL A   1      42.995  21.179  27.024  1.00  0.00     0.135 A 
ATOM     66  C   UNL A   1      44.729  22.520  26.129  1.00  0.00     0.135 A 
ATOM     67  F   UNL A   1      41.976  20.917  27.853  1.00  0.00    -0.206 F 
ATOM     68  C   UNL A   1      43.276  20.177  26.088  1.00  0.00     0.059 A 
ATOM     69  C   UNL A   1      45.044  21.525  25.196  1.00  0.00     0.059 A 
ATOM     70  F   UNL A   1      45.448  23.633  25.981  1.00  0.00    -0.206 F 
ATOM     71  C   UNL A   1      44.315  20.350  25.184  1.00  0.00     0.060 A 
BRANCH  71  72
ATOM     72  S   UNL A   1      44.665  19.054  23.986  1.00  0.00     0.124 S 
ATOM     73  O   UNL A   1      44.453  19.747  22.718  1.00  0.00    -0.237 OA
ATOM     74  O   UNL A   1      46.048  18.713  24.301  1.00  0.00    -0.237 OA
ATOM     75  O   UNL A   1      43.683  18.019  24.300  1.00  0.00    -0.744 OA
ENDBRANCH  71  72
ENDBRANCH  50  64
BRANCH  51  76
ATOM     76  C   UNL A   1      41.448  30.141  32.744  1.00  0.00     0.058 A 
ATOM     77  C   UNL A   1      40.479  29.255  33.268  1.00  0.00     0.135 A 
ATOM     78  C   UNL A   1      41.196  31.508  32.926  1.00  0.00     0.135 A 
ATOM     79  F   UNL A   1      40.631  27.929  33.102  1.00  0.00    -0.206 F 
ATOM     80  C   UNL A   1      39.395  29.692  34.043  1.00  0.00     0.059 A 
ATOM     81  C   UNL A   1      40.121  31.970  33.704  1.00  0.00     0.059 A 
ATOM     82  F   UNL A   1      42.052  32.420  32.443  1.00  0.00    -0.206 F 
ATOM     83  C   UNL A   1      39.259  31.053  34.312  1.00  0.00     0.060 A 
BRANCH  83  84
ATOM     84  S   UNL A   1      38.091  31.589  35.605  1.00  0.00     0.124 S 
ATOM     85  O   UNL A   1      36.977  32.103  34.814  1.00  0.00    -0.237 OA
ATOM     86  O   UNL A   1      37.807  30.369  36.356  1.00  0.00    -0.237 OA
ATOM     87  O   UNL A   1      38.843  32.598  36.348  1.00  0.00    -0.744 OA
ENDBRANCH  83  84
ENDBRANCH  51  76
BRANCH  63  88
ATOM     88  C   UNL A   1      45.198  24.013  33.527  1.00  0.00     0.058 A 
ATOM     89  C   UNL A   1      46.501  23.865  34.035  1.00  0.00     0.135 A 
ATOM     90  C   UNL A   1      44.230  23.142  34.089  1.00  0.00     0.135 A 
ATOM     91  F   UNL A   1      47.487  24.710  33.702  1.00  0.00    -0.206 F 
ATOM     92  C   UNL A   1      46.842  22.866  34.945  1.00  0.00     0.059 A 
ATOM     93  C   UNL A   1      44.533  22.194  35.062  1.00  0.00     0.059 A 
ATOM     94  F   UNL A   1      42.938  23.191  33.728  1.00  0.00    -0.206 F 
ATOM     95  C   UNL A   1      45.851  22.034  35.450  1.00  0.00     0.060 A 
BRANCH  95  96
ATOM     96  S   UNL A   1      46.298  20.757  36.634  1.00  0.00     0.124 S 
ATOM     97  O   UNL A   1      45.770  21.318  37.873  1.00  0.00    -0.237 OA
ATOM     98  O   UNL A   1      45.593  19.585  36.121  1.00  0.00    -0.237 OA
ATOM     99  O   UNL A   1      47.752  20.697  36.536  1.00  0.00    -0.744 OA
ENDBRANCH  95  96
ENDBRANCH  63  88
ENDBRANCH  37  38
ENDBRANCH  29  32
ENDBRANCH  27  28
ENDBRANCH  26  27
ENDBRANCH  25  26
ENDBRANCH   1  25
TORSDOF 19
ENDMDL
