MODEL 1
REMARK VINA RESULT:     -11.0      0.000      0.000
REMARK SMILES CC(=O)NS(=O)(=O)c1cc(-c2ccn(C(F)F)c(=O)c2)ccc1C(=O)NCCCCCCNC(=O)c1ccc(-c2c3nc(c(-c4c(F)cc(S(=O)(=O)[O-])cc4F)c4ccc([nH]4)c(-c4c(F)cc(S(=O)(=O)[O-])cc4F)c4nc(c(-c5c(F)cc(S(=O)(=O)[O-])cc5F)c5ccc2[nH]5)C=C4)C=C3)cc1
REMARK SMILES IDX 30 1 29 2 28 3 27 4 26 5 24 6 25 7 23 9 8 10 9 11 10 12
REMARK SMILES IDX 22 13 21 14 5 15 6 16 7 17 4 18 1 19 2 20 3 21 11 23 12 24
REMARK SMILES IDX 20 25 13 26 18 27 14 28 19 29 15 30 16 31 17 32 31 33 32 34
REMARK SMILES IDX 33 35 34 36 35 38 36 39 37 40 101 41 38 42 100 43 39 44
REMARK SMILES IDX 40 45 41 46 94 47 42 48 99 49 93 50 95 51 43 52 98 53 92 54
REMARK SMILES IDX 91 55 44 57 78 58 57 59 77 60 58 61 61 62 76 63 96 64 59 65
REMARK SMILES IDX 60 66 75 68 97 69 62 70 45 71 46 72 55 73 47 74 48 75 54 76
REMARK SMILES IDX 56 77 49 78 50 79 51 80 52 81 53 82 79 83 80 84 89 85 81 86
REMARK SMILES IDX 82 87 88 88 90 89 83 90 84 91 85 92 86 93 87 94 63 95 64 96
REMARK SMILES IDX 73 97 65 98 66 99 72 100 74 101 67 102 68 103 69 104 70 105
REMARK SMILES IDX 71 106
REMARK H PARENT 26 8 4 22 33 37 95 56 61 67
REMARK Flexibility Score: inf
ROOT
ATOM      1  C   UNL A   1      32.587  29.671  27.296  1.00  0.00     0.002 C 
ENDROOT
BRANCH   1   2
ATOM      2  C   UNL A   1      32.029  30.683  26.292  1.00  0.00     0.002 C 
BRANCH   2   3
ATOM      3  C   UNL A   1      31.946  32.118  26.812  1.00  0.00     0.021 C 
BRANCH   3   4
ATOM      4  C   UNL A   1      32.889  32.443  27.977  1.00  0.00     0.116 C 
BRANCH   4   5
ATOM      5  N   UNL A   1      33.352  33.813  27.844  1.00  0.00    -0.352 N 
ATOM      6  C   UNL A   1      34.426  34.487  28.345  1.00  0.00     0.252 C 
ATOM      7  O   UNL A   1      34.507  35.699  28.136  1.00  0.00    -0.269 OA
ATOM      8  H   UNL A   1      32.772  34.369  27.276  1.00  0.00     0.163 HD
BRANCH   6   9
ATOM      9  C   UNL A   1      35.580  33.853  29.020  1.00  0.00     0.060 A 
ATOM     10  C   UNL A   1      35.859  33.879  30.391  1.00  0.00     0.101 A 
ATOM     11  C   UNL A   1      37.150  33.554  30.851  1.00  0.00     0.031 A 
ATOM     12  C   UNL A   1      38.186  33.285  29.949  1.00  0.00    -0.017 A 
ATOM     13  C   UNL A   1      36.605  33.462  28.132  1.00  0.00     0.016 A 
ATOM     14  C   UNL A   1      37.900  33.192  28.588  1.00  0.00     0.009 A 
BRANCH  10  15
ATOM     15  S   UNL A   1      34.691  34.476  31.570  1.00  0.00     0.264 S 
ATOM     16  O   UNL A   1      35.468  35.072  32.635  1.00  0.00    -0.201 OA
ATOM     17  O   UNL A   1      33.698  33.462  31.810  1.00  0.00    -0.201 OA
BRANCH  15  18
ATOM     18  N   UNL A   1      33.935  35.759  30.839  1.00  0.00    -0.249 N 
ATOM     19  C   UNL A   1      32.035  36.147  32.415  1.00  0.00     0.115 C 
ATOM     20  C   UNL A   1      33.022  36.652  31.410  1.00  0.00     0.230 C 
ATOM     21  O   UNL A   1      32.937  37.779  30.943  1.00  0.00    -0.274 OA
ATOM     22  H   UNL A   1      34.155  35.909  29.891  1.00  0.00     0.183 HD
ENDBRANCH  15  18
ENDBRANCH  10  15
BRANCH  12  23
ATOM     23  C   UNL A   1      39.578  33.376  30.426  1.00  0.00    -0.011 A 
ATOM     24  C   UNL A   1      40.489  34.338  29.832  1.00  0.00     0.027 A 
ATOM     25  C   UNL A   1      39.987  32.648  31.476  1.00  0.00     0.080 A 
ATOM     26  C   UNL A   1      41.698  34.549  30.359  1.00  0.00     0.095 A 
ATOM     27  C   UNL A   1      41.356  32.835  32.040  1.00  0.00     0.255 A 
ATOM     28  N   UNL A   1      42.125  33.832  31.457  1.00  0.00    -0.258 N 
ATOM     29  O   UNL A   1      41.705  32.125  32.976  1.00  0.00    -0.269 OA
BRANCH  28  30
ATOM     30  C   UNL A   1      43.419  34.091  32.034  1.00  0.00     0.451 C 
ATOM     31  F   UNL A   1      44.245  33.029  31.885  1.00  0.00    -0.185 F 
ATOM     32  F   UNL A   1      44.003  35.166  31.456  1.00  0.00    -0.185 F 
ENDBRANCH  28  30
ENDBRANCH  12  23
ENDBRANCH   6   9
ENDBRANCH   4   5
ENDBRANCH   3   4
ENDBRANCH   2   3
ENDBRANCH   1   2
BRANCH   1  33
ATOM     33  C   UNL A   1      33.889  28.962  26.898  1.00  0.00     0.021 C 
BRANCH  33  34
ATOM     34  C   UNL A   1      35.195  29.607  27.364  1.00  0.00     0.116 C 
BRANCH  34  35
ATOM     35  N   UNL A   1      35.150  30.038  28.748  1.00  0.00    -0.352 N 
ATOM     36  C   UNL A   1      36.142  30.063  29.694  1.00  0.00     0.251 C 
ATOM     37  H   UNL A   1      34.272  30.362  29.055  1.00  0.00     0.163 HD
ATOM     38  O   UNL A   1      35.861  30.354  30.854  1.00  0.00    -0.269 OA
BRANCH  36  39
ATOM     39  C   UNL A   1      37.541  29.720  29.345  1.00  0.00     0.039 A 
ATOM     40  C   UNL A   1      38.431  29.433  30.384  1.00  0.00     0.014 A 
ATOM     41  C   UNL A   1      37.997  29.735  28.024  1.00  0.00     0.014 A 
ATOM     42  C   UNL A   1      39.761  29.110  30.100  1.00  0.00     0.010 A 
ATOM     43  C   UNL A   1      39.321  29.388  27.737  1.00  0.00     0.010 A 
ATOM     44  C   UNL A   1      40.212  29.069  28.772  1.00  0.00    -0.014 A 
BRANCH  44  45
ATOM     45  C   UNL A   1      41.612  28.685  28.462  1.00  0.00     0.031 A 
ATOM     46  C   UNL A   1      42.709  29.711  28.490  1.00  0.00     0.074 A 
ATOM     47  C   UNL A   1      41.894  27.414  28.122  1.00  0.00     0.049 A 
ATOM     48  N   UNL A   1      43.974  29.571  28.187  1.00  0.00    -0.248 NA
ATOM     49  C   UNL A   1      42.331  31.071  28.900  1.00  0.00     0.031 C 
ATOM     50  C   UNL A   1      40.919  26.325  28.036  1.00  0.00     0.029 A 
ATOM     51  N   UNL A   1      43.084  26.825  27.778  1.00  0.00    -0.354 N 
ATOM     52  C   UNL A   1      44.542  30.829  28.341  1.00  0.00     0.074 A 
ATOM     53  C   UNL A   1      43.481  31.720  28.769  1.00  0.00     0.031 C 
ATOM     54  C   UNL A   1      41.552  25.199  27.669  1.00  0.00     0.029 A 
ATOM     55  C   UNL A   1      42.972  25.489  27.480  1.00  0.00     0.049 A 
ATOM     56  H   UNL A   1      43.938  27.314  27.747  1.00  0.00     0.167 HD
ATOM     57  C   UNL A   1      45.827  31.211  28.144  1.00  0.00     0.037 A 
ATOM     58  C   UNL A   1      43.905  24.598  27.094  1.00  0.00     0.037 A 
ATOM     59  C   UNL A   1      46.893  30.331  27.748  1.00  0.00     0.049 A 
ATOM     60  C   UNL A   1      45.334  25.029  26.941  1.00  0.00     0.074 A 
ATOM     61  C   UNL A   1      48.229  30.631  27.538  1.00  0.00     0.029 A 
ATOM     62  N   UNL A   1      46.748  28.973  27.509  1.00  0.00    -0.354 N 
ATOM     63  N   UNL A   1      45.853  26.223  27.098  1.00  0.00    -0.248 NA
ATOM     64  C   UNL A   1      46.304  23.993  26.561  1.00  0.00     0.031 C 
ATOM     65  C   UNL A   1      48.891  29.452  27.171  1.00  0.00     0.029 A 
ATOM     66  C   UNL A   1      47.968  28.419  27.159  1.00  0.00     0.049 A 
ATOM     67  H   UNL A   1      45.902  28.476  27.578  1.00  0.00     0.167 HD
ATOM     68  C   UNL A   1      47.210  26.081  26.840  1.00  0.00     0.074 A 
ATOM     69  C   UNL A   1      47.435  24.685  26.524  1.00  0.00     0.031 C 
ATOM     70  C   UNL A   1      48.180  27.027  26.858  1.00  0.00     0.037 A 
BRANCH  57  71
ATOM     71  C   UNL A   1      46.136  32.662  28.345  1.00  0.00     0.058 A 
ATOM     72  C   UNL A   1      46.002  33.589  27.302  1.00  0.00     0.135 A 
ATOM     73  C   UNL A   1      46.584  33.129  29.589  1.00  0.00     0.135 A 
ATOM     74  F   UNL A   1      45.593  33.183  26.091  1.00  0.00    -0.206 F 
ATOM     75  C   UNL A   1      46.328  34.929  27.476  1.00  0.00     0.059 A 
ATOM     76  C   UNL A   1      46.906  34.467  29.787  1.00  0.00     0.059 A 
ATOM     77  F   UNL A   1      46.734  32.279  30.614  1.00  0.00    -0.206 F 
ATOM     78  C   UNL A   1      46.792  35.356  28.720  1.00  0.00     0.060 A 
BRANCH  78  79
ATOM     79  S   UNL A   1      47.248  37.088  28.949  1.00  0.00     0.124 S 
ATOM     80  O   UNL A   1      48.184  37.287  27.847  1.00  0.00    -0.237 OA
ATOM     81  O   UNL A   1      45.971  37.782  28.826  1.00  0.00    -0.237 OA
ATOM     82  O   UNL A   1      47.836  37.100  30.285  1.00  0.00    -0.744 OA
ENDBRANCH  78  79
ENDBRANCH  57  71
BRANCH  58  83
ATOM     83  C   UNL A   1      43.507  23.195  26.841  1.00  0.00     0.058 A 
ATOM     84  C   UNL A   1      43.463  22.688  25.536  1.00  0.00     0.135 A 
ATOM     85  C   UNL A   1      43.204  22.327  27.897  1.00  0.00     0.135 A 
ATOM     86  F   UNL A   1      43.743  23.488  24.498  1.00  0.00    -0.206 F 
ATOM     87  C   UNL A   1      43.136  21.361  25.286  1.00  0.00     0.059 A 
ATOM     88  C   UNL A   1      42.883  20.994  27.673  1.00  0.00     0.059 A 
ATOM     89  F   UNL A   1      43.245  22.771  29.163  1.00  0.00    -0.206 F 
ATOM     90  C   UNL A   1      42.849  20.520  26.361  1.00  0.00     0.060 A 
BRANCH  90  91
ATOM     91  S   UNL A   1      42.505  18.773  26.056  1.00  0.00     0.124 S 
ATOM     92  O   UNL A   1      41.096  18.812  25.688  1.00  0.00    -0.237 OA
ATOM     93  O   UNL A   1      43.436  18.446  24.980  1.00  0.00    -0.237 OA
ATOM     94  O   UNL A   1      42.811  18.154  27.342  1.00  0.00    -0.744 OA
ENDBRANCH  90  91
ENDBRANCH  58  83
BRANCH  70  95
ATOM     95  C   UNL A   1      49.574  26.579  26.538  1.00  0.00     0.058 A 
ATOM     96  C   UNL A   1      50.415  26.062  27.534  1.00  0.00     0.135 A 
ATOM     97  C   UNL A   1      50.062  26.638  25.226  1.00  0.00     0.135 A 
ATOM     98  F   UNL A   1      49.990  25.992  28.805  1.00  0.00    -0.206 F 
ATOM     99  C   UNL A   1      51.702  25.625  27.241  1.00  0.00     0.059 A 
ATOM    100  C   UNL A   1      51.344  26.203  24.909  1.00  0.00     0.059 A 
ATOM    101  F   UNL A   1      49.292  27.127  24.242  1.00  0.00    -0.206 F 
ATOM    102  C   UNL A   1      52.161  25.706  25.926  1.00  0.00     0.060 A 
BRANCH 102 103
ATOM    103  S   UNL A   1      53.822  25.116  25.530  1.00  0.00     0.124 S 
ATOM    104  O   UNL A   1      53.530  23.952  24.702  1.00  0.00    -0.237 OA
ATOM    105  O   UNL A   1      54.414  26.255  24.836  1.00  0.00    -0.237 OA
ATOM    106  O   UNL A   1      54.391  24.830  26.844  1.00  0.00    -0.744 OA
ENDBRANCH 102 103
ENDBRANCH  70  95
ENDBRANCH  44  45
ENDBRANCH  36  39
ENDBRANCH  34  35
ENDBRANCH  33  34
ENDBRANCH   1  33
TORSDOF 20
ENDMDL
MODEL 2
REMARK VINA RESULT:     -10.7      4.281      7.510
REMARK SMILES CC(=O)NS(=O)(=O)c1cc(-c2ccn(C(F)F)c(=O)c2)ccc1C(=O)NCCCCCCNC(=O)c1ccc(-c2c3nc(c(-c4c(F)cc(S(=O)(=O)[O-])cc4F)c4ccc([nH]4)c(-c4c(F)cc(S(=O)(=O)[O-])cc4F)c4nc(c(-c5c(F)cc(S(=O)(=O)[O-])cc5F)c5ccc2[nH]5)C=C4)C=C3)cc1
REMARK SMILES IDX 30 1 29 2 28 3 27 4 26 5 24 6 25 7 23 9 8 10 9 11 10 12
REMARK SMILES IDX 22 13 21 14 5 15 6 16 7 17 4 18 1 19 2 20 3 21 11 23 12 24
REMARK SMILES IDX 20 25 13 26 18 27 14 28 19 29 15 30 16 31 17 32 31 33 32 34
REMARK SMILES IDX 33 35 34 36 35 38 36 39 37 40 101 41 38 42 100 43 39 44
REMARK SMILES IDX 40 45 41 46 94 47 42 48 99 49 93 50 95 51 43 52 98 53 92 54
REMARK SMILES IDX 91 55 44 57 78 58 57 59 77 60 58 61 61 62 76 63 96 64 59 65
REMARK SMILES IDX 60 66 75 68 97 69 62 70 45 71 46 72 55 73 47 74 48 75 54 76
REMARK SMILES IDX 56 77 49 78 50 79 51 80 52 81 53 82 79 83 80 84 89 85 81 86
REMARK SMILES IDX 82 87 88 88 90 89 83 90 84 91 85 92 86 93 87 94 63 95 64 96
REMARK SMILES IDX 73 97 65 98 66 99 72 100 74 101 67 102 68 103 69 104 70 105
REMARK SMILES IDX 71 106
REMARK H PARENT 26 8 4 22 33 37 95 56 61 67
REMARK Flexibility Score: inf
ROOT
ATOM      1  C   UNL A   1      34.012  31.186  27.950  1.00  0.00     0.002 C 
ENDROOT
BRANCH   1   2
ATOM      2  C   UNL A   1      33.715  30.104  26.910  1.00  0.00     0.002 C 
BRANCH   2   3
ATOM      3  C   UNL A   1      32.371  29.397  27.090  1.00  0.00     0.021 C 
BRANCH   3   4
ATOM      4  C   UNL A   1      32.455  27.876  27.264  1.00  0.00     0.116 C 
BRANCH   4   5
ATOM      5  N   UNL A   1      31.277  27.265  26.675  1.00  0.00    -0.352 N 
ATOM      6  C   UNL A   1      31.068  26.097  26.004  1.00  0.00     0.252 C 
ATOM      7  O   UNL A   1      29.952  25.888  25.524  1.00  0.00    -0.269 OA
ATOM      8  H   UNL A   1      30.461  27.806  26.782  1.00  0.00     0.163 HD
BRANCH   6   9
ATOM      9  C   UNL A   1      32.046  24.991  25.912  1.00  0.00     0.060 A 
ATOM     10  C   UNL A   1      32.939  24.755  24.861  1.00  0.00     0.101 A 
ATOM     11  C   UNL A   1      33.551  23.493  24.729  1.00  0.00     0.031 A 
ATOM     12  C   UNL A   1      33.214  22.440  25.587  1.00  0.00    -0.017 A 
ATOM     13  C   UNL A   1      31.810  23.953  26.840  1.00  0.00     0.016 A 
ATOM     14  C   UNL A   1      32.378  22.685  26.674  1.00  0.00     0.009 A 
BRANCH  10  15
ATOM     15  S   UNL A   1      33.204  25.936  23.578  1.00  0.00     0.264 S 
ATOM     16  O   UNL A   1      33.737  25.195  22.456  1.00  0.00    -0.201 OA
ATOM     17  O   UNL A   1      33.864  27.092  24.126  1.00  0.00    -0.201 OA
BRANCH  15  18
ATOM     18  N   UNL A   1      31.691  26.407  23.086  1.00  0.00    -0.249 N 
ATOM     19  C   UNL A   1      31.788  28.861  23.545  1.00  0.00     0.115 C 
ATOM     20  C   UNL A   1      31.259  27.699  22.765  1.00  0.00     0.230 C 
ATOM     21  O   UNL A   1      30.331  27.826  21.980  1.00  0.00    -0.274 OA
ATOM     22  H   UNL A   1      31.018  25.693  23.010  1.00  0.00     0.183 HD
ENDBRANCH  15  18
ENDBRANCH  10  15
BRANCH  12  23
ATOM     23  C   UNL A   1      33.528  21.062  25.168  1.00  0.00    -0.011 A 
ATOM     24  C   UNL A   1      34.904  20.669  24.929  1.00  0.00     0.027 A 
ATOM     25  C   UNL A   1      32.561  20.133  25.103  1.00  0.00     0.080 A 
ATOM     26  C   UNL A   1      35.222  19.390  24.712  1.00  0.00     0.095 A 
ATOM     27  C   UNL A   1      32.897  18.709  24.807  1.00  0.00     0.255 A 
ATOM     28  N   UNL A   1      34.246  18.416  24.672  1.00  0.00    -0.258 N 
ATOM     29  O   UNL A   1      31.982  17.898  24.720  1.00  0.00    -0.269 OA
BRANCH  28  30
ATOM     30  C   UNL A   1      34.606  17.037  24.467  1.00  0.00     0.451 C 
ATOM     31  F   UNL A   1      34.000  16.231  25.371  1.00  0.00    -0.185 F 
ATOM     32  F   UNL A   1      34.256  16.622  23.228  1.00  0.00    -0.185 F 
ENDBRANCH  28  30
ENDBRANCH  12  23
ENDBRANCH   6   9
ENDBRANCH   4   5
ENDBRANCH   3   4
ENDBRANCH   2   3
ENDBRANCH   1   2
BRANCH   1  33
ATOM     33  C   UNL A   1      35.284  32.017  27.728  1.00  0.00     0.021 C 
BRANCH  33  34
ATOM     34  C   UNL A   1      36.083  32.399  28.975  1.00  0.00     0.116 C 
BRANCH  34  35
ATOM     35  N   UNL A   1      35.754  31.585  30.128  1.00  0.00    -0.352 N 
ATOM     36  C   UNL A   1      36.442  30.542  30.694  1.00  0.00     0.251 C 
ATOM     37  H   UNL A   1      34.906  31.816  30.574  1.00  0.00     0.163 HD
ATOM     38  O   UNL A   1      35.922  29.901  31.604  1.00  0.00    -0.269 OA
BRANCH  36  39
ATOM     39  C   UNL A   1      37.788  30.160  30.206  1.00  0.00     0.039 A 
ATOM     40  C   UNL A   1      38.826  30.061  31.138  1.00  0.00     0.014 A 
ATOM     41  C   UNL A   1      38.052  29.958  28.849  1.00  0.00     0.014 A 
ATOM     42  C   UNL A   1      40.113  29.709  30.720  1.00  0.00     0.010 A 
ATOM     43  C   UNL A   1      39.333  29.582  28.433  1.00  0.00     0.010 A 
ATOM     44  C   UNL A   1      40.372  29.451  29.366  1.00  0.00    -0.014 A 
BRANCH  44  45
ATOM     45  C   UNL A   1      41.727  29.036  28.922  1.00  0.00     0.031 A 
ATOM     46  C   UNL A   1      42.852  30.030  28.871  1.00  0.00     0.074 A 
ATOM     47  C   UNL A   1      41.940  27.765  28.533  1.00  0.00     0.049 A 
ATOM     48  N   UNL A   1      44.080  29.862  28.452  1.00  0.00    -0.248 NA
ATOM     49  C   UNL A   1      42.552  31.390  29.341  1.00  0.00     0.031 C 
ATOM     50  C   UNL A   1      40.929  26.706  28.514  1.00  0.00     0.029 A 
ATOM     51  N   UNL A   1      43.076  27.151  28.072  1.00  0.00    -0.354 N 
ATOM     52  C   UNL A   1      44.696  31.100  28.579  1.00  0.00     0.074 A 
ATOM     53  C   UNL A   1      43.704  32.010  29.119  1.00  0.00     0.031 C 
ATOM     54  C   UNL A   1      41.493  25.571  28.069  1.00  0.00     0.029 A 
ATOM     55  C   UNL A   1      42.898  25.826  27.758  1.00  0.00     0.049 A 
ATOM     56  H   UNL A   1      43.937  27.617  27.973  1.00  0.00     0.167 HD
ATOM     57  C   UNL A   1      45.969  31.450  28.274  1.00  0.00     0.037 A 
ATOM     58  C   UNL A   1      43.766  24.918  27.272  1.00  0.00     0.037 A 
ATOM     59  C   UNL A   1      46.968  30.550  27.766  1.00  0.00     0.049 A 
ATOM     60  C   UNL A   1      45.187  25.313  26.999  1.00  0.00     0.074 A 
ATOM     61  C   UNL A   1      48.289  30.818  27.442  1.00  0.00     0.029 A 
ATOM     62  N   UNL A   1      46.763  29.203  27.515  1.00  0.00    -0.354 N 
ATOM     63  N   UNL A   1      45.753  26.488  27.132  1.00  0.00    -0.248 NA
ATOM     64  C   UNL A   1      46.088  24.259  26.512  1.00  0.00     0.031 C 
ATOM     65  C   UNL A   1      48.880  29.630  26.993  1.00  0.00     0.029 A 
ATOM     66  C   UNL A   1      47.930  28.623  27.045  1.00  0.00     0.049 A 
ATOM     67  H   UNL A   1      45.911  28.727  27.650  1.00  0.00     0.167 HD
ATOM     68  C   UNL A   1      47.077  26.315  26.749  1.00  0.00     0.074 A 
ATOM     69  C   UNL A   1      47.232  24.921  26.387  1.00  0.00     0.031 C 
ATOM     70  C   UNL A   1      48.072  27.233  26.698  1.00  0.00     0.037 A 
BRANCH  57  71
ATOM     71  C   UNL A   1      46.338  32.888  28.475  1.00  0.00     0.058 A 
ATOM     72  C   UNL A   1      46.182  33.832  27.451  1.00  0.00     0.135 A 
ATOM     73  C   UNL A   1      46.864  33.324  29.699  1.00  0.00     0.135 A 
ATOM     74  F   UNL A   1      45.697  33.456  26.258  1.00  0.00    -0.206 F 
ATOM     75  C   UNL A   1      46.562  35.158  27.622  1.00  0.00     0.059 A 
ATOM     76  C   UNL A   1      47.242  34.647  29.895  1.00  0.00     0.059 A 
ATOM     77  F   UNL A   1      47.037  32.455  30.706  1.00  0.00    -0.206 F 
ATOM     78  C   UNL A   1      47.104  35.553  28.845  1.00  0.00     0.060 A 
BRANCH  78  79
ATOM     79  S   UNL A   1      47.631  37.265  29.070  1.00  0.00     0.124 S 
ATOM     80  O   UNL A   1      48.328  37.519  27.813  1.00  0.00    -0.237 OA
ATOM     81  O   UNL A   1      46.368  37.976  29.245  1.00  0.00    -0.237 OA
ATOM     82  O   UNL A   1      48.476  37.197  30.257  1.00  0.00    -0.744 OA
ENDBRANCH  78  79
ENDBRANCH  57  71
BRANCH  58  83
ATOM     83  C   UNL A   1      43.305  23.533  27.028  1.00  0.00     0.058 A 
ATOM     84  C   UNL A   1      43.029  23.088  25.729  1.00  0.00     0.135 A 
ATOM     85  C   UNL A   1      43.173  22.619  28.081  1.00  0.00     0.135 A 
ATOM     86  F   UNL A   1      43.141  23.934  24.695  1.00  0.00    -0.206 F 
ATOM     87  C   UNL A   1      42.640  21.778  25.479  1.00  0.00     0.059 A 
ATOM     88  C   UNL A   1      42.794  21.301  27.856  1.00  0.00     0.059 A 
ATOM     89  F   UNL A   1      43.438  23.002  29.339  1.00  0.00    -0.206 F 
ATOM     90  C   UNL A   1      42.527  20.890  26.549  1.00  0.00     0.060 A 
BRANCH  90  91
ATOM     91  S   UNL A   1      42.105  19.163  26.229  1.00  0.00     0.124 S 
ATOM     92  O   UNL A   1      40.725  19.278  25.777  1.00  0.00    -0.237 OA
ATOM     93  O   UNL A   1      43.079  18.778  25.212  1.00  0.00    -0.237 OA
ATOM     94  O   UNL A   1      42.299  18.537  27.534  1.00  0.00    -0.744 OA
ENDBRANCH  90  91
ENDBRANCH  58  83
BRANCH  70  95
ATOM     95  C   UNL A   1      49.418  26.754  26.245  1.00  0.00     0.058 A 
ATOM     96  C   UNL A   1      49.824  26.891  24.911  1.00  0.00     0.135 A 
ATOM     97  C   UNL A   1      50.317  26.180  27.154  1.00  0.00     0.135 A 
ATOM     98  F   UNL A   1      48.993  27.429  24.004  1.00  0.00    -0.206 F 
ATOM     99  C   UNL A   1      51.079  26.466  24.487  1.00  0.00     0.059 A 
ATOM    100  C   UNL A   1      51.578  25.753  26.755  1.00  0.00     0.059 A 
ATOM    101  F   UNL A   1      49.969  26.028  28.441  1.00  0.00    -0.206 F 
ATOM    102  C   UNL A   1      51.948  25.892  25.416  1.00  0.00     0.060 A 
BRANCH 102 103
ATOM    103  S   UNL A   1      53.590  25.362  24.883  1.00  0.00     0.124 S 
ATOM    104  O   UNL A   1      53.563  23.943  25.220  1.00  0.00    -0.237 OA
ATOM    105  O   UNL A   1      53.585  25.674  23.457  1.00  0.00    -0.237 OA
ATOM    106  O   UNL A   1      54.482  26.187  25.693  1.00  0.00    -0.744 OA
ENDBRANCH 102 103
ENDBRANCH  70  95
ENDBRANCH  44  45
ENDBRANCH  36  39
ENDBRANCH  34  35
ENDBRANCH  33  34
ENDBRANCH   1  33
TORSDOF 20
ENDMDL
MODEL 3
REMARK VINA RESULT:     -10.6      6.213     10.133
REMARK SMILES CC(=O)NS(=O)(=O)c1cc(-c2ccn(C(F)F)c(=O)c2)ccc1C(=O)NCCCCCCNC(=O)c1ccc(-c2c3nc(c(-c4c(F)cc(S(=O)(=O)[O-])cc4F)c4ccc([nH]4)c(-c4c(F)cc(S(=O)(=O)[O-])cc4F)c4nc(c(-c5c(F)cc(S(=O)(=O)[O-])cc5F)c5ccc2[nH]5)C=C4)C=C3)cc1
REMARK SMILES IDX 30 1 29 2 28 3 27 4 26 5 24 6 25 7 23 9 8 10 9 11 10 12
REMARK SMILES IDX 22 13 21 14 5 15 6 16 7 17 4 18 1 19 2 20 3 21 11 23 12 24
REMARK SMILES IDX 20 25 13 26 18 27 14 28 19 29 15 30 16 31 17 32 31 33 32 34
REMARK SMILES IDX 33 35 34 36 35 38 36 39 37 40 101 41 38 42 100 43 39 44
REMARK SMILES IDX 40 45 41 46 94 47 42 48 99 49 93 50 95 51 43 52 98 53 92 54
REMARK SMILES IDX 91 55 44 57 78 58 57 59 77 60 58 61 61 62 76 63 96 64 59 65
REMARK SMILES IDX 60 66 75 68 97 69 62 70 45 71 46 72 55 73 47 74 48 75 54 76
REMARK SMILES IDX 56 77 49 78 50 79 51 80 52 81 53 82 79 83 80 84 89 85 81 86
REMARK SMILES IDX 82 87 88 88 90 89 83 90 84 91 85 92 86 93 87 94 63 95 64 96
REMARK SMILES IDX 73 97 65 98 66 99 72 100 74 101 67 102 68 103 69 104 70 105
REMARK SMILES IDX 71 106
REMARK H PARENT 26 8 4 22 33 37 95 56 61 67
REMARK Flexibility Score: inf
ROOT
ATOM      1  C   UNL A   1      32.448  29.082  24.049  1.00  0.00     0.002 C 
ENDROOT
BRANCH   1   2
ATOM      2  C   UNL A   1      31.134  28.318  24.228  1.00  0.00     0.002 C 
BRANCH   2   3
ATOM      3  C   UNL A   1      30.677  27.537  22.995  1.00  0.00     0.021 C 
BRANCH   3   4
ATOM      4  C   UNL A   1      30.900  26.022  23.066  1.00  0.00     0.116 C 
BRANCH   4   5
ATOM      5  N   UNL A   1      32.242  25.717  22.603  1.00  0.00    -0.352 N 
ATOM      6  C   UNL A   1      33.079  24.660  22.799  1.00  0.00     0.252 C 
ATOM      7  O   UNL A   1      34.225  24.727  22.349  1.00  0.00    -0.269 OA
ATOM      8  H   UNL A   1      32.626  26.419  22.030  1.00  0.00     0.163 HD
BRANCH   6   9
ATOM      9  C   UNL A   1      32.681  23.370  23.407  1.00  0.00     0.060 A 
ATOM     10  C   UNL A   1      32.941  22.952  24.716  1.00  0.00     0.101 A 
ATOM     11  C   UNL A   1      32.829  21.589  25.053  1.00  0.00     0.031 A 
ATOM     12  C   UNL A   1      32.543  20.630  24.075  1.00  0.00    -0.017 A 
ATOM     13  C   UNL A   1      32.275  22.405  22.460  1.00  0.00     0.016 A 
ATOM     14  C   UNL A   1      32.218  21.045  22.785  1.00  0.00     0.009 A 
BRANCH  10  15
ATOM     15  S   UNL A   1      33.576  24.053  25.939  1.00  0.00     0.264 S 
ATOM     16  O   UNL A   1      33.660  23.285  27.163  1.00  0.00    -0.201 OA
ATOM     17  O   UNL A   1      32.877  25.307  25.858  1.00  0.00    -0.201 OA
BRANCH  15  18
ATOM     18  N   UNL A   1      35.156  24.329  25.513  1.00  0.00    -0.249 N 
ATOM     19  C   UNL A   1      36.153  22.072  25.906  1.00  0.00     0.115 C 
ATOM     20  C   UNL A   1      36.132  23.382  25.183  1.00  0.00     0.230 C 
ATOM     21  O   UNL A   1      37.045  23.717  24.442  1.00  0.00    -0.274 OA
ATOM     22  H   UNL A   1      35.440  25.271  25.488  1.00  0.00     0.183 HD
ENDBRANCH  15  18
ENDBRANCH  10  15
BRANCH  12  23
ATOM     23  C   UNL A   1      32.854  19.218  24.360  1.00  0.00    -0.011 A 
ATOM     24  C   UNL A   1      32.531  18.648  25.655  1.00  0.00     0.027 A 
ATOM     25  C   UNL A   1      33.343  18.420  23.398  1.00  0.00     0.080 A 
ATOM     26  C   UNL A   1      32.653  17.335  25.874  1.00  0.00     0.095 A 
ATOM     27  C   UNL A   1      33.536  16.961  23.647  1.00  0.00     0.255 A 
ATOM     28  N   UNL A   1      33.124  16.496  24.887  1.00  0.00    -0.258 N 
ATOM     29  O   UNL A   1      34.019  16.274  22.755  1.00  0.00    -0.269 OA
BRANCH  28  30
ATOM     30  C   UNL A   1      33.222  15.079  25.126  1.00  0.00     0.451 C 
ATOM     31  F   UNL A   1      34.492  14.718  25.429  1.00  0.00    -0.185 F 
ATOM     32  F   UNL A   1      32.420  14.701  26.149  1.00  0.00    -0.185 F 
ENDBRANCH  28  30
ENDBRANCH  12  23
ENDBRANCH   6   9
ENDBRANCH   4   5
ENDBRANCH   3   4
ENDBRANCH   2   3
ENDBRANCH   1   2
BRANCH   1  33
ATOM     33  C   UNL A   1      33.729  28.345  24.463  1.00  0.00     0.021 C 
BRANCH  33  34
ATOM     34  C   UNL A   1      34.309  28.691  25.835  1.00  0.00     0.116 C 
BRANCH  34  35
ATOM     35  N   UNL A   1      33.853  29.973  26.334  1.00  0.00    -0.352 N 
ATOM     36  C   UNL A   1      34.367  30.762  27.332  1.00  0.00     0.251 C 
ATOM     37  H   UNL A   1      33.051  30.333  25.889  1.00  0.00     0.163 HD
ATOM     38  O   UNL A   1      33.751  31.765  27.685  1.00  0.00    -0.269 OA
BRANCH  36  39
ATOM     39  C   UNL A   1      35.637  30.409  28.009  1.00  0.00     0.039 A 
ATOM     40  C   UNL A   1      35.579  29.593  29.143  1.00  0.00     0.014 A 
ATOM     41  C   UNL A   1      36.868  30.915  27.580  1.00  0.00     0.014 A 
ATOM     42  C   UNL A   1      36.754  29.241  29.815  1.00  0.00     0.010 A 
ATOM     43  C   UNL A   1      38.044  30.543  28.237  1.00  0.00     0.010 A 
ATOM     44  C   UNL A   1      37.997  29.701  29.357  1.00  0.00    -0.014 A 
BRANCH  44  45
ATOM     45  C   UNL A   1      39.250  29.295  30.041  1.00  0.00     0.031 A 
ATOM     46  C   UNL A   1      39.685  29.978  31.306  1.00  0.00     0.074 A 
ATOM     47  C   UNL A   1      40.019  28.329  29.506  1.00  0.00     0.049 A 
ATOM     48  N   UNL A   1      40.777  29.800  32.004  1.00  0.00    -0.248 NA
ATOM     49  C   UNL A   1      38.780  31.002  31.848  1.00  0.00     0.031 C 
ATOM     50  C   UNL A   1      39.723  27.600  28.270  1.00  0.00     0.029 A 
ATOM     51  N   UNL A   1      41.211  27.799  29.929  1.00  0.00    -0.354 N 
ATOM     52  C   UNL A   1      40.708  30.707  33.054  1.00  0.00     0.074 A 
ATOM     53  C   UNL A   1      39.462  31.433  32.901  1.00  0.00     0.031 C 
ATOM     54  C   UNL A   1      40.705  26.713  28.040  1.00  0.00     0.029 A 
ATOM     55  C   UNL A   1      41.705  26.821  29.100  1.00  0.00     0.049 A 
ATOM     56  H   UNL A   1      41.669  28.092  30.749  1.00  0.00     0.167 HD
ATOM     57  C   UNL A   1      41.599  30.920  34.052  1.00  0.00     0.037 A 
ATOM     58  C   UNL A   1      42.836  26.096  29.182  1.00  0.00     0.037 A 
ATOM     59  C   UNL A   1      42.824  30.187  34.229  1.00  0.00     0.049 A 
ATOM     60  C   UNL A   1      43.779  26.306  30.330  1.00  0.00     0.074 A 
ATOM     61  C   UNL A   1      43.779  30.327  35.223  1.00  0.00     0.029 A 
ATOM     62  N   UNL A   1      43.260  29.167  33.399  1.00  0.00    -0.354 N 
ATOM     63  N   UNL A   1      43.693  27.164  31.317  1.00  0.00    -0.248 NA
ATOM     64  C   UNL A   1      44.971  25.447  30.377  1.00  0.00     0.031 C 
ATOM     65  C   UNL A   1      44.795  29.391  34.990  1.00  0.00     0.029 A 
ATOM     66  C   UNL A   1      44.467  28.665  33.857  1.00  0.00     0.049 A 
ATOM     67  H   UNL A   1      42.782  28.846  32.600  1.00  0.00     0.167 HD
ATOM     68  C   UNL A   1      44.816  26.947  32.105  1.00  0.00     0.074 A 
ATOM     69  C   UNL A   1      45.564  25.871  31.485  1.00  0.00     0.031 C 
ATOM     70  C   UNL A   1      45.195  27.588  33.237  1.00  0.00     0.037 A 
BRANCH  57  71
ATOM     71  C   UNL A   1      41.273  32.011  35.024  1.00  0.00     0.058 A 
ATOM     72  C   UNL A   1      40.397  31.796  36.097  1.00  0.00     0.135 A 
ATOM     73  C   UNL A   1      41.830  33.289  34.873  1.00  0.00     0.135 A 
ATOM     74  F   UNL A   1      39.829  30.594  36.271  1.00  0.00    -0.206 F 
ATOM     75  C   UNL A   1      40.062  32.819  36.977  1.00  0.00     0.059 A 
ATOM     76  C   UNL A   1      41.516  34.324  35.746  1.00  0.00     0.059 A 
ATOM     77  F   UNL A   1      42.667  33.543  33.857  1.00  0.00    -0.206 F 
ATOM     78  C   UNL A   1      40.617  34.085  36.784  1.00  0.00     0.060 A 
BRANCH  78  79
ATOM     79  S   UNL A   1      40.165  35.430  37.900  1.00  0.00     0.124 S 
ATOM     80  O   UNL A   1      41.198  35.313  38.925  1.00  0.00    -0.237 OA
ATOM     81  O   UNL A   1      40.256  36.609  37.046  1.00  0.00    -0.237 OA
ATOM     82  O   UNL A   1      38.815  35.070  38.321  1.00  0.00    -0.744 OA
ENDBRANCH  78  79
ENDBRANCH  57  71
BRANCH  58  83
ATOM     83  C   UNL A   1      43.127  25.085  28.139  1.00  0.00     0.058 A 
ATOM     84  C   UNL A   1      43.829  25.435  26.979  1.00  0.00     0.135 A 
ATOM     85  C   UNL A   1      42.745  23.748  28.302  1.00  0.00     0.135 A 
ATOM     86  F   UNL A   1      44.209  26.706  26.785  1.00  0.00    -0.206 F 
ATOM     87  C   UNL A   1      44.149  24.489  26.013  1.00  0.00     0.059 A 
ATOM     88  C   UNL A   1      43.060  22.782  27.355  1.00  0.00     0.059 A 
ATOM     89  F   UNL A   1      42.079  23.370  29.404  1.00  0.00    -0.206 F 
ATOM     90  C   UNL A   1      43.762  23.164  26.210  1.00  0.00     0.060 A 
BRANCH  90  91
ATOM     91  S   UNL A   1      44.246  21.909  25.004  1.00  0.00     0.124 S 
ATOM     92  O   UNL A   1      45.655  21.722  25.324  1.00  0.00    -0.237 OA
ATOM     93  O   UNL A   1      43.364  20.793  25.331  1.00  0.00    -0.237 OA
ATOM     94  O   UNL A   1      43.963  22.561  23.729  1.00  0.00    -0.744 OA
ENDBRANCH  90  91
ENDBRANCH  58  83
BRANCH  70  95
ATOM     95  C   UNL A   1      46.468  27.133  33.883  1.00  0.00     0.058 A 
ATOM     96  C   UNL A   1      46.469  26.107  34.839  1.00  0.00     0.135 A 
ATOM     97  C   UNL A   1      47.697  27.704  33.526  1.00  0.00     0.135 A 
ATOM     98  F   UNL A   1      45.314  25.535  35.215  1.00  0.00    -0.206 F 
ATOM     99  C   UNL A   1      47.648  25.666  35.428  1.00  0.00     0.059 A 
ATOM    100  C   UNL A   1      48.889  27.276  34.098  1.00  0.00     0.059 A 
ATOM    101  F   UNL A   1      47.743  28.689  32.616  1.00  0.00    -0.206 F 
ATOM    102  C   UNL A   1      48.854  26.261  35.056  1.00  0.00     0.060 A 
BRANCH 102 103
ATOM    103  S   UNL A   1      50.395  25.677  35.796  1.00  0.00     0.124 S 
ATOM    104  O   UNL A   1      49.949  25.279  37.126  1.00  0.00    -0.237 OA
ATOM    105  O   UNL A   1      50.790  24.587  34.908  1.00  0.00    -0.237 OA
ATOM    106  O   UNL A   1      51.253  26.857  35.744  1.00  0.00    -0.744 OA
ENDBRANCH 102 103
ENDBRANCH  70  95
ENDBRANCH  44  45
ENDBRANCH  36  39
ENDBRANCH  34  35
ENDBRANCH  33  34
ENDBRANCH   1  33
TORSDOF 20
ENDMDL
