MODEL 1
REMARK VINA RESULT:     -11.4      0.000      0.000
REMARK SMILES Cc1nsc(NC(=O)c2ccc(N)cc2)c1C(=O)NCCCCCCNC(=O)c1ccc(-c2c3nc(c(-c4c(F)cc(S(=O)(=O)[O-])cc4F)c4ccc([nH]4)c(-c4c(F)cc(S(=O)(=O)[O-])cc4F)c4nc(c(-c5c(F)cc(S(=O)(=O)[O-])cc5F)c5ccc2[nH]5)C=C4)C=C3)cc1
REMARK SMILES IDX 22 1 21 2 20 3 19 4 17 5 18 6 16 8 1 9 2 10 3 11 4 12 5 13
REMARK SMILES IDX 6 14 7 15 8 17 9 18 10 19 15 20 11 21 14 22 12 23 13 24
REMARK SMILES IDX 23 27 24 28 25 29 26 30 27 31 28 33 29 34 30 35 94 36 31 37
REMARK SMILES IDX 93 38 32 39 33 40 34 41 87 42 35 43 92 44 86 45 88 46 36 47
REMARK SMILES IDX 91 48 85 49 84 50 37 52 71 53 50 54 70 55 51 56 54 57 69 58
REMARK SMILES IDX 89 59 52 60 53 61 68 63 90 64 55 65 38 66 39 67 48 68 40 69
REMARK SMILES IDX 41 70 47 71 49 72 42 73 43 74 44 75 45 76 46 77 72 78 73 79
REMARK SMILES IDX 82 80 74 81 75 82 81 83 83 84 76 85 77 86 78 87 79 88 80 89
REMARK SMILES IDX 56 90 57 91 66 92 58 93 59 94 65 95 67 96 60 97 61 98 62 99
REMARK SMILES IDX 63 100 64 101
REMARK H PARENT 19 7 6 16 13 25 13 26 26 32 88 51 54 62
REMARK Flexibility Score: inf
ROOT
ATOM      1  C   UNL A   1      34.337  30.889  27.726  1.00  0.00     0.002 C 
ENDROOT
BRANCH   1   2
ATOM      2  C   UNL A   1      35.451  29.852  27.547  1.00  0.00     0.021 C 
BRANCH   2   3
ATOM      3  C   UNL A   1      34.975  28.551  26.903  1.00  0.00     0.116 C 
BRANCH   3   4
ATOM      4  N   UNL A   1      34.452  28.780  25.588  1.00  0.00    -0.352 N 
ATOM      5  C   UNL A   1      33.323  28.406  24.926  1.00  0.00     0.256 C 
ATOM      6  O   UNL A   1      33.240  28.925  23.803  1.00  0.00    -0.269 OA
ATOM      7  H   UNL A   1      35.047  29.337  25.035  1.00  0.00     0.163 HD
BRANCH   5   8
ATOM      8  C   UNL A   1      32.257  27.503  25.402  1.00  0.00     0.097 A 
ATOM      9  C   UNL A   1      31.235  28.294  27.783  1.00  0.00     0.069 C 
ATOM     10  C   UNL A   1      31.396  27.420  26.590  1.00  0.00     0.066 A 
ATOM     11  N   UNL A   1      30.586  26.360  26.648  1.00  0.00    -0.195 NA
ATOM     12  S   UNL A   1      30.910  25.353  25.413  1.00  0.00    -0.017 S 
ATOM     13  C   UNL A   1      31.916  26.419  24.571  1.00  0.00     0.129 A 
BRANCH  13  14
ATOM     14  N   UNL A   1      32.393  26.145  23.292  1.00  0.00    -0.312 N 
ATOM     15  C   UNL A   1      33.439  25.375  22.837  1.00  0.00     0.256 C 
ATOM     16  H   UNL A   1      31.883  26.588  22.575  1.00  0.00     0.171 HD
ATOM     17  O   UNL A   1      33.770  25.404  21.652  1.00  0.00    -0.269 OA
BRANCH  15  18
ATOM     18  C   UNL A   1      34.163  24.453  23.726  1.00  0.00     0.040 A 
ATOM     19  C   UNL A   1      34.724  24.904  24.924  1.00  0.00     0.016 A 
ATOM     20  C   UNL A   1      34.323  23.127  23.322  1.00  0.00     0.016 A 
ATOM     21  C   UNL A   1      35.569  24.056  25.643  1.00  0.00     0.026 A 
ATOM     22  C   UNL A   1      35.155  22.285  24.062  1.00  0.00     0.026 A 
ATOM     23  C   UNL A   1      35.845  22.766  25.180  1.00  0.00     0.031 A 
BRANCH  23  24
ATOM     24  N   UNL A   1      36.690  21.929  25.896  1.00  0.00    -0.399 N 
ATOM     25  H   UNL A   1      37.188  21.217  25.432  1.00  0.00     0.156 HD
ATOM     26  H   UNL A   1      36.793  22.045  26.868  1.00  0.00     0.156 HD
ENDBRANCH  23  24
ENDBRANCH  15  18
ENDBRANCH  13  14
ENDBRANCH   5   8
ENDBRANCH   3   4
ENDBRANCH   2   3
ENDBRANCH   1   2
BRANCH   1  27
ATOM     27  C   UNL A   1      34.805  32.353  27.774  1.00  0.00     0.002 C 
BRANCH  27  28
ATOM     28  C   UNL A   1      33.829  33.355  28.411  1.00  0.00     0.021 C 
BRANCH  28  29
ATOM     29  C   UNL A   1      34.506  34.311  29.379  1.00  0.00     0.116 C 
BRANCH  29  30
ATOM     30  N   UNL A   1      34.127  34.025  30.764  1.00  0.00    -0.352 N 
ATOM     31  C   UNL A   1      34.620  33.057  31.616  1.00  0.00     0.251 C 
ATOM     32  H   UNL A   1      33.424  34.603  31.139  1.00  0.00     0.163 HD
ATOM     33  O   UNL A   1      33.983  32.704  32.597  1.00  0.00    -0.269 OA
BRANCH  31  34
ATOM     34  C   UNL A   1      35.935  32.472  31.318  1.00  0.00     0.039 A 
ATOM     35  C   UNL A   1      37.105  33.236  31.357  1.00  0.00     0.014 A 
ATOM     36  C   UNL A   1      35.975  31.111  31.031  1.00  0.00     0.014 A 
ATOM     37  C   UNL A   1      38.326  32.594  31.170  1.00  0.00     0.010 A 
ATOM     38  C   UNL A   1      37.173  30.457  31.045  1.00  0.00     0.010 A 
ATOM     39  C   UNL A   1      38.347  31.199  31.026  1.00  0.00    -0.014 A 
BRANCH  39  40
ATOM     40  C   UNL A   1      39.597  30.462  30.930  1.00  0.00     0.031 A 
ATOM     41  C   UNL A   1      40.257  30.187  32.234  1.00  0.00     0.074 A 
ATOM     42  C   UNL A   1      39.970  29.854  29.783  1.00  0.00     0.049 A 
ATOM     43  N   UNL A   1      41.367  30.677  32.678  1.00  0.00    -0.248 NA
ATOM     44  C   UNL A   1      39.519  29.401  33.237  1.00  0.00     0.031 C 
ATOM     45  C   UNL A   1      39.233  29.756  28.516  1.00  0.00     0.029 A 
ATOM     46  N   UNL A   1      41.047  29.062  29.555  1.00  0.00    -0.354 N 
ATOM     47  C   UNL A   1      41.592  30.060  33.906  1.00  0.00     0.074 A 
ATOM     48  C   UNL A   1      40.335  29.477  34.291  1.00  0.00     0.031 C 
ATOM     49  C   UNL A   1      39.749  28.757  27.768  1.00  0.00     0.029 A 
ATOM     50  C   UNL A   1      40.948  28.267  28.418  1.00  0.00     0.049 A 
ATOM     51  H   UNL A   1      41.834  29.052  30.146  1.00  0.00     0.167 HD
ATOM     52  C   UNL A   1      42.856  29.857  34.376  1.00  0.00     0.037 A 
ATOM     53  C   UNL A   1      41.769  27.236  28.091  1.00  0.00     0.037 A 
ATOM     54  C   UNL A   1      43.814  30.645  33.637  1.00  0.00     0.049 A 
ATOM     55  C   UNL A   1      43.033  27.446  28.857  1.00  0.00     0.074 A 
ATOM     56  C   UNL A   1      43.946  31.995  33.363  1.00  0.00     0.029 A 
ATOM     57  N   UNL A   1      44.590  30.002  32.699  1.00  0.00    -0.354 N 
ATOM     58  N   UNL A   1      43.830  28.467  28.665  1.00  0.00    -0.248 NA
ATOM     59  C   UNL A   1      43.136  26.819  30.168  1.00  0.00     0.031 C 
ATOM     60  C   UNL A   1      44.339  32.050  31.993  1.00  0.00     0.029 A 
ATOM     61  C   UNL A   1      44.515  30.740  31.543  1.00  0.00     0.049 A 
ATOM     62  H   UNL A   1      45.102  29.171  32.831  1.00  0.00     0.167 HD
ATOM     63  C   UNL A   1      44.216  28.868  29.938  1.00  0.00     0.074 A 
ATOM     64  C   UNL A   1      43.806  27.774  30.819  1.00  0.00     0.031 C 
ATOM     65  C   UNL A   1      44.554  30.165  30.214  1.00  0.00     0.037 A 
BRANCH  52  66
ATOM     66  C   UNL A   1      43.279  28.686  35.235  1.00  0.00     0.058 A 
ATOM     67  C   UNL A   1      44.040  28.928  36.398  1.00  0.00     0.135 A 
ATOM     68  C   UNL A   1      43.212  27.335  34.826  1.00  0.00     0.135 A 
ATOM     69  F   UNL A   1      44.176  30.174  36.880  1.00  0.00    -0.206 F 
ATOM     70  C   UNL A   1      44.749  27.920  37.053  1.00  0.00     0.059 A 
ATOM     71  C   UNL A   1      43.864  26.307  35.497  1.00  0.00     0.059 A 
ATOM     72  F   UNL A   1      42.597  26.953  33.702  1.00  0.00    -0.206 F 
ATOM     73  C   UNL A   1      44.666  26.614  36.582  1.00  0.00     0.060 A 
BRANCH  73  74
ATOM     74  S   UNL A   1      45.664  25.330  37.354  1.00  0.00     0.124 S 
ATOM     75  O   UNL A   1      46.931  26.026  37.551  1.00  0.00    -0.237 OA
ATOM     76  O   UNL A   1      44.898  25.038  38.561  1.00  0.00    -0.237 OA
ATOM     77  O   UNL A   1      45.675  24.267  36.353  1.00  0.00    -0.744 OA
ENDBRANCH  73  74
ENDBRANCH  52  66
BRANCH  53  78
ATOM     78  C   UNL A   1      41.360  25.928  27.504  1.00  0.00     0.058 A 
ATOM     79  C   UNL A   1      42.150  25.275  26.542  1.00  0.00     0.135 A 
ATOM     80  C   UNL A   1      40.312  25.162  28.060  1.00  0.00     0.135 A 
ATOM     81  F   UNL A   1      43.184  25.914  25.976  1.00  0.00    -0.206 F 
ATOM     82  C   UNL A   1      41.940  23.936  26.183  1.00  0.00     0.059 A 
ATOM     83  C   UNL A   1      40.074  23.834  27.709  1.00  0.00     0.059 A 
ATOM     84  F   UNL A   1      39.531  25.652  29.035  1.00  0.00    -0.206 F 
ATOM     85  C   UNL A   1      40.909  23.217  26.787  1.00  0.00     0.060 A 
BRANCH  85  86
ATOM     86  S   UNL A   1      40.732  21.447  26.459  1.00  0.00     0.124 S 
ATOM     87  O   UNL A   1      39.478  21.401  25.716  1.00  0.00    -0.237 OA
ATOM     88  O   UNL A   1      41.939  21.152  25.695  1.00  0.00    -0.237 OA
ATOM     89  O   UNL A   1      40.684  20.857  27.796  1.00  0.00    -0.744 OA
ENDBRANCH  85  86
ENDBRANCH  53  78
BRANCH  65  90
ATOM     90  C   UNL A   1      44.755  31.136  29.076  1.00  0.00     0.058 A 
ATOM     91  C   UNL A   1      43.770  32.016  28.590  1.00  0.00     0.135 A 
ATOM     92  C   UNL A   1      46.060  31.318  28.590  1.00  0.00     0.135 A 
ATOM     93  F   UNL A   1      42.522  31.990  29.075  1.00  0.00    -0.206 F 
ATOM     94  C   UNL A   1      44.061  33.001  27.642  1.00  0.00     0.059 A 
ATOM     95  C   UNL A   1      46.379  32.312  27.670  1.00  0.00     0.059 A 
ATOM     96  F   UNL A   1      47.062  30.556  29.059  1.00  0.00    -0.206 F 
ATOM     97  C   UNL A   1      45.371  33.145  27.191  1.00  0.00     0.060 A 
BRANCH  97  98
ATOM     98  S   UNL A   1      45.762  34.466  26.022  1.00  0.00     0.124 S 
ATOM     99  O   UNL A   1      47.094  34.084  25.563  1.00  0.00    -0.237 OA
ATOM    100  O   UNL A   1      44.692  34.345  25.036  1.00  0.00    -0.237 OA
ATOM    101  O   UNL A   1      45.709  35.674  26.842  1.00  0.00    -0.744 OA
ENDBRANCH  97  98
ENDBRANCH  65  90
ENDBRANCH  39  40
ENDBRANCH  31  34
ENDBRANCH  29  30
ENDBRANCH  28  29
ENDBRANCH  27  28
ENDBRANCH   1  27
TORSDOF 19
ENDMDL
MODEL 2
REMARK VINA RESULT:     -11.3      2.379      8.842
REMARK SMILES Cc1nsc(NC(=O)c2ccc(N)cc2)c1C(=O)NCCCCCCNC(=O)c1ccc(-c2c3nc(c(-c4c(F)cc(S(=O)(=O)[O-])cc4F)c4ccc([nH]4)c(-c4c(F)cc(S(=O)(=O)[O-])cc4F)c4nc(c(-c5c(F)cc(S(=O)(=O)[O-])cc5F)c5ccc2[nH]5)C=C4)C=C3)cc1
REMARK SMILES IDX 22 1 21 2 20 3 19 4 17 5 18 6 16 8 1 9 2 10 3 11 4 12 5 13
REMARK SMILES IDX 6 14 7 15 8 17 9 18 10 19 15 20 11 21 14 22 12 23 13 24
REMARK SMILES IDX 23 27 24 28 25 29 26 30 27 31 28 33 29 34 30 35 94 36 31 37
REMARK SMILES IDX 93 38 32 39 33 40 34 41 87 42 35 43 92 44 86 45 88 46 36 47
REMARK SMILES IDX 91 48 85 49 84 50 37 52 71 53 50 54 70 55 51 56 54 57 69 58
REMARK SMILES IDX 89 59 52 60 53 61 68 63 90 64 55 65 38 66 39 67 48 68 40 69
REMARK SMILES IDX 41 70 47 71 49 72 42 73 43 74 44 75 45 76 46 77 72 78 73 79
REMARK SMILES IDX 82 80 74 81 75 82 81 83 83 84 76 85 77 86 78 87 79 88 80 89
REMARK SMILES IDX 56 90 57 91 66 92 58 93 59 94 65 95 67 96 60 97 61 98 62 99
REMARK SMILES IDX 63 100 64 101
REMARK H PARENT 19 7 6 16 13 25 13 26 26 32 88 51 54 62
REMARK Flexibility Score: inf
ROOT
ATOM      1  C   UNL A   1      33.738  24.035  26.498  1.00  0.00     0.002 C 
ENDROOT
BRANCH   1   2
ATOM      2  C   UNL A   1      32.509  24.922  26.269  1.00  0.00     0.021 C 
BRANCH   2   3
ATOM      3  C   UNL A   1      31.208  24.135  26.124  1.00  0.00     0.116 C 
BRANCH   3   4
ATOM      4  N   UNL A   1      30.264  24.834  25.300  1.00  0.00    -0.352 N 
ATOM      5  C   UNL A   1      30.285  25.344  24.038  1.00  0.00     0.256 C 
ATOM      6  O   UNL A   1      29.183  25.794  23.693  1.00  0.00    -0.269 OA
ATOM      7  H   UNL A   1      29.401  24.978  25.751  1.00  0.00     0.163 HD
BRANCH   5   8
ATOM      8  C   UNL A   1      31.428  25.394  23.106  1.00  0.00     0.097 A 
ATOM      9  C   UNL A   1      32.553  22.959  22.734  1.00  0.00     0.069 C 
ATOM     10  C   UNL A   1      32.397  24.429  22.570  1.00  0.00     0.066 A 
ATOM     11  N   UNL A   1      33.345  24.935  21.777  1.00  0.00    -0.195 NA
ATOM     12  S   UNL A   1      33.235  26.557  21.757  1.00  0.00    -0.017 S 
ATOM     13  C   UNL A   1      31.741  26.647  22.543  1.00  0.00     0.129 A 
BRANCH  13  14
ATOM     14  N   UNL A   1      31.036  27.839  22.675  1.00  0.00    -0.312 N 
ATOM     15  C   UNL A   1      30.948  28.756  23.699  1.00  0.00     0.256 C 
ATOM     16  H   UNL A   1      30.495  28.071  21.885  1.00  0.00     0.171 HD
ATOM     17  O   UNL A   1      30.130  29.673  23.650  1.00  0.00    -0.269 OA
BRANCH  15  18
ATOM     18  C   UNL A   1      31.859  28.712  24.855  1.00  0.00     0.040 A 
ATOM     19  C   UNL A   1      31.389  28.362  26.124  1.00  0.00     0.016 A 
ATOM     20  C   UNL A   1      33.192  29.080  24.667  1.00  0.00     0.016 A 
ATOM     21  C   UNL A   1      32.228  28.523  27.229  1.00  0.00     0.026 A 
ATOM     22  C   UNL A   1      34.024  29.217  25.779  1.00  0.00     0.026 A 
ATOM     23  C   UNL A   1      33.526  29.017  27.071  1.00  0.00     0.031 A 
BRANCH  23  24
ATOM     24  N   UNL A   1      34.355  29.180  28.173  1.00  0.00    -0.399 N 
ATOM     25  H   UNL A   1      34.649  28.395  28.689  1.00  0.00     0.156 HD
ATOM     26  H   UNL A   1      34.648  30.081  28.441  1.00  0.00     0.156 HD
ENDBRANCH  23  24
ENDBRANCH  15  18
ENDBRANCH  13  14
ENDBRANCH   5   8
ENDBRANCH   3   4
ENDBRANCH   2   3
ENDBRANCH   1   2
BRANCH   1  27
ATOM     27  C   UNL A   1      34.879  24.223  25.485  1.00  0.00     0.002 C 
BRANCH  27  28
ATOM     28  C   UNL A   1      35.783  23.001  25.250  1.00  0.00     0.021 C 
BRANCH  28  29
ATOM     29  C   UNL A   1      37.263  23.329  25.355  1.00  0.00     0.116 C 
BRANCH  29  30
ATOM     30  N   UNL A   1      37.995  22.271  26.053  1.00  0.00    -0.352 N 
ATOM     31  C   UNL A   1      39.208  22.343  26.710  1.00  0.00     0.251 C 
ATOM     32  H   UNL A   1      37.564  21.386  26.053  1.00  0.00     0.163 HD
ATOM     33  O   UNL A   1      39.860  21.334  26.932  1.00  0.00    -0.269 OA
BRANCH  31  34
ATOM     34  C   UNL A   1      39.687  23.663  27.143  1.00  0.00     0.039 A 
ATOM     35  C   UNL A   1      38.855  24.787  27.132  1.00  0.00     0.014 A 
ATOM     36  C   UNL A   1      40.997  23.744  27.603  1.00  0.00     0.014 A 
ATOM     37  C   UNL A   1      39.341  25.980  27.656  1.00  0.00     0.010 A 
ATOM     38  C   UNL A   1      41.399  24.853  28.291  1.00  0.00     0.010 A 
ATOM     39  C   UNL A   1      40.613  25.997  28.246  1.00  0.00    -0.014 A 
BRANCH  39  40
ATOM     40  C   UNL A   1      41.134  27.187  28.901  1.00  0.00     0.031 A 
ATOM     41  C   UNL A   1      42.322  27.789  28.240  1.00  0.00     0.074 A 
ATOM     42  C   UNL A   1      40.430  27.829  29.858  1.00  0.00     0.049 A 
ATOM     43  N   UNL A   1      43.533  27.841  28.686  1.00  0.00    -0.248 NA
ATOM     44  C   UNL A   1      42.188  28.246  26.846  1.00  0.00     0.031 C 
ATOM     45  C   UNL A   1      39.080  27.532  30.358  1.00  0.00     0.029 A 
ATOM     46  N   UNL A   1      40.728  28.987  30.497  1.00  0.00    -0.354 N 
ATOM     47  C   UNL A   1      44.256  28.566  27.741  1.00  0.00     0.074 A 
ATOM     48  C   UNL A   1      43.445  28.583  26.553  1.00  0.00     0.031 C 
ATOM     49  C   UNL A   1      38.590  28.611  31.006  1.00  0.00     0.029 A 
ATOM     50  C   UNL A   1      39.645  29.599  31.119  1.00  0.00     0.049 A 
ATOM     51  H   UNL A   1      41.637  29.363  30.520  1.00  0.00     0.167 HD
ATOM     52  C   UNL A   1      45.341  29.310  28.098  1.00  0.00     0.037 A 
ATOM     53  C   UNL A   1      39.621  30.859  31.623  1.00  0.00     0.037 A 
ATOM     54  C   UNL A   1      45.794  28.960  29.423  1.00  0.00     0.049 A 
ATOM     55  C   UNL A   1      41.044  31.248  31.850  1.00  0.00     0.074 A 
ATOM     56  C   UNL A   1      46.190  27.780  30.027  1.00  0.00     0.029 A 
ATOM     57  N   UNL A   1      45.485  29.816  30.456  1.00  0.00    -0.354 N 
ATOM     58  N   UNL A   1      41.824  30.651  32.716  1.00  0.00    -0.248 NA
ATOM     59  C   UNL A   1      41.734  31.934  30.766  1.00  0.00     0.031 C 
ATOM     60  C   UNL A   1      45.592  27.817  31.321  1.00  0.00     0.029 A 
ATOM     61  C   UNL A   1      44.953  29.050  31.464  1.00  0.00     0.049 A 
ATOM     62  H   UNL A   1      45.620  30.791  30.470  1.00  0.00     0.167 HD
ATOM     63  C   UNL A   1      43.049  30.524  32.071  1.00  0.00     0.074 A 
ATOM     64  C   UNL A   1      42.948  31.391  30.897  1.00  0.00     0.031 C 
ATOM     65  C   UNL A   1      43.918  29.510  32.367  1.00  0.00     0.037 A 
BRANCH  52  66
ATOM     66  C   UNL A   1      45.762  30.597  27.424  1.00  0.00     0.058 A 
ATOM     67  C   UNL A   1      47.121  30.788  27.096  1.00  0.00     0.135 A 
ATOM     68  C   UNL A   1      44.953  31.753  27.340  1.00  0.00     0.135 A 
ATOM     69  F   UNL A   1      47.986  29.761  27.142  1.00  0.00    -0.206 F 
ATOM     70  C   UNL A   1      47.651  32.043  26.793  1.00  0.00     0.059 A 
ATOM     71  C   UNL A   1      45.449  33.002  26.984  1.00  0.00     0.059 A 
ATOM     72  F   UNL A   1      43.663  31.755  27.694  1.00  0.00    -0.206 F 
ATOM     73  C   UNL A   1      46.806  33.147  26.757  1.00  0.00     0.060 A 
BRANCH  73  74
ATOM     74  S   UNL A   1      47.500  34.784  26.476  1.00  0.00     0.124 S 
ATOM     75  O   UNL A   1      46.423  35.642  26.958  1.00  0.00    -0.237 OA
ATOM     76  O   UNL A   1      48.706  34.745  27.297  1.00  0.00    -0.237 OA
ATOM     77  O   UNL A   1      47.730  34.807  25.035  1.00  0.00    -0.744 OA
ENDBRANCH  73  74
ENDBRANCH  52  66
BRANCH  53  78
ATOM     78  C   UNL A   1      38.499  31.835  31.519  1.00  0.00     0.058 A 
ATOM     79  C   UNL A   1      37.867  32.101  30.292  1.00  0.00     0.135 A 
ATOM     80  C   UNL A   1      37.849  32.342  32.666  1.00  0.00     0.135 A 
ATOM     81  F   UNL A   1      38.396  31.639  29.149  1.00  0.00    -0.206 F 
ATOM     82  C   UNL A   1      36.648  32.790  30.210  1.00  0.00     0.059 A 
ATOM     83  C   UNL A   1      36.645  33.042  32.609  1.00  0.00     0.059 A 
ATOM     84  F   UNL A   1      38.320  32.097  33.898  1.00  0.00    -0.206 F 
ATOM     85  C   UNL A   1      36.035  33.241  31.378  1.00  0.00     0.060 A 
BRANCH  85  86
ATOM     86  S   UNL A   1      34.386  33.981  31.304  1.00  0.00     0.124 S 
ATOM     87  O   UNL A   1      33.979  33.676  29.937  1.00  0.00    -0.237 OA
ATOM     88  O   UNL A   1      33.677  33.262  32.357  1.00  0.00    -0.237 OA
ATOM     89  O   UNL A   1      34.635  35.395  31.577  1.00  0.00    -0.744 OA
ENDBRANCH  85  86
ENDBRANCH  53  78
BRANCH  65  90
ATOM     90  C   UNL A   1      43.668  28.652  33.584  1.00  0.00     0.058 A 
ATOM     91  C   UNL A   1      43.993  29.019  34.904  1.00  0.00     0.135 A 
ATOM     92  C   UNL A   1      42.889  27.495  33.424  1.00  0.00     0.135 A 
ATOM     93  F   UNL A   1      44.640  30.162  35.161  1.00  0.00    -0.206 F 
ATOM     94  C   UNL A   1      43.596  28.254  36.003  1.00  0.00     0.059 A 
ATOM     95  C   UNL A   1      42.454  26.735  34.506  1.00  0.00     0.059 A 
ATOM     96  F   UNL A   1      42.487  27.122  32.197  1.00  0.00    -0.206 F 
ATOM     97  C   UNL A   1      42.821  27.115  35.794  1.00  0.00     0.060 A 
BRANCH  97  98
ATOM     98  S   UNL A   1      42.243  26.167  37.220  1.00  0.00     0.124 S 
ATOM     99  O   UNL A   1      43.255  26.477  38.224  1.00  0.00    -0.237 OA
ATOM    100  O   UNL A   1      40.917  26.731  37.460  1.00  0.00    -0.237 OA
ATOM    101  O   UNL A   1      42.246  24.788  36.737  1.00  0.00    -0.744 OA
ENDBRANCH  97  98
ENDBRANCH  65  90
ENDBRANCH  39  40
ENDBRANCH  31  34
ENDBRANCH  29  30
ENDBRANCH  28  29
ENDBRANCH  27  28
ENDBRANCH   1  27
TORSDOF 19
ENDMDL
MODEL 3
REMARK VINA RESULT:     -11.1      2.595      8.812
REMARK SMILES Cc1nsc(NC(=O)c2ccc(N)cc2)c1C(=O)NCCCCCCNC(=O)c1ccc(-c2c3nc(c(-c4c(F)cc(S(=O)(=O)[O-])cc4F)c4ccc([nH]4)c(-c4c(F)cc(S(=O)(=O)[O-])cc4F)c4nc(c(-c5c(F)cc(S(=O)(=O)[O-])cc5F)c5ccc2[nH]5)C=C4)C=C3)cc1
REMARK SMILES IDX 22 1 21 2 20 3 19 4 17 5 18 6 16 8 1 9 2 10 3 11 4 12 5 13
REMARK SMILES IDX 6 14 7 15 8 17 9 18 10 19 15 20 11 21 14 22 12 23 13 24
REMARK SMILES IDX 23 27 24 28 25 29 26 30 27 31 28 33 29 34 30 35 94 36 31 37
REMARK SMILES IDX 93 38 32 39 33 40 34 41 87 42 35 43 92 44 86 45 88 46 36 47
REMARK SMILES IDX 91 48 85 49 84 50 37 52 71 53 50 54 70 55 51 56 54 57 69 58
REMARK SMILES IDX 89 59 52 60 53 61 68 63 90 64 55 65 38 66 39 67 48 68 40 69
REMARK SMILES IDX 41 70 47 71 49 72 42 73 43 74 44 75 45 76 46 77 72 78 73 79
REMARK SMILES IDX 82 80 74 81 75 82 81 83 83 84 76 85 77 86 78 87 79 88 80 89
REMARK SMILES IDX 56 90 57 91 66 92 58 93 59 94 65 95 67 96 60 97 61 98 62 99
REMARK SMILES IDX 63 100 64 101
REMARK H PARENT 19 7 6 16 13 25 13 26 26 32 88 51 54 62
REMARK Flexibility Score: inf
ROOT
ATOM      1  C   UNL A   1      35.671  22.612  24.303  1.00  0.00     0.002 C 
ENDROOT
BRANCH   1   2
ATOM      2  C   UNL A   1      35.198  23.674  25.302  1.00  0.00     0.021 C 
BRANCH   2   3
ATOM      3  C   UNL A   1      34.649  24.935  24.639  1.00  0.00     0.116 C 
BRANCH   3   4
ATOM      4  N   UNL A   1      34.264  25.913  25.614  1.00  0.00    -0.352 N 
ATOM      5  C   UNL A   1      33.391  26.958  25.633  1.00  0.00     0.256 C 
ATOM      6  O   UNL A   1      33.315  27.488  26.751  1.00  0.00    -0.269 OA
ATOM      7  H   UNL A   1      34.743  25.805  26.468  1.00  0.00     0.163 HD
BRANCH   5   8
ATOM      8  C   UNL A   1      32.577  27.471  24.515  1.00  0.00     0.097 A 
ATOM      9  C   UNL A   1      34.102  28.368  22.465  1.00  0.00     0.069 C 
ATOM     10  C   UNL A   1      32.844  28.081  23.206  1.00  0.00     0.066 A 
ATOM     11  N   UNL A   1      31.771  28.474  22.517  1.00  0.00    -0.195 NA
ATOM     12  S   UNL A   1      30.436  28.293  23.428  1.00  0.00    -0.017 S 
ATOM     13  C   UNL A   1      31.177  27.398  24.656  1.00  0.00     0.129 A 
BRANCH  13  14
ATOM     14  N   UNL A   1      30.456  26.800  25.685  1.00  0.00    -0.312 N 
ATOM     15  C   UNL A   1      30.066  25.499  25.911  1.00  0.00     0.256 C 
ATOM     16  H   UNL A   1      30.170  27.429  26.387  1.00  0.00     0.171 HD
ATOM     17  O   UNL A   1      29.292  25.227  26.827  1.00  0.00    -0.269 OA
BRANCH  15  18
ATOM     18  C   UNL A   1      30.597  24.384  25.110  1.00  0.00     0.040 A 
ATOM     19  C   UNL A   1      31.144  23.255  25.727  1.00  0.00     0.016 A 
ATOM     20  C   UNL A   1      30.591  24.501  23.719  1.00  0.00     0.016 A 
ATOM     21  C   UNL A   1      31.816  22.311  24.947  1.00  0.00     0.026 A 
ATOM     22  C   UNL A   1      31.250  23.539  22.952  1.00  0.00     0.026 A 
ATOM     23  C   UNL A   1      31.932  22.483  23.565  1.00  0.00     0.031 A 
BRANCH  23  24
ATOM     24  N   UNL A   1      32.606  21.544  22.795  1.00  0.00    -0.399 N 
ATOM     25  H   UNL A   1      32.176  20.686  22.576  1.00  0.00     0.156 HD
ATOM     26  H   UNL A   1      33.514  21.735  22.466  1.00  0.00     0.156 HD
ENDBRANCH  23  24
ENDBRANCH  15  18
ENDBRANCH  13  14
ENDBRANCH   5   8
ENDBRANCH   3   4
ENDBRANCH   2   3
ENDBRANCH   1   2
BRANCH   1  27
ATOM     27  C   UNL A   1      37.187  22.361  24.282  1.00  0.00     0.002 C 
BRANCH  27  28
ATOM     28  C   UNL A   1      37.790  21.751  25.558  1.00  0.00     0.021 C 
BRANCH  28  29
ATOM     29  C   UNL A   1      38.883  22.612  26.168  1.00  0.00     0.116 C 
BRANCH  29  30
ATOM     30  N   UNL A   1      40.206  22.019  25.965  1.00  0.00    -0.352 N 
ATOM     31  C   UNL A   1      41.437  22.643  25.903  1.00  0.00     0.251 C 
ATOM     32  H   UNL A   1      40.220  21.041  25.856  1.00  0.00     0.163 HD
ATOM     33  O   UNL A   1      42.394  22.089  25.384  1.00  0.00    -0.269 OA
BRANCH  31  34
ATOM     34  C   UNL A   1      41.566  23.986  26.488  1.00  0.00     0.039 A 
ATOM     35  C   UNL A   1      41.072  25.120  25.837  1.00  0.00     0.014 A 
ATOM     36  C   UNL A   1      42.168  24.079  27.738  1.00  0.00     0.014 A 
ATOM     37  C   UNL A   1      41.132  26.344  26.497  1.00  0.00     0.010 A 
ATOM     38  C   UNL A   1      42.047  25.234  28.456  1.00  0.00     0.010 A 
ATOM     39  C   UNL A   1      41.612  26.386  27.814  1.00  0.00    -0.014 A 
BRANCH  39  40
ATOM     40  C   UNL A   1      41.603  27.616  28.589  1.00  0.00     0.031 A 
ATOM     41  C   UNL A   1      42.730  28.541  28.298  1.00  0.00     0.074 A 
ATOM     42  C   UNL A   1      40.519  27.991  29.303  1.00  0.00     0.049 A 
ATOM     43  N   UNL A   1      43.713  28.859  29.074  1.00  0.00    -0.248 NA
ATOM     44  C   UNL A   1      42.876  29.051  26.924  1.00  0.00     0.031 C 
ATOM     45  C   UNL A   1      39.208  27.334  29.393  1.00  0.00     0.029 A 
ATOM     46  N   UNL A   1      40.318  29.137  29.999  1.00  0.00    -0.354 N 
ATOM     47  C   UNL A   1      44.458  29.807  28.375  1.00  0.00     0.074 A 
ATOM     48  C   UNL A   1      44.034  29.710  27.005  1.00  0.00     0.031 C 
ATOM     49  C   UNL A   1      38.296  28.208  29.871  1.00  0.00     0.029 A 
ATOM     50  C   UNL A   1      38.985  29.414  30.282  1.00  0.00     0.049 A 
ATOM     51  H   UNL A   1      41.056  29.725  30.282  1.00  0.00     0.167 HD
ATOM     52  C   UNL A   1      45.170  30.769  29.029  1.00  0.00     0.037 A 
ATOM     53  C   UNL A   1      38.497  30.589  30.756  1.00  0.00     0.037 A 
ATOM     54  C   UNL A   1      45.311  30.446  30.429  1.00  0.00     0.049 A 
ATOM     55  C   UNL A   1      39.649  31.301  31.383  1.00  0.00     0.074 A 
ATOM     56  C   UNL A   1      45.814  29.360  31.122  1.00  0.00     0.029 A 
ATOM     57  N   UNL A   1      44.516  31.120  31.328  1.00  0.00    -0.354 N 
ATOM     58  N   UNL A   1      40.284  30.854  32.437  1.00  0.00    -0.248 NA
ATOM     59  C   UNL A   1      40.412  32.215  30.543  1.00  0.00     0.031 C 
ATOM     60  C   UNL A   1      44.891  29.153  32.190  1.00  0.00     0.029 A 
ATOM     61  C   UNL A   1      43.941  30.175  32.142  1.00  0.00     0.049 A 
ATOM     62  H   UNL A   1      44.384  32.095  31.379  1.00  0.00     0.167 HD
ATOM     63  C   UNL A   1      41.629  31.083  32.173  1.00  0.00     0.074 A 
ATOM     64  C   UNL A   1      41.639  31.981  31.018  1.00  0.00     0.031 C 
ATOM     65  C   UNL A   1      42.613  30.297  32.707  1.00  0.00     0.037 A 
BRANCH  52  66
ATOM     66  C   UNL A   1      45.414  32.166  28.504  1.00  0.00     0.058 A 
ATOM     67  C   UNL A   1      46.730  32.677  28.498  1.00  0.00     0.135 A 
ATOM     68  C   UNL A   1      44.396  33.117  28.268  1.00  0.00     0.135 A 
ATOM     69  F   UNL A   1      47.779  31.867  28.712  1.00  0.00    -0.206 F 
ATOM     70  C   UNL A   1      47.004  34.038  28.358  1.00  0.00     0.059 A 
ATOM     71  C   UNL A   1      44.651  34.469  28.068  1.00  0.00     0.059 A 
ATOM     72  F   UNL A   1      43.096  32.806  28.319  1.00  0.00    -0.206 F 
ATOM     73  C   UNL A   1      45.953  34.928  28.159  1.00  0.00     0.060 A 
BRANCH  73  74
ATOM     74  S   UNL A   1      46.291  36.695  28.087  1.00  0.00     0.124 S 
ATOM     75  O   UNL A   1      45.536  37.181  29.237  1.00  0.00    -0.237 OA
ATOM     76  O   UNL A   1      47.744  36.729  28.213  1.00  0.00    -0.237 OA
ATOM     77  O   UNL A   1      45.771  37.082  26.779  1.00  0.00    -0.744 OA
ENDBRANCH  73  74
ENDBRANCH  52  66
BRANCH  53  78
ATOM     78  C   UNL A   1      37.236  31.262  30.332  1.00  0.00     0.058 A 
ATOM     79  C   UNL A   1      36.376  31.867  31.265  1.00  0.00     0.135 A 
ATOM     80  C   UNL A   1      36.971  31.552  28.975  1.00  0.00     0.135 A 
ATOM     81  F   UNL A   1      36.564  31.670  32.578  1.00  0.00    -0.206 F 
ATOM     82  C   UNL A   1      35.344  32.735  30.880  1.00  0.00     0.059 A 
ATOM     83  C   UNL A   1      35.943  32.401  28.568  1.00  0.00     0.059 A 
ATOM     84  F   UNL A   1      37.762  31.087  27.996  1.00  0.00    -0.206 F 
ATOM     85  C   UNL A   1      35.147  33.010  29.528  1.00  0.00     0.060 A 
BRANCH  85  86
ATOM     86  S   UNL A   1      33.932  34.255  29.028  1.00  0.00     0.124 S 
ATOM     87  O   UNL A   1      33.121  33.516  28.067  1.00  0.00    -0.237 OA
ATOM     88  O   UNL A   1      33.285  34.580  30.295  1.00  0.00    -0.237 OA
ATOM     89  O   UNL A   1      34.753  35.321  28.459  1.00  0.00    -0.744 OA
ENDBRANCH  85  86
ENDBRANCH  53  78
BRANCH  65  90
ATOM     90  C   UNL A   1      42.265  29.317  33.802  1.00  0.00     0.058 A 
ATOM     91  C   UNL A   1      41.683  28.053  33.589  1.00  0.00     0.135 A 
ATOM     92  C   UNL A   1      42.723  29.591  35.101  1.00  0.00     0.135 A 
ATOM     93  F   UNL A   1      41.316  27.660  32.363  1.00  0.00    -0.206 F 
ATOM     94  C   UNL A   1      41.529  27.126  34.624  1.00  0.00     0.059 A 
ATOM     95  C   UNL A   1      42.609  28.671  36.139  1.00  0.00     0.059 A 
ATOM     96  F   UNL A   1      43.347  30.752  35.360  1.00  0.00    -0.206 F 
ATOM     97  C   UNL A   1      42.001  27.443  35.896  1.00  0.00     0.060 A 
BRANCH  97  98
ATOM     98  S   UNL A   1      41.871  26.216  37.216  1.00  0.00     0.124 S 
ATOM     99  O   UNL A   1      40.527  26.460  37.729  1.00  0.00    -0.237 OA
ATOM    100  O   UNL A   1      42.058  24.957  36.500  1.00  0.00    -0.237 OA
ATOM    101  O   UNL A   1      42.958  26.575  38.124  1.00  0.00    -0.744 OA
ENDBRANCH  97  98
ENDBRANCH  65  90
ENDBRANCH  39  40
ENDBRANCH  31  34
ENDBRANCH  29  30
ENDBRANCH  28  29
ENDBRANCH  27  28
ENDBRANCH   1  27
TORSDOF 19
ENDMDL
