MODEL 1
REMARK VINA RESULT:      -7.7      0.000      0.000
REMARK SMILES COc1ccc(/C=C/c2cc(OC)cc(OC)c2/C=C/C(=O)NCCCCCCNC(=O)c2ccc(-c3c4nc(c(-c5c(F)cc(S(=O)(=O)[O-])cc5F)c5ccc([nH]5)c(-c5c(F)cc(S(=O)(=O)[O-])cc5F)c5nc(c(-c6c(F)cc(S(=O)(=O)[O-])cc6F)c6ccc3[nH]6)C=C5)C=C4)cc2)cc1
REMARK SMILES IDX 26 1 25 2 24 3 23 4 21 5 22 6 20 8 19 9 18 10 9 11 10 12
REMARK SMILES IDX 11 13 15 14 14 15 8 16 7 17 6 18 3 19 4 20 100 21 5 22 99 23
REMARK SMILES IDX 2 24 1 25 12 26 13 27 16 28 17 29 27 30 28 31 29 32 30 33
REMARK SMILES IDX 31 34 32 36 33 37 34 38 98 39 35 40 97 41 36 42 37 43 38 44
REMARK SMILES IDX 91 45 39 46 96 47 90 48 92 49 40 50 95 51 89 52 88 53 41 55
REMARK SMILES IDX 75 56 54 57 74 58 55 59 58 60 73 61 93 62 56 63 57 64 72 66
REMARK SMILES IDX 94 67 59 68 42 69 43 70 52 71 44 72 45 73 51 74 53 75 46 76
REMARK SMILES IDX 47 77 48 78 49 79 50 80 76 81 77 82 86 83 78 84 79 85 85 86
REMARK SMILES IDX 87 87 80 88 81 89 82 90 83 91 84 92 60 93 61 94 70 95 62 96
REMARK SMILES IDX 63 97 69 98 71 99 64 100 65 101 66 102 67 103 68 104
REMARK H PARENT 23 7 30 35 92 54 58 65
REMARK Flexibility Score: inf
ROOT
ATOM      1  C   UNL A   1      46.649  26.564  27.037  1.00  0.00     0.002 C 
ENDROOT
BRANCH   1   2
ATOM      2  C   UNL A   1      46.121  27.839  27.709  1.00  0.00     0.021 C 
BRANCH   2   3
ATOM      3  C   UNL A   1      46.342  29.113  26.899  1.00  0.00     0.116 C 
BRANCH   3   4
ATOM      4  N   UNL A   1      45.111  29.567  26.286  1.00  0.00    -0.353 N 
ATOM      5  C   UNL A   1      44.167  30.407  26.783  1.00  0.00     0.244 C 
ATOM      6  O   UNL A   1      43.191  30.719  26.107  1.00  0.00    -0.270 OA
ATOM      7  H   UNL A   1      44.935  29.218  25.383  1.00  0.00     0.163 HD
BRANCH   5   8
ATOM      8  C   UNL A   1      44.343  30.999  28.126  1.00  0.00     0.072 C 
ATOM      9  C   UNL A   1      43.540  30.657  29.146  1.00  0.00     0.018 C 
BRANCH   9  10
ATOM     10  C   UNL A   1      43.535  31.385  30.432  1.00  0.00     0.024 A 
ATOM     11  C   UNL A   1      44.351  30.893  31.490  1.00  0.00    -0.011 A 
ATOM     12  C   UNL A   1      44.395  31.551  32.731  1.00  0.00     0.055 A 
ATOM     13  C   UNL A   1      43.609  32.666  32.971  1.00  0.00     0.123 A 
ATOM     14  C   UNL A   1      42.746  32.530  30.684  1.00  0.00     0.130 A 
ATOM     15  C   UNL A   1      42.806  33.155  31.947  1.00  0.00     0.093 A 
BRANCH  11  16
ATOM     16  C   UNL A   1      45.171  29.675  31.417  1.00  0.00     0.009 C 
ATOM     17  C   UNL A   1      46.354  29.582  32.038  1.00  0.00     0.009 C 
BRANCH  17  18
ATOM     18  C   UNL A   1      47.233  28.404  32.041  1.00  0.00    -0.025 A 
ATOM     19  C   UNL A   1      48.770  26.048  31.976  1.00  0.00     0.118 A 
ATOM     20  C   UNL A   1      49.202  27.146  32.717  1.00  0.00     0.047 A 
ATOM     21  C   UNL A   1      47.589  26.137  31.245  1.00  0.00     0.047 A 
ATOM     22  C   UNL A   1      48.441  28.320  32.748  1.00  0.00     0.012 A 
ATOM     23  C   UNL A   1      46.825  27.301  31.284  1.00  0.00     0.012 A 
BRANCH  19  24
ATOM     24  O   UNL A   1      49.559  24.937  32.049  1.00  0.00    -0.497 OA
ATOM     25  C   UNL A   1      50.862  25.077  31.501  1.00  0.00     0.278 C 
ENDBRANCH  19  24
ENDBRANCH  17  18
ENDBRANCH  11  16
BRANCH  13  26
ATOM     26  O   UNL A   1      43.707  33.197  34.225  1.00  0.00    -0.497 OA
ATOM     27  C   UNL A   1      44.939  32.957  34.897  1.00  0.00     0.278 C 
ENDBRANCH  13  26
BRANCH  14  28
ATOM     28  O   UNL A   1      41.855  33.196  29.885  1.00  0.00    -0.496 OA
ATOM     29  C   UNL A   1      41.326  34.464  30.224  1.00  0.00     0.278 C 
ENDBRANCH  14  28
ENDBRANCH   9  10
ENDBRANCH   5   8
ENDBRANCH   3   4
ENDBRANCH   2   3
ENDBRANCH   1   2
BRANCH   1  30
ATOM     30  C   UNL A   1      46.314  26.410  25.547  1.00  0.00     0.002 C 
BRANCH  30  31
ATOM     31  C   UNL A   1      45.228  25.380  25.227  1.00  0.00     0.021 C 
BRANCH  31  32
ATOM     32  C   UNL A   1      43.806  25.936  25.184  1.00  0.00     0.116 C 
BRANCH  32  33
ATOM     33  N   UNL A   1      42.811  24.882  25.288  1.00  0.00    -0.352 N 
ATOM     34  C   UNL A   1      41.936  24.575  26.305  1.00  0.00     0.251 C 
ATOM     35  H   UNL A   1      42.755  24.289  24.505  1.00  0.00     0.163 HD
ATOM     36  O   UNL A   1      41.333  23.504  26.260  1.00  0.00    -0.269 OA
BRANCH  34  37
ATOM     37  C   UNL A   1      41.724  25.486  27.461  1.00  0.00     0.039 A 
ATOM     38  C   UNL A   1      42.800  26.265  27.911  1.00  0.00     0.014 A 
ATOM     39  C   UNL A   1      40.503  25.565  28.132  1.00  0.00     0.014 A 
ATOM     40  C   UNL A   1      42.633  27.167  28.974  1.00  0.00     0.010 A 
ATOM     41  C   UNL A   1      40.319  26.517  29.142  1.00  0.00     0.010 A 
ATOM     42  C   UNL A   1      41.378  27.335  29.577  1.00  0.00    -0.014 A 
BRANCH  42  43
ATOM     43  C   UNL A   1      41.148  28.333  30.666  1.00  0.00     0.031 A 
ATOM     44  C   UNL A   1      41.928  28.221  31.952  1.00  0.00     0.074 A 
ATOM     45  C   UNL A   1      40.206  29.297  30.552  1.00  0.00     0.049 A 
ATOM     46  N   UNL A   1      41.840  28.946  33.039  1.00  0.00    -0.248 NA
ATOM     47  C   UNL A   1      42.936  27.149  32.029  1.00  0.00     0.031 C 
ATOM     48  C   UNL A   1      39.374  29.545  29.376  1.00  0.00     0.029 A 
ATOM     49  N   UNL A   1      39.768  30.240  31.454  1.00  0.00    -0.354 N 
ATOM     50  C   UNL A   1      42.793  28.436  33.912  1.00  0.00     0.074 A 
ATOM     51  C   UNL A   1      43.386  27.285  33.268  1.00  0.00     0.031 C 
ATOM     52  C   UNL A   1      38.491  30.520  29.642  1.00  0.00     0.029 A 
ATOM     53  C   UNL A   1      38.709  30.998  31.002  1.00  0.00     0.049 A 
ATOM     54  H   UNL A   1      40.174  30.362  32.343  1.00  0.00     0.167 HD
ATOM     55  C   UNL A   1      43.182  28.911  35.119  1.00  0.00     0.037 A 
ATOM     56  C   UNL A   1      38.000  31.978  31.598  1.00  0.00     0.037 A 
ATOM     57  C   UNL A   1      42.608  30.063  35.762  1.00  0.00     0.049 A 
ATOM     58  C   UNL A   1      38.407  32.446  32.970  1.00  0.00     0.074 A 
ATOM     59  C   UNL A   1      42.969  30.643  36.966  1.00  0.00     0.029 A 
ATOM     60  N   UNL A   1      41.555  30.811  35.259  1.00  0.00    -0.354 N 
ATOM     61  N   UNL A   1      39.378  32.010  33.736  1.00  0.00    -0.248 NA
ATOM     62  C   UNL A   1      37.649  33.569  33.543  1.00  0.00     0.031 C 
ATOM     63  C   UNL A   1      42.104  31.713  37.214  1.00  0.00     0.029 A 
ATOM     64  C   UNL A   1      41.240  31.834  36.138  1.00  0.00     0.049 A 
ATOM     65  H   UNL A   1      41.099  30.641  34.403  1.00  0.00     0.167 HD
ATOM     66  C   UNL A   1      39.382  32.841  34.851  1.00  0.00     0.074 A 
ATOM     67  C   UNL A   1      38.320  33.806  34.661  1.00  0.00     0.031 C 
ATOM     68  C   UNL A   1      40.201  32.810  35.932  1.00  0.00     0.037 A 
BRANCH  55  69
ATOM     69  C   UNL A   1      44.313  28.205  35.813  1.00  0.00     0.058 A 
ATOM     70  C   UNL A   1      44.087  27.043  36.570  1.00  0.00     0.135 A 
ATOM     71  C   UNL A   1      45.636  28.651  35.675  1.00  0.00     0.135 A 
ATOM     72  F   UNL A   1      42.838  26.582  36.748  1.00  0.00    -0.206 F 
ATOM     73  C   UNL A   1      45.131  26.360  37.182  1.00  0.00     0.059 A 
ATOM     74  C   UNL A   1      46.700  27.965  36.255  1.00  0.00     0.059 A 
ATOM     75  F   UNL A   1      45.906  29.756  34.964  1.00  0.00    -0.206 F 
ATOM     76  C   UNL A   1      46.435  26.826  37.013  1.00  0.00     0.060 A 
BRANCH  76  77
ATOM     77  S   UNL A   1      47.780  25.907  37.791  1.00  0.00     0.124 S 
ATOM     78  O   UNL A   1      48.689  26.984  38.169  1.00  0.00    -0.237 OA
ATOM     79  O   UNL A   1      47.100  25.236  38.894  1.00  0.00    -0.237 OA
ATOM     80  O   UNL A   1      48.255  25.031  36.724  1.00  0.00    -0.744 OA
ENDBRANCH  76  77
ENDBRANCH  55  69
BRANCH  56  81
ATOM     81  C   UNL A   1      36.861  32.631  30.893  1.00  0.00     0.058 A 
ATOM     82  C   UNL A   1      37.084  33.583  29.886  1.00  0.00     0.135 A 
ATOM     83  C   UNL A   1      35.530  32.359  31.247  1.00  0.00     0.135 A 
ATOM     84  F   UNL A   1      38.339  33.879  29.511  1.00  0.00    -0.206 F 
ATOM     85  C   UNL A   1      36.037  34.278  29.291  1.00  0.00     0.059 A 
ATOM     86  C   UNL A   1      34.463  33.023  30.647  1.00  0.00     0.059 A 
ATOM     87  F   UNL A   1      35.258  31.442  32.188  1.00  0.00    -0.206 F 
ATOM     88  C   UNL A   1      34.728  33.997  29.685  1.00  0.00     0.060 A 
BRANCH  88  89
ATOM     89  S   UNL A   1      33.377  34.916  28.914  1.00  0.00     0.124 S 
ATOM     90  O   UNL A   1      32.538  35.226  30.066  1.00  0.00    -0.237 OA
ATOM     91  O   UNL A   1      34.078  36.045  28.313  1.00  0.00    -0.237 OA
ATOM     92  O   UNL A   1      32.817  33.957  27.966  1.00  0.00    -0.744 OA
ENDBRANCH  88  89
ENDBRANCH  56  81
BRANCH  68  93
ATOM     93  C   UNL A   1      40.029  33.883  36.972  1.00  0.00     0.058 A 
ATOM     94  C   UNL A   1      40.628  35.145  36.844  1.00  0.00     0.135 A 
ATOM     95  C   UNL A   1      39.201  33.661  38.086  1.00  0.00     0.135 A 
ATOM     96  F   UNL A   1      41.434  35.408  35.802  1.00  0.00    -0.206 F 
ATOM     97  C   UNL A   1      40.431  36.142  37.792  1.00  0.00     0.059 A 
ATOM     98  C   UNL A   1      38.964  34.655  39.030  1.00  0.00     0.059 A 
ATOM     99  F   UNL A   1      38.595  32.475  38.253  1.00  0.00    -0.206 F 
ATOM    100  C   UNL A   1      39.593  35.890  38.880  1.00  0.00     0.060 A 
BRANCH 100 101
ATOM    101  S   UNL A   1      39.309  37.209  40.079  1.00  0.00     0.124 S 
ATOM    102  O   UNL A   1      40.674  37.583  40.434  1.00  0.00    -0.237 OA
ATOM    103  O   UNL A   1      38.569  38.191  39.291  1.00  0.00    -0.237 OA
ATOM    104  O   UNL A   1      38.542  36.553  41.133  1.00  0.00    -0.744 OA
ENDBRANCH 100 101
ENDBRANCH  68  93
ENDBRANCH  42  43
ENDBRANCH  34  37
ENDBRANCH  32  33
ENDBRANCH  31  32
ENDBRANCH  30  31
ENDBRANCH   1  30
TORSDOF 22
ENDMDL
MODEL 2
REMARK VINA RESULT:      -7.2      5.878     12.176
REMARK SMILES COc1ccc(/C=C/c2cc(OC)cc(OC)c2/C=C/C(=O)NCCCCCCNC(=O)c2ccc(-c3c4nc(c(-c5c(F)cc(S(=O)(=O)[O-])cc5F)c5ccc([nH]5)c(-c5c(F)cc(S(=O)(=O)[O-])cc5F)c5nc(c(-c6c(F)cc(S(=O)(=O)[O-])cc6F)c6ccc3[nH]6)C=C5)C=C4)cc2)cc1
REMARK SMILES IDX 26 1 25 2 24 3 23 4 21 5 22 6 20 8 19 9 18 10 9 11 10 12
REMARK SMILES IDX 11 13 15 14 14 15 8 16 7 17 6 18 3 19 4 20 100 21 5 22 99 23
REMARK SMILES IDX 2 24 1 25 12 26 13 27 16 28 17 29 27 30 28 31 29 32 30 33
REMARK SMILES IDX 31 34 32 36 33 37 34 38 98 39 35 40 97 41 36 42 37 43 38 44
REMARK SMILES IDX 91 45 39 46 96 47 90 48 92 49 40 50 95 51 89 52 88 53 41 55
REMARK SMILES IDX 75 56 54 57 74 58 55 59 58 60 73 61 93 62 56 63 57 64 72 66
REMARK SMILES IDX 94 67 59 68 42 69 43 70 52 71 44 72 45 73 51 74 53 75 46 76
REMARK SMILES IDX 47 77 48 78 49 79 50 80 76 81 77 82 86 83 78 84 79 85 85 86
REMARK SMILES IDX 87 87 80 88 81 89 82 90 83 91 84 92 60 93 61 94 70 95 62 96
REMARK SMILES IDX 63 97 69 98 71 99 64 100 65 101 66 102 67 103 68 104
REMARK H PARENT 23 7 30 35 92 54 58 65
REMARK Flexibility Score: inf
ROOT
ATOM      1  C   UNL A   1      39.640  32.988  38.180  1.00  0.00     0.002 C 
ENDROOT
BRANCH   1   2
ATOM      2  C   UNL A   1      40.967  32.760  37.442  1.00  0.00     0.021 C 
BRANCH   2   3
ATOM      3  C   UNL A   1      41.033  33.400  36.058  1.00  0.00     0.116 C 
BRANCH   3   4
ATOM      4  N   UNL A   1      40.811  34.829  36.128  1.00  0.00    -0.353 N 
ATOM      5  C   UNL A   1      39.916  35.590  35.448  1.00  0.00     0.244 C 
ATOM      6  O   UNL A   1      39.835  36.797  35.658  1.00  0.00    -0.270 OA
ATOM      7  H   UNL A   1      41.390  35.317  36.758  1.00  0.00     0.163 HD
BRANCH   5   8
ATOM      8  C   UNL A   1      38.988  34.953  34.489  1.00  0.00     0.072 C 
ATOM      9  C   UNL A   1      39.326  34.792  33.200  1.00  0.00     0.018 C 
BRANCH   9  10
ATOM     10  C   UNL A   1      38.352  34.374  32.170  1.00  0.00     0.024 A 
ATOM     11  C   UNL A   1      38.792  34.287  30.819  1.00  0.00    -0.011 A 
ATOM     12  C   UNL A   1      37.914  33.884  29.799  1.00  0.00     0.055 A 
ATOM     13  C   UNL A   1      36.585  33.608  30.077  1.00  0.00     0.123 A 
ATOM     14  C   UNL A   1      36.997  34.079  32.443  1.00  0.00     0.130 A 
ATOM     15  C   UNL A   1      36.141  33.690  31.391  1.00  0.00     0.093 A 
BRANCH  11  16
ATOM     16  C   UNL A   1      40.145  34.631  30.357  1.00  0.00     0.009 C 
ATOM     17  C   UNL A   1      40.394  34.958  29.082  1.00  0.00     0.009 C 
BRANCH  17  18
ATOM     18  C   UNL A   1      41.702  35.337  28.531  1.00  0.00    -0.025 A 
ATOM     19  C   UNL A   1      44.264  35.879  27.501  1.00  0.00     0.118 A 
ATOM     20  C   UNL A   1      43.419  36.925  27.866  1.00  0.00     0.047 A 
ATOM     21  C   UNL A   1      43.820  34.566  27.622  1.00  0.00     0.047 A 
ATOM     22  C   UNL A   1      42.144  36.658  28.375  1.00  0.00     0.012 A 
ATOM     23  C   UNL A   1      42.555  34.298  28.139  1.00  0.00     0.012 A 
BRANCH  19  24
ATOM     24  O   UNL A   1      45.503  36.244  27.061  1.00  0.00    -0.497 OA
ATOM     25  C   UNL A   1      45.658  37.621  26.748  1.00  0.00     0.278 C 
ENDBRANCH  19  24
ENDBRANCH  17  18
ENDBRANCH  11  16
BRANCH  13  26
ATOM     26  O   UNL A   1      35.819  33.263  29.000  1.00  0.00    -0.497 OA
ATOM     27  C   UNL A   1      34.656  34.059  28.795  1.00  0.00     0.278 C 
ENDBRANCH  13  26
BRANCH  14  28
ATOM     28  O   UNL A   1      36.293  34.110  33.618  1.00  0.00    -0.496 OA
ATOM     29  C   UNL A   1      34.890  33.941  33.671  1.00  0.00     0.278 C 
ENDBRANCH  14  28
ENDBRANCH   9  10
ENDBRANCH   5   8
ENDBRANCH   3   4
ENDBRANCH   2   3
ENDBRANCH   1   2
BRANCH   1  30
ATOM     30  C   UNL A   1      38.372  32.859  37.325  1.00  0.00     0.002 C 
BRANCH  30  31
ATOM     31  C   UNL A   1      38.150  31.484  36.691  1.00  0.00     0.021 C 
BRANCH  31  32
ATOM     32  C   UNL A   1      38.056  31.485  35.167  1.00  0.00     0.116 C 
BRANCH  32  33
ATOM     33  N   UNL A   1      38.113  30.138  34.622  1.00  0.00    -0.352 N 
ATOM     34  C   UNL A   1      38.886  29.613  33.613  1.00  0.00     0.251 C 
ATOM     35  H   UNL A   1      37.496  29.498  35.044  1.00  0.00     0.163 HD
ATOM     36  O   UNL A   1      38.608  28.496  33.179  1.00  0.00    -0.269 OA
BRANCH  34  37
ATOM     37  C   UNL A   1      40.021  30.368  33.019  1.00  0.00     0.039 A 
ATOM     38  C   UNL A   1      41.185  30.546  33.781  1.00  0.00     0.014 A 
ATOM     39  C   UNL A   1      39.954  30.933  31.745  1.00  0.00     0.014 A 
ATOM     40  C   UNL A   1      42.295  31.217  33.245  1.00  0.00     0.010 A 
ATOM     41  C   UNL A   1      41.086  31.537  31.185  1.00  0.00     0.010 A 
ATOM     42  C   UNL A   1      42.275  31.686  31.923  1.00  0.00    -0.014 A 
BRANCH  42  43
ATOM     43  C   UNL A   1      43.461  32.346  31.297  1.00  0.00     0.031 A 
ATOM     44  C   UNL A   1      43.678  33.826  31.497  1.00  0.00     0.074 A 
ATOM     45  C   UNL A   1      44.310  31.661  30.497  1.00  0.00     0.049 A 
ATOM     46  N   UNL A   1      44.607  34.601  30.998  1.00  0.00    -0.248 NA
ATOM     47  C   UNL A   1      42.722  34.528  32.371  1.00  0.00     0.031 C 
ATOM     48  C   UNL A   1      44.244  30.230  30.207  1.00  0.00     0.029 A 
ATOM     49  N   UNL A   1      45.387  32.086  29.753  1.00  0.00    -0.354 N 
ATOM     50  C   UNL A   1      44.363  35.867  31.514  1.00  0.00     0.074 A 
ATOM     51  C   UNL A   1      43.147  35.780  32.292  1.00  0.00     0.031 C 
ATOM     52  C   UNL A   1      45.188  29.905  29.310  1.00  0.00     0.029 A 
ATOM     53  C   UNL A   1      45.956  31.099  28.977  1.00  0.00     0.049 A 
ATOM     54  H   UNL A   1      45.723  33.011  29.774  1.00  0.00     0.167 HD
ATOM     55  C   UNL A   1      45.108  36.992  31.398  1.00  0.00     0.037 A 
ATOM     56  C   UNL A   1      46.986  31.135  28.108  1.00  0.00     0.037 A 
ATOM     57  C   UNL A   1      46.326  37.085  30.638  1.00  0.00     0.049 A 
ATOM     58  C   UNL A   1      47.761  32.416  27.943  1.00  0.00     0.074 A 
ATOM     59  C   UNL A   1      47.170  38.173  30.500  1.00  0.00     0.029 A 
ATOM     60  N   UNL A   1      46.874  36.057  29.888  1.00  0.00    -0.354 N 
ATOM     61  N   UNL A   1      47.567  33.577  28.520  1.00  0.00    -0.248 NA
ATOM     62  C   UNL A   1      48.922  32.382  27.042  1.00  0.00     0.031 C 
ATOM     63  C   UNL A   1      48.204  37.818  29.628  1.00  0.00     0.029 A 
ATOM     64  C   UNL A   1      48.034  36.492  29.268  1.00  0.00     0.049 A 
ATOM     65  H   UNL A   1      46.495  35.152  29.807  1.00  0.00     0.167 HD
ATOM     66  C   UNL A   1      48.612  34.391  28.095  1.00  0.00     0.074 A 
ATOM     67  C   UNL A   1      49.437  33.590  27.216  1.00  0.00     0.031 C 
ATOM     68  C   UNL A   1      48.868  35.683  28.415  1.00  0.00     0.037 A 
BRANCH  55  69
ATOM     69  C   UNL A   1      44.646  38.212  32.146  1.00  0.00     0.058 A 
ATOM     70  C   UNL A   1      45.063  38.456  33.465  1.00  0.00     0.135 A 
ATOM     71  C   UNL A   1      43.831  39.173  31.527  1.00  0.00     0.135 A 
ATOM     72  F   UNL A   1      45.830  37.562  34.110  1.00  0.00    -0.206 F 
ATOM     73  C   UNL A   1      44.674  39.600  34.150  1.00  0.00     0.059 A 
ATOM     74  C   UNL A   1      43.453  40.339  32.185  1.00  0.00     0.059 A 
ATOM     75  F   UNL A   1      43.403  38.986  30.269  1.00  0.00    -0.206 F 
ATOM     76  C   UNL A   1      43.873  40.540  33.499  1.00  0.00     0.060 A 
BRANCH  76  77
ATOM     77  S   UNL A   1      43.403  42.034  34.396  1.00  0.00     0.124 S 
ATOM     78  O   UNL A   1      44.216  43.044  33.726  1.00  0.00    -0.237 OA
ATOM     79  O   UNL A   1      41.968  42.107  34.144  1.00  0.00    -0.237 OA
ATOM     80  O   UNL A   1      43.782  41.737  35.774  1.00  0.00    -0.744 OA
ENDBRANCH  76  77
ENDBRANCH  55  69
BRANCH  56  81
ATOM     81  C   UNL A   1      47.393  29.914  27.357  1.00  0.00     0.058 A 
ATOM     82  C   UNL A   1      46.752  29.553  26.163  1.00  0.00     0.135 A 
ATOM     83  C   UNL A   1      48.393  29.056  27.844  1.00  0.00     0.135 A 
ATOM     84  F   UNL A   1      45.789  30.338  25.656  1.00  0.00    -0.206 F 
ATOM     85  C   UNL A   1      47.047  28.363  25.505  1.00  0.00     0.059 A 
ATOM     86  C   UNL A   1      48.725  27.873  27.188  1.00  0.00     0.059 A 
ATOM     87  F   UNL A   1      49.054  29.365  28.970  1.00  0.00    -0.206 F 
ATOM     88  C   UNL A   1      48.030  27.524  26.030  1.00  0.00     0.060 A 
BRANCH  88  89
ATOM     89  S   UNL A   1      48.395  25.976  25.173  1.00  0.00     0.124 S 
ATOM     90  O   UNL A   1      47.774  26.207  23.875  1.00  0.00    -0.237 OA
ATOM     91  O   UNL A   1      49.854  25.955  25.189  1.00  0.00    -0.237 OA
ATOM     92  O   UNL A   1      47.752  24.969  26.012  1.00  0.00    -0.744 OA
ENDBRANCH  88  89
ENDBRANCH  56  81
BRANCH  68  93
ATOM     93  C   UNL A   1      50.121  36.306  27.864  1.00  0.00     0.058 A 
ATOM     94  C   UNL A   1      51.350  36.223  28.535  1.00  0.00     0.135 A 
ATOM     95  C   UNL A   1      50.099  36.947  26.613  1.00  0.00     0.135 A 
ATOM     96  F   UNL A   1      51.425  35.628  29.736  1.00  0.00    -0.206 F 
ATOM     97  C   UNL A   1      52.509  36.769  27.996  1.00  0.00     0.059 A 
ATOM     98  C   UNL A   1      51.254  37.472  26.040  1.00  0.00     0.059 A 
ATOM     99  F   UNL A   1      48.952  37.047  25.923  1.00  0.00    -0.206 F 
ATOM    100  C   UNL A   1      52.453  37.388  26.746  1.00  0.00     0.060 A 
BRANCH 100 101
ATOM    101  S   UNL A   1      53.975  38.051  26.039  1.00  0.00     0.124 S 
ATOM    102  O   UNL A   1      54.333  37.011  25.080  1.00  0.00    -0.237 OA
ATOM    103  O   UNL A   1      53.526  39.315  25.462  1.00  0.00    -0.237 OA
ATOM    104  O   UNL A   1      54.861  38.175  27.191  1.00  0.00    -0.744 OA
ENDBRANCH 100 101
ENDBRANCH  68  93
ENDBRANCH  42  43
ENDBRANCH  34  37
ENDBRANCH  32  33
ENDBRANCH  31  32
ENDBRANCH  30  31
ENDBRANCH   1  30
TORSDOF 22
ENDMDL
MODEL 3
REMARK VINA RESULT:      -7.2      2.912      6.220
REMARK SMILES COc1ccc(/C=C/c2cc(OC)cc(OC)c2/C=C/C(=O)NCCCCCCNC(=O)c2ccc(-c3c4nc(c(-c5c(F)cc(S(=O)(=O)[O-])cc5F)c5ccc([nH]5)c(-c5c(F)cc(S(=O)(=O)[O-])cc5F)c5nc(c(-c6c(F)cc(S(=O)(=O)[O-])cc6F)c6ccc3[nH]6)C=C5)C=C4)cc2)cc1
REMARK SMILES IDX 26 1 25 2 24 3 23 4 21 5 22 6 20 8 19 9 18 10 9 11 10 12
REMARK SMILES IDX 11 13 15 14 14 15 8 16 7 17 6 18 3 19 4 20 100 21 5 22 99 23
REMARK SMILES IDX 2 24 1 25 12 26 13 27 16 28 17 29 27 30 28 31 29 32 30 33
REMARK SMILES IDX 31 34 32 36 33 37 34 38 98 39 35 40 97 41 36 42 37 43 38 44
REMARK SMILES IDX 91 45 39 46 96 47 90 48 92 49 40 50 95 51 89 52 88 53 41 55
REMARK SMILES IDX 75 56 54 57 74 58 55 59 58 60 73 61 93 62 56 63 57 64 72 66
REMARK SMILES IDX 94 67 59 68 42 69 43 70 52 71 44 72 45 73 51 74 53 75 46 76
REMARK SMILES IDX 47 77 48 78 49 79 50 80 76 81 77 82 86 83 78 84 79 85 85 86
REMARK SMILES IDX 87 87 80 88 81 89 82 90 83 91 84 92 60 93 61 94 70 95 62 96
REMARK SMILES IDX 63 97 69 98 71 99 64 100 65 101 66 102 67 103 68 104
REMARK H PARENT 23 7 30 35 92 54 58 65
REMARK Flexibility Score: inf
ROOT
ATOM      1  C   UNL A   1      44.502  23.751  31.324  1.00  0.00     0.002 C 
ENDROOT
BRANCH   1   2
ATOM      2  C   UNL A   1      44.096  23.890  32.798  1.00  0.00     0.021 C 
BRANCH   2   3
ATOM      3  C   UNL A   1      45.251  23.740  33.784  1.00  0.00     0.116 C 
BRANCH   3   4
ATOM      4  N   UNL A   1      45.982  24.982  33.930  1.00  0.00    -0.353 N 
ATOM      5  C   UNL A   1      47.315  25.209  33.805  1.00  0.00     0.244 C 
ATOM      6  O   UNL A   1      47.769  26.343  33.926  1.00  0.00    -0.270 OA
ATOM      7  H   UNL A   1      45.437  25.771  34.150  1.00  0.00     0.163 HD
BRANCH   5   8
ATOM      8  C   UNL A   1      48.222  24.093  33.460  1.00  0.00     0.072 C 
ATOM      9  C   UNL A   1      49.206  23.716  34.292  1.00  0.00     0.018 C 
BRANCH   9  10
ATOM     10  C   UNL A   1      50.266  22.769  33.891  1.00  0.00     0.024 A 
ATOM     11  C   UNL A   1      50.218  21.443  34.407  1.00  0.00    -0.011 A 
ATOM     12  C   UNL A   1      51.193  20.495  34.052  1.00  0.00     0.055 A 
ATOM     13  C   UNL A   1      52.251  20.841  33.228  1.00  0.00     0.123 A 
ATOM     14  C   UNL A   1      51.344  23.107  33.042  1.00  0.00     0.130 A 
ATOM     15  C   UNL A   1      52.311  22.133  32.718  1.00  0.00     0.093 A 
BRANCH  11  16
ATOM     16  C   UNL A   1      49.210  20.952  35.359  1.00  0.00     0.009 C 
ATOM     17  C   UNL A   1      49.324  21.159  36.677  1.00  0.00     0.009 C 
BRANCH  17  18
ATOM     18  C   UNL A   1      48.362  20.729  37.702  1.00  0.00    -0.025 A 
ATOM     19  C   UNL A   1      46.573  19.723  39.627  1.00  0.00     0.118 A 
ATOM     20  C   UNL A   1      46.457  21.038  39.181  1.00  0.00     0.047 A 
ATOM     21  C   UNL A   1      47.600  18.922  39.135  1.00  0.00     0.047 A 
ATOM     22  C   UNL A   1      47.347  21.541  38.226  1.00  0.00     0.012 A 
ATOM     23  C   UNL A   1      48.479  19.418  38.176  1.00  0.00     0.012 A 
BRANCH  19  24
ATOM     24  O   UNL A   1      45.629  19.315  40.522  1.00  0.00    -0.497 OA
ATOM     25  C   UNL A   1      45.594  17.919  40.780  1.00  0.00     0.278 C 
ENDBRANCH  19  24
ENDBRANCH  17  18
ENDBRANCH  11  16
BRANCH  13  26
ATOM     26  O   UNL A   1      53.155  19.848  32.983  1.00  0.00    -0.497 OA
ATOM     27  C   UNL A   1      53.715  19.231  34.137  1.00  0.00     0.278 C 
ENDBRANCH  13  26
BRANCH  14  28
ATOM     28  O   UNL A   1      51.667  24.292  32.435  1.00  0.00    -0.496 OA
ATOM     29  C   UNL A   1      52.986  24.802  32.409  1.00  0.00     0.278 C 
ENDBRANCH  14  28
ENDBRANCH   9  10
ENDBRANCH   5   8
ENDBRANCH   3   4
ENDBRANCH   2   3
ENDBRANCH   1   2
BRANCH   1  30
ATOM     30  C   UNL A   1      43.369  23.396  30.352  1.00  0.00     0.002 C 
BRANCH  30  31
ATOM     31  C   UNL A   1      43.816  23.028  28.936  1.00  0.00     0.021 C 
BRANCH  31  32
ATOM     32  C   UNL A   1      42.690  22.607  27.993  1.00  0.00     0.116 C 
BRANCH  32  33
ATOM     33  N   UNL A   1      42.680  23.401  26.776  1.00  0.00    -0.352 N 
ATOM     34  C   UNL A   1      42.316  24.711  26.565  1.00  0.00     0.251 C 
ATOM     35  H   UNL A   1      42.982  22.923  25.970  1.00  0.00     0.163 HD
ATOM     36  O   UNL A   1      42.187  25.107  25.407  1.00  0.00    -0.269 OA
BRANCH  34  37
ATOM     37  C   UNL A   1      42.050  25.644  27.691  1.00  0.00     0.039 A 
ATOM     38  C   UNL A   1      43.060  26.537  28.080  1.00  0.00     0.014 A 
ATOM     39  C   UNL A   1      40.845  25.636  28.395  1.00  0.00     0.014 A 
ATOM     40  C   UNL A   1      42.837  27.462  29.112  1.00  0.00     0.010 A 
ATOM     41  C   UNL A   1      40.599  26.607  29.373  1.00  0.00     0.010 A 
ATOM     42  C   UNL A   1      41.587  27.537  29.745  1.00  0.00    -0.014 A 
BRANCH  42  43
ATOM     43  C   UNL A   1      41.292  28.552  30.802  1.00  0.00     0.031 A 
ATOM     44  C   UNL A   1      42.019  28.481  32.123  1.00  0.00     0.074 A 
ATOM     45  C   UNL A   1      40.339  29.496  30.628  1.00  0.00     0.049 A 
ATOM     46  N   UNL A   1      41.872  29.227  33.189  1.00  0.00    -0.248 NA
ATOM     47  C   UNL A   1      43.043  27.431  32.265  1.00  0.00     0.031 C 
ATOM     48  C   UNL A   1      39.554  29.703  29.413  1.00  0.00     0.029 A 
ATOM     49  N   UNL A   1      39.846  30.448  31.490  1.00  0.00    -0.354 N 
ATOM     50  C   UNL A   1      42.796  28.753  34.112  1.00  0.00     0.074 A 
ATOM     51  C   UNL A   1      43.436  27.600  33.519  1.00  0.00     0.031 C 
ATOM     52  C   UNL A   1      38.642  30.668  29.621  1.00  0.00     0.029 A 
ATOM     53  C   UNL A   1      38.794  31.177  30.978  1.00  0.00     0.049 A 
ATOM     54  H   UNL A   1      40.212  30.597  32.393  1.00  0.00     0.167 HD
ATOM     55  C   UNL A   1      43.124  29.261  35.324  1.00  0.00     0.037 A 
ATOM     56  C   UNL A   1      38.043  32.155  31.522  1.00  0.00     0.037 A 
ATOM     57  C   UNL A   1      42.503  30.414  35.917  1.00  0.00     0.049 A 
ATOM     58  C   UNL A   1      38.382  32.659  32.901  1.00  0.00     0.074 A 
ATOM     59  C   UNL A   1      42.801  31.025  37.123  1.00  0.00     0.029 A 
ATOM     60  N   UNL A   1      41.459  31.132  35.355  1.00  0.00    -0.354 N 
ATOM     61  N   UNL A   1      39.327  32.258  33.716  1.00  0.00    -0.248 NA
ATOM     62  C   UNL A   1      37.580  33.778  33.417  1.00  0.00     0.031 C 
ATOM     63  C   UNL A   1      41.907  32.084  37.312  1.00  0.00     0.029 A 
ATOM     64  C   UNL A   1      41.088  32.166  36.198  1.00  0.00     0.049 A 
ATOM     65  H   UNL A   1      41.042  30.935  34.484  1.00  0.00     0.167 HD
ATOM     66  C   UNL A   1      39.268  33.111  34.813  1.00  0.00     0.074 A 
ATOM     67  C   UNL A   1      38.198  34.051  34.557  1.00  0.00     0.031 C 
ATOM     68  C   UNL A   1      40.041  33.118  35.927  1.00  0.00     0.037 A 
BRANCH  55  69
ATOM     69  C   UNL A   1      44.237  28.590  36.080  1.00  0.00     0.058 A 
ATOM     70  C   UNL A   1      43.980  27.518  36.951  1.00  0.00     0.135 A 
ATOM     71  C   UNL A   1      45.573  28.976  35.892  1.00  0.00     0.135 A 
ATOM     72  F   UNL A   1      42.718  27.118  37.180  1.00  0.00    -0.206 F 
ATOM     73  C   UNL A   1      45.006  26.865  37.623  1.00  0.00     0.059 A 
ATOM     74  C   UNL A   1      46.619  28.317  36.533  1.00  0.00     0.059 A 
ATOM     75  F   UNL A   1      45.873  29.996  35.073  1.00  0.00    -0.206 F 
ATOM     76  C   UNL A   1      46.323  27.268  37.403  1.00  0.00     0.060 A 
BRANCH  76  77
ATOM     77  S   UNL A   1      47.644  26.388  38.262  1.00  0.00     0.124 S 
ATOM     78  O   UNL A   1      48.200  25.574  37.185  1.00  0.00    -0.237 OA
ATOM     79  O   UNL A   1      48.490  27.480  38.731  1.00  0.00    -0.237 OA
ATOM     80  O   UNL A   1      46.939  25.651  39.305  1.00  0.00    -0.744 OA
ENDBRANCH  76  77
ENDBRANCH  55  69
BRANCH  56  81
ATOM     81  C   UNL A   1      36.923  32.772  30.756  1.00  0.00     0.058 A 
ATOM     82  C   UNL A   1      37.141  33.883  29.927  1.00  0.00     0.135 A 
ATOM     83  C   UNL A   1      35.606  32.300  30.879  1.00  0.00     0.135 A 
ATOM     84  F   UNL A   1      38.381  34.374  29.777  1.00  0.00    -0.206 F 
ATOM     85  C   UNL A   1      36.092  34.535  29.287  1.00  0.00     0.059 A 
ATOM     86  C   UNL A   1      34.543  32.920  30.227  1.00  0.00     0.059 A 
ATOM     87  F   UNL A   1      35.345  31.227  31.641  1.00  0.00    -0.206 F 
ATOM     88  C   UNL A   1      34.793  34.051  29.450  1.00  0.00     0.060 A 
BRANCH  88  89
ATOM     89  S   UNL A   1      33.438  34.914  28.625  1.00  0.00     0.124 S 
ATOM     90  O   UNL A   1      32.747  35.523  29.755  1.00  0.00    -0.237 OA
ATOM     91  O   UNL A   1      34.151  35.831  27.743  1.00  0.00    -0.237 OA
ATOM     92  O   UNL A   1      32.717  33.839  27.949  1.00  0.00    -0.744 OA
ENDBRANCH  88  89
ENDBRANCH  56  81
BRANCH  68  93
ATOM     93  C   UNL A   1      39.805  34.208  36.936  1.00  0.00     0.058 A 
ATOM     94  C   UNL A   1      39.024  34.003  38.083  1.00  0.00     0.135 A 
ATOM     95  C   UNL A   1      40.422  35.461  36.779  1.00  0.00     0.135 A 
ATOM     96  F   UNL A   1      38.406  32.827  38.278  1.00  0.00    -0.206 F 
ATOM     97  C   UNL A   1      38.844  35.007  39.028  1.00  0.00     0.059 A 
ATOM     98  C   UNL A   1      40.283  36.469  37.728  1.00  0.00     0.059 A 
ATOM     99  F   UNL A   1      41.189  35.708  35.705  1.00  0.00    -0.206 F 
ATOM    100  C   UNL A   1      39.482  36.236  38.845  1.00  0.00     0.060 A 
BRANCH 100 101
ATOM    101  S   UNL A   1      39.278  37.513  40.103  1.00  0.00     0.124 S 
ATOM    102  O   UNL A   1      40.586  38.159  40.083  1.00  0.00    -0.237 OA
ATOM    103  O   UNL A   1      38.173  38.304  39.568  1.00  0.00    -0.237 OA
ATOM    104  O   UNL A   1      38.970  36.756  41.311  1.00  0.00    -0.744 OA
ENDBRANCH 100 101
ENDBRANCH  68  93
ENDBRANCH  42  43
ENDBRANCH  34  37
ENDBRANCH  32  33
ENDBRANCH  31  32
ENDBRANCH  30  31
ENDBRANCH   1  30
TORSDOF 22
ENDMDL
