MODEL 1
REMARK VINA RESULT:      -8.6      0.000      0.000
REMARK SMILES COc1ccc([C@H]2CC(c3ccc(S(C)(=O)=O)cc3)=NN2c2ccc(C(=O)NCCCCCCNC(=O)c3ccc(-c4c5nc(c(-c6c(F)cc(S(=O)(=O)[O-])cc6F)c6ccc([nH]6)c(-c6c(F)cc(S(=O)(=O)[O-])cc6F)c6nc(c(-c7c(F)cc(S(=O)(=O)[O-])cc7F)c7ccc4[nH]7)C=C6)C=C5)cc3)cc2)cc1
REMARK SMILES IDX 31 1 30 2 29 3 28 4 26 5 27 6 25 8 22 9 23 10 105 11 24 12
REMARK SMILES IDX 104 13 21 14 7 15 8 16 9 17 20 18 6 19 3 20 4 21 107 22 5 23
REMARK SMILES IDX 106 24 2 25 1 26 10 27 11 28 19 29 12 30 18 31 13 32 14 33
REMARK SMILES IDX 15 34 16 35 17 36 32 37 33 38 34 39 35 40 36 41 37 43 38 44
REMARK SMILES IDX 39 45 103 46 40 47 102 48 41 49 42 50 43 51 96 52 44 53
REMARK SMILES IDX 101 54 95 55 97 56 45 57 100 58 94 59 93 60 46 62 80 63
REMARK SMILES IDX 59 64 79 65 60 66 63 67 78 68 98 69 61 70 62 71 77 73 99 74
REMARK SMILES IDX 64 75 47 76 48 77 57 78 49 79 50 80 56 81 58 82 51 83 52 84
REMARK SMILES IDX 53 85 54 86 55 87 81 88 82 89 91 90 83 91 84 92 90 93 92 94
REMARK SMILES IDX 85 95 86 96 87 97 88 98 89 99 65 100 66 101 75 102 67 103
REMARK SMILES IDX 68 104 74 105 76 106 69 107 70 108 71 109 72 110 73 111
REMARK H PARENT 28 7 35 42 97 61 63 72
REMARK Flexibility Score: inf
ROOT
ATOM      1  C   UNL A   1      35.166  32.763  32.145  1.00  0.00     0.002 C 
ENDROOT
BRANCH   1   2
ATOM      2  C   UNL A   1      36.531  33.348  32.534  1.00  0.00     0.021 C 
BRANCH   2   3
ATOM      3  C   UNL A   1      37.668  32.327  32.452  1.00  0.00     0.116 C 
BRANCH   3   4
ATOM      4  N   UNL A   1      37.148  30.996  32.698  1.00  0.00    -0.352 N 
ATOM      5  C   UNL A   1      37.728  29.825  33.105  1.00  0.00     0.251 C 
ATOM      6  O   UNL A   1      36.997  28.836  33.189  1.00  0.00    -0.269 OA
ATOM      7  H   UNL A   1      36.179  30.919  32.541  1.00  0.00     0.163 HD
BRANCH   5   8
ATOM      8  C   UNL A   1      39.158  29.702  33.506  1.00  0.00     0.039 A 
ATOM      9  C   UNL A   1      41.884  29.251  34.163  1.00  0.00     0.060 A 
ATOM     10  C   UNL A   1      41.295  28.622  33.062  1.00  0.00     0.029 A 
ATOM     11  C   UNL A   1      41.104  30.157  34.890  1.00  0.00     0.029 A 
ATOM     12  C   UNL A   1      39.947  28.825  32.749  1.00  0.00     0.016 A 
ATOM     13  C   UNL A   1      39.769  30.414  34.539  1.00  0.00     0.016 A 
BRANCH   9  14
ATOM     14  N   UNL A   1      43.217  29.011  34.458  1.00  0.00    -0.257 N 
ATOM     15  C   UNL A   1      43.687  28.197  35.582  1.00  0.00     0.144 C 
ATOM     16  C   UNL A   1      45.122  28.695  35.793  1.00  0.00     0.091 C 
ATOM     17  C   UNL A   1      45.202  29.726  34.709  1.00  0.00     0.071 C 
ATOM     18  N   UNL A   1      44.144  29.891  33.983  1.00  0.00    -0.176 NA
BRANCH  15  19
ATOM     19  C   UNL A   1      43.654  26.711  35.254  1.00  0.00    -0.023 A 
ATOM     20  C   UNL A   1      43.481  23.996  34.522  1.00  0.00     0.118 A 
ATOM     21  C   UNL A   1      44.320  24.861  33.821  1.00  0.00     0.047 A 
ATOM     22  C   UNL A   1      42.769  24.466  35.624  1.00  0.00     0.047 A 
ATOM     23  C   UNL A   1      44.398  26.212  34.175  1.00  0.00     0.010 A 
ATOM     24  C   UNL A   1      42.857  25.813  35.987  1.00  0.00     0.010 A 
BRANCH  20  25
ATOM     25  O   UNL A   1      43.459  22.695  34.099  1.00  0.00    -0.497 OA
ATOM     26  C   UNL A   1      44.584  21.934  34.531  1.00  0.00     0.278 C 
ENDBRANCH  20  25
ENDBRANCH  15  19
BRANCH  17  27
ATOM     27  C   UNL A   1      46.412  30.527  34.535  1.00  0.00    -0.002 A 
ATOM     28  C   UNL A   1      47.644  29.875  34.425  1.00  0.00     0.011 A 
ATOM     29  C   UNL A   1      46.320  31.918  34.500  1.00  0.00     0.011 A 
ATOM     30  C   UNL A   1      48.804  30.629  34.262  1.00  0.00     0.021 A 
ATOM     31  C   UNL A   1      47.483  32.675  34.355  1.00  0.00     0.021 A 
ATOM     32  C   UNL A   1      48.718  32.026  34.241  1.00  0.00     0.067 A 
BRANCH  32  33
ATOM     33  S   UNL A   1      50.204  32.982  34.049  1.00  0.00     0.175 S 
ATOM     34  C   UNL A   1      49.738  34.294  32.951  1.00  0.00     0.163 C 
ATOM     35  O   UNL A   1      50.510  33.552  35.345  1.00  0.00    -0.224 OA
ATOM     36  O   UNL A   1      51.172  32.155  33.351  1.00  0.00    -0.224 OA
ENDBRANCH  32  33
ENDBRANCH  17  27
ENDBRANCH   9  14
ENDBRANCH   5   8
ENDBRANCH   3   4
ENDBRANCH   2   3
ENDBRANCH   1   2
BRANCH   1  37
ATOM     37  C   UNL A   1      34.655  33.185  30.760  1.00  0.00     0.002 C 
BRANCH  37  38
ATOM     38  C   UNL A   1      35.395  32.552  29.579  1.00  0.00     0.021 C 
BRANCH  38  39
ATOM     39  C   UNL A   1      34.590  32.511  28.283  1.00  0.00     0.116 C 
BRANCH  39  40
ATOM     40  N   UNL A   1      33.910  31.236  28.113  1.00  0.00    -0.352 N 
ATOM     41  C   UNL A   1      34.448  29.981  27.971  1.00  0.00     0.251 C 
ATOM     42  H   UNL A   1      32.926  31.280  28.098  1.00  0.00     0.163 HD
ATOM     43  O   UNL A   1      33.739  29.046  27.610  1.00  0.00    -0.269 OA
BRANCH  41  44
ATOM     44  C   UNL A   1      35.885  29.763  28.242  1.00  0.00     0.039 A 
ATOM     45  C   UNL A   1      36.272  29.266  29.489  1.00  0.00     0.014 A 
ATOM     46  C   UNL A   1      36.847  30.064  27.273  1.00  0.00     0.014 A 
ATOM     47  C   UNL A   1      37.623  29.021  29.746  1.00  0.00     0.010 A 
ATOM     48  C   UNL A   1      38.185  29.760  27.509  1.00  0.00     0.010 A 
ATOM     49  C   UNL A   1      38.587  29.241  28.748  1.00  0.00    -0.014 A 
BRANCH  49  50
ATOM     50  C   UNL A   1      40.023  28.941  28.985  1.00  0.00     0.031 A 
ATOM     51  C   UNL A   1      40.936  30.006  29.529  1.00  0.00     0.074 A 
ATOM     52  C   UNL A   1      40.514  27.732  28.649  1.00  0.00     0.049 A 
ATOM     53  N   UNL A   1      42.227  29.963  29.730  1.00  0.00    -0.248 NA
ATOM     54  C   UNL A   1      40.318  31.298  29.869  1.00  0.00     0.031 C 
ATOM     55  C   UNL A   1      39.737  26.633  28.071  1.00  0.00     0.029 A 
ATOM     56  N   UNL A   1      41.788  27.228  28.734  1.00  0.00    -0.354 N 
ATOM     57  C   UNL A   1      42.580  31.220  30.205  1.00  0.00     0.074 A 
ATOM     58  C   UNL A   1      41.374  32.021  30.214  1.00  0.00     0.031 C 
ATOM     59  C   UNL A   1      40.546  25.580  27.870  1.00  0.00     0.029 A 
ATOM     60  C   UNL A   1      41.903  25.939  28.271  1.00  0.00     0.049 A 
ATOM     61  H   UNL A   1      42.547  27.742  29.092  1.00  0.00     0.167 HD
ATOM     62  C   UNL A   1      43.792  31.661  30.616  1.00  0.00     0.037 A 
ATOM     63  C   UNL A   1      42.983  25.139  28.173  1.00  0.00     0.037 A 
ATOM     64  C   UNL A   1      44.983  30.851  30.629  1.00  0.00     0.049 A 
ATOM     65  C   UNL A   1      44.319  25.650  28.640  1.00  0.00     0.074 A 
ATOM     66  C   UNL A   1      46.249  31.188  31.075  1.00  0.00     0.029 A 
ATOM     67  N   UNL A   1      45.054  29.542  30.177  1.00  0.00    -0.354 N 
ATOM     68  N   UNL A   1      44.623  26.824  29.136  1.00  0.00    -0.248 NA
ATOM     69  C   UNL A   1      45.457  24.726  28.538  1.00  0.00     0.031 C 
ATOM     70  C   UNL A   1      47.094  30.094  30.860  1.00  0.00     0.029 A 
ATOM     71  C   UNL A   1      46.345  29.061  30.319  1.00  0.00     0.049 A 
ATOM     72  H   UNL A   1      44.298  29.030  29.809  1.00  0.00     0.167 HD
ATOM     73  C   UNL A   1      45.981  26.772  29.432  1.00  0.00     0.074 A 
ATOM     74  C   UNL A   1      46.436  25.446  29.068  1.00  0.00     0.031 C 
ATOM     75  C   UNL A   1      46.779  27.734  29.959  1.00  0.00     0.037 A 
BRANCH  62  76
ATOM     76  C   UNL A   1      43.890  33.084  31.095  1.00  0.00     0.058 A 
ATOM     77  C   UNL A   1      43.542  33.444  32.407  1.00  0.00     0.135 A 
ATOM     78  C   UNL A   1      44.364  34.096  30.243  1.00  0.00     0.135 A 
ATOM     79  F   UNL A   1      43.069  32.519  33.258  1.00  0.00    -0.206 F 
ATOM     80  C   UNL A   1      43.629  34.759  32.849  1.00  0.00     0.059 A 
ATOM     81  C   UNL A   1      44.485  35.414  30.673  1.00  0.00     0.059 A 
ATOM     82  F   UNL A   1      44.711  33.808  28.979  1.00  0.00    -0.206 F 
ATOM     83  C   UNL A   1      44.100  35.739  31.972  1.00  0.00     0.060 A 
BRANCH  83  84
ATOM     84  S   UNL A   1      44.206  37.442  32.560  1.00  0.00     0.124 S 
ATOM     85  O   UNL A   1      43.789  38.185  31.375  1.00  0.00    -0.237 OA
ATOM     86  O   UNL A   1      43.265  37.449  33.675  1.00  0.00    -0.237 OA
ATOM     87  O   UNL A   1      45.611  37.587  32.929  1.00  0.00    -0.744 OA
ENDBRANCH  83  84
ENDBRANCH  62  76
BRANCH  63  88
ATOM     88  C   UNL A   1      42.841  23.762  27.631  1.00  0.00     0.058 A 
ATOM     89  C   UNL A   1      42.549  22.682  28.476  1.00  0.00     0.135 A 
ATOM     90  C   UNL A   1      42.983  23.500  26.259  1.00  0.00     0.135 A 
ATOM     91  F   UNL A   1      42.409  22.881  29.795  1.00  0.00    -0.206 F 
ATOM     92  C   UNL A   1      42.421  21.386  27.986  1.00  0.00     0.059 A 
ATOM     93  C   UNL A   1      42.835  22.217  25.741  1.00  0.00     0.059 A 
ATOM     94  F   UNL A   1      43.244  24.503  25.406  1.00  0.00    -0.206 F 
ATOM     95  C   UNL A   1      42.566  21.164  26.615  1.00  0.00     0.060 A 
BRANCH  95  96
ATOM     96  S   UNL A   1      42.356  19.487  25.980  1.00  0.00     0.124 S 
ATOM     97  O   UNL A   1      42.767  18.686  27.127  1.00  0.00    -0.237 OA
ATOM     98  O   UNL A   1      40.932  19.456  25.657  1.00  0.00    -0.237 OA
ATOM     99  O   UNL A   1      43.252  19.450  24.829  1.00  0.00    -0.744 OA
ENDBRANCH  95  96
ENDBRANCH  63  88
BRANCH  75 100
ATOM    100  C   UNL A   1      48.218  27.380  30.205  1.00  0.00     0.058 A 
ATOM    101  C   UNL A   1      49.182  27.467  29.190  1.00  0.00     0.135 A 
ATOM    102  C   UNL A   1      48.645  26.996  31.486  1.00  0.00     0.135 A 
ATOM    103  F   UNL A   1      48.824  27.822  27.946  1.00  0.00    -0.206 F 
ATOM    104  C   UNL A   1      50.519  27.168  29.431  1.00  0.00     0.059 A 
ATOM    105  C   UNL A   1      49.981  26.717  31.757  1.00  0.00     0.059 A 
ATOM    106  F   UNL A   1      47.764  26.905  32.494  1.00  0.00    -0.206 F 
ATOM    107  C   UNL A   1      50.909  26.795  30.719  1.00  0.00     0.060 A 
BRANCH 107 108
ATOM    108  S   UNL A   1      52.653  26.444  31.028  1.00  0.00     0.124 S 
ATOM    109  O   UNL A   1      53.121  26.083  29.695  1.00  0.00    -0.237 OA
ATOM    110  O   UNL A   1      53.141  27.717  31.549  1.00  0.00    -0.237 OA
ATOM    111  O   UNL A   1      52.612  25.352  31.997  1.00  0.00    -0.744 OA
ENDBRANCH 107 108
ENDBRANCH  75 100
ENDBRANCH  49  50
ENDBRANCH  41  44
ENDBRANCH  39  40
ENDBRANCH  38  39
ENDBRANCH  37  38
ENDBRANCH   1  37
TORSDOF 21
ENDMDL
MODEL 2
REMARK VINA RESULT:      -8.4      3.331      9.486
REMARK SMILES COc1ccc([C@H]2CC(c3ccc(S(C)(=O)=O)cc3)=NN2c2ccc(C(=O)NCCCCCCNC(=O)c3ccc(-c4c5nc(c(-c6c(F)cc(S(=O)(=O)[O-])cc6F)c6ccc([nH]6)c(-c6c(F)cc(S(=O)(=O)[O-])cc6F)c6nc(c(-c7c(F)cc(S(=O)(=O)[O-])cc7F)c7ccc4[nH]7)C=C6)C=C5)cc3)cc2)cc1
REMARK SMILES IDX 31 1 30 2 29 3 28 4 26 5 27 6 25 8 22 9 23 10 105 11 24 12
REMARK SMILES IDX 104 13 21 14 7 15 8 16 9 17 20 18 6 19 3 20 4 21 107 22 5 23
REMARK SMILES IDX 106 24 2 25 1 26 10 27 11 28 19 29 12 30 18 31 13 32 14 33
REMARK SMILES IDX 15 34 16 35 17 36 32 37 33 38 34 39 35 40 36 41 37 43 38 44
REMARK SMILES IDX 39 45 103 46 40 47 102 48 41 49 42 50 43 51 96 52 44 53
REMARK SMILES IDX 101 54 95 55 97 56 45 57 100 58 94 59 93 60 46 62 80 63
REMARK SMILES IDX 59 64 79 65 60 66 63 67 78 68 98 69 61 70 62 71 77 73 99 74
REMARK SMILES IDX 64 75 47 76 48 77 57 78 49 79 50 80 56 81 58 82 51 83 52 84
REMARK SMILES IDX 53 85 54 86 55 87 81 88 82 89 91 90 83 91 84 92 90 93 92 94
REMARK SMILES IDX 85 95 86 96 87 97 88 98 89 99 65 100 66 101 75 102 67 103
REMARK SMILES IDX 68 104 74 105 76 106 69 107 70 108 71 109 72 110 73 111
REMARK H PARENT 28 7 35 42 97 61 63 72
REMARK Flexibility Score: inf
ROOT
ATOM      1  C   UNL A   1      42.756  22.605  26.210  1.00  0.00     0.002 C 
ENDROOT
BRANCH   1   2
ATOM      2  C   UNL A   1      43.762  23.191  25.208  1.00  0.00     0.021 C 
BRANCH   2   3
ATOM      3  C   UNL A   1      44.420  24.481  25.703  1.00  0.00     0.116 C 
BRANCH   3   4
ATOM      4  N   UNL A   1      45.821  24.238  25.989  1.00  0.00    -0.352 N 
ATOM      5  C   UNL A   1      46.555  24.241  27.144  1.00  0.00     0.251 C 
ATOM      6  O   UNL A   1      47.764  24.020  27.042  1.00  0.00    -0.269 OA
ATOM      7  H   UNL A   1      46.353  24.024  25.187  1.00  0.00     0.163 HD
BRANCH   5   8
ATOM      8  C   UNL A   1      45.968  24.432  28.500  1.00  0.00     0.039 A 
ATOM      9  C   UNL A   1      45.067  24.870  31.157  1.00  0.00     0.060 A 
ATOM     10  C   UNL A   1      46.160  25.574  30.642  1.00  0.00     0.029 A 
ATOM     11  C   UNL A   1      44.394  23.993  30.300  1.00  0.00     0.029 A 
ATOM     12  C   UNL A   1      46.620  25.343  29.341  1.00  0.00     0.016 A 
ATOM     13  C   UNL A   1      44.812  23.808  28.973  1.00  0.00     0.016 A 
BRANCH   9  14
ATOM     14  N   UNL A   1      44.650  25.107  32.458  1.00  0.00    -0.257 N 
ATOM     15  C   UNL A   1      44.006  24.112  33.319  1.00  0.00     0.144 C 
ATOM     16  C   UNL A   1      43.273  24.973  34.355  1.00  0.00     0.091 C 
ATOM     17  C   UNL A   1      43.657  26.340  33.876  1.00  0.00     0.071 C 
ATOM     18  N   UNL A   1      44.414  26.397  32.828  1.00  0.00    -0.176 NA
BRANCH  15  19
ATOM     19  C   UNL A   1      45.025  23.193  33.979  1.00  0.00    -0.023 A 
ATOM     20  C   UNL A   1      46.847  21.541  35.354  1.00  0.00     0.118 A 
ATOM     21  C   UNL A   1      45.550  21.098  35.100  1.00  0.00     0.047 A 
ATOM     22  C   UNL A   1      47.259  22.783  34.875  1.00  0.00     0.047 A 
ATOM     23  C   UNL A   1      44.640  21.921  34.429  1.00  0.00     0.010 A 
ATOM     24  C   UNL A   1      46.355  23.601  34.192  1.00  0.00     0.010 A 
BRANCH  20  25
ATOM     25  O   UNL A   1      47.664  20.674  36.026  1.00  0.00    -0.497 OA
ATOM     26  C   UNL A   1      48.961  21.202  36.294  1.00  0.00     0.278 C 
ENDBRANCH  20  25
ENDBRANCH  15  19
BRANCH  17  27
ATOM     27  C   UNL A   1      43.146  27.531  34.548  1.00  0.00    -0.002 A 
ATOM     28  C   UNL A   1      41.814  27.903  34.346  1.00  0.00     0.011 A 
ATOM     29  C   UNL A   1      43.995  28.283  35.362  1.00  0.00     0.011 A 
ATOM     30  C   UNL A   1      41.317  29.040  34.981  1.00  0.00     0.021 A 
ATOM     31  C   UNL A   1      43.505  29.431  35.983  1.00  0.00     0.021 A 
ATOM     32  C   UNL A   1      42.170  29.805  35.786  1.00  0.00     0.067 A 
BRANCH  32  33
ATOM     33  S   UNL A   1      41.533  31.263  36.579  1.00  0.00     0.175 S 
ATOM     34  C   UNL A   1      42.212  32.602  35.635  1.00  0.00     0.163 C 
ATOM     35  O   UNL A   1      40.097  31.251  36.393  1.00  0.00    -0.224 OA
ATOM     36  O   UNL A   1      42.114  31.331  37.908  1.00  0.00    -0.224 OA
ENDBRANCH  32  33
ENDBRANCH  17  27
ENDBRANCH   9  14
ENDBRANCH   5   8
ENDBRANCH   3   4
ENDBRANCH   2   3
ENDBRANCH   1   2
BRANCH   1  37
ATOM     37  C   UNL A   1      42.482  21.104  26.041  1.00  0.00     0.002 C 
BRANCH  37  38
ATOM     38  C   UNL A   1      41.251  20.585  26.789  1.00  0.00     0.021 C 
BRANCH  38  39
ATOM     39  C   UNL A   1      40.395  21.676  27.425  1.00  0.00     0.116 C 
BRANCH  39  40
ATOM     40  N   UNL A   1      39.266  22.034  26.580  1.00  0.00    -0.352 N 
ATOM     41  C   UNL A   1      38.674  23.259  26.401  1.00  0.00     0.251 C 
ATOM     42  H   UNL A   1      38.872  21.293  26.065  1.00  0.00     0.163 HD
ATOM     43  O   UNL A   1      37.592  23.340  25.827  1.00  0.00    -0.269 OA
BRANCH  41  44
ATOM     44  C   UNL A   1      39.339  24.478  26.909  1.00  0.00     0.039 A 
ATOM     45  C   UNL A   1      40.090  25.260  26.027  1.00  0.00     0.014 A 
ATOM     46  C   UNL A   1      39.235  24.837  28.256  1.00  0.00     0.014 A 
ATOM     47  C   UNL A   1      40.694  26.432  26.486  1.00  0.00     0.010 A 
ATOM     48  C   UNL A   1      39.784  26.039  28.697  1.00  0.00     0.010 A 
ATOM     49  C   UNL A   1      40.523  26.845  27.818  1.00  0.00    -0.014 A 
BRANCH  49  50
ATOM     50  C   UNL A   1      41.116  28.114  28.314  1.00  0.00     0.031 A 
ATOM     51  C   UNL A   1      42.603  28.327  28.248  1.00  0.00     0.074 A 
ATOM     52  C   UNL A   1      40.321  29.043  28.880  1.00  0.00     0.049 A 
ATOM     53  N   UNL A   1      43.315  29.328  28.699  1.00  0.00    -0.248 NA
ATOM     54  C   UNL A   1      43.399  27.263  27.615  1.00  0.00     0.031 C 
ATOM     55  C   UNL A   1      38.869  28.931  29.042  1.00  0.00     0.029 A 
ATOM     56  N   UNL A   1      40.623  30.261  29.437  1.00  0.00    -0.354 N 
ATOM     57  C   UNL A   1      44.638  29.010  28.417  1.00  0.00     0.074 A 
ATOM     58  C   UNL A   1      44.635  27.699  27.802  1.00  0.00     0.031 C 
ATOM     59  C   UNL A   1      38.406  30.040  29.640  1.00  0.00     0.029 A 
ATOM     60  C   UNL A   1      39.528  30.926  29.935  1.00  0.00     0.049 A 
ATOM     61  H   UNL A   1      41.537  30.623  29.475  1.00  0.00     0.167 HD
ATOM     62  C   UNL A   1      45.751  29.751  28.630  1.00  0.00     0.037 A 
ATOM     63  C   UNL A   1      39.440  32.114  30.565  1.00  0.00     0.037 A 
ATOM     64  C   UNL A   1      45.744  31.066  29.218  1.00  0.00     0.049 A 
ATOM     65  C   UNL A   1      40.690  32.921  30.788  1.00  0.00     0.074 A 
ATOM     66  C   UNL A   1      46.812  31.920  29.430  1.00  0.00     0.029 A 
ATOM     67  N   UNL A   1      44.613  31.717  29.686  1.00  0.00    -0.354 N 
ATOM     68  N   UNL A   1      41.927  32.628  30.467  1.00  0.00    -0.248 NA
ATOM     69  C   UNL A   1      40.533  34.221  31.454  1.00  0.00     0.031 C 
ATOM     70  C   UNL A   1      46.331  33.073  30.059  1.00  0.00     0.029 A 
ATOM     71  C   UNL A   1      44.958  32.957  30.200  1.00  0.00     0.049 A 
ATOM     72  H   UNL A   1      43.698  31.352  29.657  1.00  0.00     0.167 HD
ATOM     73  C   UNL A   1      42.692  33.718  30.866  1.00  0.00     0.074 A 
ATOM     74  C   UNL A   1      41.776  34.681  31.442  1.00  0.00     0.031 C 
ATOM     75  C   UNL A   1      44.031  33.906  30.763  1.00  0.00     0.037 A 
BRANCH  62  76
ATOM     76  C   UNL A   1      47.071  29.159  28.218  1.00  0.00     0.058 A 
ATOM     77  C   UNL A   1      47.935  28.565  29.153  1.00  0.00     0.135 A 
ATOM     78  C   UNL A   1      47.466  29.156  26.870  1.00  0.00     0.135 A 
ATOM     79  F   UNL A   1      47.614  28.554  30.456  1.00  0.00    -0.206 F 
ATOM     80  C   UNL A   1      49.157  28.021  28.772  1.00  0.00     0.059 A 
ATOM     81  C   UNL A   1      48.671  28.592  26.463  1.00  0.00     0.059 A 
ATOM     82  F   UNL A   1      46.678  29.709  25.934  1.00  0.00    -0.206 F 
ATOM     83  C   UNL A   1      49.518  28.042  27.424  1.00  0.00     0.060 A 
BRANCH  83  84
ATOM     84  S   UNL A   1      51.107  27.332  26.945  1.00  0.00     0.124 S 
ATOM     85  O   UNL A   1      50.693  26.056  26.370  1.00  0.00    -0.237 OA
ATOM     86  O   UNL A   1      51.619  28.318  25.998  1.00  0.00    -0.237 OA
ATOM     87  O   UNL A   1      51.834  27.244  28.208  1.00  0.00    -0.744 OA
ENDBRANCH  83  84
ENDBRANCH  62  76
BRANCH  63  88
ATOM     88  C   UNL A   1      38.115  32.622  31.011  1.00  0.00     0.058 A 
ATOM     89  C   UNL A   1      37.655  32.386  32.314  1.00  0.00     0.135 A 
ATOM     90  C   UNL A   1      37.289  33.360  30.148  1.00  0.00     0.135 A 
ATOM     91  F   UNL A   1      38.405  31.682  33.173  1.00  0.00    -0.206 F 
ATOM     92  C   UNL A   1      36.414  32.847  32.743  1.00  0.00     0.059 A 
ATOM     93  C   UNL A   1      36.056  33.853  30.562  1.00  0.00     0.059 A 
ATOM     94  F   UNL A   1      37.694  33.629  28.896  1.00  0.00    -0.206 F 
ATOM     95  C   UNL A   1      35.622  33.580  31.858  1.00  0.00     0.060 A 
BRANCH  95  96
ATOM     96  S   UNL A   1      34.032  34.213  32.436  1.00  0.00     0.124 S 
ATOM     97  O   UNL A   1      33.398  34.601  31.181  1.00  0.00    -0.237 OA
ATOM     98  O   UNL A   1      33.462  33.047  33.106  1.00  0.00    -0.237 OA
ATOM     99  O   UNL A   1      34.410  35.311  33.320  1.00  0.00    -0.744 OA
ENDBRANCH  95  96
ENDBRANCH  63  88
BRANCH  75 100
ATOM    100  C   UNL A   1      44.585  35.214  31.254  1.00  0.00     0.058 A 
ATOM    101  C   UNL A   1      44.669  36.338  30.419  1.00  0.00     0.135 A 
ATOM    102  C   UNL A   1      44.990  35.355  32.591  1.00  0.00     0.135 A 
ATOM    103  F   UNL A   1      44.301  36.253  29.131  1.00  0.00    -0.206 F 
ATOM    104  C   UNL A   1      45.153  37.555  30.888  1.00  0.00     0.059 A 
ATOM    105  C   UNL A   1      45.454  36.570  33.088  1.00  0.00     0.059 A 
ATOM    106  F   UNL A   1      44.922  34.312  33.432  1.00  0.00    -0.206 F 
ATOM    107  C   UNL A   1      45.542  37.661  32.225  1.00  0.00     0.060 A 
BRANCH 107 108
ATOM    108  S   UNL A   1      46.135  39.255  32.831  1.00  0.00     0.124 S 
ATOM    109  O   UNL A   1      46.841  38.863  34.045  1.00  0.00    -0.237 OA
ATOM    110  O   UNL A   1      46.975  39.716  31.729  1.00  0.00    -0.237 OA
ATOM    111  O   UNL A   1      44.907  40.018  33.036  1.00  0.00    -0.744 OA
ENDBRANCH 107 108
ENDBRANCH  75 100
ENDBRANCH  49  50
ENDBRANCH  41  44
ENDBRANCH  39  40
ENDBRANCH  38  39
ENDBRANCH  37  38
ENDBRANCH   1  37
TORSDOF 21
ENDMDL
MODEL 3
REMARK VINA RESULT:      -8.2      2.417      4.524
REMARK SMILES COc1ccc([C@H]2CC(c3ccc(S(C)(=O)=O)cc3)=NN2c2ccc(C(=O)NCCCCCCNC(=O)c3ccc(-c4c5nc(c(-c6c(F)cc(S(=O)(=O)[O-])cc6F)c6ccc([nH]6)c(-c6c(F)cc(S(=O)(=O)[O-])cc6F)c6nc(c(-c7c(F)cc(S(=O)(=O)[O-])cc7F)c7ccc4[nH]7)C=C6)C=C5)cc3)cc2)cc1
REMARK SMILES IDX 31 1 30 2 29 3 28 4 26 5 27 6 25 8 22 9 23 10 105 11 24 12
REMARK SMILES IDX 104 13 21 14 7 15 8 16 9 17 20 18 6 19 3 20 4 21 107 22 5 23
REMARK SMILES IDX 106 24 2 25 1 26 10 27 11 28 19 29 12 30 18 31 13 32 14 33
REMARK SMILES IDX 15 34 16 35 17 36 32 37 33 38 34 39 35 40 36 41 37 43 38 44
REMARK SMILES IDX 39 45 103 46 40 47 102 48 41 49 42 50 43 51 96 52 44 53
REMARK SMILES IDX 101 54 95 55 97 56 45 57 100 58 94 59 93 60 46 62 80 63
REMARK SMILES IDX 59 64 79 65 60 66 63 67 78 68 98 69 61 70 62 71 77 73 99 74
REMARK SMILES IDX 64 75 47 76 48 77 57 78 49 79 50 80 56 81 58 82 51 83 52 84
REMARK SMILES IDX 53 85 54 86 55 87 81 88 82 89 91 90 83 91 84 92 90 93 92 94
REMARK SMILES IDX 85 95 86 96 87 97 88 98 89 99 65 100 66 101 75 102 67 103
REMARK SMILES IDX 68 104 74 105 76 106 69 107 70 108 71 109 72 110 73 111
REMARK H PARENT 28 7 35 42 97 61 63 72
REMARK Flexibility Score: inf
ROOT
ATOM      1  C   UNL A   1      35.077  32.592  32.562  1.00  0.00     0.002 C 
ENDROOT
BRANCH   1   2
ATOM      2  C   UNL A   1      34.704  34.077  32.690  1.00  0.00     0.021 C 
BRANCH   2   3
ATOM      3  C   UNL A   1      35.917  34.985  32.902  1.00  0.00     0.116 C 
BRANCH   3   4
ATOM      4  N   UNL A   1      36.788  34.917  31.743  1.00  0.00    -0.352 N 
ATOM      5  C   UNL A   1      38.068  34.469  31.559  1.00  0.00     0.251 C 
ATOM      6  O   UNL A   1      38.544  34.582  30.428  1.00  0.00    -0.269 OA
ATOM      7  H   UNL A   1      36.371  35.262  30.920  1.00  0.00     0.163 HD
BRANCH   5   8
ATOM      8  C   UNL A   1      38.876  33.806  32.621  1.00  0.00     0.039 A 
ATOM      9  C   UNL A   1      40.228  32.394  34.680  1.00  0.00     0.060 A 
ATOM     10  C   UNL A   1      39.216  31.784  33.933  1.00  0.00     0.029 A 
ATOM     11  C   UNL A   1      40.596  33.699  34.336  1.00  0.00     0.029 A 
ATOM     12  C   UNL A   1      38.533  32.484  32.934  1.00  0.00     0.016 A 
ATOM     13  C   UNL A   1      39.958  34.383  33.289  1.00  0.00     0.016 A 
BRANCH   9  14
ATOM     14  N   UNL A   1      40.871  31.678  35.679  1.00  0.00    -0.257 N 
ATOM     15  C   UNL A   1      41.693  32.276  36.733  1.00  0.00     0.144 C 
ATOM     16  C   UNL A   1      42.578  31.108  37.186  1.00  0.00     0.091 C 
ATOM     17  C   UNL A   1      42.070  30.030  36.279  1.00  0.00     0.071 C 
ATOM     18  N   UNL A   1      41.131  30.359  35.452  1.00  0.00    -0.176 NA
BRANCH  15  19
ATOM     19  C   UNL A   1      40.842  32.807  37.878  1.00  0.00    -0.023 A 
ATOM     20  C   UNL A   1      39.269  33.631  40.066  1.00  0.00     0.118 A 
ATOM     21  C   UNL A   1      40.656  33.556  40.186  1.00  0.00     0.047 A 
ATOM     22  C   UNL A   1      38.665  33.351  38.842  1.00  0.00     0.047 A 
ATOM     23  C   UNL A   1      41.437  33.136  39.105  1.00  0.00     0.010 A 
ATOM     24  C   UNL A   1      39.446  32.944  37.757  1.00  0.00     0.010 A 
BRANCH  20  25
ATOM     25  O   UNL A   1      38.584  34.040  41.178  1.00  0.00    -0.497 OA
ATOM     26  C   UNL A   1      38.308  32.988  42.100  1.00  0.00     0.278 C 
ENDBRANCH  20  25
ENDBRANCH  15  19
BRANCH  17  27
ATOM     27  C   UNL A   1      42.660  28.694  36.313  1.00  0.00    -0.002 A 
ATOM     28  C   UNL A   1      44.025  28.564  36.582  1.00  0.00     0.011 A 
ATOM     29  C   UNL A   1      41.859  27.579  36.063  1.00  0.00     0.011 A 
ATOM     30  C   UNL A   1      44.598  27.294  36.615  1.00  0.00     0.021 A 
ATOM     31  C   UNL A   1      42.435  26.309  36.077  1.00  0.00     0.021 A 
ATOM     32  C   UNL A   1      43.801  26.174  36.349  1.00  0.00     0.067 A 
BRANCH  32  33
ATOM     33  S   UNL A   1      44.543  24.559  36.376  1.00  0.00     0.175 S 
ATOM     34  C   UNL A   1      46.082  24.773  35.521  1.00  0.00     0.163 C 
ATOM     35  O   UNL A   1      44.827  24.248  37.762  1.00  0.00    -0.224 OA
ATOM     36  O   UNL A   1      43.716  23.680  35.568  1.00  0.00    -0.224 OA
ENDBRANCH  32  33
ENDBRANCH  17  27
ENDBRANCH   9  14
ENDBRANCH   5   8
ENDBRANCH   3   4
ENDBRANCH   2   3
ENDBRANCH   1   2
BRANCH   1  37
ATOM     37  C   UNL A   1      35.005  32.032  31.135  1.00  0.00     0.002 C 
BRANCH  37  38
ATOM     38  C   UNL A   1      34.392  32.978  30.100  1.00  0.00     0.021 C 
BRANCH  38  39
ATOM     39  C   UNL A   1      34.702  32.611  28.651  1.00  0.00     0.116 C 
BRANCH  39  40
ATOM     40  N   UNL A   1      34.043  31.375  28.257  1.00  0.00    -0.352 N 
ATOM     41  C   UNL A   1      34.597  30.153  27.968  1.00  0.00     0.251 C 
ATOM     42  H   UNL A   1      33.061  31.423  28.188  1.00  0.00     0.163 HD
ATOM     43  O   UNL A   1      33.918  29.282  27.433  1.00  0.00    -0.269 OA
BRANCH  41  44
ATOM     44  C   UNL A   1      36.015  29.895  28.293  1.00  0.00     0.039 A 
ATOM     45  C   UNL A   1      36.349  29.452  29.576  1.00  0.00     0.014 A 
ATOM     46  C   UNL A   1      37.016  30.106  27.339  1.00  0.00     0.014 A 
ATOM     47  C   UNL A   1      37.681  29.170  29.885  1.00  0.00     0.010 A 
ATOM     48  C   UNL A   1      38.333  29.764  27.629  1.00  0.00     0.010 A 
ATOM     49  C   UNL A   1      38.680  29.298  28.906  1.00  0.00    -0.014 A 
BRANCH  49  50
ATOM     50  C   UNL A   1      40.096  28.956  29.201  1.00  0.00     0.031 A 
ATOM     51  C   UNL A   1      41.000  29.975  29.837  1.00  0.00     0.074 A 
ATOM     52  C   UNL A   1      40.579  27.753  28.836  1.00  0.00     0.049 A 
ATOM     53  N   UNL A   1      42.279  29.895  30.100  1.00  0.00    -0.248 NA
ATOM     54  C   UNL A   1      40.392  31.265  30.204  1.00  0.00     0.031 C 
ATOM     55  C   UNL A   1      39.811  26.697  28.171  1.00  0.00     0.029 A 
ATOM     56  N   UNL A   1      41.837  27.217  28.961  1.00  0.00    -0.354 N 
ATOM     57  C   UNL A   1      42.631  31.122  30.648  1.00  0.00     0.074 A 
ATOM     58  C   UNL A   1      41.443  31.949  30.633  1.00  0.00     0.031 C 
ATOM     59  C   UNL A   1      40.608  25.637  27.963  1.00  0.00     0.029 A 
ATOM     60  C   UNL A   1      41.950  25.948  28.447  1.00  0.00     0.049 A 
ATOM     61  H   UNL A   1      42.587  27.698  29.380  1.00  0.00     0.167 HD
ATOM     62  C   UNL A   1      43.830  31.518  31.139  1.00  0.00     0.037 A 
ATOM     63  C   UNL A   1      43.018  25.129  28.368  1.00  0.00     0.037 A 
ATOM     64  C   UNL A   1      45.002  30.682  31.175  1.00  0.00     0.049 A 
ATOM     65  C   UNL A   1      44.338  25.589  28.924  1.00  0.00     0.074 A 
ATOM     66  C   UNL A   1      46.250  30.971  31.699  1.00  0.00     0.029 A 
ATOM     67  N   UNL A   1      45.070  29.393  30.669  1.00  0.00    -0.354 N 
ATOM     68  N   UNL A   1      44.639  26.734  29.487  1.00  0.00    -0.248 NA
ATOM     69  C   UNL A   1      45.461  24.646  28.838  1.00  0.00     0.031 C 
ATOM     70  C   UNL A   1      47.083  29.869  31.477  1.00  0.00     0.029 A 
ATOM     71  C   UNL A   1      46.343  28.878  30.854  1.00  0.00     0.049 A 
ATOM     72  H   UNL A   1      44.324  28.914  30.241  1.00  0.00     0.167 HD
ATOM     73  C   UNL A   1      45.978  26.639  29.848  1.00  0.00     0.074 A 
ATOM     74  C   UNL A   1      46.425  25.320  29.448  1.00  0.00     0.031 C 
ATOM     75  C   UNL A   1      46.767  27.559  30.457  1.00  0.00     0.037 A 
BRANCH  62  76
ATOM     76  C   UNL A   1      43.931  32.916  31.686  1.00  0.00     0.058 A 
ATOM     77  C   UNL A   1      44.131  34.022  30.843  1.00  0.00     0.135 A 
ATOM     78  C   UNL A   1      43.797  33.159  33.063  1.00  0.00     0.135 A 
ATOM     79  F   UNL A   1      44.281  33.845  29.521  1.00  0.00    -0.206 F 
ATOM     80  C   UNL A   1      44.228  35.314  31.348  1.00  0.00     0.059 A 
ATOM     81  C   UNL A   1      43.863  34.447  33.587  1.00  0.00     0.059 A 
ATOM     82  F   UNL A   1      43.604  32.139  33.913  1.00  0.00    -0.206 F 
ATOM     83  C   UNL A   1      44.096  35.516  32.723  1.00  0.00     0.060 A 
BRANCH  83  84
ATOM     84  S   UNL A   1      44.225  37.199  33.364  1.00  0.00     0.124 S 
ATOM     85  O   UNL A   1      45.627  37.250  33.766  1.00  0.00    -0.237 OA
ATOM     86  O   UNL A   1      43.869  38.005  32.201  1.00  0.00    -0.237 OA
ATOM     87  O   UNL A   1      43.258  37.221  34.457  1.00  0.00    -0.744 OA
ENDBRANCH  83  84
ENDBRANCH  62  76
BRANCH  63  88
ATOM     88  C   UNL A   1      42.876  23.781  27.758  1.00  0.00     0.058 A 
ATOM     89  C   UNL A   1      42.683  22.645  28.558  1.00  0.00     0.135 A 
ATOM     90  C   UNL A   1      42.920  23.601  26.366  1.00  0.00     0.135 A 
ATOM     91  F   UNL A   1      42.640  22.765  29.893  1.00  0.00    -0.206 F 
ATOM     92  C   UNL A   1      42.558  21.375  28.003  1.00  0.00     0.059 A 
ATOM     93  C   UNL A   1      42.771  22.345  25.787  1.00  0.00     0.059 A 
ATOM     94  F   UNL A   1      43.083  24.659  25.556  1.00  0.00    -0.206 F 
ATOM     95  C   UNL A   1      42.603  21.236  26.615  1.00  0.00     0.060 A 
BRANCH  95  96
ATOM     96  S   UNL A   1      42.395  19.591  25.900  1.00  0.00     0.124 S 
ATOM     97  O   UNL A   1      43.429  19.586  24.872  1.00  0.00    -0.237 OA
ATOM     98  O   UNL A   1      42.633  18.723  27.050  1.00  0.00    -0.237 OA
ATOM     99  O   UNL A   1      41.019  19.609  25.413  1.00  0.00    -0.744 OA
ENDBRANCH  95  96
ENDBRANCH  63  88
BRANCH  75 100
ATOM    100  C   UNL A   1      48.185  27.162  30.758  1.00  0.00     0.058 A 
ATOM    101  C   UNL A   1      48.532  26.520  31.956  1.00  0.00     0.135 A 
ATOM    102  C   UNL A   1      49.200  27.385  29.814  1.00  0.00     0.135 A 
ATOM    103  F   UNL A   1      47.600  26.291  32.895  1.00  0.00    -0.206 F 
ATOM    104  C   UNL A   1      49.841  26.127  32.216  1.00  0.00     0.059 A 
ATOM    105  C   UNL A   1      50.511  26.977  30.042  1.00  0.00     0.059 A 
ATOM    106  F   UNL A   1      48.920  27.988  28.648  1.00  0.00    -0.206 F 
ATOM    107  C   UNL A   1      50.823  26.359  31.252  1.00  0.00     0.060 A 
BRANCH 107 108
ATOM    108  S   UNL A   1      52.511  25.812  31.586  1.00  0.00     0.124 S 
ATOM    109  O   UNL A   1      52.296  24.430  32.002  1.00  0.00    -0.237 OA
ATOM    110  O   UNL A   1      53.160  25.990  30.290  1.00  0.00    -0.237 OA
ATOM    111  O   UNL A   1      52.961  26.722  32.636  1.00  0.00    -0.744 OA
ENDBRANCH 107 108
ENDBRANCH  75 100
ENDBRANCH  49  50
ENDBRANCH  41  44
ENDBRANCH  39  40
ENDBRANCH  38  39
ENDBRANCH  37  38
ENDBRANCH   1  37
TORSDOF 21
ENDMDL
