MODEL 1
REMARK VINA RESULT:     -13.7      0.000      0.000
REMARK SMILES Cc1ccc(NC(=O)N2CCCC[C@@H]2C(=O)NCCCCCCNC(=O)c2ccc(-c3c4nc(c(-c5c(F)cc(S(=O)(=O)[O-])cc5F)c5ccc([nH]5)c(-c5c(F)cc(S(=O)(=O)[O-])cc5F)c5nc(c(-c6c(F)cc(S(=O)(=O)[O-])cc6F)c6ccc3[nH]6)C=C5)C=C4)cc2)cc1
REMARK SMILES IDX 21 1 20 2 19 3 18 4 17 5 15 6 16 7 14 9 9 10 10 11 11 12
REMARK SMILES IDX 13 13 12 14 7 15 6 16 8 18 5 19 1 20 2 21 3 22 94 23 4 24
REMARK SMILES IDX 93 25 22 26 23 27 24 28 25 29 26 31 27 32 28 33 92 34 29 35
REMARK SMILES IDX 91 36 30 37 31 38 32 39 85 40 33 41 90 42 84 43 86 44 34 45
REMARK SMILES IDX 89 46 83 47 82 48 35 50 69 51 48 52 68 53 49 54 52 55 67 56
REMARK SMILES IDX 87 57 50 58 51 59 66 61 88 62 53 63 36 64 37 65 46 66 38 67
REMARK SMILES IDX 39 68 45 69 47 70 40 71 41 72 42 73 43 74 44 75 70 76 71 77
REMARK SMILES IDX 80 78 72 79 73 80 79 81 81 82 74 83 75 84 76 85 77 86 78 87
REMARK SMILES IDX 54 88 55 89 64 90 56 91 57 92 63 93 65 94 58 95 59 96 60 97
REMARK SMILES IDX 61 98 62 99
REMARK H PARENT 17 8 6 17 24 30 86 49 52 60
REMARK Flexibility Score: inf
ROOT
ATOM      1  C   UNL A   1      36.183  21.727  25.554  1.00  0.00     0.002 C 
ENDROOT
BRANCH   1   2
ATOM      2  C   UNL A   1      34.962  21.870  24.632  1.00  0.00     0.002 C 
BRANCH   2   3
ATOM      3  C   UNL A   1      34.966  23.081  23.690  1.00  0.00     0.021 C 
BRANCH   3   4
ATOM      4  C   UNL A   1      33.599  23.443  23.105  1.00  0.00     0.116 C 
BRANCH   4   5
ATOM      5  N   UNL A   1      33.616  24.788  22.568  1.00  0.00    -0.354 N 
ATOM      6  C   UNL A   1      33.211  25.957  23.138  1.00  0.00     0.242 C 
ATOM      7  O   UNL A   1      33.035  26.921  22.383  1.00  0.00    -0.273 OA
ATOM      8  H   UNL A   1      33.973  24.869  21.654  1.00  0.00     0.163 HD
BRANCH   6   9
ATOM      9  C   UNL A   1      32.830  26.051  24.637  1.00  0.00     0.176 C 
ATOM     10  N   UNL A   1      31.368  26.098  24.928  1.00  0.00    -0.313 N 
ATOM     11  C   UNL A   1      30.943  26.632  26.220  1.00  0.00     0.122 C 
ATOM     12  C   UNL A   1      31.717  27.851  26.691  1.00  0.00     0.022 C 
ATOM     13  C   UNL A   1      33.611  27.254  25.211  1.00  0.00     0.035 C 
ATOM     14  C   UNL A   1      33.210  27.585  26.639  1.00  0.00     0.004 C 
BRANCH  10  15
ATOM     15  C   UNL A   1      30.395  25.373  24.257  1.00  0.00     0.322 C 
ATOM     16  N   UNL A   1      29.184  25.927  23.988  1.00  0.00    -0.308 N 
ATOM     17  H   UNL A   1      28.410  25.339  24.151  1.00  0.00     0.171 HD
ATOM     18  O   UNL A   1      30.564  24.187  23.963  1.00  0.00    -0.248 OA
BRANCH  16  19
ATOM     19  C   UNL A   1      28.866  27.209  23.513  1.00  0.00     0.042 A 
ATOM     20  C   UNL A   1      27.846  31.304  22.725  1.00  0.00     0.044 C 
ATOM     21  C   UNL A   1      28.173  29.848  22.865  1.00  0.00    -0.051 A 
ATOM     22  C   UNL A   1      29.490  29.406  22.712  1.00  0.00     0.005 A 
ATOM     23  C   UNL A   1      27.190  28.933  23.260  1.00  0.00     0.005 A 
ATOM     24  C   UNL A   1      29.827  28.084  23.005  1.00  0.00     0.026 A 
ATOM     25  C   UNL A   1      27.531  27.613  23.562  1.00  0.00     0.026 A 
ENDBRANCH  16  19
ENDBRANCH  10  15
ENDBRANCH   6   9
ENDBRANCH   4   5
ENDBRANCH   3   4
ENDBRANCH   2   3
ENDBRANCH   1   2
BRANCH   1  26
ATOM     26  C   UNL A   1      37.452  22.455  25.108  1.00  0.00     0.021 C 
BRANCH  26  27
ATOM     27  C   UNL A   1      37.945  23.489  26.112  1.00  0.00     0.116 C 
BRANCH  27  28
ATOM     28  N   UNL A   1      39.194  23.114  26.756  1.00  0.00    -0.352 N 
ATOM     29  C   UNL A   1      40.150  23.960  27.299  1.00  0.00     0.251 C 
ATOM     30  H   UNL A   1      39.383  22.149  26.812  1.00  0.00     0.163 HD
ATOM     31  O   UNL A   1      41.262  23.595  27.610  1.00  0.00    -0.269 OA
BRANCH  29  32
ATOM     32  C   UNL A   1      39.688  25.327  27.616  1.00  0.00     0.039 A 
ATOM     33  C   UNL A   1      40.192  26.363  26.820  1.00  0.00     0.014 A 
ATOM     34  C   UNL A   1      39.053  25.581  28.828  1.00  0.00     0.014 A 
ATOM     35  C   UNL A   1      40.216  27.658  27.326  1.00  0.00     0.010 A 
ATOM     36  C   UNL A   1      39.152  26.850  29.362  1.00  0.00     0.010 A 
ATOM     37  C   UNL A   1      39.775  27.873  28.630  1.00  0.00    -0.014 A 
BRANCH  37  38
ATOM     38  C   UNL A   1      39.972  29.128  29.343  1.00  0.00     0.031 A 
ATOM     39  C   UNL A   1      38.939  30.181  29.263  1.00  0.00     0.074 A 
ATOM     40  C   UNL A   1      41.054  29.283  30.135  1.00  0.00     0.049 A 
ATOM     41  N   UNL A   1      39.126  31.427  29.540  1.00  0.00    -0.248 NA
ATOM     42  C   UNL A   1      37.590  29.898  28.788  1.00  0.00     0.031 C 
ATOM     43  C   UNL A   1      41.268  30.308  31.150  1.00  0.00     0.029 A 
ATOM     44  N   UNL A   1      42.286  28.637  30.025  1.00  0.00    -0.354 N 
ATOM     45  C   UNL A   1      37.894  32.047  29.560  1.00  0.00     0.074 A 
ATOM     46  C   UNL A   1      36.989  31.070  29.002  1.00  0.00     0.031 C 
ATOM     47  C   UNL A   1      42.583  30.398  31.406  1.00  0.00     0.029 A 
ATOM     48  C   UNL A   1      43.270  29.551  30.446  1.00  0.00     0.049 A 
ATOM     49  H   UNL A   1      42.438  27.716  29.713  1.00  0.00     0.167 HD
ATOM     50  C   UNL A   1      37.771  33.257  30.184  1.00  0.00     0.037 A 
ATOM     51  C   UNL A   1      44.226  29.993  29.574  1.00  0.00     0.037 A 
ATOM     52  C   UNL A   1      39.090  33.771  30.567  1.00  0.00     0.049 A 
ATOM     53  C   UNL A   1      44.159  31.479  29.301  1.00  0.00     0.074 A 
ATOM     54  C   UNL A   1      39.791  33.747  31.762  1.00  0.00     0.029 A 
ATOM     55  N   UNL A   1      40.008  34.124  29.581  1.00  0.00    -0.354 N 
ATOM     56  N   UNL A   1      43.121  32.227  29.560  1.00  0.00    -0.248 NA
ATOM     57  C   UNL A   1      45.256  32.241  28.707  1.00  0.00     0.031 C 
ATOM     58  C   UNL A   1      41.158  33.992  31.475  1.00  0.00     0.029 A 
ATOM     59  C   UNL A   1      41.285  34.199  30.112  1.00  0.00     0.049 A 
ATOM     60  H   UNL A   1      39.782  34.297  28.639  1.00  0.00     0.167 HD
ATOM     61  C   UNL A   1      43.368  33.515  29.161  1.00  0.00     0.074 A 
ATOM     62  C   UNL A   1      44.729  33.477  28.657  1.00  0.00     0.031 C 
ATOM     63  C   UNL A   1      42.434  34.507  29.270  1.00  0.00     0.037 A 
BRANCH  50  64
ATOM     64  C   UNL A   1      36.458  33.799  30.742  1.00  0.00     0.058 A 
ATOM     65  C   UNL A   1      35.419  34.203  29.871  1.00  0.00     0.135 A 
ATOM     66  C   UNL A   1      36.183  34.037  32.104  1.00  0.00     0.135 A 
ATOM     67  F   UNL A   1      35.462  33.938  28.558  1.00  0.00    -0.206 F 
ATOM     68  C   UNL A   1      34.287  34.907  30.299  1.00  0.00     0.059 A 
ATOM     69  C   UNL A   1      35.088  34.783  32.554  1.00  0.00     0.059 A 
ATOM     70  F   UNL A   1      36.928  33.502  33.076  1.00  0.00    -0.206 F 
ATOM     71  C   UNL A   1      34.150  35.232  31.640  1.00  0.00     0.060 A 
BRANCH  71  72
ATOM     72  S   UNL A   1      32.734  36.213  32.169  1.00  0.00     0.124 S 
ATOM     73  O   UNL A   1      33.276  36.943  33.311  1.00  0.00    -0.237 OA
ATOM     74  O   UNL A   1      32.453  37.010  30.980  1.00  0.00    -0.237 OA
ATOM     75  O   UNL A   1      31.727  35.207  32.500  1.00  0.00    -0.744 OA
ENDBRANCH  71  72
ENDBRANCH  50  64
BRANCH  51  76
ATOM     76  C   UNL A   1      44.654  28.949  28.600  1.00  0.00     0.058 A 
ATOM     77  C   UNL A   1      44.086  28.986  27.311  1.00  0.00     0.135 A 
ATOM     78  C   UNL A   1      45.857  28.248  28.756  1.00  0.00     0.135 A 
ATOM     79  F   UNL A   1      42.926  29.631  27.108  1.00  0.00    -0.206 F 
ATOM     80  C   UNL A   1      44.758  28.490  26.199  1.00  0.00     0.059 A 
ATOM     81  C   UNL A   1      46.545  27.733  27.653  1.00  0.00     0.059 A 
ATOM     82  F   UNL A   1      46.447  28.175  29.958  1.00  0.00    -0.206 F 
ATOM     83  C   UNL A   1      46.017  27.921  26.373  1.00  0.00     0.060 A 
BRANCH  83  84
ATOM     84  S   UNL A   1      47.009  27.592  24.897  1.00  0.00     0.124 S 
ATOM     85  O   UNL A   1      48.353  27.490  25.453  1.00  0.00    -0.237 OA
ATOM     86  O   UNL A   1      46.429  26.340  24.413  1.00  0.00    -0.237 OA
ATOM     87  O   UNL A   1      46.759  28.759  24.059  1.00  0.00    -0.744 OA
ENDBRANCH  83  84
ENDBRANCH  51  76
BRANCH  63  88
ATOM     88  C   UNL A   1      42.563  35.893  28.684  1.00  0.00     0.058 A 
ATOM     89  C   UNL A   1      42.142  36.237  27.389  1.00  0.00     0.135 A 
ATOM     90  C   UNL A   1      43.010  36.969  29.488  1.00  0.00     0.135 A 
ATOM     91  F   UNL A   1      41.592  35.327  26.571  1.00  0.00    -0.206 F 
ATOM     92  C   UNL A   1      42.230  37.541  26.895  1.00  0.00     0.059 A 
ATOM     93  C   UNL A   1      43.054  38.284  29.035  1.00  0.00     0.059 A 
ATOM     94  F   UNL A   1      43.412  36.775  30.753  1.00  0.00    -0.206 F 
ATOM     95  C   UNL A   1      42.691  38.558  27.724  1.00  0.00     0.060 A 
BRANCH  95  96
ATOM     96  S   UNL A   1      42.765  40.251  27.112  1.00  0.00     0.124 S 
ATOM     97  O   UNL A   1      43.783  40.140  26.073  1.00  0.00    -0.237 OA
ATOM     98  O   UNL A   1      41.404  40.486  26.638  1.00  0.00    -0.237 OA
ATOM     99  O   UNL A   1      43.148  41.016  28.295  1.00  0.00    -0.744 OA
ENDBRANCH  95  96
ENDBRANCH  63  88
ENDBRANCH  37  38
ENDBRANCH  29  32
ENDBRANCH  27  28
ENDBRANCH  26  27
ENDBRANCH   1  26
TORSDOF 18
ENDMDL
MODEL 2
REMARK VINA RESULT:     -13.7      4.898     11.416
REMARK SMILES Cc1ccc(NC(=O)N2CCCC[C@@H]2C(=O)NCCCCCCNC(=O)c2ccc(-c3c4nc(c(-c5c(F)cc(S(=O)(=O)[O-])cc5F)c5ccc([nH]5)c(-c5c(F)cc(S(=O)(=O)[O-])cc5F)c5nc(c(-c6c(F)cc(S(=O)(=O)[O-])cc6F)c6ccc3[nH]6)C=C5)C=C4)cc2)cc1
REMARK SMILES IDX 21 1 20 2 19 3 18 4 17 5 15 6 16 7 14 9 9 10 10 11 11 12
REMARK SMILES IDX 13 13 12 14 7 15 6 16 8 18 5 19 1 20 2 21 3 22 94 23 4 24
REMARK SMILES IDX 93 25 22 26 23 27 24 28 25 29 26 31 27 32 28 33 92 34 29 35
REMARK SMILES IDX 91 36 30 37 31 38 32 39 85 40 33 41 90 42 84 43 86 44 34 45
REMARK SMILES IDX 89 46 83 47 82 48 35 50 69 51 48 52 68 53 49 54 52 55 67 56
REMARK SMILES IDX 87 57 50 58 51 59 66 61 88 62 53 63 36 64 37 65 46 66 38 67
REMARK SMILES IDX 39 68 45 69 47 70 40 71 41 72 42 73 43 74 44 75 70 76 71 77
REMARK SMILES IDX 80 78 72 79 73 80 79 81 81 82 74 83 75 84 76 85 77 86 78 87
REMARK SMILES IDX 54 88 55 89 64 90 56 91 57 92 63 93 65 94 58 95 59 96 60 97
REMARK SMILES IDX 61 98 62 99
REMARK H PARENT 17 8 6 17 24 30 86 49 52 60
REMARK Flexibility Score: inf
ROOT
ATOM      1  C   UNL A   1      32.614  30.062  25.568  1.00  0.00     0.002 C 
ENDROOT
BRANCH   1   2
ATOM      2  C   UNL A   1      31.331  29.450  24.985  1.00  0.00     0.002 C 
BRANCH   2   3
ATOM      3  C   UNL A   1      31.342  29.171  23.476  1.00  0.00     0.021 C 
BRANCH   3   4
ATOM      4  C   UNL A   1      30.906  27.759  23.081  1.00  0.00     0.116 C 
BRANCH   4   5
ATOM      5  N   UNL A   1      31.798  27.211  22.079  1.00  0.00    -0.354 N 
ATOM      6  C   UNL A   1      32.875  26.391  22.228  1.00  0.00     0.242 C 
ATOM      7  O   UNL A   1      33.657  26.308  21.274  1.00  0.00    -0.273 OA
ATOM      8  H   UNL A   1      31.596  27.473  21.152  1.00  0.00     0.163 HD
BRANCH   6   9
ATOM      9  C   UNL A   1      33.205  25.708  23.580  1.00  0.00     0.176 C 
ATOM     10  N   UNL A   1      32.136  24.827  24.134  1.00  0.00    -0.313 N 
ATOM     11  C   UNL A   1      32.170  24.524  25.563  1.00  0.00     0.122 C 
ATOM     12  C   UNL A   1      32.543  25.697  26.453  1.00  0.00     0.022 C 
ATOM     13  C   UNL A   1      33.636  26.835  24.545  1.00  0.00     0.035 C 
ATOM     14  C   UNL A   1      33.827  26.344  25.970  1.00  0.00     0.004 C 
BRANCH  10  15
ATOM     15  C   UNL A   1      31.325  23.987  23.388  1.00  0.00     0.322 C 
ATOM     16  N   UNL A   1      31.806  22.812  22.905  1.00  0.00    -0.308 N 
ATOM     17  H   UNL A   1      31.555  22.608  21.974  1.00  0.00     0.171 HD
ATOM     18  O   UNL A   1      30.179  24.315  23.068  1.00  0.00    -0.248 OA
BRANCH  16  19
ATOM     19  C   UNL A   1      32.606  21.843  23.529  1.00  0.00     0.042 A 
ATOM     20  C   UNL A   1      35.095  18.588  24.815  1.00  0.00     0.044 C 
ATOM     21  C   UNL A   1      34.199  19.749  24.502  1.00  0.00    -0.051 A 
ATOM     22  C   UNL A   1      34.739  21.027  24.333  1.00  0.00     0.005 A 
ATOM     23  C   UNL A   1      32.834  19.550  24.264  1.00  0.00     0.005 A 
ATOM     24  C   UNL A   1      33.938  22.075  23.878  1.00  0.00     0.026 A 
ATOM     25  C   UNL A   1      32.035  20.598  23.800  1.00  0.00     0.026 A 
ENDBRANCH  16  19
ENDBRANCH  10  15
ENDBRANCH   6   9
ENDBRANCH   4   5
ENDBRANCH   3   4
ENDBRANCH   2   3
ENDBRANCH   1   2
BRANCH   1  26
ATOM     26  C   UNL A   1      32.847  29.840  27.063  1.00  0.00     0.021 C 
BRANCH  26  27
ATOM     27  C   UNL A   1      34.314  29.649  27.427  1.00  0.00     0.116 C 
BRANCH  27  28
ATOM     28  N   UNL A   1      34.952  30.871  27.891  1.00  0.00    -0.352 N 
ATOM     29  C   UNL A   1      36.150  30.987  28.581  1.00  0.00     0.251 C 
ATOM     30  H   UNL A   1      34.480  31.713  27.693  1.00  0.00     0.163 HD
ATOM     31  O   UNL A   1      36.505  32.006  29.132  1.00  0.00    -0.269 OA
BRANCH  29  32
ATOM     32  C   UNL A   1      37.056  29.823  28.490  1.00  0.00     0.039 A 
ATOM     33  C   UNL A   1      37.198  29.043  29.644  1.00  0.00     0.014 A 
ATOM     34  C   UNL A   1      37.944  29.718  27.424  1.00  0.00     0.014 A 
ATOM     35  C   UNL A   1      38.344  28.273  29.806  1.00  0.00     0.010 A 
ATOM     36  C   UNL A   1      39.118  29.018  27.621  1.00  0.00     0.010 A 
ATOM     37  C   UNL A   1      39.335  28.337  28.829  1.00  0.00    -0.014 A 
BRANCH  37  38
ATOM     38  C   UNL A   1      40.665  27.768  29.003  1.00  0.00     0.031 A 
ATOM     39  C   UNL A   1      40.913  26.365  28.614  1.00  0.00     0.074 A 
ATOM     40  C   UNL A   1      41.675  28.552  29.436  1.00  0.00     0.049 A 
ATOM     41  N   UNL A   1      41.905  25.647  29.019  1.00  0.00    -0.248 NA
ATOM     42  C   UNL A   1      39.989  25.631  27.758  1.00  0.00     0.031 C 
ATOM     43  C   UNL A   1      43.104  28.267  29.376  1.00  0.00     0.029 A 
ATOM     44  N   UNL A   1      41.581  29.704  30.217  1.00  0.00    -0.354 N 
ATOM     45  C   UNL A   1      41.916  24.483  28.278  1.00  0.00     0.074 A 
ATOM     46  C   UNL A   1      40.656  24.490  27.575  1.00  0.00     0.031 C 
ATOM     47  C   UNL A   1      43.740  29.048  30.264  1.00  0.00     0.029 A 
ATOM     48  C   UNL A   1      42.724  29.742  31.037  1.00  0.00     0.049 A 
ATOM     49  H   UNL A   1      40.853  30.366  30.198  1.00  0.00     0.167 HD
ATOM     50  C   UNL A   1      43.058  23.731  28.243  1.00  0.00     0.037 A 
ATOM     51  C   UNL A   1      42.607  29.667  32.397  1.00  0.00     0.037 A 
ATOM     52  C   UNL A   1      44.039  24.245  29.204  1.00  0.00     0.049 A 
ATOM     53  C   UNL A   1      43.248  28.434  32.996  1.00  0.00     0.074 A 
ATOM     54  C   UNL A   1      45.136  25.080  29.064  1.00  0.00     0.029 A 
ATOM     55  N   UNL A   1      43.772  24.175  30.569  1.00  0.00    -0.354 N 
ATOM     56  N   UNL A   1      43.572  27.370  32.312  1.00  0.00    -0.248 NA
ATOM     57  C   UNL A   1      43.569  28.300  34.415  1.00  0.00     0.031 C 
ATOM     58  C   UNL A   1      45.468  25.589  30.344  1.00  0.00     0.029 A 
ATOM     59  C   UNL A   1      44.595  25.041  31.269  1.00  0.00     0.049 A 
ATOM     60  H   UNL A   1      43.093  23.592  30.980  1.00  0.00     0.167 HD
ATOM     61  C   UNL A   1      44.096  26.423  33.154  1.00  0.00     0.074 A 
ATOM     62  C   UNL A   1      44.096  27.064  34.456  1.00  0.00     0.031 C 
ATOM     63  C   UNL A   1      44.480  25.187  32.714  1.00  0.00     0.037 A 
BRANCH  50  64
ATOM     64  C   UNL A   1      43.406  22.764  27.114  1.00  0.00     0.058 A 
ATOM     65  C   UNL A   1      42.730  21.528  26.994  1.00  0.00     0.135 A 
ATOM     66  C   UNL A   1      44.447  22.937  26.179  1.00  0.00     0.135 A 
ATOM     67  F   UNL A   1      41.637  21.252  27.720  1.00  0.00    -0.206 F 
ATOM     68  C   UNL A   1      43.142  20.507  26.129  1.00  0.00     0.059 A 
ATOM     69  C   UNL A   1      44.912  21.917  25.343  1.00  0.00     0.059 A 
ATOM     70  F   UNL A   1      45.025  24.126  25.983  1.00  0.00    -0.206 F 
ATOM     71  C   UNL A   1      44.263  20.694  25.335  1.00  0.00     0.060 A 
BRANCH  71  72
ATOM     72  S   UNL A   1      44.839  19.344  24.289  1.00  0.00     0.124 S 
ATOM     73  O   UNL A   1      44.112  18.201  24.835  1.00  0.00    -0.237 OA
ATOM     74  O   UNL A   1      44.425  19.787  22.963  1.00  0.00    -0.237 OA
ATOM     75  O   UNL A   1      46.281  19.326  24.520  1.00  0.00    -0.744 OA
ENDBRANCH  71  72
ENDBRANCH  50  64
BRANCH  51  76
ATOM     76  C   UNL A   1      41.388  30.351  32.916  1.00  0.00     0.058 A 
ATOM     77  C   UNL A   1      40.271  29.550  33.224  1.00  0.00     0.135 A 
ATOM     78  C   UNL A   1      41.452  31.624  33.499  1.00  0.00     0.135 A 
ATOM     79  F   UNL A   1      40.151  28.328  32.681  1.00  0.00    -0.206 F 
ATOM     80  C   UNL A   1      39.343  29.927  34.190  1.00  0.00     0.059 A 
ATOM     81  C   UNL A   1      40.525  32.026  34.464  1.00  0.00     0.059 A 
ATOM     82  F   UNL A   1      42.490  32.434  33.243  1.00  0.00    -0.206 F 
ATOM     83  C   UNL A   1      39.515  31.141  34.849  1.00  0.00     0.060 A 
BRANCH  83  84
ATOM     84  S   UNL A   1      38.507  31.457  36.318  1.00  0.00     0.124 S 
ATOM     85  O   UNL A   1      37.402  32.231  35.765  1.00  0.00    -0.237 OA
ATOM     86  O   UNL A   1      38.173  30.102  36.754  1.00  0.00    -0.237 OA
ATOM     87  O   UNL A   1      39.414  32.188  37.196  1.00  0.00    -0.744 OA
ENDBRANCH  83  84
ENDBRANCH  51  76
BRANCH  63  88
ATOM     88  C   UNL A   1      44.884  24.034  33.602  1.00  0.00     0.058 A 
ATOM     89  C   UNL A   1      44.003  23.026  34.026  1.00  0.00     0.135 A 
ATOM     90  C   UNL A   1      46.243  23.845  33.951  1.00  0.00     0.135 A 
ATOM     91  F   UNL A   1      42.711  23.032  33.662  1.00  0.00    -0.206 F 
ATOM     92  C   UNL A   1      44.420  21.946  34.807  1.00  0.00     0.059 A 
ATOM     93  C   UNL A   1      46.690  22.747  34.682  1.00  0.00     0.059 A 
ATOM     94  F   UNL A   1      47.187  24.722  33.582  1.00  0.00    -0.206 F 
ATOM     95  C   UNL A   1      45.766  21.816  35.134  1.00  0.00     0.060 A 
BRANCH  95  96
ATOM     96  S   UNL A   1      46.323  20.402  36.102  1.00  0.00     0.124 S 
ATOM     97  O   UNL A   1      45.734  19.292  35.360  1.00  0.00    -0.237 OA
ATOM     98  O   UNL A   1      47.778  20.508  36.027  1.00  0.00    -0.237 OA
ATOM     99  O   UNL A   1      45.752  20.657  37.421  1.00  0.00    -0.744 OA
ENDBRANCH  95  96
ENDBRANCH  63  88
ENDBRANCH  37  38
ENDBRANCH  29  32
ENDBRANCH  27  28
ENDBRANCH  26  27
ENDBRANCH   1  26
TORSDOF 18
ENDMDL
MODEL 3
REMARK VINA RESULT:     -13.5      4.864     11.548
REMARK SMILES Cc1ccc(NC(=O)N2CCCC[C@@H]2C(=O)NCCCCCCNC(=O)c2ccc(-c3c4nc(c(-c5c(F)cc(S(=O)(=O)[O-])cc5F)c5ccc([nH]5)c(-c5c(F)cc(S(=O)(=O)[O-])cc5F)c5nc(c(-c6c(F)cc(S(=O)(=O)[O-])cc6F)c6ccc3[nH]6)C=C5)C=C4)cc2)cc1
REMARK SMILES IDX 21 1 20 2 19 3 18 4 17 5 15 6 16 7 14 9 9 10 10 11 11 12
REMARK SMILES IDX 13 13 12 14 7 15 6 16 8 18 5 19 1 20 2 21 3 22 94 23 4 24
REMARK SMILES IDX 93 25 22 26 23 27 24 28 25 29 26 31 27 32 28 33 92 34 29 35
REMARK SMILES IDX 91 36 30 37 31 38 32 39 85 40 33 41 90 42 84 43 86 44 34 45
REMARK SMILES IDX 89 46 83 47 82 48 35 50 69 51 48 52 68 53 49 54 52 55 67 56
REMARK SMILES IDX 87 57 50 58 51 59 66 61 88 62 53 63 36 64 37 65 46 66 38 67
REMARK SMILES IDX 39 68 45 69 47 70 40 71 41 72 42 73 43 74 44 75 70 76 71 77
REMARK SMILES IDX 80 78 72 79 73 80 79 81 81 82 74 83 75 84 76 85 77 86 78 87
REMARK SMILES IDX 54 88 55 89 64 90 56 91 57 92 63 93 65 94 58 95 59 96 60 97
REMARK SMILES IDX 61 98 62 99
REMARK H PARENT 17 8 6 17 24 30 86 49 52 60
REMARK Flexibility Score: inf
ROOT
ATOM      1  C   UNL A   1      32.715  29.462  25.763  1.00  0.00     0.002 C 
ENDROOT
BRANCH   1   2
ATOM      2  C   UNL A   1      31.647  28.363  25.649  1.00  0.00     0.002 C 
BRANCH   2   3
ATOM      3  C   UNL A   1      32.106  26.939  25.989  1.00  0.00     0.021 C 
BRANCH   3   4
ATOM      4  C   UNL A   1      31.055  25.853  25.749  1.00  0.00     0.116 C 
BRANCH   4   5
ATOM      5  N   UNL A   1      31.307  24.705  26.598  1.00  0.00    -0.354 N 
ATOM      6  C   UNL A   1      32.264  23.742  26.496  1.00  0.00     0.242 C 
ATOM      7  O   UNL A   1      32.092  22.705  27.149  1.00  0.00    -0.273 OA
ATOM      8  H   UNL A   1      30.694  24.608  27.362  1.00  0.00     0.163 HD
BRANCH   6   9
ATOM      9  C   UNL A   1      33.439  23.854  25.493  1.00  0.00     0.176 C 
ATOM     10  N   UNL A   1      33.359  22.957  24.304  1.00  0.00    -0.313 N 
ATOM     11  C   UNL A   1      34.593  22.671  23.576  1.00  0.00     0.122 C 
ATOM     12  C   UNL A   1      35.811  22.443  24.454  1.00  0.00     0.022 C 
ATOM     13  C   UNL A   1      34.734  23.671  26.315  1.00  0.00     0.035 C 
ATOM     14  C   UNL A   1      35.975  23.582  25.442  1.00  0.00     0.004 C 
BRANCH  10  15
ATOM     15  C   UNL A   1      32.198  22.650  23.610  1.00  0.00     0.322 C 
ATOM     16  N   UNL A   1      32.028  21.421  23.058  1.00  0.00    -0.308 N 
ATOM     17  H   UNL A   1      31.650  21.421  22.148  1.00  0.00     0.171 HD
ATOM     18  O   UNL A   1      31.329  23.501  23.401  1.00  0.00    -0.248 OA
BRANCH  16  19
ATOM     19  C   UNL A   1      32.308  20.151  23.585  1.00  0.00     0.042 A 
ATOM     20  C   UNL A   1      33.800  16.361  24.944  1.00  0.00     0.044 C 
ATOM     21  C   UNL A   1      33.151  17.635  24.494  1.00  0.00    -0.051 A 
ATOM     22  C   UNL A   1      32.970  18.688  25.396  1.00  0.00     0.005 A 
ATOM     23  C   UNL A   1      32.820  17.829  23.148  1.00  0.00     0.005 A 
ATOM     24  C   UNL A   1      32.522  19.930  24.946  1.00  0.00     0.026 A 
ATOM     25  C   UNL A   1      32.380  19.076  22.698  1.00  0.00     0.026 A 
ENDBRANCH  16  19
ENDBRANCH  10  15
ENDBRANCH   6   9
ENDBRANCH   4   5
ENDBRANCH   3   4
ENDBRANCH   2   3
ENDBRANCH   1   2
BRANCH   1  26
ATOM     26  C   UNL A   1      33.111  29.871  27.183  1.00  0.00     0.021 C 
BRANCH  26  27
ATOM     27  C   UNL A   1      34.592  29.675  27.481  1.00  0.00     0.116 C 
BRANCH  27  28
ATOM     28  N   UNL A   1      35.288  30.919  27.770  1.00  0.00    -0.352 N 
ATOM     29  C   UNL A   1      36.525  31.070  28.380  1.00  0.00     0.251 C 
ATOM     30  H   UNL A   1      34.828  31.748  27.505  1.00  0.00     0.163 HD
ATOM     31  O   UNL A   1      36.938  32.131  28.794  1.00  0.00    -0.269 OA
BRANCH  29  32
ATOM     32  C   UNL A   1      37.393  29.874  28.372  1.00  0.00     0.039 A 
ATOM     33  C   UNL A   1      37.542  29.196  29.588  1.00  0.00     0.014 A 
ATOM     34  C   UNL A   1      38.249  29.645  27.300  1.00  0.00     0.014 A 
ATOM     35  C   UNL A   1      38.668  28.406  29.792  1.00  0.00     0.010 A 
ATOM     36  C   UNL A   1      39.406  28.929  27.531  1.00  0.00     0.010 A 
ATOM     37  C   UNL A   1      39.635  28.352  28.790  1.00  0.00    -0.014 A 
BRANCH  37  38
ATOM     38  C   UNL A   1      40.951  27.758  28.983  1.00  0.00     0.031 A 
ATOM     39  C   UNL A   1      41.187  26.360  28.566  1.00  0.00     0.074 A 
ATOM     40  C   UNL A   1      41.961  28.514  29.461  1.00  0.00     0.049 A 
ATOM     41  N   UNL A   1      42.157  25.617  28.978  1.00  0.00    -0.248 NA
ATOM     42  C   UNL A   1      40.274  25.663  27.669  1.00  0.00     0.031 C 
ATOM     43  C   UNL A   1      43.386  28.208  29.431  1.00  0.00     0.029 A 
ATOM     44  N   UNL A   1      41.864  29.648  30.269  1.00  0.00    -0.354 N 
ATOM     45  C   UNL A   1      42.170  24.471  28.209  1.00  0.00     0.074 A 
ATOM     46  C   UNL A   1      40.928  24.516  27.474  1.00  0.00     0.031 C 
ATOM     47  C   UNL A   1      44.012  28.957  30.354  1.00  0.00     0.029 A 
ATOM     48  C   UNL A   1      42.986  29.647  31.118  1.00  0.00     0.049 A 
ATOM     49  H   UNL A   1      41.147  30.322  30.248  1.00  0.00     0.167 HD
ATOM     50  C   UNL A   1      43.300  23.703  28.183  1.00  0.00     0.037 A 
ATOM     51  C   UNL A   1      42.833  29.541  32.472  1.00  0.00     0.037 A 
ATOM     52  C   UNL A   1      44.264  24.178  29.182  1.00  0.00     0.049 A 
ATOM     53  C   UNL A   1      43.440  28.284  33.056  1.00  0.00     0.074 A 
ATOM     54  C   UNL A   1      45.377  24.998  29.090  1.00  0.00     0.029 A 
ATOM     55  N   UNL A   1      43.961  24.078  30.538  1.00  0.00    -0.354 N 
ATOM     56  N   UNL A   1      43.765  27.232  32.354  1.00  0.00    -0.248 NA
ATOM     57  C   UNL A   1      43.722  28.110  34.479  1.00  0.00     0.031 C 
ATOM     58  C   UNL A   1      45.683  25.471  30.391  1.00  0.00     0.029 A 
ATOM     59  C   UNL A   1      44.779  24.913  31.279  1.00  0.00     0.049 A 
ATOM     60  H   UNL A   1      43.263  23.496  30.917  1.00  0.00     0.167 HD
ATOM     61  C   UNL A   1      44.252  26.256  33.185  1.00  0.00     0.074 A 
ATOM     62  C   UNL A   1      44.229  26.865  34.502  1.00  0.00     0.031 C 
ATOM     63  C   UNL A   1      44.629  25.026  32.725  1.00  0.00     0.037 A 
BRANCH  50  64
ATOM     64  C   UNL A   1      43.663  22.759  27.041  1.00  0.00     0.058 A 
ATOM     65  C   UNL A   1      42.907  21.585  26.811  1.00  0.00     0.135 A 
ATOM     66  C   UNL A   1      44.784  22.887  26.196  1.00  0.00     0.135 A 
ATOM     67  F   UNL A   1      41.743  21.367  27.438  1.00  0.00    -0.206 F 
ATOM     68  C   UNL A   1      43.308  20.571  25.933  1.00  0.00     0.059 A 
ATOM     69  C   UNL A   1      45.236  21.868  25.350  1.00  0.00     0.059 A 
ATOM     70  F   UNL A   1      45.464  24.033  26.100  1.00  0.00    -0.206 F 
ATOM     71  C   UNL A   1      44.500  20.702  25.236  1.00  0.00     0.060 A 
BRANCH  71  72
ATOM     72  S   UNL A   1      45.053  19.354  24.174  1.00  0.00     0.124 S 
ATOM     73  O   UNL A   1      44.426  19.691  22.900  1.00  0.00    -0.237 OA
ATOM     74  O   UNL A   1      46.503  19.499  24.228  1.00  0.00    -0.237 OA
ATOM     75  O   UNL A   1      44.519  18.163  24.830  1.00  0.00    -0.744 OA
ENDBRANCH  71  72
ENDBRANCH  50  64
BRANCH  51  76
ATOM     76  C   UNL A   1      41.612  30.231  32.977  1.00  0.00     0.058 A 
ATOM     77  C   UNL A   1      41.657  31.634  33.100  1.00  0.00     0.135 A 
ATOM     78  C   UNL A   1      40.349  29.628  32.914  1.00  0.00     0.135 A 
ATOM     79  F   UNL A   1      42.841  32.262  33.180  1.00  0.00    -0.206 F 
ATOM     80  C   UNL A   1      40.511  32.416  33.002  1.00  0.00     0.059 A 
ATOM     81  C   UNL A   1      39.183  30.395  32.824  1.00  0.00     0.059 A 
ATOM     82  F   UNL A   1      40.239  28.296  32.799  1.00  0.00    -0.206 F 
ATOM     83  C   UNL A   1      39.284  31.788  32.801  1.00  0.00     0.060 A 
BRANCH  83  84
ATOM     84  S   UNL A   1      37.870  32.819  32.343  1.00  0.00     0.124 S 
ATOM     85  O   UNL A   1      36.897  31.822  31.913  1.00  0.00    -0.237 OA
ATOM     86  O   UNL A   1      37.566  33.495  33.604  1.00  0.00    -0.237 OA
ATOM     87  O   UNL A   1      38.406  33.675  31.291  1.00  0.00    -0.744 OA
ENDBRANCH  83  84
ENDBRANCH  51  76
BRANCH  63  88
ATOM     88  C   UNL A   1      44.993  23.845  33.594  1.00  0.00     0.058 A 
ATOM     89  C   UNL A   1      44.105  22.805  33.912  1.00  0.00     0.135 A 
ATOM     90  C   UNL A   1      46.327  23.666  34.032  1.00  0.00     0.135 A 
ATOM     91  F   UNL A   1      42.843  22.802  33.456  1.00  0.00    -0.206 F 
ATOM     92  C   UNL A   1      44.488  21.701  34.678  1.00  0.00     0.059 A 
ATOM     93  C   UNL A   1      46.743  22.548  34.750  1.00  0.00     0.059 A 
ATOM     94  F   UNL A   1      47.277  24.575  33.768  1.00  0.00    -0.206 F 
ATOM     95  C   UNL A   1      45.809  21.583  35.096  1.00  0.00     0.060 A 
BRANCH  95  96
ATOM     96  S   UNL A   1      46.325  20.141  36.046  1.00  0.00     0.124 S 
ATOM     97  O   UNL A   1      45.758  20.438  37.357  1.00  0.00    -0.237 OA
ATOM     98  O   UNL A   1      45.700  19.035  35.325  1.00  0.00    -0.237 OA
ATOM     99  O   UNL A   1      47.781  20.189  35.960  1.00  0.00    -0.744 OA
ENDBRANCH  95  96
ENDBRANCH  63  88
ENDBRANCH  37  38
ENDBRANCH  29  32
ENDBRANCH  27  28
ENDBRANCH  26  27
ENDBRANCH   1  26
TORSDOF 18
ENDMDL
