MODEL 1
REMARK VINA RESULT:     -11.9      0.000      0.000
REMARK SMILES C[C@H]1CC=C(C2=NN=C(C(=O)NCCCCCCNC(=O)c3ccc(-c4c5nc(c(-c6c(F)cc(S(=O)(=O)[O-])cc6F)c6ccc([nH]6)c(-c6c(F)cc(S(=O)(=O)[O-])cc6F)c6nc(c(-c7c(F)cc(S(=O)(=O)[O-])cc7F)c7ccc4[nH]7)C=C6)C=C5)cc3)C2)O1
REMARK SMILES IDX 16 1 15 2 14 3 13 4 12 5 10 6 11 7 9 9 6 10 7 11 88 12 8 13
REMARK SMILES IDX 5 14 1 15 2 16 3 17 89 18 4 19 17 20 18 21 19 22 20 23 21 25
REMARK SMILES IDX 22 26 23 27 87 28 24 29 86 30 25 31 26 32 27 33 80 34 28 35
REMARK SMILES IDX 85 36 79 37 81 38 29 39 84 40 78 41 77 42 30 44 64 45 43 46
REMARK SMILES IDX 63 47 44 48 47 49 62 50 82 51 45 52 46 53 61 55 83 56 48 57
REMARK SMILES IDX 31 58 32 59 41 60 33 61 34 62 40 63 42 64 35 65 36 66 37 67
REMARK SMILES IDX 38 68 39 69 65 70 66 71 75 72 67 73 68 74 74 75 76 76 69 77
REMARK SMILES IDX 70 78 71 79 72 80 73 81 49 82 50 83 59 84 51 85 52 86 58 87
REMARK SMILES IDX 60 88 53 89 54 90 55 91 56 92 57 93
REMARK H PARENT 12 8 19 24 81 43 47 54
REMARK Flexibility Score: inf
ROOT
ATOM      1  C   UNL A   1      37.551  21.948  25.612  1.00  0.00     0.002 C 
ENDROOT
BRANCH   1   2
ATOM      2  C   UNL A   1      37.054  21.834  24.162  1.00  0.00     0.002 C 
BRANCH   2   3
ATOM      3  C   UNL A   1      36.605  23.136  23.490  1.00  0.00     0.021 C 
BRANCH   3   4
ATOM      4  C   UNL A   1      35.099  23.391  23.499  1.00  0.00     0.116 C 
BRANCH   4   5
ATOM      5  N   UNL A   1      34.642  23.857  24.795  1.00  0.00    -0.351 N 
ATOM      6  C   UNL A   1      33.785  23.261  25.680  1.00  0.00     0.267 C 
ATOM      7  O   UNL A   1      33.480  23.817  26.733  1.00  0.00    -0.268 OA
ATOM      8  H   UNL A   1      35.000  24.729  25.079  1.00  0.00     0.163 HD
BRANCH   6   9
ATOM      9  C   UNL A   1      33.200  21.906  25.415  1.00  0.00     0.134 C 
ATOM     10  C   UNL A   1      33.023  19.706  25.116  1.00  0.00     0.111 C 
ATOM     11  N   UNL A   1      31.885  20.249  24.807  1.00  0.00    -0.151 NA
ATOM     12  C   UNL A   1      34.052  20.700  25.540  1.00  0.00     0.126 C 
ATOM     13  N   UNL A   1      32.000  21.661  24.981  1.00  0.00    -0.149 NA
BRANCH  10  14
ATOM     14  C   UNL A   1      33.369  18.281  25.021  1.00  0.00     0.139 C 
ATOM     15  C   UNL A   1      32.577  14.969  25.437  1.00  0.00     0.053 C 
ATOM     16  C   UNL A   1      33.526  16.140  25.633  1.00  0.00     0.174 C 
ATOM     17  C   UNL A   1      34.454  16.360  24.432  1.00  0.00     0.076 C 
ATOM     18  O   UNL A   1      32.762  17.348  25.849  1.00  0.00    -0.489 OA
ATOM     19  C   UNL A   1      34.326  17.816  24.223  1.00  0.00     0.025 C 
ENDBRANCH  10  14
ENDBRANCH   6   9
ENDBRANCH   4   5
ENDBRANCH   3   4
ENDBRANCH   2   3
ENDBRANCH   1   2
BRANCH   1  20
ATOM     20  C   UNL A   1      38.615  23.016  25.902  1.00  0.00     0.021 C 
BRANCH  20  21
ATOM     21  C   UNL A   1      39.657  22.596  26.923  1.00  0.00     0.116 C 
BRANCH  21  22
ATOM     22  N   UNL A   1      40.971  22.311  26.329  1.00  0.00    -0.352 N 
ATOM     23  C   UNL A   1      41.913  23.219  25.875  1.00  0.00     0.251 C 
ATOM     24  H   UNL A   1      41.209  21.360  26.243  1.00  0.00     0.163 HD
ATOM     25  O   UNL A   1      42.783  22.884  25.072  1.00  0.00    -0.269 OA
BRANCH  23  26
ATOM     26  C   UNL A   1      41.860  24.593  26.396  1.00  0.00     0.039 A 
ATOM     27  C   UNL A   1      41.175  25.637  25.766  1.00  0.00     0.014 A 
ATOM     28  C   UNL A   1      42.493  24.796  27.614  1.00  0.00     0.014 A 
ATOM     29  C   UNL A   1      41.091  26.865  26.421  1.00  0.00     0.010 A 
ATOM     30  C   UNL A   1      42.165  25.884  28.362  1.00  0.00     0.010 A 
ATOM     31  C   UNL A   1      41.589  26.970  27.727  1.00  0.00    -0.014 A 
BRANCH  31  32
ATOM     32  C   UNL A   1      41.514  28.189  28.513  1.00  0.00     0.031 A 
ATOM     33  C   UNL A   1      42.617  29.152  28.276  1.00  0.00     0.074 A 
ATOM     34  C   UNL A   1      40.382  28.525  29.175  1.00  0.00     0.049 A 
ATOM     35  N   UNL A   1      43.568  29.479  29.086  1.00  0.00    -0.248 NA
ATOM     36  C   UNL A   1      42.780  29.699  26.919  1.00  0.00     0.031 C 
ATOM     37  C   UNL A   1      39.086  27.825  29.213  1.00  0.00     0.029 A 
ATOM     38  N   UNL A   1      40.117  29.655  29.877  1.00  0.00    -0.354 N 
ATOM     39  C   UNL A   1      44.302  30.461  28.429  1.00  0.00     0.074 A 
ATOM     40  C   UNL A   1      43.916  30.388  27.045  1.00  0.00     0.031 C 
ATOM     41  C   UNL A   1      38.131  28.655  29.685  1.00  0.00     0.029 A 
ATOM     42  C   UNL A   1      38.770  29.868  30.152  1.00  0.00     0.049 A 
ATOM     43  H   UNL A   1      40.823  30.277  30.167  1.00  0.00     0.167 HD
ATOM     44  C   UNL A   1      44.973  31.424  29.122  1.00  0.00     0.037 A 
ATOM     45  C   UNL A   1      38.231  30.989  30.694  1.00  0.00     0.037 A 
ATOM     46  C   UNL A   1      45.086  31.074  30.519  1.00  0.00     0.049 A 
ATOM     47  C   UNL A   1      39.348  31.691  31.391  1.00  0.00     0.074 A 
ATOM     48  C   UNL A   1      45.630  30.004  31.203  1.00  0.00     0.029 A 
ATOM     49  N   UNL A   1      44.221  31.676  31.405  1.00  0.00    -0.354 N 
ATOM     50  N   UNL A   1      39.983  31.186  32.419  1.00  0.00    -0.248 NA
ATOM     51  C   UNL A   1      40.090  32.686  30.631  1.00  0.00     0.031 C 
ATOM     52  C   UNL A   1      44.693  29.719  32.241  1.00  0.00     0.029 A 
ATOM     53  C   UNL A   1      43.681  30.680  32.183  1.00  0.00     0.049 A 
ATOM     54  H   UNL A   1      44.025  32.639  31.469  1.00  0.00     0.167 HD
ATOM     55  C   UNL A   1      41.324  31.480  32.199  1.00  0.00     0.074 A 
ATOM     56  C   UNL A   1      41.318  32.457  31.109  1.00  0.00     0.031 C 
ATOM     57  C   UNL A   1      42.328  30.698  32.701  1.00  0.00     0.037 A 
BRANCH  44  58
ATOM     58  C   UNL A   1      45.207  32.832  28.625  1.00  0.00     0.058 A 
ATOM     59  C   UNL A   1      46.522  33.339  28.591  1.00  0.00     0.135 A 
ATOM     60  C   UNL A   1      44.183  33.788  28.439  1.00  0.00     0.135 A 
ATOM     61  F   UNL A   1      47.575  32.523  28.758  1.00  0.00    -0.206 F 
ATOM     62  C   UNL A   1      46.795  34.702  28.459  1.00  0.00     0.059 A 
ATOM     63  C   UNL A   1      44.434  35.141  28.250  1.00  0.00     0.059 A 
ATOM     64  F   UNL A   1      42.885  33.477  28.532  1.00  0.00    -0.206 F 
ATOM     65  C   UNL A   1      45.740  35.596  28.306  1.00  0.00     0.060 A 
BRANCH  65  66
ATOM     66  S   UNL A   1      46.080  37.363  28.253  1.00  0.00     0.124 S 
ATOM     67  O   UNL A   1      45.361  37.832  29.433  1.00  0.00    -0.237 OA
ATOM     68  O   UNL A   1      47.535  37.394  28.335  1.00  0.00    -0.237 OA
ATOM     69  O   UNL A   1      45.521  37.774  26.969  1.00  0.00    -0.744 OA
ENDBRANCH  65  66
ENDBRANCH  44  58
BRANCH  45  70
ATOM     70  C   UNL A   1      36.956  31.646  30.289  1.00  0.00     0.058 A 
ATOM     71  C   UNL A   1      36.014  32.084  31.236  1.00  0.00     0.135 A 
ATOM     72  C   UNL A   1      36.748  32.089  28.965  1.00  0.00     0.135 A 
ATOM     73  F   UNL A   1      36.145  31.735  32.525  1.00  0.00    -0.206 F 
ATOM     74  C   UNL A   1      34.950  32.935  30.898  1.00  0.00     0.059 A 
ATOM     75  C   UNL A   1      35.694  32.928  28.603  1.00  0.00     0.059 A 
ATOM     76  F   UNL A   1      37.619  31.790  27.989  1.00  0.00    -0.206 F 
ATOM     77  C   UNL A   1      34.808  33.365  29.578  1.00  0.00     0.060 A 
BRANCH  77  78
ATOM     78  S   UNL A   1      33.530  34.577  29.158  1.00  0.00     0.124 S 
ATOM     79  O   UNL A   1      34.315  35.645  28.548  1.00  0.00    -0.237 OA
ATOM     80  O   UNL A   1      32.671  33.820  28.254  1.00  0.00    -0.237 OA
ATOM     81  O   UNL A   1      32.935  34.905  30.452  1.00  0.00    -0.744 OA
ENDBRANCH  77  78
ENDBRANCH  45  70
BRANCH  57  82
ATOM     82  C   UNL A   1      41.978  29.609  33.692  1.00  0.00     0.058 A 
ATOM     83  C   UNL A   1      41.757  28.263  33.345  1.00  0.00     0.135 A 
ATOM     84  C   UNL A   1      42.075  29.898  35.062  1.00  0.00     0.135 A 
ATOM     85  F   UNL A   1      41.750  27.875  32.066  1.00  0.00    -0.206 F 
ATOM     86  C   UNL A   1      41.613  27.259  34.308  1.00  0.00     0.059 A 
ATOM     87  C   UNL A   1      41.963  28.910  36.039  1.00  0.00     0.059 A 
ATOM     88  F   UNL A   1      42.349  31.149  35.465  1.00  0.00    -0.206 F 
ATOM     89  C   UNL A   1      41.724  27.592  35.656  1.00  0.00     0.060 A 
BRANCH  89  90
ATOM     90  S   UNL A   1      41.632  26.281  36.896  1.00  0.00     0.124 S 
ATOM     91  O   UNL A   1      40.436  26.652  37.646  1.00  0.00    -0.237 OA
ATOM     92  O   UNL A   1      41.519  25.077  36.078  1.00  0.00    -0.237 OA
ATOM     93  O   UNL A   1      42.891  26.412  37.626  1.00  0.00    -0.744 OA
ENDBRANCH  89  90
ENDBRANCH  57  82
ENDBRANCH  31  32
ENDBRANCH  23  26
ENDBRANCH  21  22
ENDBRANCH  20  21
ENDBRANCH   1  20
TORSDOF 17
ENDMDL
MODEL 2
REMARK VINA RESULT:     -11.8      2.918      4.337
REMARK SMILES C[C@H]1CC=C(C2=NN=C(C(=O)NCCCCCCNC(=O)c3ccc(-c4c5nc(c(-c6c(F)cc(S(=O)(=O)[O-])cc6F)c6ccc([nH]6)c(-c6c(F)cc(S(=O)(=O)[O-])cc6F)c6nc(c(-c7c(F)cc(S(=O)(=O)[O-])cc7F)c7ccc4[nH]7)C=C6)C=C5)cc3)C2)O1
REMARK SMILES IDX 16 1 15 2 14 3 13 4 12 5 10 6 11 7 9 9 6 10 7 11 88 12 8 13
REMARK SMILES IDX 5 14 1 15 2 16 3 17 89 18 4 19 17 20 18 21 19 22 20 23 21 25
REMARK SMILES IDX 22 26 23 27 87 28 24 29 86 30 25 31 26 32 27 33 80 34 28 35
REMARK SMILES IDX 85 36 79 37 81 38 29 39 84 40 78 41 77 42 30 44 64 45 43 46
REMARK SMILES IDX 63 47 44 48 47 49 62 50 82 51 45 52 46 53 61 55 83 56 48 57
REMARK SMILES IDX 31 58 32 59 41 60 33 61 34 62 40 63 42 64 35 65 36 66 37 67
REMARK SMILES IDX 38 68 39 69 65 70 66 71 75 72 67 73 68 74 74 75 76 76 69 77
REMARK SMILES IDX 70 78 71 79 72 80 73 81 49 82 50 83 59 84 51 85 52 86 58 87
REMARK SMILES IDX 60 88 53 89 54 90 55 91 56 92 57 93
REMARK H PARENT 12 8 19 24 81 43 47 54
REMARK Flexibility Score: inf
ROOT
ATOM      1  C   UNL A   1      40.747  21.740  27.623  1.00  0.00     0.002 C 
ENDROOT
BRANCH   1   2
ATOM      2  C   UNL A   1      39.651  21.971  26.571  1.00  0.00     0.002 C 
BRANCH   2   3
ATOM      3  C   UNL A   1      39.304  23.430  26.256  1.00  0.00     0.021 C 
BRANCH   3   4
ATOM      4  C   UNL A   1      37.811  23.743  26.173  1.00  0.00     0.116 C 
BRANCH   4   5
ATOM      5  N   UNL A   1      37.012  22.534  26.113  1.00  0.00    -0.351 N 
ATOM      6  C   UNL A   1      35.860  22.286  25.415  1.00  0.00     0.267 C 
ATOM      7  O   UNL A   1      35.292  21.201  25.504  1.00  0.00    -0.268 OA
ATOM      8  H   UNL A   1      37.346  21.781  26.653  1.00  0.00     0.163 HD
BRANCH   6   9
ATOM      9  C   UNL A   1      35.258  23.314  24.506  1.00  0.00     0.134 C 
ATOM     10  C   UNL A   1      34.167  25.121  23.793  1.00  0.00     0.111 C 
ATOM     11  N   UNL A   1      34.451  24.386  22.761  1.00  0.00    -0.151 NA
ATOM     12  C   UNL A   1      34.632  24.528  25.082  1.00  0.00     0.126 C 
ATOM     13  N   UNL A   1      35.135  23.219  23.216  1.00  0.00    -0.149 NA
BRANCH  10  14
ATOM     14  C   UNL A   1      33.411  26.381  23.791  1.00  0.00     0.139 C 
ATOM     15  C   UNL A   1      31.430  28.691  25.375  1.00  0.00     0.053 C 
ATOM     16  C   UNL A   1      31.723  27.787  24.189  1.00  0.00     0.174 C 
ATOM     17  C   UNL A   1      32.654  28.441  23.159  1.00  0.00     0.076 C 
ATOM     18  O   UNL A   1      32.341  26.567  24.655  1.00  0.00    -0.489 OA
ATOM     19  C   UNL A   1      33.636  27.364  22.923  1.00  0.00     0.025 C 
ENDBRANCH  10  14
ENDBRANCH   6   9
ENDBRANCH   4   5
ENDBRANCH   3   4
ENDBRANCH   2   3
ENDBRANCH   1   2
BRANCH   1  20
ATOM     20  C   UNL A   1      41.662  20.523  27.421  1.00  0.00     0.021 C 
BRANCH  20  21
ATOM     21  C   UNL A   1      41.743  20.038  25.984  1.00  0.00     0.116 C 
BRANCH  21  22
ATOM     22  N   UNL A   1      43.118  19.772  25.539  1.00  0.00    -0.352 N 
ATOM     23  C   UNL A   1      44.071  20.690  25.128  1.00  0.00     0.251 C 
ATOM     24  H   UNL A   1      43.396  18.828  25.532  1.00  0.00     0.163 HD
ATOM     25  O   UNL A   1      45.027  20.346  24.435  1.00  0.00    -0.269 OA
BRANCH  23  26
ATOM     26  C   UNL A   1      43.919  22.087  25.561  1.00  0.00     0.039 A 
ATOM     27  C   UNL A   1      43.056  23.001  24.948  1.00  0.00     0.014 A 
ATOM     28  C   UNL A   1      44.654  22.450  26.680  1.00  0.00     0.014 A 
ATOM     29  C   UNL A   1      42.906  24.261  25.526  1.00  0.00     0.010 A 
ATOM     30  C   UNL A   1      44.289  23.552  27.388  1.00  0.00     0.010 A 
ATOM     31  C   UNL A   1      43.528  24.520  26.755  1.00  0.00    -0.014 A 
BRANCH  31  32
ATOM     32  C   UNL A   1      43.402  25.781  27.463  1.00  0.00     0.031 A 
ATOM     33  C   UNL A   1      44.414  26.803  27.099  1.00  0.00     0.074 A 
ATOM     34  C   UNL A   1      42.284  26.079  28.166  1.00  0.00     0.049 A 
ATOM     35  N   UNL A   1      45.378  27.254  27.829  1.00  0.00    -0.248 NA
ATOM     36  C   UNL A   1      44.462  27.265  25.702  1.00  0.00     0.031 C 
ATOM     37  C   UNL A   1      41.050  25.291  28.325  1.00  0.00     0.029 A 
ATOM     38  N   UNL A   1      41.971  27.234  28.806  1.00  0.00    -0.354 N 
ATOM     39  C   UNL A   1      46.000  28.239  27.068  1.00  0.00     0.074 A 
ATOM     40  C   UNL A   1      45.548  28.042  25.717  1.00  0.00     0.031 C 
ATOM     41  C   UNL A   1      40.060  26.080  28.796  1.00  0.00     0.029 A 
ATOM     42  C   UNL A   1      40.628  27.366  29.145  1.00  0.00     0.049 A 
ATOM     43  H   UNL A   1      42.642  27.923  29.014  1.00  0.00     0.167 HD
ATOM     44  C   UNL A   1      46.631  29.294  27.657  1.00  0.00     0.037 A 
ATOM     45  C   UNL A   1      40.035  28.480  29.643  1.00  0.00     0.037 A 
ATOM     46  C   UNL A   1      46.844  29.051  29.065  1.00  0.00     0.049 A 
ATOM     47  C   UNL A   1      41.130  29.308  30.226  1.00  0.00     0.074 A 
ATOM     48  C   UNL A   1      47.504  28.073  29.785  1.00  0.00     0.029 A 
ATOM     49  N   UNL A   1      45.984  29.648  29.958  1.00  0.00    -0.354 N 
ATOM     50  N   UNL A   1      41.855  28.923  31.246  1.00  0.00    -0.248 NA
ATOM     51  C   UNL A   1      41.753  30.299  29.361  1.00  0.00     0.031 C 
ATOM     52  C   UNL A   1      46.647  27.794  30.892  1.00  0.00     0.029 A 
ATOM     53  C   UNL A   1      45.564  28.673  30.830  1.00  0.00     0.049 A 
ATOM     54  H   UNL A   1      45.719  30.597  29.970  1.00  0.00     0.167 HD
ATOM     55  C   UNL A   1      43.156  29.299  30.930  1.00  0.00     0.074 A 
ATOM     56  C   UNL A   1      43.018  30.194  29.780  1.00  0.00     0.031 C 
ATOM     57  C   UNL A   1      44.242  28.628  31.424  1.00  0.00     0.037 A 
BRANCH  44  58
ATOM     58  C   UNL A   1      46.729  30.677  27.056  1.00  0.00     0.058 A 
ATOM     59  C   UNL A   1      47.980  31.330  27.034  1.00  0.00     0.135 A 
ATOM     60  C   UNL A   1      45.615  31.491  26.751  1.00  0.00     0.135 A 
ATOM     61  F   UNL A   1      49.107  30.656  27.311  1.00  0.00    -0.206 F 
ATOM     62  C   UNL A   1      48.104  32.701  26.803  1.00  0.00     0.059 A 
ATOM     63  C   UNL A   1      45.722  32.846  26.461  1.00  0.00     0.059 A 
ATOM     64  F   UNL A   1      44.357  31.039  26.816  1.00  0.00    -0.206 F 
ATOM     65  C   UNL A   1      46.964  33.452  26.534  1.00  0.00     0.060 A 
BRANCH  65  66
ATOM     66  S   UNL A   1      47.105  35.237  26.350  1.00  0.00     0.124 S 
ATOM     67  O   UNL A   1      45.721  35.611  26.078  1.00  0.00    -0.237 OA
ATOM     68  O   UNL A   1      47.632  35.634  27.651  1.00  0.00    -0.237 OA
ATOM     69  O   UNL A   1      48.031  35.388  25.232  1.00  0.00    -0.744 OA
ENDBRANCH  65  66
ENDBRANCH  44  58
BRANCH  45  70
ATOM     70  C   UNL A   1      38.693  29.013  29.271  1.00  0.00     0.058 A 
ATOM     71  C   UNL A   1      37.704  29.270  30.235  1.00  0.00     0.135 A 
ATOM     72  C   UNL A   1      38.439  29.523  27.978  1.00  0.00     0.135 A 
ATOM     73  F   UNL A   1      37.870  28.848  31.498  1.00  0.00    -0.206 F 
ATOM     74  C   UNL A   1      36.550  30.015  29.946  1.00  0.00     0.059 A 
ATOM     75  C   UNL A   1      37.297  30.257  27.665  1.00  0.00     0.059 A 
ATOM     76  F   UNL A   1      39.342  29.396  26.994  1.00  0.00    -0.206 F 
ATOM     77  C   UNL A   1      36.363  30.519  28.658  1.00  0.00     0.060 A 
BRANCH  77  78
ATOM     78  S   UNL A   1      34.955  31.602  28.310  1.00  0.00     0.124 S 
ATOM     79  O   UNL A   1      35.572  32.651  27.504  1.00  0.00    -0.237 OA
ATOM     80  O   UNL A   1      34.044  30.708  27.603  1.00  0.00    -0.237 OA
ATOM     81  O   UNL A   1      34.510  32.019  29.638  1.00  0.00    -0.744 OA
ENDBRANCH  77  78
ENDBRANCH  45  70
BRANCH  57  82
ATOM     82  C   UNL A   1      44.030  27.588  32.502  1.00  0.00     0.058 A 
ATOM     83  C   UNL A   1      43.955  26.203  32.264  1.00  0.00     0.135 A 
ATOM     84  C   UNL A   1      44.113  27.992  33.843  1.00  0.00     0.135 A 
ATOM     85  F   UNL A   1      43.973  25.717  31.018  1.00  0.00    -0.206 F 
ATOM     86  C   UNL A   1      43.937  25.268  33.303  1.00  0.00     0.059 A 
ATOM     87  C   UNL A   1      44.126  27.077  34.895  1.00  0.00     0.059 A 
ATOM     88  F   UNL A   1      44.253  29.294  34.144  1.00  0.00    -0.206 F 
ATOM     89  C   UNL A   1      44.030  25.715  34.619  1.00  0.00     0.060 A 
BRANCH  89  90
ATOM     90  S   UNL A   1      44.101  24.503  35.957  1.00  0.00     0.124 S 
ATOM     91  O   UNL A   1      45.498  24.586  36.371  1.00  0.00    -0.237 OA
ATOM     92  O   UNL A   1      43.126  25.024  36.911  1.00  0.00    -0.237 OA
ATOM     93  O   UNL A   1      43.717  23.252  35.307  1.00  0.00    -0.744 OA
ENDBRANCH  89  90
ENDBRANCH  57  82
ENDBRANCH  31  32
ENDBRANCH  23  26
ENDBRANCH  21  22
ENDBRANCH  20  21
ENDBRANCH   1  20
TORSDOF 17
ENDMDL
MODEL 3
REMARK VINA RESULT:     -11.5      2.481      4.470
REMARK SMILES C[C@H]1CC=C(C2=NN=C(C(=O)NCCCCCCNC(=O)c3ccc(-c4c5nc(c(-c6c(F)cc(S(=O)(=O)[O-])cc6F)c6ccc([nH]6)c(-c6c(F)cc(S(=O)(=O)[O-])cc6F)c6nc(c(-c7c(F)cc(S(=O)(=O)[O-])cc7F)c7ccc4[nH]7)C=C6)C=C5)cc3)C2)O1
REMARK SMILES IDX 16 1 15 2 14 3 13 4 12 5 10 6 11 7 9 9 6 10 7 11 88 12 8 13
REMARK SMILES IDX 5 14 1 15 2 16 3 17 89 18 4 19 17 20 18 21 19 22 20 23 21 25
REMARK SMILES IDX 22 26 23 27 87 28 24 29 86 30 25 31 26 32 27 33 80 34 28 35
REMARK SMILES IDX 85 36 79 37 81 38 29 39 84 40 78 41 77 42 30 44 64 45 43 46
REMARK SMILES IDX 63 47 44 48 47 49 62 50 82 51 45 52 46 53 61 55 83 56 48 57
REMARK SMILES IDX 31 58 32 59 41 60 33 61 34 62 40 63 42 64 35 65 36 66 37 67
REMARK SMILES IDX 38 68 39 69 65 70 66 71 75 72 67 73 68 74 74 75 76 76 69 77
REMARK SMILES IDX 70 78 71 79 72 80 73 81 49 82 50 83 59 84 51 85 52 86 58 87
REMARK SMILES IDX 60 88 53 89 54 90 55 91 56 92 57 93
REMARK H PARENT 12 8 19 24 81 43 47 54
REMARK Flexibility Score: inf
ROOT
ATOM      1  C   UNL A   1      35.752  23.379  23.885  1.00  0.00     0.002 C 
ENDROOT
BRANCH   1   2
ATOM      2  C   UNL A   1      34.274  22.982  24.036  1.00  0.00     0.002 C 
BRANCH   2   3
ATOM      3  C   UNL A   1      33.322  23.467  22.938  1.00  0.00     0.021 C 
BRANCH   3   4
ATOM      4  C   UNL A   1      32.744  24.866  23.145  1.00  0.00     0.116 C 
BRANCH   4   5
ATOM      5  N   UNL A   1      31.603  24.848  24.041  1.00  0.00    -0.351 N 
ATOM      6  C   UNL A   1      31.195  25.789  24.948  1.00  0.00     0.267 C 
ATOM      7  O   UNL A   1      30.210  25.596  25.655  1.00  0.00    -0.268 OA
ATOM      8  H   UNL A   1      31.041  24.042  23.990  1.00  0.00     0.163 HD
BRANCH   6   9
ATOM      9  C   UNL A   1      31.917  27.094  25.103  1.00  0.00     0.134 C 
ATOM     10  C   UNL A   1      33.255  28.682  25.910  1.00  0.00     0.111 C 
ATOM     11  N   UNL A   1      32.546  29.197  24.951  1.00  0.00    -0.151 NA
ATOM     12  C   UNL A   1      32.941  27.245  26.165  1.00  0.00     0.126 C 
ATOM     13  N   UNL A   1      31.676  28.186  24.444  1.00  0.00    -0.149 NA
BRANCH  10  14
ATOM     14  C   UNL A   1      34.233  29.384  26.753  1.00  0.00     0.139 C 
ATOM     15  C   UNL A   1      37.441  29.834  27.884  1.00  0.00     0.053 C 
ATOM     16  C   UNL A   1      35.955  29.650  28.148  1.00  0.00     0.174 C 
ATOM     17  C   UNL A   1      35.175  30.970  28.097  1.00  0.00     0.076 C 
ATOM     18  O   UNL A   1      35.398  28.752  27.163  1.00  0.00    -0.489 OA
ATOM     19  C   UNL A   1      34.030  30.604  27.241  1.00  0.00     0.025 C 
ENDBRANCH  10  14
ENDBRANCH   6   9
ENDBRANCH   4   5
ENDBRANCH   3   4
ENDBRANCH   2   3
ENDBRANCH   1   2
BRANCH   1  20
ATOM     20  C   UNL A   1      36.791  22.453  24.534  1.00  0.00     0.021 C 
BRANCH  20  21
ATOM     21  C   UNL A   1      37.531  23.073  25.706  1.00  0.00     0.116 C 
BRANCH  21  22
ATOM     22  N   UNL A   1      38.568  22.195  26.267  1.00  0.00    -0.352 N 
ATOM     23  C   UNL A   1      39.803  22.558  26.779  1.00  0.00     0.251 C 
ATOM     24  H   UNL A   1      38.360  21.233  26.279  1.00  0.00     0.163 HD
ATOM     25  O   UNL A   1      40.719  21.743  26.866  1.00  0.00    -0.269 OA
BRANCH  23  26
ATOM     26  C   UNL A   1      39.982  23.944  27.238  1.00  0.00     0.039 A 
ATOM     27  C   UNL A   1      38.975  24.913  27.196  1.00  0.00     0.014 A 
ATOM     28  C   UNL A   1      41.223  24.236  27.787  1.00  0.00     0.014 A 
ATOM     29  C   UNL A   1      39.226  26.156  27.776  1.00  0.00     0.010 A 
ATOM     30  C   UNL A   1      41.355  25.326  28.590  1.00  0.00     0.010 A 
ATOM     31  C   UNL A   1      40.425  26.345  28.477  1.00  0.00    -0.014 A 
BRANCH  31  32
ATOM     32  C   UNL A   1      40.767  27.584  29.153  1.00  0.00     0.031 A 
ATOM     33  C   UNL A   1      41.841  28.373  28.500  1.00  0.00     0.074 A 
ATOM     34  C   UNL A   1      39.970  28.096  30.119  1.00  0.00     0.049 A 
ATOM     35  N   UNL A   1      43.039  28.585  28.932  1.00  0.00    -0.248 NA
ATOM     36  C   UNL A   1      41.612  28.852  27.127  1.00  0.00     0.031 C 
ATOM     37  C   UNL A   1      38.683  27.589  30.626  1.00  0.00     0.029 A 
ATOM     38  N   UNL A   1      40.095  29.273  30.783  1.00  0.00    -0.354 N 
ATOM     39  C   UNL A   1      43.631  29.434  28.001  1.00  0.00     0.074 A 
ATOM     40  C   UNL A   1      42.802  29.376  26.827  1.00  0.00     0.031 C 
ATOM     41  C   UNL A   1      38.050  28.559  31.320  1.00  0.00     0.029 A 
ATOM     42  C   UNL A   1      38.953  29.682  31.464  1.00  0.00     0.049 A 
ATOM     43  H   UNL A   1      40.929  29.796  30.782  1.00  0.00     0.167 HD
ATOM     44  C   UNL A   1      44.608  30.311  28.367  1.00  0.00     0.037 A 
ATOM     45  C   UNL A   1      38.768  30.884  32.066  1.00  0.00     0.037 A 
ATOM     46  C   UNL A   1      45.133  29.989  29.673  1.00  0.00     0.049 A 
ATOM     47  C   UNL A   1      40.131  31.440  32.310  1.00  0.00     0.074 A 
ATOM     48  C   UNL A   1      45.735  28.872  30.222  1.00  0.00     0.029 A 
ATOM     49  N   UNL A   1      44.691  30.733  30.745  1.00  0.00    -0.354 N 
ATOM     50  N   UNL A   1      41.002  30.879  33.111  1.00  0.00    -0.248 NA
ATOM     51  C   UNL A   1      40.698  32.296  31.279  1.00  0.00     0.031 C 
ATOM     52  C   UNL A   1      45.166  28.754  31.526  1.00  0.00     0.029 A 
ATOM     53  C   UNL A   1      44.320  29.847  31.728  1.00  0.00     0.049 A 
ATOM     54  H   UNL A   1      44.650  31.715  30.797  1.00  0.00     0.167 HD
ATOM     55  C   UNL A   1      42.220  30.974  32.447  1.00  0.00     0.074 A 
ATOM     56  C   UNL A   1      41.976  31.910  31.348  1.00  0.00     0.031 C 
ATOM     57  C   UNL A   1      43.228  30.072  32.653  1.00  0.00     0.037 A 
BRANCH  44  58
ATOM     58  C   UNL A   1      44.837  31.657  27.718  1.00  0.00     0.058 A 
ATOM     59  C   UNL A   1      46.024  31.874  26.988  1.00  0.00     0.135 A 
ATOM     60  C   UNL A   1      44.080  32.815  28.004  1.00  0.00     0.135 A 
ATOM     61  F   UNL A   1      46.825  30.847  26.662  1.00  0.00    -0.206 F 
ATOM     62  C   UNL A   1      46.463  33.152  26.638  1.00  0.00     0.059 A 
ATOM     63  C   UNL A   1      44.469  34.091  27.615  1.00  0.00     0.059 A 
ATOM     64  F   UNL A   1      42.977  32.782  28.761  1.00  0.00    -0.206 F 
ATOM     65  C   UNL A   1      45.684  34.256  26.972  1.00  0.00     0.060 A 
BRANCH  65  66
ATOM     66  S   UNL A   1      46.300  35.911  26.626  1.00  0.00     0.124 S 
ATOM     67  O   UNL A   1      45.056  36.663  26.500  1.00  0.00    -0.237 OA
ATOM     68  O   UNL A   1      47.101  36.190  27.813  1.00  0.00    -0.237 OA
ATOM     69  O   UNL A   1      47.059  35.736  25.392  1.00  0.00    -0.744 OA
ENDBRANCH  65  66
ENDBRANCH  44  58
BRANCH  45  70
ATOM     70  C   UNL A   1      37.524  31.703  32.049  1.00  0.00     0.058 A 
ATOM     71  C   UNL A   1      36.803  31.982  33.223  1.00  0.00     0.135 A 
ATOM     72  C   UNL A   1      37.151  32.447  30.908  1.00  0.00     0.135 A 
ATOM     73  F   UNL A   1      37.104  31.344  34.365  1.00  0.00    -0.206 F 
ATOM     74  C   UNL A   1      35.797  32.960  33.272  1.00  0.00     0.059 A 
ATOM     75  C   UNL A   1      36.150  33.417  30.929  1.00  0.00     0.059 A 
ATOM     76  F   UNL A   1      37.812  32.314  29.748  1.00  0.00    -0.206 F 
ATOM     77  C   UNL A   1      35.488  33.685  32.120  1.00  0.00     0.060 A 
BRANCH  77  78
ATOM     78  S   UNL A   1      34.299  35.048  32.205  1.00  0.00     0.124 S 
ATOM     79  O   UNL A   1      34.056  35.325  30.793  1.00  0.00    -0.237 OA
ATOM     80  O   UNL A   1      33.191  34.446  32.937  1.00  0.00    -0.237 OA
ATOM     81  O   UNL A   1      35.027  36.089  32.926  1.00  0.00    -0.744 OA
ENDBRANCH  77  78
ENDBRANCH  45  70
BRANCH  57  82
ATOM     82  C   UNL A   1      43.094  29.072  33.782  1.00  0.00     0.058 A 
ATOM     83  C   UNL A   1      43.350  29.364  35.134  1.00  0.00     0.135 A 
ATOM     84  C   UNL A   1      42.488  27.837  33.508  1.00  0.00     0.135 A 
ATOM     85  F   UNL A   1      43.832  30.556  35.501  1.00  0.00    -0.206 F 
ATOM     86  C   UNL A   1      43.042  28.466  36.162  1.00  0.00     0.059 A 
ATOM     87  C   UNL A   1      42.146  26.937  34.517  1.00  0.00     0.059 A 
ATOM     88  F   UNL A   1      42.156  27.517  32.247  1.00  0.00    -0.206 F 
ATOM     89  C   UNL A   1      42.434  27.254  35.843  1.00  0.00     0.060 A 
BRANCH  89  90
ATOM     90  S   UNL A   1      41.952  26.135  37.177  1.00  0.00     0.124 S 
ATOM     91  O   UNL A   1      40.589  26.570  37.466  1.00  0.00    -0.237 OA
ATOM     92  O   UNL A   1      42.078  24.822  36.551  1.00  0.00    -0.237 OA
ATOM     93  O   UNL A   1      42.930  26.412  38.226  1.00  0.00    -0.744 OA
ENDBRANCH  89  90
ENDBRANCH  57  82
ENDBRANCH  31  32
ENDBRANCH  23  26
ENDBRANCH  21  22
ENDBRANCH  20  21
ENDBRANCH   1  20
TORSDOF 17
ENDMDL
