MODEL 1
REMARK VINA RESULT:     -11.8      0.000      0.000
REMARK SMILES Cc1ccc(NC(=O)Cn2c(CCC(=O)NCCCCCCNC(=O)c3ccc(-c4c5nc(c(-c6c(F)cc(S(=O)(=O)[O-])cc6F)c6ccc([nH]6)c(-c6c(F)cc(S(=O)(=O)[O-])cc6F)c6nc(c(-c7c(F)cc(S(=O)(=O)[O-])cc7F)c7ccc4[nH]7)C=C6)C=C5)cc3)ccc2-c2ccccc2)cc1
REMARK SMILES IDX 18 1 17 2 16 3 14 4 15 5 13 7 12 8 11 9 10 10 94 11 92 12
REMARK SMILES IDX 93 13 9 14 7 15 6 16 8 18 5 19 1 20 2 21 3 22 102 23 4 24
REMARK SMILES IDX 101 25 95 26 96 27 100 28 97 29 99 30 98 31 19 32 20 33
REMARK SMILES IDX 21 34 22 35 23 36 24 37 25 39 26 40 27 41 91 42 28 43 90 44
REMARK SMILES IDX 29 45 30 46 31 47 84 48 32 49 89 50 83 51 85 52 33 53 88 54
REMARK SMILES IDX 82 55 81 56 34 58 68 59 47 60 67 61 48 62 51 63 66 64 86 65
REMARK SMILES IDX 49 66 50 67 65 69 87 70 52 71 35 72 36 73 45 74 37 75 38 76
REMARK SMILES IDX 44 77 46 78 39 79 40 80 41 81 42 82 43 83 69 84 70 85 79 86
REMARK SMILES IDX 71 87 72 88 78 89 80 90 73 91 74 92 75 93 76 94 77 95 53 96
REMARK SMILES IDX 54 97 63 98 55 99 56 100 62 101 64 102 57 103 58 104 59 105
REMARK SMILES IDX 60 106 61 107
REMARK H PARENT 16 6 6 17 23 38 85 57 51 68
REMARK Flexibility Score: inf
ROOT
ATOM      1  C   UNL A   1      36.686  21.796  24.926  1.00  0.00     0.021 C 
ENDROOT
BRANCH   1   2
ATOM      2  C   UNL A   1      35.679  21.403  26.038  1.00  0.00     0.116 C 
BRANCH   2   3
ATOM      3  N   UNL A   1      34.419  20.789  25.634  1.00  0.00    -0.356 N 
ATOM      4  C   UNL A   1      33.555  21.210  24.658  1.00  0.00     0.220 C 
ATOM      5  O   UNL A   1      32.848  20.384  24.076  1.00  0.00    -0.275 OA
ATOM      6  H   UNL A   1      34.159  19.973  26.120  1.00  0.00     0.163 HD
BRANCH   4   7
ATOM      7  C   UNL A   1      33.416  22.677  24.328  1.00  0.00     0.106 C 
BRANCH   7   8
ATOM      8  C   UNL A   1      32.091  22.937  23.619  1.00  0.00     0.064 C 
BRANCH   8   9
ATOM      9  C   UNL A   1      31.328  24.114  24.152  1.00  0.00     0.019 A 
ATOM     10  N   UNL A   1      31.114  25.338  23.533  1.00  0.00    -0.335 N 
ATOM     11  C   UNL A   1      30.331  26.137  24.387  1.00  0.00     0.049 A 
ATOM     12  C   UNL A   1      30.738  24.178  25.406  1.00  0.00     0.024 A 
ATOM     13  C   UNL A   1      30.123  25.433  25.553  1.00  0.00     0.029 A 
BRANCH  10  14
ATOM     14  C   UNL A   1      31.423  25.808  22.165  1.00  0.00     0.222 C 
BRANCH  14  15
ATOM     15  C   UNL A   1      32.828  25.927  21.632  1.00  0.00     0.244 C 
ATOM     16  N   UNL A   1      33.867  26.471  22.330  1.00  0.00    -0.325 N 
ATOM     17  H   UNL A   1      34.740  26.438  21.877  1.00  0.00     0.169 HD
ATOM     18  O   UNL A   1      33.064  25.567  20.470  1.00  0.00    -0.273 OA
BRANCH  16  19
ATOM     19  C   UNL A   1      33.874  27.065  23.596  1.00  0.00     0.041 A 
ATOM     20  C   UNL A   1      33.128  28.618  27.521  1.00  0.00     0.044 C 
ATOM     21  C   UNL A   1      33.511  28.082  26.174  1.00  0.00    -0.051 A 
ATOM     22  C   UNL A   1      33.513  28.939  25.069  1.00  0.00     0.005 A 
ATOM     23  C   UNL A   1      33.781  26.724  25.987  1.00  0.00     0.005 A 
ATOM     24  C   UNL A   1      33.709  28.433  23.787  1.00  0.00     0.026 A 
ATOM     25  C   UNL A   1      33.995  26.221  24.702  1.00  0.00     0.026 A 
ENDBRANCH  16  19
ENDBRANCH  14  15
ENDBRANCH  10  14
BRANCH  11  26
ATOM     26  C   UNL A   1      29.723  27.402  23.971  1.00  0.00    -0.002 A 
ATOM     27  C   UNL A   1      30.401  28.610  23.930  1.00  0.00     0.010 A 
ATOM     28  C   UNL A   1      28.406  27.372  23.522  1.00  0.00     0.010 A 
ATOM     29  C   UNL A   1      29.767  29.730  23.381  1.00  0.00     0.001 A 
ATOM     30  C   UNL A   1      27.779  28.464  22.942  1.00  0.00     0.001 A 
ATOM     31  C   UNL A   1      28.469  29.654  22.869  1.00  0.00     0.000 A 
ENDBRANCH  11  26
ENDBRANCH   8   9
ENDBRANCH   7   8
ENDBRANCH   4   7
ENDBRANCH   2   3
ENDBRANCH   1   2
BRANCH   1  32
ATOM     32  C   UNL A   1      37.909  22.613  25.393  1.00  0.00     0.002 C 
BRANCH  32  33
ATOM     33  C   UNL A   1      39.040  21.979  26.311  1.00  0.00     0.002 C 
BRANCH  33  34
ATOM     34  C   UNL A   1      39.900  20.686  26.076  1.00  0.00     0.021 C 
BRANCH  34  35
ATOM     35  C   UNL A   1      41.335  20.278  26.615  1.00  0.00     0.116 C 
BRANCH  35  36
ATOM     36  N   UNL A   1      42.292  21.136  27.385  1.00  0.00    -0.352 N 
ATOM     37  C   UNL A   1      42.949  22.272  26.839  1.00  0.00     0.251 C 
ATOM     38  H   UNL A   1      42.476  20.898  28.322  1.00  0.00     0.163 HD
ATOM     39  O   UNL A   1      43.358  22.275  25.678  1.00  0.00    -0.269 OA
BRANCH  37  40
ATOM     40  C   UNL A   1      43.082  23.589  27.661  1.00  0.00     0.039 A 
ATOM     41  C   UNL A   1      44.323  24.257  27.864  1.00  0.00     0.014 A 
ATOM     42  C   UNL A   1      41.970  24.328  28.030  1.00  0.00     0.014 A 
ATOM     43  C   UNL A   1      44.445  25.634  28.341  1.00  0.00     0.010 A 
ATOM     44  C   UNL A   1      42.103  25.673  28.506  1.00  0.00     0.010 A 
ATOM     45  C   UNL A   1      43.319  26.411  28.630  1.00  0.00    -0.014 A 
BRANCH  45  46
ATOM     46  C   UNL A   1      43.195  27.961  28.660  1.00  0.00     0.031 A 
ATOM     47  C   UNL A   1      41.810  28.376  28.428  1.00  0.00     0.074 A 
ATOM     48  C   UNL A   1      43.810  29.069  29.214  1.00  0.00     0.049 A 
ATOM     49  N   UNL A   1      41.004  28.294  29.423  1.00  0.00    -0.248 NA
ATOM     50  C   UNL A   1      41.260  28.974  27.228  1.00  0.00     0.031 C 
ATOM     51  C   UNL A   1      45.154  29.188  29.751  1.00  0.00     0.029 A 
ATOM     52  N   UNL A   1      43.217  30.356  29.561  1.00  0.00    -0.354 N 
ATOM     53  C   UNL A   1      39.857  28.915  29.076  1.00  0.00     0.074 A 
ATOM     54  C   UNL A   1      40.043  29.313  27.686  1.00  0.00     0.031 C 
ATOM     55  C   UNL A   1      45.277  30.366  30.410  1.00  0.00     0.029 A 
ATOM     56  C   UNL A   1      43.987  31.114  30.469  1.00  0.00     0.049 A 
ATOM     57  H   UNL A   1      42.358  30.667  29.195  1.00  0.00     0.167 HD
ATOM     58  C   UNL A   1      38.922  29.093  30.042  1.00  0.00     0.037 A 
ATOM     59  C   UNL A   1      43.609  31.780  31.631  1.00  0.00     0.037 A 
ATOM     60  C   UNL A   1      39.246  28.505  31.359  1.00  0.00     0.049 A 
ATOM     61  C   UNL A   1      43.635  30.632  32.578  1.00  0.00     0.074 A 
ATOM     62  C   UNL A   1      38.589  27.730  32.295  1.00  0.00     0.029 A 
ATOM     63  N   UNL A   1      40.533  28.631  31.875  1.00  0.00    -0.354 N 
ATOM     64  N   UNL A   1      42.670  29.776  32.548  1.00  0.00    -0.248 NA
ATOM     65  C   UNL A   1      44.740  30.297  33.458  1.00  0.00     0.031 C 
ATOM     66  C   UNL A   1      39.553  27.268  33.264  1.00  0.00     0.029 A 
ATOM     67  C   UNL A   1      40.795  27.803  32.960  1.00  0.00     0.049 A 
ATOM     68  H   UNL A   1      41.200  29.252  31.503  1.00  0.00     0.167 HD
ATOM     69  C   UNL A   1      43.008  28.752  33.369  1.00  0.00     0.074 A 
ATOM     70  C   UNL A   1      44.352  29.071  33.838  1.00  0.00     0.031 C 
ATOM     71  C   UNL A   1      42.164  27.700  33.517  1.00  0.00     0.037 A 
BRANCH  58  72
ATOM     72  C   UNL A   1      37.745  29.943  29.724  1.00  0.00     0.058 A 
ATOM     73  C   UNL A   1      37.506  31.106  30.471  1.00  0.00     0.135 A 
ATOM     74  C   UNL A   1      36.907  29.709  28.618  1.00  0.00     0.135 A 
ATOM     75  F   UNL A   1      38.281  31.405  31.524  1.00  0.00    -0.206 F 
ATOM     76  C   UNL A   1      36.504  32.011  30.122  1.00  0.00     0.059 A 
ATOM     77  C   UNL A   1      35.925  30.614  28.229  1.00  0.00     0.059 A 
ATOM     78  F   UNL A   1      37.061  28.608  27.863  1.00  0.00    -0.206 F 
ATOM     79  C   UNL A   1      35.723  31.760  28.993  1.00  0.00     0.060 A 
BRANCH  79  80
ATOM     80  S   UNL A   1      34.462  32.955  28.505  1.00  0.00     0.124 S 
ATOM     81  O   UNL A   1      34.092  33.535  29.792  1.00  0.00    -0.237 OA
ATOM     82  O   UNL A   1      35.185  33.828  27.588  1.00  0.00    -0.237 OA
ATOM     83  O   UNL A   1      33.436  32.123  27.879  1.00  0.00    -0.744 OA
ENDBRANCH  79  80
ENDBRANCH  58  72
BRANCH  59  84
ATOM     84  C   UNL A   1      42.551  32.818  32.098  1.00  0.00     0.058 A 
ATOM     85  C   UNL A   1      42.756  33.539  33.293  1.00  0.00     0.135 A 
ATOM     86  C   UNL A   1      41.199  32.875  31.636  1.00  0.00     0.135 A 
ATOM     87  F   UNL A   1      43.965  33.522  33.877  1.00  0.00    -0.206 F 
ATOM     88  C   UNL A   1      41.713  34.210  33.984  1.00  0.00     0.059 A 
ATOM     89  C   UNL A   1      40.151  33.518  32.310  1.00  0.00     0.059 A 
ATOM     90  F   UNL A   1      40.795  32.248  30.528  1.00  0.00    -0.206 F 
ATOM     91  C   UNL A   1      40.405  34.170  33.499  1.00  0.00     0.060 A 
BRANCH  91  92
ATOM     92  S   UNL A   1      39.036  34.883  34.457  1.00  0.00     0.124 S 
ATOM     93  O   UNL A   1      38.819  33.865  35.481  1.00  0.00    -0.237 OA
ATOM     94  O   UNL A   1      39.609  36.138  34.933  1.00  0.00    -0.237 OA
ATOM     95  O   UNL A   1      37.954  35.014  33.486  1.00  0.00    -0.744 OA
ENDBRANCH  91  92
ENDBRANCH  59  84
BRANCH  71  96
ATOM     96  C   UNL A   1      42.783  26.437  34.016  1.00  0.00     0.058 A 
ATOM     97  C   UNL A   1      42.668  25.934  35.321  1.00  0.00     0.135 A 
ATOM     98  C   UNL A   1      43.698  25.788  33.180  1.00  0.00     0.135 A 
ATOM     99  F   UNL A   1      41.818  26.499  36.195  1.00  0.00    -0.206 F 
ATOM    100  C   UNL A   1      43.456  24.878  35.780  1.00  0.00     0.059 A 
ATOM    101  C   UNL A   1      44.491  24.733  33.608  1.00  0.00     0.059 A 
ATOM    102  F   UNL A   1      43.844  26.179  31.912  1.00  0.00    -0.206 F 
ATOM    103  C   UNL A   1      44.369  24.283  34.914  1.00  0.00     0.060 A 
BRANCH 103 104
ATOM    104  S   UNL A   1      45.347  22.860  35.430  1.00  0.00     0.124 S 
ATOM    105  O   UNL A   1      45.265  22.961  36.888  1.00  0.00    -0.237 OA
ATOM    106  O   UNL A   1      44.612  21.739  34.836  1.00  0.00    -0.237 OA
ATOM    107  O   UNL A   1      46.648  23.126  34.850  1.00  0.00    -0.744 OA
ENDBRANCH 103 104
ENDBRANCH  71  96
ENDBRANCH  45  46
ENDBRANCH  37  40
ENDBRANCH  35  36
ENDBRANCH  34  35
ENDBRANCH  33  34
ENDBRANCH  32  33
ENDBRANCH   1  32
TORSDOF 22
ENDMDL
MODEL 2
REMARK VINA RESULT:     -11.5      1.455      2.042
REMARK SMILES Cc1ccc(NC(=O)Cn2c(CCC(=O)NCCCCCCNC(=O)c3ccc(-c4c5nc(c(-c6c(F)cc(S(=O)(=O)[O-])cc6F)c6ccc([nH]6)c(-c6c(F)cc(S(=O)(=O)[O-])cc6F)c6nc(c(-c7c(F)cc(S(=O)(=O)[O-])cc7F)c7ccc4[nH]7)C=C6)C=C5)cc3)ccc2-c2ccccc2)cc1
REMARK SMILES IDX 18 1 17 2 16 3 14 4 15 5 13 7 12 8 11 9 10 10 94 11 92 12
REMARK SMILES IDX 93 13 9 14 7 15 6 16 8 18 5 19 1 20 2 21 3 22 102 23 4 24
REMARK SMILES IDX 101 25 95 26 96 27 100 28 97 29 99 30 98 31 19 32 20 33
REMARK SMILES IDX 21 34 22 35 23 36 24 37 25 39 26 40 27 41 91 42 28 43 90 44
REMARK SMILES IDX 29 45 30 46 31 47 84 48 32 49 89 50 83 51 85 52 33 53 88 54
REMARK SMILES IDX 82 55 81 56 34 58 68 59 47 60 67 61 48 62 51 63 66 64 86 65
REMARK SMILES IDX 49 66 50 67 65 69 87 70 52 71 35 72 36 73 45 74 37 75 38 76
REMARK SMILES IDX 44 77 46 78 39 79 40 80 41 81 42 82 43 83 69 84 70 85 79 86
REMARK SMILES IDX 71 87 72 88 78 89 80 90 73 91 74 92 75 93 76 94 77 95 53 96
REMARK SMILES IDX 54 97 63 98 55 99 56 100 62 101 64 102 57 103 58 104 59 105
REMARK SMILES IDX 60 106 61 107
REMARK H PARENT 16 6 6 17 23 38 85 57 51 68
REMARK Flexibility Score: inf
ROOT
ATOM      1  C   UNL A   1      35.523  22.066  26.042  1.00  0.00     0.021 C 
ENDROOT
BRANCH   1   2
ATOM      2  C   UNL A   1      34.458  21.636  27.085  1.00  0.00     0.116 C 
BRANCH   2   3
ATOM      3  N   UNL A   1      33.174  21.151  26.590  1.00  0.00    -0.356 N 
ATOM      4  C   UNL A   1      32.629  21.337  25.347  1.00  0.00     0.220 C 
ATOM      5  O   UNL A   1      31.848  20.497  24.895  1.00  0.00    -0.275 OA
ATOM      6  H   UNL A   1      32.635  20.628  27.226  1.00  0.00     0.163 HD
BRANCH   4   7
ATOM      7  C   UNL A   1      32.927  22.585  24.550  1.00  0.00     0.106 C 
BRANCH   7   8
ATOM      8  C   UNL A   1      31.718  22.976  23.708  1.00  0.00     0.064 C 
BRANCH   8   9
ATOM      9  C   UNL A   1      31.033  24.232  24.159  1.00  0.00     0.019 A 
ATOM     10  N   UNL A   1      30.942  25.441  23.482  1.00  0.00    -0.335 N 
ATOM     11  C   UNL A   1      30.194  26.336  24.270  1.00  0.00     0.049 A 
ATOM     12  C   UNL A   1      30.404  24.398  25.385  1.00  0.00     0.024 A 
ATOM     13  C   UNL A   1      29.886  25.704  25.455  1.00  0.00     0.029 A 
BRANCH  10  14
ATOM     14  C   UNL A   1      31.339  25.824  22.110  1.00  0.00     0.222 C 
BRANCH  14  15
ATOM     15  C   UNL A   1      32.757  25.731  21.606  1.00  0.00     0.244 C 
ATOM     16  N   UNL A   1      33.846  26.165  22.304  1.00  0.00    -0.325 N 
ATOM     17  H   UNL A   1      34.715  25.996  21.874  1.00  0.00     0.169 HD
ATOM     18  O   UNL A   1      32.964  25.289  20.467  1.00  0.00    -0.273 OA
BRANCH  16  19
ATOM     19  C   UNL A   1      33.910  26.812  23.542  1.00  0.00     0.041 A 
ATOM     20  C   UNL A   1      33.321  28.582  27.401  1.00  0.00     0.044 C 
ATOM     21  C   UNL A   1      33.650  27.963  26.076  1.00  0.00    -0.051 A 
ATOM     22  C   UNL A   1      33.698  28.768  24.934  1.00  0.00     0.005 A 
ATOM     23  C   UNL A   1      33.822  26.582  25.947  1.00  0.00     0.005 A 
ATOM     24  C   UNL A   1      33.843  28.195  23.674  1.00  0.00     0.026 A 
ATOM     25  C   UNL A   1      33.985  26.010  24.684  1.00  0.00     0.026 A 
ENDBRANCH  16  19
ENDBRANCH  14  15
ENDBRANCH  10  14
BRANCH  11  26
ATOM     26  C   UNL A   1      29.707  27.626  23.777  1.00  0.00    -0.002 A 
ATOM     27  C   UNL A   1      28.472  27.809  23.177  1.00  0.00     0.010 A 
ATOM     28  C   UNL A   1      30.505  28.746  23.991  1.00  0.00     0.010 A 
ATOM     29  C   UNL A   1      28.045  29.106  22.874  1.00  0.00     0.001 A 
ATOM     30  C   UNL A   1      30.081  30.039  23.730  1.00  0.00     0.001 A 
ATOM     31  C   UNL A   1      28.836  30.220  23.167  1.00  0.00     0.000 A 
ENDBRANCH  11  26
ENDBRANCH   8   9
ENDBRANCH   7   8
ENDBRANCH   4   7
ENDBRANCH   2   3
ENDBRANCH   1   2
BRANCH   1  32
ATOM     32  C   UNL A   1      36.234  20.914  25.302  1.00  0.00     0.002 C 
BRANCH  32  33
ATOM     33  C   UNL A   1      37.814  20.866  25.143  1.00  0.00     0.002 C 
BRANCH  33  34
ATOM     34  C   UNL A   1      38.798  19.664  25.376  1.00  0.00     0.021 C 
BRANCH  34  35
ATOM     35  C   UNL A   1      40.253  19.617  26.006  1.00  0.00     0.116 C 
BRANCH  35  36
ATOM     36  N   UNL A   1      40.760  20.401  27.178  1.00  0.00    -0.352 N 
ATOM     37  C   UNL A   1      41.967  21.151  27.164  1.00  0.00     0.251 C 
ATOM     38  H   UNL A   1      40.225  20.396  28.004  1.00  0.00     0.163 HD
ATOM     39  O   UNL A   1      42.970  20.734  26.583  1.00  0.00    -0.269 OA
BRANCH  37  40
ATOM     40  C   UNL A   1      42.032  22.573  27.798  1.00  0.00     0.039 A 
ATOM     41  C   UNL A   1      43.240  23.160  28.270  1.00  0.00     0.014 A 
ATOM     42  C   UNL A   1      40.967  23.454  27.710  1.00  0.00     0.014 A 
ATOM     43  C   UNL A   1      43.399  24.583  28.566  1.00  0.00     0.010 A 
ATOM     44  C   UNL A   1      41.133  24.845  28.014  1.00  0.00     0.010 A 
ATOM     45  C   UNL A   1      42.348  25.489  28.394  1.00  0.00    -0.014 A 
BRANCH  45  46
ATOM     46  C   UNL A   1      42.424  27.027  28.171  1.00  0.00     0.031 A 
ATOM     47  C   UNL A   1      41.148  27.663  28.506  1.00  0.00     0.074 A 
ATOM     48  C   UNL A   1      43.344  28.058  28.162  1.00  0.00     0.049 A 
ATOM     49  N   UNL A   1      40.904  27.857  29.749  1.00  0.00    -0.248 NA
ATOM     50  C   UNL A   1      40.166  28.201  27.586  1.00  0.00     0.031 C 
ATOM     51  C   UNL A   1      44.786  27.988  28.008  1.00  0.00     0.029 A 
ATOM     52  N   UNL A   1      43.130  29.466  28.477  1.00  0.00    -0.354 N 
ATOM     53  C   UNL A   1      39.804  28.636  29.837  1.00  0.00     0.074 A 
ATOM     54  C   UNL A   1      39.354  28.817  28.462  1.00  0.00     0.031 C 
ATOM     55  C   UNL A   1      45.334  29.193  28.297  1.00  0.00     0.029 A 
ATOM     56  C   UNL A   1      44.315  30.172  28.778  1.00  0.00     0.049 A 
ATOM     57  H   UNL A   1      42.239  29.886  28.480  1.00  0.00     0.167 HD
ATOM     58  C   UNL A   1      39.462  29.103  31.063  1.00  0.00     0.037 A 
ATOM     59  C   UNL A   1      44.606  31.035  29.830  1.00  0.00     0.037 A 
ATOM     60  C   UNL A   1      40.302  28.632  32.183  1.00  0.00     0.049 A 
ATOM     61  C   UNL A   1      44.950  30.029  30.870  1.00  0.00     0.074 A 
ATOM     62  C   UNL A   1      40.085  28.115  33.446  1.00  0.00     0.029 A 
ATOM     63  N   UNL A   1      41.685  28.575  32.034  1.00  0.00    -0.354 N 
ATOM     64  N   UNL A   1      43.998  29.372  31.443  1.00  0.00    -0.248 NA
ATOM     65  C   UNL A   1      46.295  29.602  31.211  1.00  0.00     0.031 C 
ATOM     66  C   UNL A   1      41.335  27.603  33.952  1.00  0.00     0.029 A 
ATOM     67  C   UNL A   1      42.336  27.853  33.027  1.00  0.00     0.049 A 
ATOM     68  H   UNL A   1      42.161  29.010  31.290  1.00  0.00     0.167 HD
ATOM     69  C   UNL A   1      44.569  28.412  32.210  1.00  0.00     0.074 A 
ATOM     70  C   UNL A   1      46.001  28.527  31.957  1.00  0.00     0.031 C 
ATOM     71  C   UNL A   1      43.785  27.563  32.922  1.00  0.00     0.037 A 
BRANCH  58  72
ATOM     72  C   UNL A   1      38.375  30.114  31.143  1.00  0.00     0.058 A 
ATOM     73  C   UNL A   1      38.627  31.359  31.739  1.00  0.00     0.135 A 
ATOM     74  C   UNL A   1      37.117  29.937  30.537  1.00  0.00     0.135 A 
ATOM     75  F   UNL A   1      39.813  31.605  32.315  1.00  0.00    -0.206 F 
ATOM     76  C   UNL A   1      37.688  32.390  31.711  1.00  0.00     0.059 A 
ATOM     77  C   UNL A   1      36.179  30.962  30.465  1.00  0.00     0.059 A 
ATOM     78  F   UNL A   1      36.793  28.767  29.960  1.00  0.00    -0.206 F 
ATOM     79  C   UNL A   1      36.470  32.185  31.063  1.00  0.00     0.060 A 
BRANCH  79  80
ATOM     80  S   UNL A   1      35.275  33.535  30.976  1.00  0.00     0.124 S 
ATOM     81  O   UNL A   1      34.107  32.936  31.611  1.00  0.00    -0.237 OA
ATOM     82  O   UNL A   1      35.939  34.599  31.719  1.00  0.00    -0.237 OA
ATOM     83  O   UNL A   1      35.148  33.778  29.540  1.00  0.00    -0.744 OA
ENDBRANCH  79  80
ENDBRANCH  58  72
BRANCH  59  84
ATOM     84  C   UNL A   1      44.013  32.303  30.506  1.00  0.00     0.058 A 
ATOM     85  C   UNL A   1      44.865  33.192  31.194  1.00  0.00     0.135 A 
ATOM     86  C   UNL A   1      42.632  32.494  30.822  1.00  0.00     0.135 A 
ATOM     87  F   UNL A   1      46.195  33.087  31.042  1.00  0.00    -0.206 F 
ATOM     88  C   UNL A   1      44.396  34.145  32.136  1.00  0.00     0.059 A 
ATOM     89  C   UNL A   1      42.148  33.418  31.760  1.00  0.00     0.059 A 
ATOM     90  F   UNL A   1      41.666  31.745  30.285  1.00  0.00    -0.206 F 
ATOM     91  C   UNL A   1      43.034  34.231  32.435  1.00  0.00     0.060 A 
BRANCH  91  92
ATOM     92  S   UNL A   1      42.440  35.330  33.754  1.00  0.00     0.124 S 
ATOM     93  O   UNL A   1      43.028  36.610  33.370  1.00  0.00    -0.237 OA
ATOM     94  O   UNL A   1      40.991  35.237  33.608  1.00  0.00    -0.237 OA
ATOM     95  O   UNL A   1      42.988  34.746  34.974  1.00  0.00    -0.744 OA
ENDBRANCH  91  92
ENDBRANCH  59  84
BRANCH  71  96
ATOM     96  C   UNL A   1      44.424  26.278  33.330  1.00  0.00     0.058 A 
ATOM     97  C   UNL A   1      44.472  25.111  32.554  1.00  0.00     0.135 A 
ATOM     98  C   UNL A   1      44.853  26.159  34.657  1.00  0.00     0.135 A 
ATOM     99  F   UNL A   1      44.074  25.130  31.271  1.00  0.00    -0.206 F 
ATOM    100  C   UNL A   1      44.878  23.884  33.084  1.00  0.00     0.059 A 
ATOM    101  C   UNL A   1      45.266  24.954  35.208  1.00  0.00     0.059 A 
ATOM    102  F   UNL A   1      44.873  27.228  35.455  1.00  0.00    -0.206 F 
ATOM    103  C   UNL A   1      45.272  23.816  34.417  1.00  0.00     0.060 A 
BRANCH 103 104
ATOM    104  S   UNL A   1      45.887  22.277  35.124  1.00  0.00     0.124 S 
ATOM    105  O   UNL A   1      45.903  22.596  36.553  1.00  0.00    -0.237 OA
ATOM    106  O   UNL A   1      44.868  21.308  34.708  1.00  0.00    -0.237 OA
ATOM    107  O   UNL A   1      47.184  22.121  34.497  1.00  0.00    -0.744 OA
ENDBRANCH 103 104
ENDBRANCH  71  96
ENDBRANCH  45  46
ENDBRANCH  37  40
ENDBRANCH  35  36
ENDBRANCH  34  35
ENDBRANCH  33  34
ENDBRANCH  32  33
ENDBRANCH   1  32
TORSDOF 22
ENDMDL
MODEL 3
REMARK VINA RESULT:     -10.7      2.056      3.434
REMARK SMILES Cc1ccc(NC(=O)Cn2c(CCC(=O)NCCCCCCNC(=O)c3ccc(-c4c5nc(c(-c6c(F)cc(S(=O)(=O)[O-])cc6F)c6ccc([nH]6)c(-c6c(F)cc(S(=O)(=O)[O-])cc6F)c6nc(c(-c7c(F)cc(S(=O)(=O)[O-])cc7F)c7ccc4[nH]7)C=C6)C=C5)cc3)ccc2-c2ccccc2)cc1
REMARK SMILES IDX 18 1 17 2 16 3 14 4 15 5 13 7 12 8 11 9 10 10 94 11 92 12
REMARK SMILES IDX 93 13 9 14 7 15 6 16 8 18 5 19 1 20 2 21 3 22 102 23 4 24
REMARK SMILES IDX 101 25 95 26 96 27 100 28 97 29 99 30 98 31 19 32 20 33
REMARK SMILES IDX 21 34 22 35 23 36 24 37 25 39 26 40 27 41 91 42 28 43 90 44
REMARK SMILES IDX 29 45 30 46 31 47 84 48 32 49 89 50 83 51 85 52 33 53 88 54
REMARK SMILES IDX 82 55 81 56 34 58 68 59 47 60 67 61 48 62 51 63 66 64 86 65
REMARK SMILES IDX 49 66 50 67 65 69 87 70 52 71 35 72 36 73 45 74 37 75 38 76
REMARK SMILES IDX 44 77 46 78 39 79 40 80 41 81 42 82 43 83 69 84 70 85 79 86
REMARK SMILES IDX 71 87 72 88 78 89 80 90 73 91 74 92 75 93 76 94 77 95 53 96
REMARK SMILES IDX 54 97 63 98 55 99 56 100 62 101 64 102 57 103 58 104 59 105
REMARK SMILES IDX 60 106 61 107
REMARK H PARENT 16 6 6 17 23 38 85 57 51 68
REMARK Flexibility Score: inf
ROOT
ATOM      1  C   UNL A   1      35.148  21.130  25.650  1.00  0.00     0.021 C 
ENDROOT
BRANCH   1   2
ATOM      2  C   UNL A   1      33.822  20.583  25.057  1.00  0.00     0.116 C 
BRANCH   2   3
ATOM      3  N   UNL A   1      33.305  21.211  23.846  1.00  0.00    -0.356 N 
ATOM      4  C   UNL A   1      32.570  22.363  23.745  1.00  0.00     0.220 C 
ATOM      5  O   UNL A   1      32.641  23.040  22.718  1.00  0.00    -0.275 OA
ATOM      6  H   UNL A   1      33.509  20.752  22.999  1.00  0.00     0.163 HD
BRANCH   4   7
ATOM      7  C   UNL A   1      31.632  22.781  24.853  1.00  0.00     0.106 C 
BRANCH   7   8
ATOM      8  C   UNL A   1      32.422  23.294  26.051  1.00  0.00     0.064 C 
BRANCH   8   9
ATOM      9  C   UNL A   1      33.010  24.662  25.862  1.00  0.00     0.019 A 
ATOM     10  N   UNL A   1      32.371  25.887  25.997  1.00  0.00    -0.335 N 
ATOM     11  C   UNL A   1      33.308  26.906  25.744  1.00  0.00     0.049 A 
ATOM     12  C   UNL A   1      34.314  24.919  25.463  1.00  0.00     0.024 A 
ATOM     13  C   UNL A   1      34.498  26.310  25.387  1.00  0.00     0.029 A 
BRANCH  10  14
ATOM     14  C   UNL A   1      31.020  26.235  26.488  1.00  0.00     0.222 C 
BRANCH  14  15
ATOM     15  C   UNL A   1      29.783  25.454  26.120  1.00  0.00     0.244 C 
ATOM     16  N   UNL A   1      29.048  25.675  24.993  1.00  0.00    -0.325 N 
ATOM     17  H   UNL A   1      28.294  25.058  24.856  1.00  0.00     0.169 HD
ATOM     18  O   UNL A   1      29.360  24.593  26.904  1.00  0.00    -0.273 OA
BRANCH  16  19
ATOM     19  C   UNL A   1      29.208  26.648  24.002  1.00  0.00     0.041 A 
ATOM     20  C   UNL A   1      30.188  29.994  21.507  1.00  0.00     0.044 C 
ATOM     21  C   UNL A   1      29.813  28.763  22.276  1.00  0.00    -0.051 A 
ATOM     22  C   UNL A   1      28.570  28.703  22.913  1.00  0.00     0.005 A 
ATOM     23  C   UNL A   1      30.717  27.709  22.440  1.00  0.00     0.005 A 
ATOM     24  C   UNL A   1      28.264  27.642  23.762  1.00  0.00     0.026 A 
ATOM     25  C   UNL A   1      30.402  26.637  23.276  1.00  0.00     0.026 A 
ENDBRANCH  16  19
ENDBRANCH  14  15
ENDBRANCH  10  14
BRANCH  11  26
ATOM     26  C   UNL A   1      33.048  28.322  26.015  1.00  0.00    -0.002 A 
ATOM     27  C   UNL A   1      31.946  29.012  25.538  1.00  0.00     0.010 A 
ATOM     28  C   UNL A   1      33.927  28.992  26.862  1.00  0.00     0.010 A 
ATOM     29  C   UNL A   1      31.719  30.321  25.974  1.00  0.00     0.001 A 
ATOM     30  C   UNL A   1      33.695  30.276  27.331  1.00  0.00     0.001 A 
ATOM     31  C   UNL A   1      32.577  30.945  26.883  1.00  0.00     0.000 A 
ENDBRANCH  11  26
ENDBRANCH   8   9
ENDBRANCH   7   8
ENDBRANCH   4   7
ENDBRANCH   2   3
ENDBRANCH   1   2
BRANCH   1  32
ATOM     32  C   UNL A   1      36.272  21.401  24.629  1.00  0.00     0.002 C 
BRANCH  32  33
ATOM     33  C   UNL A   1      37.806  21.223  25.002  1.00  0.00     0.002 C 
BRANCH  33  34
ATOM     34  C   UNL A   1      38.620  19.903  25.252  1.00  0.00     0.021 C 
BRANCH  34  35
ATOM     35  C   UNL A   1      40.029  19.664  25.941  1.00  0.00     0.116 C 
BRANCH  35  36
ATOM     36  N   UNL A   1      40.620  20.427  27.087  1.00  0.00    -0.352 N 
ATOM     37  C   UNL A   1      41.878  21.086  27.032  1.00  0.00     0.251 C 
ATOM     38  H   UNL A   1      40.106  20.475  27.925  1.00  0.00     0.163 HD
ATOM     39  O   UNL A   1      42.833  20.587  26.435  1.00  0.00    -0.269 OA
BRANCH  37  40
ATOM     40  C   UNL A   1      42.061  22.509  27.638  1.00  0.00     0.039 A 
ATOM     41  C   UNL A   1      43.325  23.023  28.047  1.00  0.00     0.014 A 
ATOM     42  C   UNL A   1      41.052  23.456  27.583  1.00  0.00     0.014 A 
ATOM     43  C   UNL A   1      43.588  24.437  28.312  1.00  0.00     0.010 A 
ATOM     44  C   UNL A   1      41.320  24.837  27.855  1.00  0.00     0.010 A 
ATOM     45  C   UNL A   1      42.590  25.406  28.171  1.00  0.00    -0.014 A 
BRANCH  45  46
ATOM     46  C   UNL A   1      42.754  26.933  27.919  1.00  0.00     0.031 A 
ATOM     47  C   UNL A   1      41.499  27.641  28.185  1.00  0.00     0.074 A 
ATOM     48  C   UNL A   1      43.725  27.917  27.928  1.00  0.00     0.049 A 
ATOM     49  N   UNL A   1      41.213  27.875  29.413  1.00  0.00    -0.248 NA
ATOM     50  C   UNL A   1      40.585  28.206  27.213  1.00  0.00     0.031 C 
ATOM     51  C   UNL A   1      45.167  27.770  27.838  1.00  0.00     0.029 A 
ATOM     52  N   UNL A   1      43.571  29.340  28.205  1.00  0.00    -0.354 N 
ATOM     53  C   UNL A   1      40.152  28.710  29.437  1.00  0.00     0.074 A 
ATOM     54  C   UNL A   1      39.770  28.882  28.041  1.00  0.00     0.031 C 
ATOM     55  C   UNL A   1      45.763  28.953  28.125  1.00  0.00     0.029 A 
ATOM     56  C   UNL A   1      44.776  29.993  28.541  1.00  0.00     0.049 A 
ATOM     57  H   UNL A   1      42.703  29.805  28.161  1.00  0.00     0.167 HD
ATOM     58  C   UNL A   1      39.783  29.222  30.637  1.00  0.00     0.037 A 
ATOM     59  C   UNL A   1      45.066  30.864  29.586  1.00  0.00     0.037 A 
ATOM     60  C   UNL A   1      40.550  28.735  31.802  1.00  0.00     0.049 A 
ATOM     61  C   UNL A   1      45.314  29.866  30.662  1.00  0.00     0.074 A 
ATOM     62  C   UNL A   1      40.254  28.259  33.065  1.00  0.00     0.029 A 
ATOM     63  N   UNL A   1      41.934  28.606  31.714  1.00  0.00    -0.354 N 
ATOM     64  N   UNL A   1      44.307  29.271  31.207  1.00  0.00    -0.248 NA
ATOM     65  C   UNL A   1      46.621  29.380  31.068  1.00  0.00     0.031 C 
ATOM     66  C   UNL A   1      41.454  27.696  33.635  1.00  0.00     0.029 A 
ATOM     67  C   UNL A   1      42.504  27.875  32.749  1.00  0.00     0.049 A 
ATOM     68  H   UNL A   1      42.463  28.998  30.982  1.00  0.00     0.167 HD
ATOM     69  C   UNL A   1      44.796  28.302  32.017  1.00  0.00     0.074 A 
ATOM     70  C   UNL A   1      46.241  28.339  31.824  1.00  0.00     0.031 C 
ATOM     71  C   UNL A   1      43.940  27.510  32.713  1.00  0.00     0.037 A 
BRANCH  58  72
ATOM     72  C   UNL A   1      38.747  30.288  30.649  1.00  0.00     0.058 A 
ATOM     73  C   UNL A   1      39.113  31.615  30.381  1.00  0.00     0.135 A 
ATOM     74  C   UNL A   1      37.374  30.020  30.799  1.00  0.00     0.135 A 
ATOM     75  F   UNL A   1      40.403  31.939  30.203  1.00  0.00    -0.206 F 
ATOM     76  C   UNL A   1      38.162  32.625  30.239  1.00  0.00     0.059 A 
ATOM     77  C   UNL A   1      36.405  31.004  30.627  1.00  0.00     0.059 A 
ATOM     78  F   UNL A   1      36.944  28.777  31.075  1.00  0.00    -0.206 F 
ATOM     79  C   UNL A   1      36.808  32.308  30.355  1.00  0.00     0.060 A 
BRANCH  79  80
ATOM     80  S   UNL A   1      35.572  33.600  30.116  1.00  0.00     0.124 S 
ATOM     81  O   UNL A   1      35.756  34.410  31.316  1.00  0.00    -0.237 OA
ATOM     82  O   UNL A   1      35.983  34.209  28.857  1.00  0.00    -0.237 OA
ATOM     83  O   UNL A   1      34.315  32.855  30.055  1.00  0.00    -0.744 OA
ENDBRANCH  79  80
ENDBRANCH  58  72
BRANCH  59  84
ATOM     84  C   UNL A   1      44.512  32.175  30.210  1.00  0.00     0.058 A 
ATOM     85  C   UNL A   1      43.868  33.124  29.388  1.00  0.00     0.135 A 
ATOM     86  C   UNL A   1      44.896  32.706  31.481  1.00  0.00     0.135 A 
ATOM     87  F   UNL A   1      43.506  32.783  28.141  1.00  0.00    -0.206 F 
ATOM     88  C   UNL A   1      43.668  34.476  29.772  1.00  0.00     0.059 A 
ATOM     89  C   UNL A   1      44.723  34.041  31.874  1.00  0.00     0.059 A 
ATOM     90  F   UNL A   1      45.530  31.972  32.399  1.00  0.00    -0.206 F 
ATOM     91  C   UNL A   1      44.126  34.934  31.009  1.00  0.00     0.060 A 
BRANCH  91  92
ATOM     92  S   UNL A   1      44.024  36.695  31.444  1.00  0.00     0.124 S 
ATOM     93  O   UNL A   1      43.197  36.661  32.648  1.00  0.00    -0.237 OA
ATOM     94  O   UNL A   1      45.424  37.046  31.655  1.00  0.00    -0.237 OA
ATOM     95  O   UNL A   1      43.389  37.310  30.283  1.00  0.00    -0.744 OA
ENDBRANCH  91  92
ENDBRANCH  59  84
BRANCH  71  96
ATOM     96  C   UNL A   1      44.495  26.204  33.175  1.00  0.00     0.058 A 
ATOM     97  C   UNL A   1      44.532  25.023  32.419  1.00  0.00     0.135 A 
ATOM     98  C   UNL A   1      44.842  26.088  34.525  1.00  0.00     0.135 A 
ATOM     99  F   UNL A   1      44.208  25.039  31.115  1.00  0.00    -0.206 F 
ATOM    100  C   UNL A   1      44.850  23.788  32.988  1.00  0.00     0.059 A 
ATOM    101  C   UNL A   1      45.167  24.875  35.116  1.00  0.00     0.059 A 
ATOM    102  F   UNL A   1      44.867  27.169  35.308  1.00  0.00    -0.206 F 
ATOM    103  C   UNL A   1      45.165  23.725  34.342  1.00  0.00     0.060 A 
BRANCH 103 104
ATOM    104  S   UNL A   1      45.667  22.171  35.106  1.00  0.00     0.124 S 
ATOM    105  O   UNL A   1      44.598  21.271  34.671  1.00  0.00    -0.237 OA
ATOM    106  O   UNL A   1      46.979  21.929  34.498  1.00  0.00    -0.237 OA
ATOM    107  O   UNL A   1      45.688  22.491  36.519  1.00  0.00    -0.744 OA
ENDBRANCH 103 104
ENDBRANCH  71  96
ENDBRANCH  45  46
ENDBRANCH  37  40
ENDBRANCH  35  36
ENDBRANCH  34  35
ENDBRANCH  33  34
ENDBRANCH  32  33
ENDBRANCH   1  32
TORSDOF 22
ENDMDL
