MODEL 1
REMARK VINA RESULT:     -12.3      0.000      0.000
REMARK SMILES NS(=O)(=O)c1ccc(-n2nc(C(F)F)cc2-c2ccc(C(=O)NCCCCCCNC(=O)c3ccc(-c4c5nc(c(-c6c(F)cc(S(=O)(=O)[O-])cc6F)c6ccc([nH]6)c(-c6c(F)cc(S(=O)(=O)[O-])cc6F)c6nc(c(-c7c(F)cc(S(=O)(=O)[O-])cc7F)c7ccc4[nH]7)C=C6)C=C5)cc3)cc2)cc1
REMARK SMILES IDX 26 1 25 2 24 3 23 4 21 5 22 6 20 8 17 9 18 10 100 11 19 12
REMARK SMILES IDX 99 13 16 14 9 15 10 16 11 17 15 18 8 19 5 20 6 21 102 22
REMARK SMILES IDX 7 23 101 24 2 25 3 26 4 27 1 28 12 31 13 32 14 33 27 34
REMARK SMILES IDX 28 35 29 36 30 37 31 38 32 40 33 41 34 42 98 43 35 44 97 45
REMARK SMILES IDX 36 46 37 47 38 48 91 49 39 50 96 51 90 52 92 53 40 54 95 55
REMARK SMILES IDX 89 56 88 57 41 59 75 60 54 61 74 62 55 63 58 64 73 65 93 66
REMARK SMILES IDX 56 67 57 68 72 70 94 71 59 72 42 73 43 74 52 75 44 76 45 77
REMARK SMILES IDX 51 78 53 79 46 80 47 81 48 82 49 83 50 84 76 85 77 86 86 87
REMARK SMILES IDX 78 88 79 89 85 90 87 91 80 92 81 93 82 94 83 95 84 96 60 97
REMARK SMILES IDX 61 98 70 99 62 100 63 101 69 102 71 103 64 104 65 105 66 106
REMARK SMILES IDX 67 107 68 108
REMARK H PARENT 23 7 1 29 1 30 30 39 92 58 58 69
REMARK Flexibility Score: inf
ROOT
ATOM      1  C   UNL A   1      40.660  19.906  25.985  1.00  0.00     0.002 C 
ENDROOT
BRANCH   1   2
ATOM      2  C   UNL A   1      39.154  19.671  25.813  1.00  0.00     0.021 C 
BRANCH   2   3
ATOM      3  C   UNL A   1      38.446  20.834  25.117  1.00  0.00     0.116 C 
BRANCH   3   4
ATOM      4  N   UNL A   1      38.832  22.090  25.731  1.00  0.00    -0.352 N 
ATOM      5  C   UNL A   1      38.152  23.261  25.938  1.00  0.00     0.251 C 
ATOM      6  O   UNL A   1      38.746  24.178  26.505  1.00  0.00    -0.269 OA
ATOM      7  H   UNL A   1      39.760  22.103  26.061  1.00  0.00     0.163 HD
BRANCH   5   8
ATOM      8  C   UNL A   1      36.715  23.425  25.590  1.00  0.00     0.039 A 
ATOM      9  C   UNL A   1      34.073  23.934  24.785  1.00  0.00     0.000 A 
ATOM     10  C   UNL A   1      35.085  23.800  23.827  1.00  0.00     0.011 A 
ATOM     11  C   UNL A   1      34.377  23.770  26.136  1.00  0.00     0.011 A 
ATOM     12  C   UNL A   1      36.400  23.559  24.230  1.00  0.00     0.014 A 
ATOM     13  C   UNL A   1      35.678  23.454  26.525  1.00  0.00     0.014 A 
BRANCH   9  14
ATOM     14  C   UNL A   1      32.694  24.158  24.383  1.00  0.00     0.075 A 
ATOM     15  N   UNL A   1      31.834  23.166  23.926  1.00  0.00    -0.233 N 
ATOM     16  N   UNL A   1      30.711  23.700  23.381  1.00  0.00    -0.166 NA
ATOM     17  C   UNL A   1      30.724  24.987  23.774  1.00  0.00     0.129 A 
ATOM     18  C   UNL A   1      31.972  25.330  24.344  1.00  0.00     0.060 A 
BRANCH  15  19
ATOM     19  C   UNL A   1      32.040  21.763  23.971  1.00  0.00     0.065 A 
ATOM     20  C   UNL A   1      32.636  19.043  24.074  1.00  0.00     0.082 A 
ATOM     21  C   UNL A   1      32.489  19.756  25.262  1.00  0.00     0.024 A 
ATOM     22  C   UNL A   1      32.435  19.670  22.835  1.00  0.00     0.024 A 
ATOM     23  C   UNL A   1      32.197  21.117  25.208  1.00  0.00     0.030 A 
ATOM     24  C   UNL A   1      32.111  21.030  22.783  1.00  0.00     0.030 A 
BRANCH  20  25
ATOM     25  S   UNL A   1      33.080  17.330  24.088  1.00  0.00     0.238 S 
ATOM     26  O   UNL A   1      33.228  16.916  22.702  1.00  0.00    -0.207 OA
ATOM     27  O   UNL A   1      32.215  16.639  25.001  1.00  0.00    -0.207 OA
BRANCH  25  28
ATOM     28  N   UNL A   1      34.623  17.293  24.736  1.00  0.00    -0.225 NA
ATOM     29  H   UNL A   1      35.307  17.238  23.982  1.00  0.00     0.137 HD
ATOM     30  H   UNL A   1      34.718  16.479  25.342  1.00  0.00     0.137 HD
ENDBRANCH  25  28
ENDBRANCH  20  25
ENDBRANCH  15  19
BRANCH  17  31
ATOM     31  C   UNL A   1      29.554  25.908  23.596  1.00  0.00     0.393 C 
ATOM     32  F   UNL A   1      29.004  26.293  24.780  1.00  0.00    -0.203 F 
ATOM     33  F   UNL A   1      29.898  27.046  22.935  1.00  0.00    -0.203 F 
ENDBRANCH  17  31
ENDBRANCH   9  14
ENDBRANCH   5   8
ENDBRANCH   3   4
ENDBRANCH   2   3
ENDBRANCH   1   2
BRANCH   1  34
ATOM     34  C   UNL A   1      41.129  20.114  27.435  1.00  0.00     0.002 C 
BRANCH  34  35
ATOM     35  C   UNL A   1      41.222  21.571  27.915  1.00  0.00     0.021 C 
BRANCH  35  36
ATOM     36  C   UNL A   1      42.637  22.122  27.895  1.00  0.00     0.116 C 
BRANCH  36  37
ATOM     37  N   UNL A   1      43.149  22.264  26.529  1.00  0.00    -0.352 N 
ATOM     38  C   UNL A   1      43.037  23.337  25.664  1.00  0.00     0.251 C 
ATOM     39  H   UNL A   1      43.641  21.487  26.178  1.00  0.00     0.163 HD
ATOM     40  O   UNL A   1      43.173  23.182  24.457  1.00  0.00    -0.269 OA
BRANCH  38  41
ATOM     41  C   UNL A   1      42.762  24.669  26.226  1.00  0.00     0.039 A 
ATOM     42  C   UNL A   1      41.656  25.433  25.842  1.00  0.00     0.014 A 
ATOM     43  C   UNL A   1      43.643  25.136  27.193  1.00  0.00     0.014 A 
ATOM     44  C   UNL A   1      41.427  26.644  26.493  1.00  0.00     0.010 A 
ATOM     45  C   UNL A   1      43.283  26.183  27.987  1.00  0.00     0.010 A 
ATOM     46  C   UNL A   1      42.245  27.004  27.575  1.00  0.00    -0.014 A 
BRANCH  46  47
ATOM     47  C   UNL A   1      42.013  28.203  28.364  1.00  0.00     0.031 A 
ATOM     48  C   UNL A   1      43.052  29.249  28.195  1.00  0.00     0.074 A 
ATOM     49  C   UNL A   1      40.835  28.444  28.983  1.00  0.00     0.049 A 
ATOM     50  N   UNL A   1      43.955  29.607  29.044  1.00  0.00    -0.248 NA
ATOM     51  C   UNL A   1      43.226  29.842  26.857  1.00  0.00     0.031 C 
ATOM     52  C   UNL A   1      39.597  27.650  28.952  1.00  0.00     0.029 A 
ATOM     53  N   UNL A   1      40.458  29.533  29.699  1.00  0.00    -0.354 N 
ATOM     54  C   UNL A   1      44.636  30.661  28.442  1.00  0.00     0.074 A 
ATOM     55  C   UNL A   1      44.312  30.595  27.042  1.00  0.00     0.031 C 
ATOM     56  C   UNL A   1      38.564  28.394  29.407  1.00  0.00     0.029 A 
ATOM     57  C   UNL A   1      39.089  29.641  29.928  1.00  0.00     0.049 A 
ATOM     58  H   UNL A   1      41.104  30.197  30.030  1.00  0.00     0.167 HD
ATOM     59  C   UNL A   1      45.177  31.664  29.190  1.00  0.00     0.037 A 
ATOM     60  C   UNL A   1      38.446  30.699  30.486  1.00  0.00     0.037 A 
ATOM     61  C   UNL A   1      45.254  31.286  30.583  1.00  0.00     0.049 A 
ATOM     62  C   UNL A   1      39.477  31.470  31.235  1.00  0.00     0.074 A 
ATOM     63  C   UNL A   1      45.839  30.239  31.271  1.00  0.00     0.029 A 
ATOM     64  N   UNL A   1      44.315  31.810  31.440  1.00  0.00    -0.354 N 
ATOM     65  N   UNL A   1      40.100  31.010  32.287  1.00  0.00    -0.248 NA
ATOM     66  C   UNL A   1      40.160  32.541  30.525  1.00  0.00     0.031 C 
ATOM     67  C   UNL A   1      44.885  29.876  32.267  1.00  0.00     0.029 A 
ATOM     68  C   UNL A   1      43.817  30.770  32.187  1.00  0.00     0.049 A 
ATOM     69  H   UNL A   1      44.049  32.756  31.507  1.00  0.00     0.167 HD
ATOM     70  C   UNL A   1      41.417  31.416  32.128  1.00  0.00     0.074 A 
ATOM     71  C   UNL A   1      41.378  32.417  31.061  1.00  0.00     0.031 C 
ATOM     72  C   UNL A   1      42.452  30.699  32.660  1.00  0.00     0.037 A 
BRANCH  59  73
ATOM     73  C   UNL A   1      45.273  33.104  28.742  1.00  0.00     0.058 A 
ATOM     74  C   UNL A   1      46.518  33.762  28.815  1.00  0.00     0.135 A 
ATOM     75  C   UNL A   1      44.158  33.943  28.511  1.00  0.00     0.135 A 
ATOM     76  F   UNL A   1      47.646  33.067  29.036  1.00  0.00    -0.206 F 
ATOM     77  C   UNL A   1      46.637  35.150  28.744  1.00  0.00     0.059 A 
ATOM     78  C   UNL A   1      44.262  35.322  28.379  1.00  0.00     0.059 A 
ATOM     79  F   UNL A   1      42.901  33.485  28.501  1.00  0.00    -0.206 F 
ATOM     80  C   UNL A   1      45.498  35.922  28.540  1.00  0.00     0.060 A 
BRANCH  80  81
ATOM     81  S   UNL A   1      45.629  37.717  28.551  1.00  0.00     0.124 S 
ATOM     82  O   UNL A   1      46.725  37.932  27.614  1.00  0.00    -0.237 OA
ATOM     83  O   UNL A   1      44.303  38.118  28.093  1.00  0.00    -0.237 OA
ATOM     84  O   UNL A   1      45.922  38.021  29.949  1.00  0.00    -0.744 OA
ENDBRANCH  80  81
ENDBRANCH  59  73
BRANCH  60  85
ATOM     85  C   UNL A   1      37.125  31.281  30.123  1.00  0.00     0.058 A 
ATOM     86  C   UNL A   1      36.242  31.745  31.117  1.00  0.00     0.135 A 
ATOM     87  C   UNL A   1      36.833  31.679  28.803  1.00  0.00     0.135 A 
ATOM     88  F   UNL A   1      36.446  31.422  32.402  1.00  0.00    -0.206 F 
ATOM     89  C   UNL A   1      35.180  32.612  30.831  1.00  0.00     0.059 A 
ATOM     90  C   UNL A   1      35.774  32.533  28.492  1.00  0.00     0.059 A 
ATOM     91  F   UNL A   1      37.626  31.328  27.780  1.00  0.00    -0.206 F 
ATOM     92  C   UNL A   1      34.971  33.022  29.515  1.00  0.00     0.060 A 
BRANCH  92  93
ATOM     93  S   UNL A   1      33.734  34.295  29.158  1.00  0.00     0.124 S 
ATOM     94  O   UNL A   1      33.262  34.638  30.495  1.00  0.00    -0.237 OA
ATOM     95  O   UNL A   1      34.527  35.311  28.477  1.00  0.00    -0.237 OA
ATOM     96  O   UNL A   1      32.763  33.594  28.321  1.00  0.00    -0.744 OA
ENDBRANCH  92  93
ENDBRANCH  60  85
BRANCH  72  97
ATOM     97  C   UNL A   1      42.132  29.611  33.657  1.00  0.00     0.058 A 
ATOM     98  C   UNL A   1      41.856  28.272  33.326  1.00  0.00     0.135 A 
ATOM     99  C   UNL A   1      42.257  29.914  35.022  1.00  0.00     0.135 A 
ATOM    100  F   UNL A   1      41.820  27.869  32.049  1.00  0.00    -0.206 F 
ATOM    101  C   UNL A   1      41.668  27.291  34.304  1.00  0.00     0.059 A 
ATOM    102  C   UNL A   1      42.107  28.948  36.013  1.00  0.00     0.059 A 
ATOM    103  F   UNL A   1      42.582  31.159  35.406  1.00  0.00    -0.206 F 
ATOM    104  C   UNL A   1      41.796  27.640  35.648  1.00  0.00     0.060 A 
BRANCH 104 105
ATOM    105  S   UNL A   1      41.612  26.365  36.913  1.00  0.00     0.124 S 
ATOM    106  O   UNL A   1      41.530  25.147  36.113  1.00  0.00    -0.237 OA
ATOM    107  O   UNL A   1      42.829  26.523  37.704  1.00  0.00    -0.237 OA
ATOM    108  O   UNL A   1      40.379  26.742  37.602  1.00  0.00    -0.744 OA
ENDBRANCH 104 105
ENDBRANCH  72  97
ENDBRANCH  46  47
ENDBRANCH  38  41
ENDBRANCH  36  37
ENDBRANCH  35  36
ENDBRANCH  34  35
ENDBRANCH   1  34
TORSDOF 21
ENDMDL
MODEL 2
REMARK VINA RESULT:     -12.2      2.368      4.629
REMARK SMILES NS(=O)(=O)c1ccc(-n2nc(C(F)F)cc2-c2ccc(C(=O)NCCCCCCNC(=O)c3ccc(-c4c5nc(c(-c6c(F)cc(S(=O)(=O)[O-])cc6F)c6ccc([nH]6)c(-c6c(F)cc(S(=O)(=O)[O-])cc6F)c6nc(c(-c7c(F)cc(S(=O)(=O)[O-])cc7F)c7ccc4[nH]7)C=C6)C=C5)cc3)cc2)cc1
REMARK SMILES IDX 26 1 25 2 24 3 23 4 21 5 22 6 20 8 17 9 18 10 100 11 19 12
REMARK SMILES IDX 99 13 16 14 9 15 10 16 11 17 15 18 8 19 5 20 6 21 102 22
REMARK SMILES IDX 7 23 101 24 2 25 3 26 4 27 1 28 12 31 13 32 14 33 27 34
REMARK SMILES IDX 28 35 29 36 30 37 31 38 32 40 33 41 34 42 98 43 35 44 97 45
REMARK SMILES IDX 36 46 37 47 38 48 91 49 39 50 96 51 90 52 92 53 40 54 95 55
REMARK SMILES IDX 89 56 88 57 41 59 75 60 54 61 74 62 55 63 58 64 73 65 93 66
REMARK SMILES IDX 56 67 57 68 72 70 94 71 59 72 42 73 43 74 52 75 44 76 45 77
REMARK SMILES IDX 51 78 53 79 46 80 47 81 48 82 49 83 50 84 76 85 77 86 86 87
REMARK SMILES IDX 78 88 79 89 85 90 87 91 80 92 81 93 82 94 83 95 84 96 60 97
REMARK SMILES IDX 61 98 70 99 62 100 63 101 69 102 71 103 64 104 65 105 66 106
REMARK SMILES IDX 67 107 68 108
REMARK H PARENT 23 7 1 29 1 30 30 39 92 58 58 69
REMARK Flexibility Score: inf
ROOT
ATOM      1  C   UNL A   1      36.386  23.814  25.064  1.00  0.00     0.002 C 
ENDROOT
BRANCH   1   2
ATOM      2  C   UNL A   1      34.904  23.659  25.424  1.00  0.00     0.021 C 
BRANCH   2   3
ATOM      3  C   UNL A   1      34.118  22.868  24.377  1.00  0.00     0.116 C 
BRANCH   3   4
ATOM      4  N   UNL A   1      32.980  22.217  24.997  1.00  0.00    -0.352 N 
ATOM      5  C   UNL A   1      31.729  22.668  25.326  1.00  0.00     0.251 C 
ATOM      6  O   UNL A   1      30.949  21.871  25.848  1.00  0.00    -0.269 OA
ATOM      7  H   UNL A   1      33.137  21.273  25.224  1.00  0.00     0.163 HD
BRANCH   5   8
ATOM      8  C   UNL A   1      31.258  24.040  24.995  1.00  0.00     0.039 A 
ATOM      9  C   UNL A   1      30.570  26.647  24.209  1.00  0.00     0.000 A 
ATOM     10  C   UNL A   1      30.803  25.661  23.243  1.00  0.00     0.011 A 
ATOM     11  C   UNL A   1      30.639  26.316  25.562  1.00  0.00     0.011 A 
ATOM     12  C   UNL A   1      31.157  24.369  23.636  1.00  0.00     0.014 A 
ATOM     13  C   UNL A   1      30.918  25.005  25.946  1.00  0.00     0.014 A 
BRANCH   9  14
ATOM     14  C   UNL A   1      30.174  27.991  23.820  1.00  0.00     0.075 A 
ATOM     15  N   UNL A   1      30.712  29.157  24.349  1.00  0.00    -0.233 N 
ATOM     16  N   UNL A   1      29.977  30.244  23.997  1.00  0.00    -0.166 NA
ATOM     17  C   UNL A   1      29.177  29.804  23.008  1.00  0.00     0.129 A 
ATOM     18  C   UNL A   1      29.220  28.394  22.911  1.00  0.00     0.060 A 
BRANCH  15  19
ATOM     19  C   UNL A   1      31.863  29.277  25.171  1.00  0.00     0.065 A 
ATOM     20  C   UNL A   1      34.129  29.702  26.734  1.00  0.00     0.082 A 
ATOM     21  C   UNL A   1      32.871  29.965  27.270  1.00  0.00     0.024 A 
ATOM     22  C   UNL A   1      34.260  29.179  25.439  1.00  0.00     0.024 A 
ATOM     23  C   UNL A   1      31.739  29.758  26.484  1.00  0.00     0.030 A 
ATOM     24  C   UNL A   1      33.121  28.942  24.662  1.00  0.00     0.030 A 
BRANCH  20  25
ATOM     25  S   UNL A   1      35.600  30.020  27.666  1.00  0.00     0.238 S 
ATOM     26  O   UNL A   1      35.867  31.446  27.570  1.00  0.00    -0.207 OA
ATOM     27  O   UNL A   1      36.586  29.036  27.318  1.00  0.00    -0.207 OA
BRANCH  25  28
ATOM     28  N   UNL A   1      35.164  29.750  29.259  1.00  0.00    -0.225 NA
ATOM     29  H   UNL A   1      34.838  30.622  29.674  1.00  0.00     0.137 HD
ATOM     30  H   UNL A   1      35.971  29.406  29.779  1.00  0.00     0.137 HD
ENDBRANCH  25  28
ENDBRANCH  20  25
ENDBRANCH  15  19
BRANCH  17  31
ATOM     31  C   UNL A   1      28.350  30.721  22.157  1.00  0.00     0.393 C 
ATOM     32  F   UNL A   1      27.847  30.101  21.054  1.00  0.00    -0.203 F 
ATOM     33  F   UNL A   1      27.289  31.230  22.840  1.00  0.00    -0.203 F 
ENDBRANCH  17  31
ENDBRANCH   9  14
ENDBRANCH   5   8
ENDBRANCH   3   4
ENDBRANCH   2   3
ENDBRANCH   1   2
BRANCH   1  34
ATOM     34  C   UNL A   1      37.089  22.522  24.610  1.00  0.00     0.002 C 
BRANCH  34  35
ATOM     35  C   UNL A   1      37.918  21.791  25.678  1.00  0.00     0.021 C 
BRANCH  35  36
ATOM     36  C   UNL A   1      38.961  22.677  26.339  1.00  0.00     0.116 C 
BRANCH  36  37
ATOM     37  N   UNL A   1      40.323  22.199  26.086  1.00  0.00    -0.352 N 
ATOM     38  C   UNL A   1      41.492  22.926  25.964  1.00  0.00     0.251 C 
ATOM     39  H   UNL A   1      40.419  21.224  25.988  1.00  0.00     0.163 HD
ATOM     40  O   UNL A   1      42.465  22.452  25.390  1.00  0.00    -0.269 OA
BRANCH  38  41
ATOM     41  C   UNL A   1      41.547  24.276  26.547  1.00  0.00     0.039 A 
ATOM     42  C   UNL A   1      40.635  25.279  26.207  1.00  0.00     0.014 A 
ATOM     43  C   UNL A   1      42.540  24.512  27.488  1.00  0.00     0.014 A 
ATOM     44  C   UNL A   1      40.708  26.499  26.877  1.00  0.00     0.010 A 
ATOM     45  C   UNL A   1      42.453  25.601  28.304  1.00  0.00     0.010 A 
ATOM     46  C   UNL A   1      41.619  26.644  27.934  1.00  0.00    -0.014 A 
BRANCH  46  47
ATOM     47  C   UNL A   1      41.692  27.851  28.743  1.00  0.00     0.031 A 
ATOM     48  C   UNL A   1      42.767  28.788  28.333  1.00  0.00     0.074 A 
ATOM     49  C   UNL A   1      40.712  28.202  29.606  1.00  0.00     0.049 A 
ATOM     50  N   UNL A   1      43.868  29.044  28.956  1.00  0.00    -0.248 NA
ATOM     51  C   UNL A   1      42.696  29.377  26.985  1.00  0.00     0.031 C 
ATOM     52  C   UNL A   1      39.425  27.538  29.861  1.00  0.00     0.029 A 
ATOM     53  N   UNL A   1      40.616  29.315  30.376  1.00  0.00    -0.354 N 
ATOM     54  C   UNL A   1      44.500  30.031  28.205  1.00  0.00     0.074 A 
ATOM     55  C   UNL A   1      43.867  30.015  26.913  1.00  0.00     0.031 C 
ATOM     56  C   UNL A   1      38.600  28.376  30.527  1.00  0.00     0.029 A 
ATOM     57  C   UNL A   1      39.351  29.558  30.905  1.00  0.00     0.049 A 
ATOM     58  H   UNL A   1      41.384  29.907  30.548  1.00  0.00     0.167 HD
ATOM     59  C   UNL A   1      45.293  30.965  28.803  1.00  0.00     0.037 A 
ATOM     60  C   UNL A   1      38.960  30.669  31.580  1.00  0.00     0.037 A 
ATOM     61  C   UNL A   1      45.640  30.564  30.147  1.00  0.00     0.049 A 
ATOM     62  C   UNL A   1      40.204  31.323  32.071  1.00  0.00     0.074 A 
ATOM     63  C   UNL A   1      46.255  29.456  30.699  1.00  0.00     0.029 A 
ATOM     64  N   UNL A   1      44.975  31.170  31.187  1.00  0.00    -0.354 N 
ATOM     65  N   UNL A   1      40.997  30.789  32.962  1.00  0.00    -0.248 NA
ATOM     66  C   UNL A   1      40.816  32.327  31.215  1.00  0.00     0.031 C 
ATOM     67  C   UNL A   1      45.517  29.179  31.887  1.00  0.00     0.029 A 
ATOM     68  C   UNL A   1      44.554  30.177  32.037  1.00  0.00     0.049 A 
ATOM     69  H   UNL A   1      44.827  32.137  31.301  1.00  0.00     0.167 HD
ATOM     70  C   UNL A   1      42.279  31.063  32.509  1.00  0.00     0.074 A 
ATOM     71  C   UNL A   1      42.104  32.075  31.466  1.00  0.00     0.031 C 
ATOM     72  C   UNL A   1      43.329  30.239  32.804  1.00  0.00     0.037 A 
BRANCH  59  73
ATOM     73  C   UNL A   1      45.431  32.394  28.329  1.00  0.00     0.058 A 
ATOM     74  C   UNL A   1      46.721  32.924  28.123  1.00  0.00     0.135 A 
ATOM     75  C   UNL A   1      44.382  33.341  28.336  1.00  0.00     0.135 A 
ATOM     76  F   UNL A   1      47.796  32.119  28.101  1.00  0.00    -0.206 F 
ATOM     77  C   UNL A   1      46.959  34.295  28.013  1.00  0.00     0.059 A 
ATOM     78  C   UNL A   1      44.590  34.704  28.169  1.00  0.00     0.059 A 
ATOM     79  F   UNL A   1      43.113  33.009  28.603  1.00  0.00    -0.206 F 
ATOM     80  C   UNL A   1      45.884  35.177  28.052  1.00  0.00     0.060 A 
BRANCH  80  81
ATOM     81  S   UNL A   1      46.192  36.950  28.015  1.00  0.00     0.124 S 
ATOM     82  O   UNL A   1      47.576  36.994  27.559  1.00  0.00    -0.237 OA
ATOM     83  O   UNL A   1      45.186  37.409  27.062  1.00  0.00    -0.237 OA
ATOM     84  O   UNL A   1      45.967  37.357  29.399  1.00  0.00    -0.744 OA
ENDBRANCH  80  81
ENDBRANCH  59  73
BRANCH  60  85
ATOM     85  C   UNL A   1      37.656  31.385  31.515  1.00  0.00     0.058 A 
ATOM     86  C   UNL A   1      36.793  31.417  32.627  1.00  0.00     0.135 A 
ATOM     87  C   UNL A   1      37.371  32.304  30.485  1.00  0.00     0.135 A 
ATOM     88  F   UNL A   1      36.992  30.582  33.658  1.00  0.00    -0.206 F 
ATOM     89  C   UNL A   1      35.758  32.353  32.746  1.00  0.00     0.059 A 
ATOM     90  C   UNL A   1      36.339  33.239  30.577  1.00  0.00     0.059 A 
ATOM     91  F   UNL A   1      38.149  32.390  29.396  1.00  0.00    -0.206 F 
ATOM     92  C   UNL A   1      35.557  33.279  31.724  1.00  0.00     0.060 A 
BRANCH  92  93
ATOM     93  S   UNL A   1      34.360  34.619  31.951  1.00  0.00     0.124 S 
ATOM     94  O   UNL A   1      35.141  35.595  32.702  1.00  0.00    -0.237 OA
ATOM     95  O   UNL A   1      34.036  34.977  30.575  1.00  0.00    -0.237 OA
ATOM     96  O   UNL A   1      33.281  33.980  32.702  1.00  0.00    -0.744 OA
ENDBRANCH  92  93
ENDBRANCH  60  85
BRANCH  72  97
ATOM     97  C   UNL A   1      43.132  29.177  33.859  1.00  0.00     0.058 A 
ATOM     98  C   UNL A   1      43.253  29.386  35.246  1.00  0.00     0.135 A 
ATOM     99  C   UNL A   1      42.652  27.924  33.448  1.00  0.00     0.135 A 
ATOM    100  F   UNL A   1      43.605  30.583  35.735  1.00  0.00    -0.206 F 
ATOM    101  C   UNL A   1      42.957  28.385  36.175  1.00  0.00     0.059 A 
ATOM    102  C   UNL A   1      42.319  26.922  34.355  1.00  0.00     0.059 A 
ATOM    103  F   UNL A   1      42.452  27.678  32.142  1.00  0.00    -0.206 F 
ATOM    104  C   UNL A   1      42.489  27.154  35.718  1.00  0.00     0.060 A 
BRANCH 104 105
ATOM    105  S   UNL A   1      42.050  25.876  36.917  1.00  0.00     0.124 S 
ATOM    106  O   UNL A   1      42.508  24.660  36.252  1.00  0.00    -0.237 OA
ATOM    107  O   UNL A   1      42.809  26.275  38.099  1.00  0.00    -0.237 OA
ATOM    108  O   UNL A   1      40.600  26.009  37.044  1.00  0.00    -0.744 OA
ENDBRANCH 104 105
ENDBRANCH  72  97
ENDBRANCH  46  47
ENDBRANCH  38  41
ENDBRANCH  36  37
ENDBRANCH  35  36
ENDBRANCH  34  35
ENDBRANCH   1  34
TORSDOF 21
ENDMDL
MODEL 3
REMARK VINA RESULT:     -12.1      3.499      9.395
REMARK SMILES NS(=O)(=O)c1ccc(-n2nc(C(F)F)cc2-c2ccc(C(=O)NCCCCCCNC(=O)c3ccc(-c4c5nc(c(-c6c(F)cc(S(=O)(=O)[O-])cc6F)c6ccc([nH]6)c(-c6c(F)cc(S(=O)(=O)[O-])cc6F)c6nc(c(-c7c(F)cc(S(=O)(=O)[O-])cc7F)c7ccc4[nH]7)C=C6)C=C5)cc3)cc2)cc1
REMARK SMILES IDX 26 1 25 2 24 3 23 4 21 5 22 6 20 8 17 9 18 10 100 11 19 12
REMARK SMILES IDX 99 13 16 14 9 15 10 16 11 17 15 18 8 19 5 20 6 21 102 22
REMARK SMILES IDX 7 23 101 24 2 25 3 26 4 27 1 28 12 31 13 32 14 33 27 34
REMARK SMILES IDX 28 35 29 36 30 37 31 38 32 40 33 41 34 42 98 43 35 44 97 45
REMARK SMILES IDX 36 46 37 47 38 48 91 49 39 50 96 51 90 52 92 53 40 54 95 55
REMARK SMILES IDX 89 56 88 57 41 59 75 60 54 61 74 62 55 63 58 64 73 65 93 66
REMARK SMILES IDX 56 67 57 68 72 70 94 71 59 72 42 73 43 74 52 75 44 76 45 77
REMARK SMILES IDX 51 78 53 79 46 80 47 81 48 82 49 83 50 84 76 85 77 86 86 87
REMARK SMILES IDX 78 88 79 89 85 90 87 91 80 92 81 93 82 94 83 95 84 96 60 97
REMARK SMILES IDX 61 98 70 99 62 100 63 101 69 102 71 103 64 104 65 105 66 106
REMARK SMILES IDX 67 107 68 108
REMARK H PARENT 23 7 1 29 1 30 30 39 92 58 58 69
REMARK Flexibility Score: inf
ROOT
ATOM      1  C   UNL A   1      33.111  28.229  26.663  1.00  0.00     0.002 C 
ENDROOT
BRANCH   1   2
ATOM      2  C   UNL A   1      33.596  27.031  25.837  1.00  0.00     0.021 C 
BRANCH   2   3
ATOM      3  C   UNL A   1      33.934  27.404  24.393  1.00  0.00     0.116 C 
BRANCH   3   4
ATOM      4  N   UNL A   1      32.733  27.382  23.580  1.00  0.00    -0.352 N 
ATOM      5  C   UNL A   1      32.019  26.356  23.021  1.00  0.00     0.251 C 
ATOM      6  O   UNL A   1      31.013  26.642  22.372  1.00  0.00    -0.269 OA
ATOM      7  H   UNL A   1      32.363  28.275  23.393  1.00  0.00     0.163 HD
BRANCH   5   8
ATOM      8  C   UNL A   1      32.360  24.925  23.248  1.00  0.00     0.039 A 
ATOM      9  C   UNL A   1      33.056  22.289  23.919  1.00  0.00     0.000 A 
ATOM     10  C   UNL A   1      32.121  22.987  24.693  1.00  0.00     0.011 A 
ATOM     11  C   UNL A   1      33.605  22.894  22.790  1.00  0.00     0.011 A 
ATOM     12  C   UNL A   1      31.786  24.302  24.364  1.00  0.00     0.014 A 
ATOM     13  C   UNL A   1      33.208  24.180  22.425  1.00  0.00     0.014 A 
BRANCH   9  14
ATOM     14  C   UNL A   1      33.396  20.910  24.230  1.00  0.00     0.075 A 
ATOM     15  N   UNL A   1      34.644  20.484  24.667  1.00  0.00    -0.233 N 
ATOM     16  N   UNL A   1      34.747  19.130  24.623  1.00  0.00    -0.166 NA
ATOM     17  C   UNL A   1      33.482  18.701  24.463  1.00  0.00     0.129 A 
ATOM     18  C   UNL A   1      32.618  19.776  24.149  1.00  0.00     0.060 A 
BRANCH  15  19
ATOM     19  C   UNL A   1      35.727  21.294  25.099  1.00  0.00     0.065 A 
ATOM     20  C   UNL A   1      37.852  22.782  26.114  1.00  0.00     0.082 A 
ATOM     21  C   UNL A   1      38.111  21.583  25.454  1.00  0.00     0.024 A 
ATOM     22  C   UNL A   1      36.541  23.268  26.225  1.00  0.00     0.024 A 
ATOM     23  C   UNL A   1      37.046  20.838  24.952  1.00  0.00     0.030 A 
ATOM     24  C   UNL A   1      35.475  22.533  25.693  1.00  0.00     0.030 A 
BRANCH  20  25
ATOM     25  S   UNL A   1      39.163  23.728  26.834  1.00  0.00     0.238 S 
ATOM     26  O   UNL A   1      39.522  24.760  25.874  1.00  0.00    -0.207 OA
ATOM     27  O   UNL A   1      40.136  22.824  27.380  1.00  0.00    -0.207 OA
BRANCH  25  28
ATOM     28  N   UNL A   1      38.454  24.535  28.117  1.00  0.00    -0.225 NA
ATOM     29  H   UNL A   1      37.716  25.146  27.768  1.00  0.00     0.137 HD
ATOM     30  H   UNL A   1      39.159  25.093  28.600  1.00  0.00     0.137 HD
ENDBRANCH  25  28
ENDBRANCH  20  25
ENDBRANCH  15  19
BRANCH  17  31
ATOM     31  C   UNL A   1      33.085  17.261  24.592  1.00  0.00     0.393 C 
ATOM     32  F   UNL A   1      31.829  17.105  25.095  1.00  0.00    -0.203 F 
ATOM     33  F   UNL A   1      33.110  16.617  23.394  1.00  0.00    -0.203 F 
ENDBRANCH  17  31
ENDBRANCH   9  14
ENDBRANCH   5   8
ENDBRANCH   3   4
ENDBRANCH   2   3
ENDBRANCH   1   2
BRANCH   1  34
ATOM     34  C   UNL A   1      34.220  29.167  27.172  1.00  0.00     0.002 C 
BRANCH  34  35
ATOM     35  C   UNL A   1      33.882  30.666  27.191  1.00  0.00     0.021 C 
BRANCH  35  36
ATOM     36  C   UNL A   1      35.026  31.533  27.688  1.00  0.00     0.116 C 
BRANCH  36  37
ATOM     37  N   UNL A   1      34.696  32.203  28.949  1.00  0.00    -0.352 N 
ATOM     38  C   UNL A   1      35.155  31.933  30.225  1.00  0.00     0.251 C 
ATOM     39  H   UNL A   1      34.057  32.949  28.878  1.00  0.00     0.163 HD
ATOM     40  O   UNL A   1      34.527  32.308  31.207  1.00  0.00    -0.269 OA
BRANCH  38  41
ATOM     41  C   UNL A   1      36.421  31.197  30.377  1.00  0.00     0.039 A 
ATOM     42  C   UNL A   1      36.495  29.804  30.293  1.00  0.00     0.014 A 
ATOM     43  C   UNL A   1      37.566  31.956  30.583  1.00  0.00     0.014 A 
ATOM     44  C   UNL A   1      37.749  29.200  30.360  1.00  0.00     0.010 A 
ATOM     45  C   UNL A   1      38.792  31.390  30.401  1.00  0.00     0.010 A 
ATOM     46  C   UNL A   1      38.895  30.008  30.404  1.00  0.00    -0.014 A 
BRANCH  46  47
ATOM     47  C   UNL A   1      40.241  29.457  30.381  1.00  0.00     0.031 A 
ATOM     48  C   UNL A   1      40.818  29.215  31.726  1.00  0.00     0.074 A 
ATOM     49  C   UNL A   1      40.801  28.968  29.251  1.00  0.00     0.049 A 
ATOM     50  N   UNL A   1      41.761  29.875  32.309  1.00  0.00    -0.248 NA
ATOM     51  C   UNL A   1      40.147  28.239  32.602  1.00  0.00     0.031 C 
ATOM     52  C   UNL A   1      40.211  28.832  27.911  1.00  0.00     0.029 A 
ATOM     53  N   UNL A   1      42.013  28.378  29.090  1.00  0.00    -0.354 N 
ATOM     54  C   UNL A   1      41.983  29.221  33.517  1.00  0.00     0.074 A 
ATOM     55  C   UNL A   1      40.824  28.398  33.741  1.00  0.00     0.031 C 
ATOM     56  C   UNL A   1      40.963  27.996  27.162  1.00  0.00     0.029 A 
ATOM     57  C   UNL A   1      42.175  27.684  27.894  1.00  0.00     0.049 A 
ATOM     58  H   UNL A   1      42.723  28.435  29.769  1.00  0.00     0.167 HD
ATOM     59  C   UNL A   1      43.222  29.198  34.084  1.00  0.00     0.037 A 
ATOM     60  C   UNL A   1      43.226  26.894  27.556  1.00  0.00     0.037 A 
ATOM     61  C   UNL A   1      44.084  30.189  33.481  1.00  0.00     0.049 A 
ATOM     62  C   UNL A   1      44.353  27.291  28.445  1.00  0.00     0.074 A 
ATOM     63  C   UNL A   1      44.013  31.559  33.310  1.00  0.00     0.029 A 
ATOM     64  N   UNL A   1      45.023  29.753  32.575  1.00  0.00    -0.354 N 
ATOM     65  N   UNL A   1      44.931  28.462  28.398  1.00  0.00    -0.248 NA
ATOM     66  C   UNL A   1      44.501  26.574  29.702  1.00  0.00     0.031 C 
ATOM     67  C   UNL A   1      44.511  31.790  31.993  1.00  0.00     0.029 A 
ATOM     68  C   UNL A   1      44.935  30.568  31.472  1.00  0.00     0.049 A 
ATOM     69  H   UNL A   1      45.643  28.998  32.694  1.00  0.00     0.167 HD
ATOM     70  C   UNL A   1      45.139  28.811  29.725  1.00  0.00     0.074 A 
ATOM     71  C   UNL A   1      44.919  27.576  30.479  1.00  0.00     0.031 C 
ATOM     72  C   UNL A   1      45.178  30.120  30.118  1.00  0.00     0.037 A 
BRANCH  59  73
ATOM     73  C   UNL A   1      43.767  28.043  34.892  1.00  0.00     0.058 A 
ATOM     74  C   UNL A   1      44.352  28.303  36.149  1.00  0.00     0.135 A 
ATOM     75  C   UNL A   1      43.992  26.746  34.377  1.00  0.00     0.135 A 
ATOM     76  F   UNL A   1      44.208  29.504  36.734  1.00  0.00    -0.206 F 
ATOM     77  C   UNL A   1      45.162  27.376  36.804  1.00  0.00     0.059 A 
ATOM     78  C   UNL A   1      44.748  25.787  35.041  1.00  0.00     0.059 A 
ATOM     79  F   UNL A   1      43.578  26.370  33.162  1.00  0.00    -0.206 F 
ATOM     80  C   UNL A   1      45.365  26.124  36.232  1.00  0.00     0.060 A 
BRANCH  80  81
ATOM     81  S   UNL A   1      46.490  24.961  37.020  1.00  0.00     0.124 S 
ATOM     82  O   UNL A   1      47.447  24.714  35.948  1.00  0.00    -0.237 OA
ATOM     83  O   UNL A   1      46.982  25.740  38.152  1.00  0.00    -0.237 OA
ATOM     84  O   UNL A   1      45.623  23.840  37.367  1.00  0.00    -0.744 OA
ENDBRANCH  80  81
ENDBRANCH  59  73
BRANCH  60  85
ATOM     85  C   UNL A   1      43.220  25.608  26.806  1.00  0.00     0.058 A 
ATOM     86  C   UNL A   1      43.712  25.539  25.488  1.00  0.00     0.135 A 
ATOM     87  C   UNL A   1      43.026  24.375  27.459  1.00  0.00     0.135 A 
ATOM     88  F   UNL A   1      43.933  26.663  24.792  1.00  0.00    -0.206 F 
ATOM     89  C   UNL A   1      44.063  24.326  24.883  1.00  0.00     0.059 A 
ATOM     90  C   UNL A   1      43.358  23.154  26.872  1.00  0.00     0.059 A 
ATOM     91  F   UNL A   1      42.597  24.321  28.728  1.00  0.00    -0.206 F 
ATOM     92  C   UNL A   1      43.907  23.138  25.595  1.00  0.00     0.060 A 
BRANCH  92  93
ATOM     93  S   UNL A   1      44.541  21.589  24.907  1.00  0.00     0.124 S 
ATOM     94  O   UNL A   1      43.541  20.628  25.357  1.00  0.00    -0.237 OA
ATOM     95  O   UNL A   1      44.561  21.874  23.477  1.00  0.00    -0.237 OA
ATOM     96  O   UNL A   1      45.854  21.455  25.535  1.00  0.00    -0.744 OA
ENDBRANCH  92  93
ENDBRANCH  60  85
BRANCH  72  97
ATOM     97  C   UNL A   1      45.267  31.186  29.053  1.00  0.00     0.058 A 
ATOM     98  C   UNL A   1      46.455  31.593  28.418  1.00  0.00     0.135 A 
ATOM     99  C   UNL A   1      44.068  31.715  28.552  1.00  0.00     0.135 A 
ATOM    100  F   UNL A   1      47.637  31.063  28.760  1.00  0.00    -0.206 F 
ATOM    101  C   UNL A   1      46.454  32.514  27.366  1.00  0.00     0.059 A 
ATOM    102  C   UNL A   1      44.039  32.609  27.485  1.00  0.00     0.059 A 
ATOM    103  F   UNL A   1      42.892  31.321  29.070  1.00  0.00    -0.206 F 
ATOM    104  C   UNL A   1      45.238  33.017  26.906  1.00  0.00     0.060 A 
BRANCH 104 105
ATOM    105  S   UNL A   1      45.228  34.163  25.511  1.00  0.00     0.124 S 
ATOM    106  O   UNL A   1      44.492  33.410  24.499  1.00  0.00    -0.237 OA
ATOM    107  O   UNL A   1      44.538  35.327  26.060  1.00  0.00    -0.237 OA
ATOM    108  O   UNL A   1      46.647  34.368  25.226  1.00  0.00    -0.744 OA
ENDBRANCH 104 105
ENDBRANCH  72  97
ENDBRANCH  46  47
ENDBRANCH  38  41
ENDBRANCH  36  37
ENDBRANCH  35  36
ENDBRANCH  34  35
ENDBRANCH   1  34
TORSDOF 21
ENDMDL
