MODEL 1
REMARK VINA RESULT:     -11.5      0.000      0.000
REMARK SMILES O=C(NCCCCCCNC(=O)c1ccc(Cl)cc1-c1ccc(O)c(F)c1)c1ccc(-c2c3nc(c(-c4c(F)cc(S(=O)(=O)[O-])cc4F)c4ccc([nH]4)c(-c4c(F)cc(S(=O)(=O)[O-])cc4F)c4nc(c(-c5c(F)cc(S(=O)(=O)[O-])cc5F)c5ccc2[nH]5)C=C4)C=C3)cc1
REMARK SMILES IDX 6 1 5 2 4 3 3 4 1 5 2 6 28 8 29 9 93 10 30 11 92 12 31 13
REMARK SMILES IDX 32 14 33 15 86 16 34 17 91 18 85 19 87 20 35 21 90 22 84 23
REMARK SMILES IDX 83 24 36 26 70 27 49 28 69 29 50 30 53 31 68 32 88 33 51 34
REMARK SMILES IDX 52 35 67 37 89 38 54 39 37 40 38 41 47 42 39 43 40 44 46 45
REMARK SMILES IDX 48 46 41 47 42 48 43 49 44 50 45 51 71 52 72 53 81 54 73 55
REMARK SMILES IDX 74 56 80 57 82 58 75 59 76 60 77 61 78 62 79 63 55 64 56 65
REMARK SMILES IDX 65 66 57 67 58 68 64 69 66 70 59 71 60 72 61 73 62 74 63 75
REMARK SMILES IDX 7 76 8 77 9 78 10 79 11 80 12 82 13 83 14 84 19 85 15 86
REMARK SMILES IDX 18 87 16 88 17 89 20 90 21 91 27 92 22 93 25 94 23 95 26 96
REMARK SMILES IDX 24 97
REMARK H PARENT 3 7 87 25 53 36 10 81 24 98
REMARK Flexibility Score: inf
ROOT
ATOM      1  C   UNL A   1      31.749  27.524  25.430  1.00  0.00     0.002 C 
ENDROOT
BRANCH   1   2
ATOM      2  C   UNL A   1      32.169  27.660  26.893  1.00  0.00     0.021 C 
BRANCH   2   3
ATOM      3  C   UNL A   1      33.521  28.323  27.121  1.00  0.00     0.116 C 
BRANCH   3   4
ATOM      4  N   UNL A   1      33.413  29.717  27.524  1.00  0.00    -0.352 N 
ATOM      5  O   UNL A   1      34.046  31.653  28.496  1.00  0.00    -0.269 OA
ATOM      6  C   UNL A   1      34.359  30.535  28.099  1.00  0.00     0.251 C 
ATOM      7  H   UNL A   1      32.537  30.135  27.363  1.00  0.00     0.163 HD
BRANCH   6   8
ATOM      8  C   UNL A   1      35.747  30.046  28.266  1.00  0.00     0.039 A 
ATOM      9  C   UNL A   1      36.176  29.526  29.488  1.00  0.00     0.014 A 
ATOM     10  C   UNL A   1      36.640  30.138  27.194  1.00  0.00     0.014 A 
ATOM     11  C   UNL A   1      37.527  29.278  29.694  1.00  0.00     0.010 A 
ATOM     12  C   UNL A   1      37.982  29.788  27.375  1.00  0.00     0.010 A 
ATOM     13  C   UNL A   1      38.449  29.400  28.641  1.00  0.00    -0.014 A 
BRANCH  13  14
ATOM     14  C   UNL A   1      39.883  29.093  28.892  1.00  0.00     0.031 A 
ATOM     15  C   UNL A   1      40.793  30.090  29.562  1.00  0.00     0.074 A 
ATOM     16  C   UNL A   1      40.353  27.874  28.555  1.00  0.00     0.049 A 
ATOM     17  N   UNL A   1      42.050  29.958  29.903  1.00  0.00    -0.248 NA
ATOM     18  C   UNL A   1      40.224  31.409  29.885  1.00  0.00     0.031 C 
ATOM     19  C   UNL A   1      39.573  26.828  27.888  1.00  0.00     0.029 A 
ATOM     20  N   UNL A   1      41.583  27.298  28.744  1.00  0.00    -0.354 N 
ATOM     21  C   UNL A   1      42.431  31.178  30.454  1.00  0.00     0.074 A 
ATOM     22  C   UNL A   1      41.276  32.048  30.378  1.00  0.00     0.031 C 
ATOM     23  C   UNL A   1      40.322  25.721  27.779  1.00  0.00     0.029 A 
ATOM     24  C   UNL A   1      41.653  25.997  28.304  1.00  0.00     0.049 A 
ATOM     25  H   UNL A   1      42.343  27.771  29.155  1.00  0.00     0.167 HD
ATOM     26  C   UNL A   1      43.628  31.536  30.979  1.00  0.00     0.037 A 
ATOM     27  C   UNL A   1      42.678  25.123  28.311  1.00  0.00     0.037 A 
ATOM     28  C   UNL A   1      44.768  30.656  31.068  1.00  0.00     0.049 A 
ATOM     29  C   UNL A   1      43.995  25.548  28.893  1.00  0.00     0.074 A 
ATOM     30  C   UNL A   1      46.011  30.910  31.622  1.00  0.00     0.029 A 
ATOM     31  N   UNL A   1      44.807  29.354  30.587  1.00  0.00    -0.354 N 
ATOM     32  N   UNL A   1      44.321  26.693  29.443  1.00  0.00    -0.248 NA
ATOM     33  C   UNL A   1      45.082  24.563  28.856  1.00  0.00     0.031 C 
ATOM     34  C   UNL A   1      46.816  29.783  31.431  1.00  0.00     0.029 A 
ATOM     35  C   UNL A   1      46.059  28.803  30.812  1.00  0.00     0.049 A 
ATOM     36  H   UNL A   1      44.056  28.891  30.150  1.00  0.00     0.167 HD
ATOM     37  C   UNL A   1      45.646  26.556  29.843  1.00  0.00     0.074 A 
ATOM     38  C   UNL A   1      46.052  25.213  29.485  1.00  0.00     0.031 C 
ATOM     39  C   UNL A   1      46.450  27.461  30.455  1.00  0.00     0.037 A 
BRANCH  26  40
ATOM     40  C   UNL A   1      43.785  32.949  31.480  1.00  0.00     0.058 A 
ATOM     41  C   UNL A   1      44.248  33.985  30.654  1.00  0.00     0.135 A 
ATOM     42  C   UNL A   1      43.422  33.278  32.797  1.00  0.00     0.135 A 
ATOM     43  F   UNL A   1      44.622  33.727  29.390  1.00  0.00    -0.206 F 
ATOM     44  C   UNL A   1      44.375  35.289  31.123  1.00  0.00     0.059 A 
ATOM     45  C   UNL A   1      43.513  34.581  33.280  1.00  0.00     0.059 A 
ATOM     46  F   UNL A   1      42.968  32.329  33.631  1.00  0.00    -0.206 F 
ATOM     47  C   UNL A   1      44.006  35.577  32.439  1.00  0.00     0.060 A 
BRANCH  47  48
ATOM     48  S   UNL A   1      44.179  37.274  33.032  1.00  0.00     0.124 S 
ATOM     49  O   UNL A   1      43.087  37.358  33.996  1.00  0.00    -0.237 OA
ATOM     50  O   UNL A   1      45.525  37.271  33.598  1.00  0.00    -0.237 OA
ATOM     51  O   UNL A   1      44.012  38.076  31.824  1.00  0.00    -0.744 OA
ENDBRANCH  47  48
ENDBRANCH  26  40
BRANCH  27  52
ATOM     52  C   UNL A   1      42.486  23.756  27.758  1.00  0.00     0.058 A 
ATOM     53  C   UNL A   1      42.486  23.529  26.375  1.00  0.00     0.135 A 
ATOM     54  C   UNL A   1      42.321  22.648  28.604  1.00  0.00     0.135 A 
ATOM     55  F   UNL A   1      42.638  24.557  25.525  1.00  0.00    -0.206 F 
ATOM     56  C   UNL A   1      42.313  22.253  25.847  1.00  0.00     0.059 A 
ATOM     57  C   UNL A   1      42.177  21.360  28.101  1.00  0.00     0.059 A 
ATOM     58  F   UNL A   1      42.333  22.810  29.936  1.00  0.00    -0.206 F 
ATOM     59  C   UNL A   1      42.161  21.174  26.720  1.00  0.00     0.060 A 
BRANCH  59  60
ATOM     60  S   UNL A   1      41.986  19.517  26.026  1.00  0.00     0.124 S 
ATOM     61  O   UNL A   1      42.468  18.687  27.125  1.00  0.00    -0.237 OA
ATOM     62  O   UNL A   1      40.553  19.449  25.754  1.00  0.00    -0.237 OA
ATOM     63  O   UNL A   1      42.839  19.557  24.842  1.00  0.00    -0.744 OA
ENDBRANCH  59  60
ENDBRANCH  27  52
BRANCH  39  64
ATOM     64  C   UNL A   1      47.838  27.009  30.819  1.00  0.00     0.058 A 
ATOM     65  C   UNL A   1      48.940  27.239  29.980  1.00  0.00     0.135 A 
ATOM     66  C   UNL A   1      48.070  26.352  32.039  1.00  0.00     0.135 A 
ATOM     67  F   UNL A   1      48.773  27.857  28.799  1.00  0.00    -0.206 F 
ATOM     68  C   UNL A   1      50.216  26.803  30.320  1.00  0.00     0.059 A 
ATOM     69  C   UNL A   1      49.342  25.935  32.414  1.00  0.00     0.059 A 
ATOM     70  F   UNL A   1      47.054  26.116  32.884  1.00  0.00    -0.206 F 
ATOM     71  C   UNL A   1      50.407  26.149  31.539  1.00  0.00     0.060 A 
BRANCH  71  72
ATOM     72  S   UNL A   1      52.069  25.595  31.975  1.00  0.00     0.124 S 
ATOM     73  O   UNL A   1      51.849  24.175  32.224  1.00  0.00    -0.237 OA
ATOM     74  O   UNL A   1      52.832  25.919  30.773  1.00  0.00    -0.237 OA
ATOM     75  O   UNL A   1      52.395  26.395  33.152  1.00  0.00    -0.744 OA
ENDBRANCH  71  72
ENDBRANCH  39  64
ENDBRANCH  13  14
ENDBRANCH   6   8
ENDBRANCH   3   4
ENDBRANCH   2   3
ENDBRANCH   1   2
BRANCH   1  76
ATOM     76  C   UNL A   1      30.548  26.610  25.167  1.00  0.00     0.002 C 
BRANCH  76  77
ATOM     77  C   UNL A   1      30.385  26.116  23.725  1.00  0.00     0.021 C 
BRANCH  77  78
ATOM     78  C   UNL A   1      30.918  24.712  23.448  1.00  0.00     0.116 C 
BRANCH  78  79
ATOM     79  N   UNL A   1      30.482  23.745  24.441  1.00  0.00    -0.352 N 
ATOM     80  C   UNL A   1      31.230  22.999  25.318  1.00  0.00     0.251 C 
ATOM     81  H   UNL A   1      29.510  23.604  24.493  1.00  0.00     0.163 HD
ATOM     82  O   UNL A   1      30.683  22.204  26.080  1.00  0.00    -0.269 OA
BRANCH  80  83
ATOM     83  C   UNL A   1      32.700  23.171  25.347  1.00  0.00     0.047 A 
ATOM     84  C   UNL A   1      33.217  24.242  26.097  1.00  0.00     0.016 A 
ATOM     85  C   UNL A   1      33.558  22.269  24.684  1.00  0.00    -0.004 A 
ATOM     86  C   UNL A   1      34.590  24.473  26.136  1.00  0.00     0.021 A 
ATOM     87  C   UNL A   1      34.943  22.525  24.741  1.00  0.00     0.030 A 
ATOM     88  C   UNL A   1      35.446  23.619  25.449  1.00  0.00     0.041 A 
ATOM     89  Cl  UNL A   1      37.142  23.906  25.481  1.00  0.00    -0.084 Cl
BRANCH  85  90
ATOM     90  C   UNL A   1      33.084  21.074  23.964  1.00  0.00    -0.014 A 
ATOM     91  C   UNL A   1      32.431  21.169  22.722  1.00  0.00     0.013 A 
ATOM     92  C   UNL A   1      33.279  19.796  24.514  1.00  0.00     0.052 A 
ATOM     93  C   UNL A   1      31.974  20.024  22.055  1.00  0.00     0.050 A 
ATOM     94  C   UNL A   1      32.828  18.660  23.848  1.00  0.00     0.165 A 
ATOM     95  C   UNL A   1      32.175  18.770  22.624  1.00  0.00     0.151 A 
ATOM     96  F   UNL A   1      33.032  17.457  24.404  1.00  0.00    -0.203 F 
BRANCH  95  97
ATOM     97  O   UNL A   1      31.738  17.638  21.999  1.00  0.00    -0.505 OA
ATOM     98  H   UNL A   1      32.084  17.402  21.160  1.00  0.00     0.293 HD
ENDBRANCH  95  97
ENDBRANCH  85  90
ENDBRANCH  80  83
ENDBRANCH  78  79
ENDBRANCH  77  78
ENDBRANCH  76  77
ENDBRANCH   1  76
TORSDOF 18
ENDMDL
MODEL 2
REMARK VINA RESULT:     -11.5      0.623      8.215
REMARK SMILES O=C(NCCCCCCNC(=O)c1ccc(Cl)cc1-c1ccc(O)c(F)c1)c1ccc(-c2c3nc(c(-c4c(F)cc(S(=O)(=O)[O-])cc4F)c4ccc([nH]4)c(-c4c(F)cc(S(=O)(=O)[O-])cc4F)c4nc(c(-c5c(F)cc(S(=O)(=O)[O-])cc5F)c5ccc2[nH]5)C=C4)C=C3)cc1
REMARK SMILES IDX 6 1 5 2 4 3 3 4 1 5 2 6 28 8 29 9 93 10 30 11 92 12 31 13
REMARK SMILES IDX 32 14 33 15 86 16 34 17 91 18 85 19 87 20 35 21 90 22 84 23
REMARK SMILES IDX 83 24 36 26 70 27 49 28 69 29 50 30 53 31 68 32 88 33 51 34
REMARK SMILES IDX 52 35 67 37 89 38 54 39 37 40 38 41 47 42 39 43 40 44 46 45
REMARK SMILES IDX 48 46 41 47 42 48 43 49 44 50 45 51 71 52 72 53 81 54 73 55
REMARK SMILES IDX 74 56 80 57 82 58 75 59 76 60 77 61 78 62 79 63 55 64 56 65
REMARK SMILES IDX 65 66 57 67 58 68 64 69 66 70 59 71 60 72 61 73 62 74 63 75
REMARK SMILES IDX 7 76 8 77 9 78 10 79 11 80 12 82 13 83 14 84 19 85 15 86
REMARK SMILES IDX 18 87 16 88 17 89 20 90 21 91 27 92 22 93 25 94 23 95 26 96
REMARK SMILES IDX 24 97
REMARK H PARENT 3 7 87 25 53 36 10 81 24 98
REMARK Flexibility Score: inf
ROOT
ATOM      1  C   UNL A   1      31.822  27.570  25.439  1.00  0.00     0.002 C 
ENDROOT
BRANCH   1   2
ATOM      2  C   UNL A   1      32.269  27.688  26.895  1.00  0.00     0.021 C 
BRANCH   2   3
ATOM      3  C   UNL A   1      33.618  28.361  27.109  1.00  0.00     0.116 C 
BRANCH   3   4
ATOM      4  N   UNL A   1      33.503  29.743  27.551  1.00  0.00    -0.352 N 
ATOM      5  O   UNL A   1      34.119  31.648  28.593  1.00  0.00    -0.269 OA
ATOM      6  C   UNL A   1      34.439  30.542  28.168  1.00  0.00     0.251 C 
ATOM      7  H   UNL A   1      32.630  30.166  27.386  1.00  0.00     0.163 HD
BRANCH   6   8
ATOM      8  C   UNL A   1      35.823  30.046  28.346  1.00  0.00     0.039 A 
ATOM      9  C   UNL A   1      36.254  29.570  29.585  1.00  0.00     0.014 A 
ATOM     10  C   UNL A   1      36.711  30.089  27.266  1.00  0.00     0.014 A 
ATOM     11  C   UNL A   1      37.604  29.317  29.793  1.00  0.00     0.010 A 
ATOM     12  C   UNL A   1      38.050  29.733  27.454  1.00  0.00     0.010 A 
ATOM     13  C   UNL A   1      38.521  29.390  28.731  1.00  0.00    -0.014 A 
BRANCH  13  14
ATOM     14  C   UNL A   1      39.953  29.079  28.987  1.00  0.00     0.031 A 
ATOM     15  C   UNL A   1      40.547  27.749  28.598  1.00  0.00     0.074 A 
ATOM     16  C   UNL A   1      40.736  30.032  29.533  1.00  0.00     0.049 A 
ATOM     17  N   UNL A   1      41.787  27.340  28.700  1.00  0.00    -0.248 NA
ATOM     18  C   UNL A   1      39.634  26.746  28.027  1.00  0.00     0.031 C 
ATOM     19  C   UNL A   1      40.274  31.353  29.965  1.00  0.00     0.029 A 
ATOM     20  N   UNL A   1      42.082  30.051  29.796  1.00  0.00    -0.354 N 
ATOM     21  C   UNL A   1      41.800  26.029  28.235  1.00  0.00     0.074 A 
ATOM     22  C   UNL A   1      40.437  25.701  27.873  1.00  0.00     0.031 C 
ATOM     23  C   UNL A   1      41.325  32.074  30.381  1.00  0.00     0.029 A 
ATOM     24  C   UNL A   1      42.523  31.247  30.311  1.00  0.00     0.049 A 
ATOM     25  H   UNL A   1      42.675  29.282  29.633  1.00  0.00     0.167 HD
ATOM     26  C   UNL A   1      42.851  25.181  28.116  1.00  0.00     0.037 A 
ATOM     27  C   UNL A   1      43.754  31.636  30.695  1.00  0.00     0.037 A 
ATOM     28  C   UNL A   1      44.209  25.522  28.461  1.00  0.00     0.049 A 
ATOM     29  C   UNL A   1      44.898  30.674  30.558  1.00  0.00     0.074 A 
ATOM     30  C   UNL A   1      45.350  24.748  28.336  1.00  0.00     0.029 A 
ATOM     31  N   UNL A   1      44.611  26.735  29.004  1.00  0.00    -0.354 N 
ATOM     32  N   UNL A   1      44.895  29.453  30.080  1.00  0.00    -0.248 NA
ATOM     33  C   UNL A   1      46.214  31.143  31.011  1.00  0.00     0.031 C 
ATOM     34  C   UNL A   1      46.431  25.472  28.849  1.00  0.00     0.029 A 
ATOM     35  C   UNL A   1      45.977  26.720  29.240  1.00  0.00     0.049 A 
ATOM     36  H   UNL A   1      44.013  27.493  29.195  1.00  0.00     0.167 HD
ATOM     37  C   UNL A   1      46.213  29.016  30.150  1.00  0.00     0.074 A 
ATOM     38  C   UNL A   1      46.986  30.111  30.702  1.00  0.00     0.031 C 
ATOM     39  C   UNL A   1      46.736  27.819  29.786  1.00  0.00     0.037 A 
BRANCH  26  40
ATOM     40  C   UNL A   1      42.578  23.787  27.611  1.00  0.00     0.058 A 
ATOM     41  C   UNL A   1      42.502  23.493  26.240  1.00  0.00     0.135 A 
ATOM     42  C   UNL A   1      42.436  22.720  28.515  1.00  0.00     0.135 A 
ATOM     43  F   UNL A   1      42.618  24.474  25.330  1.00  0.00    -0.206 F 
ATOM     44  C   UNL A   1      42.264  22.199  25.784  1.00  0.00     0.059 A 
ATOM     45  C   UNL A   1      42.226  21.414  28.082  1.00  0.00     0.059 A 
ATOM     46  F   UNL A   1      42.504  22.941  29.837  1.00  0.00    -0.206 F 
ATOM     47  C   UNL A   1      42.127  21.166  26.714  1.00  0.00     0.060 A 
BRANCH  47  48
ATOM     48  S   UNL A   1      41.816  19.494  26.106  1.00  0.00     0.124 S 
ATOM     49  O   UNL A   1      42.720  19.429  24.962  1.00  0.00    -0.237 OA
ATOM     50  O   UNL A   1      42.185  18.671  27.253  1.00  0.00    -0.237 OA
ATOM     51  O   UNL A   1      40.394  19.509  25.780  1.00  0.00    -0.744 OA
ENDBRANCH  47  48
ENDBRANCH  26  40
BRANCH  27  52
ATOM     52  C   UNL A   1      43.961  33.006  31.235  1.00  0.00     0.058 A 
ATOM     53  C   UNL A   1      43.843  33.270  32.606  1.00  0.00     0.135 A 
ATOM     54  C   UNL A   1      44.302  34.074  30.390  1.00  0.00     0.135 A 
ATOM     55  F   UNL A   1      43.516  32.282  33.454  1.00  0.00    -0.206 F 
ATOM     56  C   UNL A   1      44.039  34.547  33.122  1.00  0.00     0.059 A 
ATOM     57  C   UNL A   1      44.533  35.352  30.884  1.00  0.00     0.059 A 
ATOM     58  F   UNL A   1      44.446  33.870  29.071  1.00  0.00    -0.206 F 
ATOM     59  C   UNL A   1      44.387  35.582  32.251  1.00  0.00     0.060 A 
BRANCH  59  60
ATOM     60  S   UNL A   1      44.688  37.225  32.936  1.00  0.00     0.124 S 
ATOM     61  O   UNL A   1      43.433  37.485  33.634  1.00  0.00    -0.237 OA
ATOM     62  O   UNL A   1      45.855  36.995  33.783  1.00  0.00    -0.237 OA
ATOM     63  O   UNL A   1      44.934  38.041  31.752  1.00  0.00    -0.744 OA
ENDBRANCH  59  60
ENDBRANCH  27  52
BRANCH  39  64
ATOM     64  C   UNL A   1      48.224  27.648  29.929  1.00  0.00     0.058 A 
ATOM     65  C   UNL A   1      49.112  27.967  28.890  1.00  0.00     0.135 A 
ATOM     66  C   UNL A   1      48.768  27.176  31.135  1.00  0.00     0.135 A 
ATOM     67  F   UNL A   1      48.645  28.415  27.714  1.00  0.00    -0.206 F 
ATOM     68  C   UNL A   1      50.485  27.790  29.028  1.00  0.00     0.059 A 
ATOM     69  C   UNL A   1      50.139  27.021  31.307  1.00  0.00     0.059 A 
ATOM     70  F   UNL A   1      47.964  26.867  32.165  1.00  0.00    -0.206 F 
ATOM     71  C   UNL A   1      50.989  27.314  30.241  1.00  0.00     0.060 A 
BRANCH  71  72
ATOM     72  S   UNL A   1      52.773  27.097  30.413  1.00  0.00     0.124 S 
ATOM     73  O   UNL A   1      53.192  28.432  30.826  1.00  0.00    -0.237 OA
ATOM     74  O   UNL A   1      52.865  26.058  31.434  1.00  0.00    -0.237 OA
ATOM     75  O   UNL A   1      53.196  26.693  29.075  1.00  0.00    -0.744 OA
ENDBRANCH  71  72
ENDBRANCH  39  64
ENDBRANCH  13  14
ENDBRANCH   6   8
ENDBRANCH   3   4
ENDBRANCH   2   3
ENDBRANCH   1   2
BRANCH   1  76
ATOM     76  C   UNL A   1      30.639  26.631  25.182  1.00  0.00     0.002 C 
BRANCH  76  77
ATOM     77  C   UNL A   1      30.469  26.147  23.738  1.00  0.00     0.021 C 
BRANCH  77  78
ATOM     78  C   UNL A   1      30.959  24.728  23.458  1.00  0.00     0.116 C 
BRANCH  78  79
ATOM     79  N   UNL A   1      30.491  23.773  24.448  1.00  0.00    -0.352 N 
ATOM     80  C   UNL A   1      31.211  23.021  25.343  1.00  0.00     0.251 C 
ATOM     81  H   UNL A   1      29.515  23.646  24.483  1.00  0.00     0.163 HD
ATOM     82  O   UNL A   1      30.639  22.239  26.098  1.00  0.00    -0.269 OA
BRANCH  80  83
ATOM     83  C   UNL A   1      32.682  23.172  25.399  1.00  0.00     0.047 A 
ATOM     84  C   UNL A   1      33.201  24.233  26.163  1.00  0.00     0.016 A 
ATOM     85  C   UNL A   1      33.540  22.262  24.746  1.00  0.00    -0.004 A 
ATOM     86  C   UNL A   1      34.576  24.444  26.227  1.00  0.00     0.021 A 
ATOM     87  C   UNL A   1      34.927  22.499  24.828  1.00  0.00     0.030 A 
ATOM     88  C   UNL A   1      35.432  23.582  25.552  1.00  0.00     0.041 A 
ATOM     89  Cl  UNL A   1      37.131  23.845  25.615  1.00  0.00    -0.084 Cl
BRANCH  85  90
ATOM     90  C   UNL A   1      33.062  21.077  24.012  1.00  0.00    -0.014 A 
ATOM     91  C   UNL A   1      32.465  21.185  22.743  1.00  0.00     0.013 A 
ATOM     92  C   UNL A   1      33.197  19.797  24.574  1.00  0.00     0.052 A 
ATOM     93  C   UNL A   1      32.003  20.050  22.062  1.00  0.00     0.050 A 
ATOM     94  C   UNL A   1      32.742  18.671  23.894  1.00  0.00     0.165 A 
ATOM     95  C   UNL A   1      32.143  18.794  22.644  1.00  0.00     0.151 A 
ATOM     96  F   UNL A   1      32.888  17.466  24.464  1.00  0.00    -0.203 F 
BRANCH  95  97
ATOM     97  O   UNL A   1      31.701  17.671  22.006  1.00  0.00    -0.505 OA
ATOM     98  H   UNL A   1      31.160  17.056  22.461  1.00  0.00     0.293 HD
ENDBRANCH  95  97
ENDBRANCH  85  90
ENDBRANCH  80  83
ENDBRANCH  78  79
ENDBRANCH  77  78
ENDBRANCH  76  77
ENDBRANCH   1  76
TORSDOF 18
ENDMDL
MODEL 3
REMARK VINA RESULT:     -11.3      1.799      8.562
REMARK SMILES O=C(NCCCCCCNC(=O)c1ccc(Cl)cc1-c1ccc(O)c(F)c1)c1ccc(-c2c3nc(c(-c4c(F)cc(S(=O)(=O)[O-])cc4F)c4ccc([nH]4)c(-c4c(F)cc(S(=O)(=O)[O-])cc4F)c4nc(c(-c5c(F)cc(S(=O)(=O)[O-])cc5F)c5ccc2[nH]5)C=C4)C=C3)cc1
REMARK SMILES IDX 6 1 5 2 4 3 3 4 1 5 2 6 28 8 29 9 93 10 30 11 92 12 31 13
REMARK SMILES IDX 32 14 33 15 86 16 34 17 91 18 85 19 87 20 35 21 90 22 84 23
REMARK SMILES IDX 83 24 36 26 70 27 49 28 69 29 50 30 53 31 68 32 88 33 51 34
REMARK SMILES IDX 52 35 67 37 89 38 54 39 37 40 38 41 47 42 39 43 40 44 46 45
REMARK SMILES IDX 48 46 41 47 42 48 43 49 44 50 45 51 71 52 72 53 81 54 73 55
REMARK SMILES IDX 74 56 80 57 82 58 75 59 76 60 77 61 78 62 79 63 55 64 56 65
REMARK SMILES IDX 65 66 57 67 58 68 64 69 66 70 59 71 60 72 61 73 62 74 63 75
REMARK SMILES IDX 7 76 8 77 9 78 10 79 11 80 12 82 13 83 14 84 19 85 15 86
REMARK SMILES IDX 18 87 16 88 17 89 20 90 21 91 27 92 22 93 25 94 23 95 26 96
REMARK SMILES IDX 24 97
REMARK H PARENT 3 7 87 25 53 36 10 81 24 98
REMARK Flexibility Score: inf
ROOT
ATOM      1  C   UNL A   1      32.053  28.539  25.197  1.00  0.00     0.002 C 
ENDROOT
BRANCH   1   2
ATOM      2  C   UNL A   1      32.401  27.752  26.459  1.00  0.00     0.021 C 
BRANCH   2   3
ATOM      3  C   UNL A   1      33.598  28.274  27.241  1.00  0.00     0.116 C 
BRANCH   3   4
ATOM      4  N   UNL A   1      33.472  29.677  27.608  1.00  0.00    -0.352 N 
ATOM      5  O   UNL A   1      34.078  31.643  28.536  1.00  0.00    -0.269 OA
ATOM      6  C   UNL A   1      34.405  30.519  28.170  1.00  0.00     0.251 C 
ATOM      7  H   UNL A   1      32.593  30.082  27.429  1.00  0.00     0.163 HD
BRANCH   6   8
ATOM      8  C   UNL A   1      35.796  30.048  28.361  1.00  0.00     0.039 A 
ATOM      9  C   UNL A   1      36.227  29.590  29.606  1.00  0.00     0.014 A 
ATOM     10  C   UNL A   1      36.690  30.097  27.287  1.00  0.00     0.014 A 
ATOM     11  C   UNL A   1      37.580  29.361  29.825  1.00  0.00     0.010 A 
ATOM     12  C   UNL A   1      38.035  29.765  27.485  1.00  0.00     0.010 A 
ATOM     13  C   UNL A   1      38.503  29.441  28.768  1.00  0.00    -0.014 A 
BRANCH  13  14
ATOM     14  C   UNL A   1      39.938  29.156  29.036  1.00  0.00     0.031 A 
ATOM     15  C   UNL A   1      40.557  27.833  28.662  1.00  0.00     0.074 A 
ATOM     16  C   UNL A   1      40.702  30.126  29.579  1.00  0.00     0.049 A 
ATOM     17  N   UNL A   1      41.802  27.446  28.777  1.00  0.00    -0.248 NA
ATOM     18  C   UNL A   1      39.665  26.809  28.095  1.00  0.00     0.031 C 
ATOM     19  C   UNL A   1      40.215  31.444  29.996  1.00  0.00     0.029 A 
ATOM     20  N   UNL A   1      42.045  30.171  29.850  1.00  0.00    -0.354 N 
ATOM     21  C   UNL A   1      41.840  26.131  28.323  1.00  0.00     0.074 A 
ATOM     22  C   UNL A   1      40.486  25.777  27.955  1.00  0.00     0.031 C 
ATOM     23  C   UNL A   1      41.250  32.186  30.412  1.00  0.00     0.029 A 
ATOM     24  C   UNL A   1      42.463  31.378  30.357  1.00  0.00     0.049 A 
ATOM     25  H   UNL A   1      42.652  29.411  29.697  1.00  0.00     0.167 HD
ATOM     26  C   UNL A   1      42.906  25.299  28.218  1.00  0.00     0.037 A 
ATOM     27  C   UNL A   1      43.684  31.791  30.746  1.00  0.00     0.037 A 
ATOM     28  C   UNL A   1      44.256  25.666  28.569  1.00  0.00     0.049 A 
ATOM     29  C   UNL A   1      44.846  30.847  30.624  1.00  0.00     0.074 A 
ATOM     30  C   UNL A   1      45.411  24.911  28.457  1.00  0.00     0.029 A 
ATOM     31  N   UNL A   1      44.634  26.890  29.104  1.00  0.00    -0.354 N 
ATOM     32  N   UNL A   1      44.866  29.622  30.156  1.00  0.00    -0.248 NA
ATOM     33  C   UNL A   1      46.150  31.342  31.081  1.00  0.00     0.031 C 
ATOM     34  C   UNL A   1      46.476  25.657  28.971  1.00  0.00     0.029 A 
ATOM     35  C   UNL A   1      45.999  26.901  29.347  1.00  0.00     0.049 A 
ATOM     36  H   UNL A   1      44.023  27.640  29.284  1.00  0.00     0.167 HD
ATOM     37  C   UNL A   1      46.191  29.208  30.238  1.00  0.00     0.074 A 
ATOM     38  C   UNL A   1      46.942  30.320  30.786  1.00  0.00     0.031 C 
ATOM     39  C   UNL A   1      46.736  28.017  29.888  1.00  0.00     0.037 A 
BRANCH  26  40
ATOM     40  C   UNL A   1      42.660  23.897  27.724  1.00  0.00     0.058 A 
ATOM     41  C   UNL A   1      42.430  22.827  28.603  1.00  0.00     0.135 A 
ATOM     42  C   UNL A   1      42.611  23.628  26.345  1.00  0.00     0.135 A 
ATOM     43  F   UNL A   1      42.477  23.021  29.931  1.00  0.00    -0.206 F 
ATOM     44  C   UNL A   1      42.189  21.538  28.136  1.00  0.00     0.059 A 
ATOM     45  C   UNL A   1      42.344  22.353  25.854  1.00  0.00     0.059 A 
ATOM     46  F   UNL A   1      42.819  24.613  25.457  1.00  0.00    -0.206 F 
ATOM     47  C   UNL A   1      42.149  21.311  26.759  1.00  0.00     0.060 A 
BRANCH  47  48
ATOM     48  S   UNL A   1      41.839  19.632  26.170  1.00  0.00     0.124 S 
ATOM     49  O   UNL A   1      42.285  18.838  27.310  1.00  0.00    -0.237 OA
ATOM     50  O   UNL A   1      40.398  19.646  25.932  1.00  0.00    -0.237 OA
ATOM     51  O   UNL A   1      42.668  19.532  24.973  1.00  0.00    -0.744 OA
ENDBRANCH  47  48
ENDBRANCH  26  40
BRANCH  27  52
ATOM     52  C   UNL A   1      43.865  33.169  31.274  1.00  0.00     0.058 A 
ATOM     53  C   UNL A   1      43.748  33.440  32.644  1.00  0.00     0.135 A 
ATOM     54  C   UNL A   1      44.180  34.238  30.419  1.00  0.00     0.135 A 
ATOM     55  F   UNL A   1      43.446  32.452  33.501  1.00  0.00    -0.206 F 
ATOM     56  C   UNL A   1      43.920  34.725  33.149  1.00  0.00     0.059 A 
ATOM     57  C   UNL A   1      44.387  35.525  30.904  1.00  0.00     0.059 A 
ATOM     58  F   UNL A   1      44.322  34.027  29.102  1.00  0.00    -0.206 F 
ATOM     59  C   UNL A   1      44.242  35.761  32.270  1.00  0.00     0.060 A 
BRANCH  59  60
ATOM     60  S   UNL A   1      44.511  37.415  32.941  1.00  0.00     0.124 S 
ATOM     61  O   UNL A   1      43.245  37.664  33.622  1.00  0.00    -0.237 OA
ATOM     62  O   UNL A   1      45.671  37.210  33.804  1.00  0.00    -0.237 OA
ATOM     63  O   UNL A   1      44.760  38.223  31.752  1.00  0.00    -0.744 OA
ENDBRANCH  59  60
ENDBRANCH  27  52
BRANCH  39  64
ATOM     64  C   UNL A   1      48.225  27.872  30.042  1.00  0.00     0.058 A 
ATOM     65  C   UNL A   1      49.119  28.266  29.034  1.00  0.00     0.135 A 
ATOM     66  C   UNL A   1      48.765  27.350  31.229  1.00  0.00     0.135 A 
ATOM     67  F   UNL A   1      48.656  28.765  27.877  1.00  0.00    -0.206 F 
ATOM     68  C   UNL A   1      50.494  28.113  29.181  1.00  0.00     0.059 A 
ATOM     69  C   UNL A   1      50.138  27.217  31.411  1.00  0.00     0.059 A 
ATOM     70  F   UNL A   1      47.957  26.968  32.231  1.00  0.00    -0.206 F 
ATOM     71  C   UNL A   1      50.994  27.584  30.373  1.00  0.00     0.060 A 
BRANCH  71  72
ATOM     72  S   UNL A   1      52.780  27.399  30.558  1.00  0.00     0.124 S 
ATOM     73  O   UNL A   1      53.265  28.648  29.982  1.00  0.00    -0.237 OA
ATOM     74  O   UNL A   1      52.933  27.265  32.003  1.00  0.00    -0.237 OA
ATOM     75  O   UNL A   1      53.077  26.195  29.787  1.00  0.00    -0.744 OA
ENDBRANCH  71  72
ENDBRANCH  39  64
ENDBRANCH  13  14
ENDBRANCH   6   8
ENDBRANCH   3   4
ENDBRANCH   2   3
ENDBRANCH   1   2
BRANCH   1  76
ATOM     76  C   UNL A   1      31.435  27.725  24.056  1.00  0.00     0.002 C 
BRANCH  76  77
ATOM     77  C   UNL A   1      32.367  27.396  22.885  1.00  0.00     0.021 C 
BRANCH  77  78
ATOM     78  C   UNL A   1      33.659  26.672  23.257  1.00  0.00     0.116 C 
BRANCH  78  79
ATOM     79  N   UNL A   1      33.911  25.514  22.415  1.00  0.00    -0.352 N 
ATOM     80  C   UNL A   1      33.526  24.209  22.590  1.00  0.00     0.251 C 
ATOM     81  H   UNL A   1      34.434  25.692  21.601  1.00  0.00     0.163 HD
ATOM     82  O   UNL A   1      33.855  23.350  21.775  1.00  0.00    -0.269 OA
BRANCH  80  83
ATOM     83  C   UNL A   1      32.700  23.847  23.764  1.00  0.00     0.047 A 
ATOM     84  C   UNL A   1      31.307  24.010  23.656  1.00  0.00     0.016 A 
ATOM     85  C   UNL A   1      33.279  23.316  24.936  1.00  0.00    -0.004 A 
ATOM     86  C   UNL A   1      30.481  23.716  24.739  1.00  0.00     0.021 A 
ATOM     87  C   UNL A   1      32.421  23.027  26.015  1.00  0.00     0.030 A 
ATOM     88  C   UNL A   1      31.042  23.236  25.916  1.00  0.00     0.041 A 
ATOM     89  Cl  UNL A   1      30.030  22.884  27.262  1.00  0.00    -0.084 Cl
BRANCH  85  90
ATOM     90  C   UNL A   1      34.718  23.032  25.074  1.00  0.00    -0.014 A 
ATOM     91  C   UNL A   1      35.638  24.031  25.444  1.00  0.00     0.013 A 
ATOM     92  C   UNL A   1      35.207  21.736  24.838  1.00  0.00     0.052 A 
ATOM     93  C   UNL A   1      37.005  23.748  25.559  1.00  0.00     0.050 A 
ATOM     94  C   UNL A   1      36.565  21.457  24.958  1.00  0.00     0.165 A 
ATOM     95  C   UNL A   1      37.464  22.458  25.314  1.00  0.00     0.151 A 
ATOM     96  F   UNL A   1      36.994  20.208  24.724  1.00  0.00    -0.203 F 
BRANCH  95  97
ATOM     97  O   UNL A   1      38.791  22.153  25.415  1.00  0.00    -0.505 OA
ATOM     98  H   UNL A   1      39.407  22.537  24.821  1.00  0.00     0.293 HD
ENDBRANCH  95  97
ENDBRANCH  85  90
ENDBRANCH  80  83
ENDBRANCH  78  79
ENDBRANCH  77  78
ENDBRANCH  76  77
ENDBRANCH   1  76
TORSDOF 18
ENDMDL
