MODEL 1
REMARK VINA RESULT:      -9.0      0.000      0.000
REMARK SMILES CCC(CC)(Nc1cc2ccccc2c(=O)[nH]1)C(=O)NCCCCCCNC(=O)c1ccc(-c2c3nc(c(-c4c(F)cc(S(=O)(=O)[O-])cc4F)c4ccc([nH]4)c(-c4c(F)cc(S(=O)(=O)[O-])cc4F)c4nc(c(-c5c(F)cc(S(=O)(=O)[O-])cc5F)c5ccc2[nH]5)C=C4)C=C3)cc1
REMARK SMILES IDX 24 1 23 2 22 3 21 4 20 5 18 6 19 7 3 9 2 10 1 11 4 12 5 13
REMARK SMILES IDX 6 14 7 16 8 17 17 18 9 19 15 20 10 22 14 23 16 24 11 25
REMARK SMILES IDX 13 26 12 27 25 28 26 29 27 30 28 31 29 33 30 34 31 35 95 36
REMARK SMILES IDX 32 37 94 38 33 39 34 40 35 41 88 42 36 43 93 44 87 45 89 46
REMARK SMILES IDX 37 47 92 48 86 49 85 50 38 52 72 53 51 54 71 55 52 56 55 57
REMARK SMILES IDX 70 58 90 59 53 60 54 61 69 63 91 64 56 65 39 66 40 67 49 68
REMARK SMILES IDX 41 69 42 70 48 71 50 72 43 73 44 74 45 75 46 76 47 77 73 78
REMARK SMILES IDX 74 79 83 80 75 81 76 82 82 83 84 84 77 85 78 86 79 87 80 88
REMARK SMILES IDX 81 89 57 90 58 91 67 92 59 93 60 94 66 95 68 96 61 97 62 98
REMARK SMILES IDX 63 99 64 100 65 101
REMARK H PARENT 20 8 6 15 17 21 27 32 89 51 55 62
REMARK Flexibility Score: inf
ROOT
ATOM      1  C   UNL A   1      35.829  33.110  31.077  1.00  0.00     0.002 C 
ENDROOT
BRANCH   1   2
ATOM      2  C   UNL A   1      36.987  32.212  31.507  1.00  0.00     0.002 C 
BRANCH   2   3
ATOM      3  C   UNL A   1      36.601  31.151  32.534  1.00  0.00     0.021 C 
BRANCH   3   4
ATOM      4  C   UNL A   1      37.765  30.349  33.111  1.00  0.00     0.116 C 
BRANCH   4   5
ATOM      5  N   UNL A   1      37.742  30.194  34.560  1.00  0.00    -0.354 N 
ATOM      6  C   UNL A   1      38.553  30.705  35.541  1.00  0.00     0.245 C 
ATOM      7  O   UNL A   1      38.315  30.326  36.691  1.00  0.00    -0.272 OA
ATOM      8  H   UNL A   1      37.014  29.621  34.895  1.00  0.00     0.163 HD
BRANCH   6   9
ATOM      9  C   UNL A   1      39.760  31.634  35.200  1.00  0.00     0.117 C 
BRANCH   9  10
ATOM     10  C   UNL A   1      40.471  32.164  36.485  1.00  0.00     0.035 C 
ATOM     11  C   UNL A   1      41.694  33.057  36.291  1.00  0.00     0.007 C 
ENDBRANCH   9  10
BRANCH   9  12
ATOM     12  C   UNL A   1      39.163  32.825  34.382  1.00  0.00     0.035 C 
ATOM     13  C   UNL A   1      38.158  33.729  35.075  1.00  0.00     0.007 C 
ENDBRANCH   9  12
BRANCH   9  14
ATOM     14  N   UNL A   1      40.825  30.891  34.452  1.00  0.00    -0.357 N 
ATOM     15  H   UNL A   1      41.121  31.328  33.622  1.00  0.00     0.163 HD
BRANCH  14  16
ATOM     16  C   UNL A   1      41.469  29.683  34.732  1.00  0.00     0.107 A 
ATOM     17  C   UNL A   1      42.322  29.128  33.842  1.00  0.00     0.053 A 
ATOM     18  N   UNL A   1      41.214  28.957  35.872  1.00  0.00    -0.308 N 
ATOM     19  C   UNL A   1      42.851  27.764  34.031  1.00  0.00    -0.009 A 
ATOM     20  C   UNL A   1      41.534  27.642  36.098  1.00  0.00     0.257 A 
ATOM     21  H   UNL A   1      40.756  29.431  36.603  1.00  0.00     0.171 HD
ATOM     22  C   UNL A   1      43.771  27.182  33.152  1.00  0.00     0.009 A 
ATOM     23  C   UNL A   1      42.346  26.977  35.070  1.00  0.00     0.047 A 
ATOM     24  O   UNL A   1      41.149  27.041  37.099  1.00  0.00    -0.269 OA
ATOM     25  C   UNL A   1      44.104  25.825  33.275  1.00  0.00     0.001 A 
ATOM     26  C   UNL A   1      42.625  25.609  35.163  1.00  0.00     0.014 A 
ATOM     27  C   UNL A   1      43.502  25.030  34.251  1.00  0.00     0.001 A 
ENDBRANCH  14  16
ENDBRANCH   9  14
ENDBRANCH   6   9
ENDBRANCH   4   5
ENDBRANCH   3   4
ENDBRANCH   2   3
ENDBRANCH   1   2
BRANCH   1  28
ATOM     28  C   UNL A   1      34.666  32.371  30.416  1.00  0.00     0.021 C 
BRANCH  28  29
ATOM     29  C   UNL A   1      34.740  32.309  28.894  1.00  0.00     0.116 C 
BRANCH  29  30
ATOM     30  N   UNL A   1      34.143  31.091  28.371  1.00  0.00    -0.352 N 
ATOM     31  C   UNL A   1      34.774  29.928  28.001  1.00  0.00     0.251 C 
ATOM     32  H   UNL A   1      33.164  31.101  28.269  1.00  0.00     0.163 HD
ATOM     33  O   UNL A   1      34.179  29.062  27.370  1.00  0.00    -0.269 OA
BRANCH  31  34
ATOM     34  C   UNL A   1      36.194  29.754  28.362  1.00  0.00     0.039 A 
ATOM     35  C   UNL A   1      36.520  29.214  29.607  1.00  0.00     0.014 A 
ATOM     36  C   UNL A   1      37.195  30.073  27.438  1.00  0.00     0.014 A 
ATOM     37  C   UNL A   1      37.856  28.936  29.902  1.00  0.00     0.010 A 
ATOM     38  C   UNL A   1      38.513  29.721  27.704  1.00  0.00     0.010 A 
ATOM     39  C   UNL A   1      38.858  29.153  28.941  1.00  0.00    -0.014 A 
BRANCH  39  40
ATOM     40  C   UNL A   1      40.274  28.794  29.211  1.00  0.00     0.031 A 
ATOM     41  C   UNL A   1      41.198  29.803  29.841  1.00  0.00     0.074 A 
ATOM     42  C   UNL A   1      40.741  27.586  28.838  1.00  0.00     0.049 A 
ATOM     43  N   UNL A   1      42.476  29.702  30.100  1.00  0.00    -0.248 NA
ATOM     44  C   UNL A   1      40.615  31.104  30.203  1.00  0.00     0.031 C 
ATOM     45  C   UNL A   1      39.954  26.541  28.178  1.00  0.00     0.029 A 
ATOM     46  N   UNL A   1      41.993  27.032  28.953  1.00  0.00    -0.354 N 
ATOM     47  C   UNL A   1      42.850  30.924  30.646  1.00  0.00     0.074 A 
ATOM     48  C   UNL A   1      41.678  31.772  30.623  1.00  0.00     0.031 C 
ATOM     49  C   UNL A   1      40.732  25.466  27.974  1.00  0.00     0.029 A 
ATOM     50  C   UNL A   1      42.083  25.757  28.445  1.00  0.00     0.049 A 
ATOM     51  H   UNL A   1      42.754  27.505  29.360  1.00  0.00     0.167 HD
ATOM     52  C   UNL A   1      44.052  31.297  31.145  1.00  0.00     0.037 A 
ATOM     53  C   UNL A   1      43.135  24.921  28.361  1.00  0.00     0.037 A 
ATOM     54  C   UNL A   1      45.208  30.439  31.180  1.00  0.00     0.049 A 
ATOM     55  C   UNL A   1      44.468  25.366  28.903  1.00  0.00     0.074 A 
ATOM     56  C   UNL A   1      46.458  30.705  31.710  1.00  0.00     0.029 A 
ATOM     57  N   UNL A   1      45.258  29.153  30.662  1.00  0.00    -0.354 N 
ATOM     58  N   UNL A   1      44.787  26.505  29.473  1.00  0.00    -0.248 NA
ATOM     59  C   UNL A   1      45.582  24.415  28.796  1.00  0.00     0.031 C 
ATOM     60  C   UNL A   1      47.279  29.600  31.463  1.00  0.00     0.029 A 
ATOM     61  C   UNL A   1      46.525  28.622  30.835  1.00  0.00     0.049 A 
ATOM     62  H   UNL A   1      44.504  28.686  30.234  1.00  0.00     0.167 HD
ATOM     63  C   UNL A   1      46.130  26.393  29.819  1.00  0.00     0.074 A 
ATOM     64  C   UNL A   1      46.558  25.072  29.406  1.00  0.00     0.031 C 
ATOM     65  C   UNL A   1      46.934  27.300  30.426  1.00  0.00     0.037 A 
BRANCH  52  66
ATOM     66  C   UNL A   1      44.178  32.692  31.697  1.00  0.00     0.058 A 
ATOM     67  C   UNL A   1      44.058  32.956  33.071  1.00  0.00     0.135 A 
ATOM     68  C   UNL A   1      44.468  33.772  30.848  1.00  0.00     0.135 A 
ATOM     69  F   UNL A   1      43.765  31.963  33.928  1.00  0.00    -0.206 F 
ATOM     70  C   UNL A   1      44.192  34.243  33.581  1.00  0.00     0.059 A 
ATOM     71  C   UNL A   1      44.639  35.063  31.340  1.00  0.00     0.059 A 
ATOM     72  F   UNL A   1      44.593  33.579  29.525  1.00  0.00    -0.206 F 
ATOM     73  C   UNL A   1      44.485  35.291  32.706  1.00  0.00     0.060 A 
BRANCH  73  74
ATOM     74  S   UNL A   1      44.670  36.953  33.387  1.00  0.00     0.124 S 
ATOM     75  O   UNL A   1      43.301  37.453  33.307  1.00  0.00    -0.237 OA
ATOM     76  O   UNL A   1      45.169  36.683  34.731  1.00  0.00    -0.237 OA
ATOM     77  O   UNL A   1      45.622  37.587  32.482  1.00  0.00    -0.744 OA
ENDBRANCH  73  74
ENDBRANCH  52  66
BRANCH  53  78
ATOM     78  C   UNL A   1      42.970  23.571  27.757  1.00  0.00     0.058 A 
ATOM     79  C   UNL A   1      42.367  22.527  28.474  1.00  0.00     0.135 A 
ATOM     80  C   UNL A   1      43.405  23.298  26.450  1.00  0.00     0.135 A 
ATOM     81  F   UNL A   1      41.940  22.734  29.729  1.00  0.00    -0.206 F 
ATOM     82  C   UNL A   1      42.216  21.256  27.926  1.00  0.00     0.059 A 
ATOM     83  C   UNL A   1      43.239  22.043  25.870  1.00  0.00     0.059 A 
ATOM     84  F   UNL A   1      43.975  24.265  25.714  1.00  0.00    -0.206 F 
ATOM     85  C   UNL A   1      42.654  21.025  26.622  1.00  0.00     0.060 A 
BRANCH  85  86
ATOM     86  S   UNL A   1      42.415  19.384  25.905  1.00  0.00     0.124 S 
ATOM     87  O   UNL A   1      43.108  19.518  24.629  1.00  0.00    -0.237 OA
ATOM     88  O   UNL A   1      43.057  18.524  26.894  1.00  0.00    -0.237 OA
ATOM     89  O   UNL A   1      40.963  19.261  25.826  1.00  0.00    -0.744 OA
ENDBRANCH  85  86
ENDBRANCH  53  78
BRANCH  65  90
ATOM     90  C   UNL A   1      48.352  26.890  30.718  1.00  0.00     0.058 A 
ATOM     91  C   UNL A   1      49.413  27.232  29.865  1.00  0.00     0.135 A 
ATOM     92  C   UNL A   1      48.659  26.196  31.900  1.00  0.00     0.135 A 
ATOM     93  F   UNL A   1      49.175  27.888  28.718  1.00  0.00    -0.206 F 
ATOM     94  C   UNL A   1      50.726  26.881  30.163  1.00  0.00     0.059 A 
ATOM     95  C   UNL A   1      49.968  25.864  32.234  1.00  0.00     0.059 A 
ATOM     96  F   UNL A   1      47.685  25.854  32.757  1.00  0.00    -0.206 F 
ATOM     97  C   UNL A   1      50.994  26.202  31.353  1.00  0.00     0.060 A 
BRANCH  97  98
ATOM     98  S   UNL A   1      52.708  25.792  31.746  1.00  0.00     0.124 S 
ATOM     99  O   UNL A   1      53.355  25.956  30.448  1.00  0.00    -0.237 OA
ATOM    100  O   UNL A   1      53.043  26.794  32.752  1.00  0.00    -0.237 OA
ATOM    101  O   UNL A   1      52.627  24.419  32.237  1.00  0.00    -0.744 OA
ENDBRANCH  97  98
ENDBRANCH  65  90
ENDBRANCH  39  40
ENDBRANCH  31  34
ENDBRANCH  29  30
ENDBRANCH  28  29
ENDBRANCH   1  28
TORSDOF 20
ENDMDL
MODEL 2
REMARK VINA RESULT:      -9.0      3.886      7.366
REMARK SMILES CCC(CC)(Nc1cc2ccccc2c(=O)[nH]1)C(=O)NCCCCCCNC(=O)c1ccc(-c2c3nc(c(-c4c(F)cc(S(=O)(=O)[O-])cc4F)c4ccc([nH]4)c(-c4c(F)cc(S(=O)(=O)[O-])cc4F)c4nc(c(-c5c(F)cc(S(=O)(=O)[O-])cc5F)c5ccc2[nH]5)C=C4)C=C3)cc1
REMARK SMILES IDX 24 1 23 2 22 3 21 4 20 5 18 6 19 7 3 9 2 10 1 11 4 12 5 13
REMARK SMILES IDX 6 14 7 16 8 17 17 18 9 19 15 20 10 22 14 23 16 24 11 25
REMARK SMILES IDX 13 26 12 27 25 28 26 29 27 30 28 31 29 33 30 34 31 35 95 36
REMARK SMILES IDX 32 37 94 38 33 39 34 40 35 41 88 42 36 43 93 44 87 45 89 46
REMARK SMILES IDX 37 47 92 48 86 49 85 50 38 52 72 53 51 54 71 55 52 56 55 57
REMARK SMILES IDX 70 58 90 59 53 60 54 61 69 63 91 64 56 65 39 66 40 67 49 68
REMARK SMILES IDX 41 69 42 70 48 71 50 72 43 73 44 74 45 75 46 76 47 77 73 78
REMARK SMILES IDX 74 79 83 80 75 81 76 82 82 83 84 84 77 85 78 86 79 87 80 88
REMARK SMILES IDX 81 89 57 90 58 91 67 92 59 93 60 94 66 95 68 96 61 97 62 98
REMARK SMILES IDX 63 99 64 100 65 101
REMARK H PARENT 20 8 6 15 17 21 27 32 89 51 55 62
REMARK Flexibility Score: inf
ROOT
ATOM      1  C   UNL A   1      34.804  31.985  28.223  1.00  0.00     0.002 C 
ENDROOT
BRANCH   1   2
ATOM      2  C   UNL A   1      35.215  30.866  27.268  1.00  0.00     0.002 C 
BRANCH   2   3
ATOM      3  C   UNL A   1      34.913  29.463  27.789  1.00  0.00     0.021 C 
BRANCH   3   4
ATOM      4  C   UNL A   1      34.101  28.579  26.848  1.00  0.00     0.116 C 
BRANCH   4   5
ATOM      5  N   UNL A   1      34.320  28.833  25.429  1.00  0.00    -0.354 N 
ATOM      6  C   UNL A   1      33.456  28.835  24.363  1.00  0.00     0.245 C 
ATOM      7  O   UNL A   1      33.967  29.020  23.255  1.00  0.00    -0.272 OA
ATOM      8  H   UNL A   1      35.253  29.041  25.194  1.00  0.00     0.163 HD
BRANCH   6   9
ATOM      9  C   UNL A   1      31.937  28.525  24.544  1.00  0.00     0.117 C 
BRANCH   9  10
ATOM     10  C   UNL A   1      31.116  28.858  23.258  1.00  0.00     0.035 C 
ATOM     11  C   UNL A   1      29.826  28.075  23.028  1.00  0.00     0.007 C 
ENDBRANCH   9  10
BRANCH   9  12
ATOM     12  C   UNL A   1      31.459  29.417  25.735  1.00  0.00     0.035 C 
ATOM     13  C   UNL A   1      31.078  30.857  25.436  1.00  0.00     0.007 C 
ENDBRANCH   9  12
BRANCH   9  14
ATOM     14  N   UNL A   1      31.703  27.065  24.781  1.00  0.00    -0.357 N 
ATOM     15  H   UNL A   1      30.855  26.856  25.235  1.00  0.00     0.163 HD
BRANCH  14  16
ATOM     16  C   UNL A   1      32.483  25.948  24.468  1.00  0.00     0.107 A 
ATOM     17  C   UNL A   1      33.283  25.377  25.396  1.00  0.00     0.053 A 
ATOM     18  N   UNL A   1      32.546  25.424  23.199  1.00  0.00    -0.308 N 
ATOM     19  C   UNL A   1      34.259  24.332  25.034  1.00  0.00    -0.009 A 
ATOM     20  C   UNL A   1      33.492  24.556  22.713  1.00  0.00     0.257 A 
ATOM     21  H   UNL A   1      31.837  25.697  22.572  1.00  0.00     0.171 HD
ATOM     22  C   UNL A   1      35.066  23.691  25.979  1.00  0.00     0.009 A 
ATOM     23  C   UNL A   1      34.463  24.033  23.684  1.00  0.00     0.047 A 
ATOM     24  O   UNL A   1      33.541  24.244  21.525  1.00  0.00    -0.269 OA
ATOM     25  C   UNL A   1      36.099  22.837  25.564  1.00  0.00     0.001 A 
ATOM     26  C   UNL A   1      35.528  23.231  23.258  1.00  0.00     0.014 A 
ATOM     27  C   UNL A   1      36.356  22.641  24.207  1.00  0.00     0.001 A 
ENDBRANCH  14  16
ENDBRANCH   9  14
ENDBRANCH   6   9
ENDBRANCH   4   5
ENDBRANCH   3   4
ENDBRANCH   2   3
ENDBRANCH   1   2
BRANCH   1  28
ATOM     28  C   UNL A   1      35.857  33.077  28.408  1.00  0.00     0.021 C 
BRANCH  28  29
ATOM     29  C   UNL A   1      36.877  32.792  29.505  1.00  0.00     0.116 C 
BRANCH  29  30
ATOM     30  N   UNL A   1      36.303  32.009  30.588  1.00  0.00    -0.352 N 
ATOM     31  C   UNL A   1      36.674  30.758  31.018  1.00  0.00     0.251 C 
ATOM     32  H   UNL A   1      35.556  32.427  31.072  1.00  0.00     0.163 HD
ATOM     33  O   UNL A   1      35.966  30.123  31.792  1.00  0.00    -0.269 OA
BRANCH  31  34
ATOM     34  C   UNL A   1      37.937  30.186  30.511  1.00  0.00     0.039 A 
ATOM     35  C   UNL A   1      38.137  30.089  29.134  1.00  0.00     0.014 A 
ATOM     36  C   UNL A   1      38.940  29.802  31.408  1.00  0.00     0.014 A 
ATOM     37  C   UNL A   1      39.376  29.660  28.653  1.00  0.00     0.010 A 
ATOM     38  C   UNL A   1      40.196  29.453  30.925  1.00  0.00     0.010 A 
ATOM     39  C   UNL A   1      40.426  29.374  29.543  1.00  0.00    -0.014 A 
BRANCH  39  40
ATOM     40  C   UNL A   1      41.772  28.989  29.047  1.00  0.00     0.031 A 
ATOM     41  C   UNL A   1      42.864  30.020  28.960  1.00  0.00     0.074 A 
ATOM     42  C   UNL A   1      41.993  27.728  28.622  1.00  0.00     0.049 A 
ATOM     43  N   UNL A   1      44.083  29.895  28.500  1.00  0.00    -0.248 NA
ATOM     44  C   UNL A   1      42.538  31.377  29.427  1.00  0.00     0.031 C 
ATOM     45  C   UNL A   1      40.999  26.651  28.615  1.00  0.00     0.029 A 
ATOM     46  N   UNL A   1      43.121  27.139  28.108  1.00  0.00    -0.354 N 
ATOM     47  C   UNL A   1      44.662  31.153  28.615  1.00  0.00     0.074 A 
ATOM     48  C   UNL A   1      43.644  32.042  29.130  1.00  0.00     0.031 C 
ATOM     49  C   UNL A   1      41.570  25.529  28.149  1.00  0.00     0.029 A 
ATOM     50  C   UNL A   1      42.954  25.813  27.782  1.00  0.00     0.049 A 
ATOM     51  H   UNL A   1      43.971  27.621  27.985  1.00  0.00     0.167 HD
ATOM     52  C   UNL A   1      45.935  31.528  28.342  1.00  0.00     0.037 A 
ATOM     53  C   UNL A   1      43.815  24.929  27.241  1.00  0.00     0.037 A 
ATOM     54  C   UNL A   1      46.947  30.631  27.848  1.00  0.00     0.049 A 
ATOM     55  C   UNL A   1      45.218  25.375  26.925  1.00  0.00     0.074 A 
ATOM     56  C   UNL A   1      48.279  30.901  27.587  1.00  0.00     0.029 A 
ATOM     57  N   UNL A   1      46.740  29.295  27.535  1.00  0.00    -0.354 N 
ATOM     58  N   UNL A   1      45.767  26.555  27.099  1.00  0.00    -0.248 NA
ATOM     59  C   UNL A   1      46.121  24.372  26.345  1.00  0.00     0.031 C 
ATOM     60  C   UNL A   1      48.864  29.742  27.065  1.00  0.00     0.029 A 
ATOM     61  C   UNL A   1      47.914  28.733  27.059  1.00  0.00     0.049 A 
ATOM     62  H   UNL A   1      45.886  28.816  27.637  1.00  0.00     0.167 HD
ATOM     63  C   UNL A   1      47.086  26.426  26.678  1.00  0.00     0.074 A 
ATOM     64  C   UNL A   1      47.256  25.051  26.254  1.00  0.00     0.031 C 
ATOM     65  C   UNL A   1      48.069  27.360  26.649  1.00  0.00     0.037 A 
BRANCH  52  66
ATOM     66  C   UNL A   1      46.306  32.968  28.576  1.00  0.00     0.058 A 
ATOM     67  C   UNL A   1      46.806  33.411  29.811  1.00  0.00     0.135 A 
ATOM     68  C   UNL A   1      46.202  33.909  27.538  1.00  0.00     0.135 A 
ATOM     69  F   UNL A   1      46.911  32.558  30.843  1.00  0.00    -0.206 F 
ATOM     70  C   UNL A   1      47.164  34.739  30.018  1.00  0.00     0.059 A 
ATOM     71  C   UNL A   1      46.585  35.236  27.713  1.00  0.00     0.059 A 
ATOM     72  F   UNL A   1      45.729  33.542  26.336  1.00  0.00    -0.206 F 
ATOM     73  C   UNL A   1      47.052  35.644  28.962  1.00  0.00     0.060 A 
BRANCH  73  74
ATOM     74  S   UNL A   1      47.535  37.360  29.245  1.00  0.00     0.124 S 
ATOM     75  O   UNL A   1      46.435  38.080  28.610  1.00  0.00    -0.237 OA
ATOM     76  O   UNL A   1      47.582  37.432  30.701  1.00  0.00    -0.237 OA
ATOM     77  O   UNL A   1      48.824  37.467  28.571  1.00  0.00    -0.744 OA
ENDBRANCH  73  74
ENDBRANCH  52  66
BRANCH  53  78
ATOM     78  C   UNL A   1      43.382  23.530  26.980  1.00  0.00     0.058 A 
ATOM     79  C   UNL A   1      43.098  23.092  25.677  1.00  0.00     0.135 A 
ATOM     80  C   UNL A   1      43.249  22.600  28.023  1.00  0.00     0.135 A 
ATOM     81  F   UNL A   1      43.203  23.943  24.646  1.00  0.00    -0.206 F 
ATOM     82  C   UNL A   1      42.682  21.789  25.419  1.00  0.00     0.059 A 
ATOM     83  C   UNL A   1      42.862  21.284  27.787  1.00  0.00     0.059 A 
ATOM     84  F   UNL A   1      43.523  22.961  29.286  1.00  0.00    -0.206 F 
ATOM     85  C   UNL A   1      42.569  20.892  26.481  1.00  0.00     0.060 A 
BRANCH  85  86
ATOM     86  S   UNL A   1      42.068  19.192  26.130  1.00  0.00     0.124 S 
ATOM     87  O   UNL A   1      42.917  18.866  24.989  1.00  0.00    -0.237 OA
ATOM     88  O   UNL A   1      42.392  18.514  27.381  1.00  0.00    -0.237 OA
ATOM     89  O   UNL A   1      40.643  19.315  25.841  1.00  0.00    -0.744 OA
ENDBRANCH  85  86
ENDBRANCH  53  78
BRANCH  65  90
ATOM     90  C   UNL A   1      49.430  26.925  26.176  1.00  0.00     0.058 A 
ATOM     91  C   UNL A   1      50.360  26.329  27.043  1.00  0.00     0.135 A 
ATOM     92  C   UNL A   1      49.784  27.052  24.822  1.00  0.00     0.135 A 
ATOM     93  F   UNL A   1      50.077  26.190  28.347  1.00  0.00    -0.206 F 
ATOM     94  C   UNL A   1      51.601  25.895  26.587  1.00  0.00     0.059 A 
ATOM     95  C   UNL A   1      51.006  26.595  24.340  1.00  0.00     0.059 A 
ATOM     96  F   UNL A   1      48.928  27.605  23.949  1.00  0.00    -0.206 F 
ATOM     97  C   UNL A   1      51.913  26.028  25.233  1.00  0.00     0.060 A 
BRANCH  97  98
ATOM     98  S   UNL A   1      53.510  25.421  24.651  1.00  0.00     0.124 S 
ATOM     99  O   UNL A   1      53.401  23.993  24.928  1.00  0.00    -0.237 OA
ATOM    100  O   UNL A   1      53.488  25.795  23.240  1.00  0.00    -0.237 OA
ATOM    101  O   UNL A   1      54.473  26.148  25.472  1.00  0.00    -0.744 OA
ENDBRANCH  97  98
ENDBRANCH  65  90
ENDBRANCH  39  40
ENDBRANCH  31  34
ENDBRANCH  29  30
ENDBRANCH  28  29
ENDBRANCH   1  28
TORSDOF 20
ENDMDL
MODEL 3
REMARK VINA RESULT:      -9.0      0.620      8.223
REMARK SMILES CCC(CC)(Nc1cc2ccccc2c(=O)[nH]1)C(=O)NCCCCCCNC(=O)c1ccc(-c2c3nc(c(-c4c(F)cc(S(=O)(=O)[O-])cc4F)c4ccc([nH]4)c(-c4c(F)cc(S(=O)(=O)[O-])cc4F)c4nc(c(-c5c(F)cc(S(=O)(=O)[O-])cc5F)c5ccc2[nH]5)C=C4)C=C3)cc1
REMARK SMILES IDX 24 1 23 2 22 3 21 4 20 5 18 6 19 7 3 9 2 10 1 11 4 12 5 13
REMARK SMILES IDX 6 14 7 16 8 17 17 18 9 19 15 20 10 22 14 23 16 24 11 25
REMARK SMILES IDX 13 26 12 27 25 28 26 29 27 30 28 31 29 33 30 34 31 35 95 36
REMARK SMILES IDX 32 37 94 38 33 39 34 40 35 41 88 42 36 43 93 44 87 45 89 46
REMARK SMILES IDX 37 47 92 48 86 49 85 50 38 52 72 53 51 54 71 55 52 56 55 57
REMARK SMILES IDX 70 58 90 59 53 60 54 61 69 63 91 64 56 65 39 66 40 67 49 68
REMARK SMILES IDX 41 69 42 70 48 71 50 72 43 73 44 74 45 75 46 76 47 77 73 78
REMARK SMILES IDX 74 79 83 80 75 81 76 82 82 83 84 84 77 85 78 86 79 87 80 88
REMARK SMILES IDX 81 89 57 90 58 91 67 92 59 93 60 94 66 95 68 96 61 97 62 98
REMARK SMILES IDX 63 99 64 100 65 101
REMARK H PARENT 20 8 6 15 17 21 27 32 89 51 55 62
REMARK Flexibility Score: inf
ROOT
ATOM      1  C   UNL A   1      36.041  33.267  31.222  1.00  0.00     0.002 C 
ENDROOT
BRANCH   1   2
ATOM      2  C   UNL A   1      37.133  32.264  31.589  1.00  0.00     0.002 C 
BRANCH   2   3
ATOM      3  C   UNL A   1      36.708  31.239  32.637  1.00  0.00     0.021 C 
BRANCH   3   4
ATOM      4  C   UNL A   1      37.842  30.410  33.235  1.00  0.00     0.116 C 
BRANCH   4   5
ATOM      5  N   UNL A   1      37.762  30.216  34.677  1.00  0.00    -0.354 N 
ATOM      6  C   UNL A   1      38.533  30.701  35.703  1.00  0.00     0.245 C 
ATOM      7  O   UNL A   1      38.250  30.291  36.832  1.00  0.00    -0.272 OA
ATOM      8  H   UNL A   1      37.023  29.633  34.968  1.00  0.00     0.163 HD
BRANCH   6   9
ATOM      9  C   UNL A   1      39.750  31.641  35.434  1.00  0.00     0.117 C 
BRANCH   9  10
ATOM     10  C   UNL A   1      40.413  32.132  36.760  1.00  0.00     0.035 C 
ATOM     11  C   UNL A   1      41.666  32.995  36.639  1.00  0.00     0.007 C 
ENDBRANCH   9  10
BRANCH   9  12
ATOM     12  C   UNL A   1      39.181  32.856  34.633  1.00  0.00     0.035 C 
ATOM     13  C   UNL A   1      38.176  33.758  35.328  1.00  0.00     0.007 C 
ENDBRANCH   9  12
BRANCH   9  14
ATOM     14  N   UNL A   1      40.842  30.922  34.703  1.00  0.00    -0.357 N 
ATOM     15  H   UNL A   1      41.182  31.394  33.909  1.00  0.00     0.163 HD
BRANCH  14  16
ATOM     16  C   UNL A   1      41.460  29.694  34.955  1.00  0.00     0.107 A 
ATOM     17  C   UNL A   1      42.329  29.159  34.068  1.00  0.00     0.053 A 
ATOM     18  N   UNL A   1      41.165  28.932  36.060  1.00  0.00    -0.308 N 
ATOM     19  C   UNL A   1      42.833  27.780  34.219  1.00  0.00    -0.009 A 
ATOM     20  C   UNL A   1      41.459  27.604  36.246  1.00  0.00     0.257 A 
ATOM     21  H   UNL A   1      40.694  29.385  36.796  1.00  0.00     0.171 HD
ATOM     22  C   UNL A   1      43.767  27.216  33.344  1.00  0.00     0.009 A 
ATOM     23  C   UNL A   1      42.288  26.964  35.215  1.00  0.00     0.047 A 
ATOM     24  O   UNL A   1      41.038  26.973  37.214  1.00  0.00    -0.269 OA
ATOM     25  C   UNL A   1      44.077  25.851  33.426  1.00  0.00     0.001 A 
ATOM     26  C   UNL A   1      42.545  25.590  35.265  1.00  0.00     0.014 A 
ATOM     27  C   UNL A   1      43.436  25.031  34.355  1.00  0.00     0.001 A 
ENDBRANCH  14  16
ENDBRANCH   9  14
ENDBRANCH   6   9
ENDBRANCH   4   5
ENDBRANCH   3   4
ENDBRANCH   2   3
ENDBRANCH   1   2
BRANCH   1  28
ATOM     28  C   UNL A   1      34.810  32.648  30.559  1.00  0.00     0.021 C 
BRANCH  28  29
ATOM     29  C   UNL A   1      34.867  32.606  29.036  1.00  0.00     0.116 C 
BRANCH  29  30
ATOM     30  N   UNL A   1      34.047  31.536  28.493  1.00  0.00    -0.352 N 
ATOM     31  C   UNL A   1      34.456  30.320  28.002  1.00  0.00     0.251 C 
ATOM     32  H   UNL A   1      33.077  31.704  28.473  1.00  0.00     0.163 HD
ATOM     33  O   UNL A   1      33.686  29.603  27.372  1.00  0.00    -0.269 OA
BRANCH  31  34
ATOM     34  C   UNL A   1      35.852  29.902  28.234  1.00  0.00     0.039 A 
ATOM     35  C   UNL A   1      36.809  30.144  27.247  1.00  0.00     0.014 A 
ATOM     36  C   UNL A   1      36.216  29.324  29.455  1.00  0.00     0.014 A 
ATOM     37  C   UNL A   1      38.150  29.859  27.512  1.00  0.00     0.010 A 
ATOM     38  C   UNL A   1      37.560  29.118  29.744  1.00  0.00     0.010 A 
ATOM     39  C   UNL A   1      38.541  29.379  28.774  1.00  0.00    -0.014 A 
BRANCH  39  40
ATOM     40  C   UNL A   1      39.970  29.141  29.098  1.00  0.00     0.031 A 
ATOM     41  C   UNL A   1      40.604  27.815  28.772  1.00  0.00     0.074 A 
ATOM     42  C   UNL A   1      40.680  30.094  29.736  1.00  0.00     0.049 A 
ATOM     43  N   UNL A   1      41.816  27.395  29.028  1.00  0.00    -0.248 NA
ATOM     44  C   UNL A   1      39.758  26.822  28.091  1.00  0.00     0.031 C 
ATOM     45  C   UNL A   1      40.163  31.402  30.145  1.00  0.00     0.029 A 
ATOM     46  N   UNL A   1      41.986  30.109  30.159  1.00  0.00    -0.354 N 
ATOM     47  C   UNL A   1      41.874  26.091  28.549  1.00  0.00     0.074 A 
ATOM     48  C   UNL A   1      40.558  25.769  28.043  1.00  0.00     0.031 C 
ATOM     49  C   UNL A   1      41.147  32.101  30.733  1.00  0.00     0.029 A 
ATOM     50  C   UNL A   1      42.352  31.278  30.784  1.00  0.00     0.049 A 
ATOM     51  H   UNL A   1      42.603  29.353  30.027  1.00  0.00     0.167 HD
ATOM     52  C   UNL A   1      42.934  25.250  28.510  1.00  0.00     0.037 A 
ATOM     53  C   UNL A   1      43.522  31.644  31.342  1.00  0.00     0.037 A 
ATOM     54  C   UNL A   1      44.246  25.587  29.000  1.00  0.00     0.049 A 
ATOM     55  C   UNL A   1      44.681  30.682  31.306  1.00  0.00     0.074 A 
ATOM     56  C   UNL A   1      45.399  24.823  28.961  1.00  0.00     0.029 A 
ATOM     57  N   UNL A   1      44.578  26.783  29.620  1.00  0.00    -0.354 N 
ATOM     58  N   UNL A   1      44.735  29.475  30.793  1.00  0.00    -0.248 NA
ATOM     59  C   UNL A   1      45.938  31.130  31.920  1.00  0.00     0.031 C 
ATOM     60  C   UNL A   1      46.415  25.535  29.607  1.00  0.00     0.029 A 
ATOM     61  C   UNL A   1      45.913  26.767  29.993  1.00  0.00     0.049 A 
ATOM     62  H   UNL A   1      43.958  27.532  29.773  1.00  0.00     0.167 HD
ATOM     63  C   UNL A   1      46.038  29.034  30.995  1.00  0.00     0.074 A 
ATOM     64  C   UNL A   1      46.742  30.108  31.665  1.00  0.00     0.031 C 
ATOM     65  C   UNL A   1      46.602  27.849  30.653  1.00  0.00     0.037 A 
BRANCH  52  66
ATOM     66  C   UNL A   1      42.722  23.883  27.915  1.00  0.00     0.058 A 
ATOM     67  C   UNL A   1      42.707  23.678  26.525  1.00  0.00     0.135 A 
ATOM     68  C   UNL A   1      42.577  22.759  28.743  1.00  0.00     0.135 A 
ATOM     69  F   UNL A   1      42.825  24.719  25.686  1.00  0.00    -0.206 F 
ATOM     70  C   UNL A   1      42.527  22.411  25.979  1.00  0.00     0.059 A 
ATOM     71  C   UNL A   1      42.428  21.478  28.218  1.00  0.00     0.059 A 
ATOM     72  F   UNL A   1      42.582  22.896  30.078  1.00  0.00    -0.206 F 
ATOM     73  C   UNL A   1      42.391  21.317  26.834  1.00  0.00     0.060 A 
BRANCH  73  74
ATOM     74  S   UNL A   1      42.173  19.679  26.106  1.00  0.00     0.124 S 
ATOM     75  O   UNL A   1      42.535  18.813  27.224  1.00  0.00    -0.237 OA
ATOM     76  O   UNL A   1      40.760  19.687  25.743  1.00  0.00    -0.237 OA
ATOM     77  O   UNL A   1      43.107  19.677  24.985  1.00  0.00    -0.744 OA
ENDBRANCH  73  74
ENDBRANCH  52  66
BRANCH  53  78
ATOM     78  C   UNL A   1      43.665  32.987  31.966  1.00  0.00     0.058 A 
ATOM     79  C   UNL A   1      43.762  34.144  31.178  1.00  0.00     0.135 A 
ATOM     80  C   UNL A   1      43.702  33.144  33.360  1.00  0.00     0.135 A 
ATOM     81  F   UNL A   1      43.739  34.047  29.840  1.00  0.00    -0.206 F 
ATOM     82  C   UNL A   1      43.908  35.405  31.747  1.00  0.00     0.059 A 
ATOM     83  C   UNL A   1      43.818  34.397  33.954  1.00  0.00     0.059 A 
ATOM     84  F   UNL A   1      43.597  32.072  34.162  1.00  0.00    -0.206 F 
ATOM     85  C   UNL A   1      43.932  35.522  33.137  1.00  0.00     0.060 A 
BRANCH  85  86
ATOM     86  S   UNL A   1      44.079  37.168  33.866  1.00  0.00     0.124 S 
ATOM     87  O   UNL A   1      44.661  36.861  35.168  1.00  0.00    -0.237 OA
ATOM     88  O   UNL A   1      44.957  37.844  32.917  1.00  0.00    -0.237 OA
ATOM     89  O   UNL A   1      42.701  37.649  33.888  1.00  0.00    -0.744 OA
ENDBRANCH  85  86
ENDBRANCH  53  78
BRANCH  65  90
ATOM     90  C   UNL A   1      48.062  27.656  30.963  1.00  0.00     0.058 A 
ATOM     91  C   UNL A   1      48.498  27.172  32.206  1.00  0.00     0.135 A 
ATOM     92  C   UNL A   1      49.033  27.904  29.979  1.00  0.00     0.135 A 
ATOM     93  F   UNL A   1      47.613  26.926  33.185  1.00  0.00    -0.206 F 
ATOM     94  C   UNL A   1      49.848  26.961  32.469  1.00  0.00     0.059 A 
ATOM     95  C   UNL A   1      50.385  27.669  30.209  1.00  0.00     0.059 A 
ATOM     96  F   UNL A   1      48.670  28.358  28.769  1.00  0.00    -0.206 F 
ATOM     97  C   UNL A   1      50.783  27.207  31.463  1.00  0.00     0.060 A 
BRANCH  97  98
ATOM     98  S   UNL A   1      52.526  26.888  31.806  1.00  0.00     0.124 S 
ATOM     99  O   UNL A   1      52.559  26.972  33.262  1.00  0.00    -0.237 OA
ATOM    100  O   UNL A   1      52.714  25.554  31.244  1.00  0.00    -0.237 OA
ATOM    101  O   UNL A   1      53.217  27.963  31.100  1.00  0.00    -0.744 OA
ENDBRANCH  97  98
ENDBRANCH  65  90
ENDBRANCH  39  40
ENDBRANCH  31  34
ENDBRANCH  29  30
ENDBRANCH  28  29
ENDBRANCH   1  28
TORSDOF 20
ENDMDL
