MODEL 1
REMARK VINA RESULT:     -14.0      0.000      0.000
REMARK SMILES Cc1ccc(C(=O)NC2CC2)cc1NC(=O)[C@@H]1[C@@H](C(=O)NCCCCCCNC(=O)c2ccc(-c3c4nc(c(-c5c(F)cc(S(=O)(=O)[O-])cc5F)c5ccc([nH]5)c(-c5c(F)cc(S(=O)(=O)[O-])cc5F)c5nc(c(-c6c(F)cc(S(=O)(=O)[O-])cc6F)c6ccc3[nH]6)C=C5)C=C4)cc2)[C@H]2C=C[C@@H]1C2
REMARK SMILES IDX 24 1 23 2 22 3 21 4 19 5 20 6 18 8 17 9 100 10 97 11 99 12
REMARK SMILES IDX 101 13 98 14 15 15 14 16 16 18 13 19 1 20 2 21 3 22 4 23
REMARK SMILES IDX 12 24 5 25 6 26 7 27 8 28 9 30 10 31 11 32 25 33 26 34 27 35
REMARK SMILES IDX 28 36 29 37 30 39 31 40 32 41 96 42 33 43 95 44 34 45 35 46
REMARK SMILES IDX 36 47 89 48 37 49 94 50 88 51 90 52 38 53 93 54 87 55 86 56
REMARK SMILES IDX 39 58 73 59 52 60 72 61 53 62 56 63 71 64 91 65 54 66 55 67
REMARK SMILES IDX 70 69 92 70 57 71 40 72 41 73 50 74 42 75 43 76 49 77 51 78
REMARK SMILES IDX 44 79 45 80 46 81 47 82 48 83 74 84 75 85 84 86 76 87 77 88
REMARK SMILES IDX 83 89 85 90 78 91 79 92 80 93 81 94 82 95 58 96 59 97 68 98
REMARK SMILES IDX 60 99 61 100 67 101 69 102 62 103 63 104 64 105 65 106
REMARK SMILES IDX 66 107
REMARK H PARENT 21 7 14 17 8 29 28 38 90 57 56 68
REMARK Flexibility Score: inf
ROOT
ATOM      1  C   UNL A   1      36.169  23.438  23.882  1.00  0.00     0.002 C 
ENDROOT
BRANCH   1   2
ATOM      2  C   UNL A   1      34.825  23.287  23.156  1.00  0.00     0.021 C 
BRANCH   2   3
ATOM      3  C   UNL A   1      33.654  24.124  23.670  1.00  0.00     0.116 C 
BRANCH   3   4
ATOM      4  N   UNL A   1      34.063  25.200  24.544  1.00  0.00    -0.356 N 
ATOM      5  C   UNL A   1      33.346  26.041  25.328  1.00  0.00     0.224 C 
ATOM      6  O   UNL A   1      34.004  26.855  25.987  1.00  0.00    -0.275 OA
ATOM      7  H   UNL A   1      35.035  25.350  24.574  1.00  0.00     0.163 HD
BRANCH   5   8
ATOM      8  C   UNL A   1      31.818  26.105  25.346  1.00  0.00     0.098 C 
ATOM      9  C   UNL A   1      31.248  24.654  25.065  1.00  0.00     0.099 C 
ATOM     10  C   UNL A   1      30.122  24.912  24.031  1.00  0.00     0.025 C 
ATOM     11  C   UNL A   1      31.047  26.935  24.294  1.00  0.00     0.025 C 
ATOM     12  C   UNL A   1      30.785  25.277  22.721  1.00  0.00    -0.027 C 
ATOM     13  C   UNL A   1      29.647  26.309  24.424  1.00  0.00     0.017 C 
ATOM     14  C   UNL A   1      31.366  26.473  22.891  1.00  0.00    -0.027 C 
BRANCH   9  15
ATOM     15  C   UNL A   1      30.740  23.910  26.287  1.00  0.00     0.228 C 
ATOM     16  N   UNL A   1      31.192  22.653  26.608  1.00  0.00    -0.326 N 
ATOM     17  H   UNL A   1      30.744  22.268  27.396  1.00  0.00     0.169 HD
ATOM     18  O   UNL A   1      29.831  24.368  26.985  1.00  0.00    -0.274 OA
BRANCH  16  19
ATOM     19  C   UNL A   1      32.164  21.796  26.045  1.00  0.00     0.044 A 
ATOM     20  C   UNL A   1      34.021  22.985  27.387  1.00  0.00     0.046 C 
ATOM     21  C   UNL A   1      33.504  21.908  26.470  1.00  0.00    -0.027 A 
ATOM     22  C   UNL A   1      34.447  20.983  25.992  1.00  0.00     0.006 A 
ATOM     23  C   UNL A   1      34.075  19.965  25.115  1.00  0.00     0.014 A 
ATOM     24  C   UNL A   1      31.851  20.844  25.058  1.00  0.00     0.040 A 
ATOM     25  C   UNL A   1      32.769  19.882  24.620  1.00  0.00     0.041 A 
BRANCH  25  26
ATOM     26  C   UNL A   1      32.487  18.766  23.655  1.00  0.00     0.251 C 
ATOM     27  O   UNL A   1      32.181  19.055  22.494  1.00  0.00    -0.269 OA
ATOM     28  N   UNL A   1      32.577  17.423  23.953  1.00  0.00    -0.349 N 
ATOM     29  H   UNL A   1      32.397  16.828  23.191  1.00  0.00     0.164 HD
BRANCH  28  30
ATOM     30  C   UNL A   1      32.884  16.744  25.160  1.00  0.00     0.082 C 
ATOM     31  C   UNL A   1      32.768  15.247  25.220  1.00  0.00     0.027 C 
ATOM     32  C   UNL A   1      34.116  15.896  25.308  1.00  0.00     0.027 C 
ENDBRANCH  28  30
ENDBRANCH  25  26
ENDBRANCH  16  19
ENDBRANCH   9  15
ENDBRANCH   5   8
ENDBRANCH   3   4
ENDBRANCH   2   3
ENDBRANCH   1   2
BRANCH   1  33
ATOM     33  C   UNL A   1      37.059  22.194  24.011  1.00  0.00     0.002 C 
BRANCH  33  34
ATOM     34  C   UNL A   1      37.668  21.910  25.385  1.00  0.00     0.021 C 
BRANCH  34  35
ATOM     35  C   UNL A   1      38.348  23.102  26.043  1.00  0.00     0.116 C 
BRANCH  35  36
ATOM     36  N   UNL A   1      39.783  22.940  26.274  1.00  0.00    -0.352 N 
ATOM     37  C   UNL A   1      40.680  23.910  26.656  1.00  0.00     0.251 C 
ATOM     38  H   UNL A   1      40.147  22.035  26.142  1.00  0.00     0.163 HD
ATOM     39  O   UNL A   1      41.881  23.725  26.661  1.00  0.00    -0.269 OA
BRANCH  37  40
ATOM     40  C   UNL A   1      40.119  25.190  27.160  1.00  0.00     0.039 A 
ATOM     41  C   UNL A   1      40.442  26.363  26.465  1.00  0.00     0.014 A 
ATOM     42  C   UNL A   1      39.507  25.250  28.412  1.00  0.00     0.014 A 
ATOM     43  C   UNL A   1      40.301  27.596  27.098  1.00  0.00     0.010 A 
ATOM     44  C   UNL A   1      39.451  26.466  29.070  1.00  0.00     0.010 A 
ATOM     45  C   UNL A   1      39.884  27.637  28.432  1.00  0.00    -0.014 A 
BRANCH  45  46
ATOM     46  C   UNL A   1      39.961  28.842  29.259  1.00  0.00     0.031 A 
ATOM     47  C   UNL A   1      38.889  29.865  29.211  1.00  0.00     0.074 A 
ATOM     48  C   UNL A   1      41.008  29.051  30.090  1.00  0.00     0.049 A 
ATOM     49  N   UNL A   1      39.092  31.131  29.390  1.00  0.00    -0.248 NA
ATOM     50  C   UNL A   1      37.492  29.543  28.935  1.00  0.00     0.031 C 
ATOM     51  C   UNL A   1      41.096  30.077  31.126  1.00  0.00     0.029 A 
ATOM     52  N   UNL A   1      42.299  28.522  30.033  1.00  0.00    -0.354 N 
ATOM     53  C   UNL A   1      37.863  31.738  29.526  1.00  0.00     0.074 A 
ATOM     54  C   UNL A   1      36.900  30.721  29.167  1.00  0.00     0.031 C 
ATOM     55  C   UNL A   1      42.389  30.326  31.375  1.00  0.00     0.029 A 
ATOM     56  C   UNL A   1      43.170  29.552  30.425  1.00  0.00     0.049 A 
ATOM     57  H   UNL A   1      42.550  27.607  29.771  1.00  0.00     0.167 HD
ATOM     58  C   UNL A   1      37.765  32.987  30.068  1.00  0.00     0.037 A 
ATOM     59  C   UNL A   1      44.218  30.028  29.695  1.00  0.00     0.037 A 
ATOM     60  C   UNL A   1      39.063  33.499  30.483  1.00  0.00     0.049 A 
ATOM     61  C   UNL A   1      44.180  31.525  29.493  1.00  0.00     0.074 A 
ATOM     62  C   UNL A   1      39.703  33.503  31.712  1.00  0.00     0.029 A 
ATOM     63  N   UNL A   1      40.014  33.869  29.541  1.00  0.00    -0.354 N 
ATOM     64  N   UNL A   1      43.114  32.252  29.674  1.00  0.00    -0.248 NA
ATOM     65  C   UNL A   1      45.315  32.317  29.029  1.00  0.00     0.031 C 
ATOM     66  C   UNL A   1      41.048  33.877  31.511  1.00  0.00     0.029 A 
ATOM     67  C   UNL A   1      41.230  34.094  30.156  1.00  0.00     0.049 A 
ATOM     68  H   UNL A   1      39.846  33.957  28.575  1.00  0.00     0.167 HD
ATOM     69  C   UNL A   1      43.377  33.557  29.339  1.00  0.00     0.074 A 
ATOM     70  C   UNL A   1      44.777  33.549  28.963  1.00  0.00     0.031 C 
ATOM     71  C   UNL A   1      42.399  34.513  29.398  1.00  0.00     0.037 A 
BRANCH  58  72
ATOM     72  C   UNL A   1      36.453  33.606  30.504  1.00  0.00     0.058 A 
ATOM     73  C   UNL A   1      35.520  34.088  29.558  1.00  0.00     0.135 A 
ATOM     74  C   UNL A   1      36.074  33.779  31.850  1.00  0.00     0.135 A 
ATOM     75  F   UNL A   1      35.692  33.912  28.242  1.00  0.00    -0.206 F 
ATOM     76  C   UNL A   1      34.373  34.795  29.914  1.00  0.00     0.059 A 
ATOM     77  C   UNL A   1      34.952  34.524  32.232  1.00  0.00     0.059 A 
ATOM     78  F   UNL A   1      36.777  33.209  32.841  1.00  0.00    -0.206 F 
ATOM     79  C   UNL A   1      34.116  35.045  31.254  1.00  0.00     0.060 A 
BRANCH  79  80
ATOM     80  S   UNL A   1      32.701  36.079  31.679  1.00  0.00     0.124 S 
ATOM     81  O   UNL A   1      33.305  37.084  32.550  1.00  0.00    -0.237 OA
ATOM     82  O   UNL A   1      32.266  36.555  30.371  1.00  0.00    -0.237 OA
ATOM     83  O   UNL A   1      31.792  35.152  32.346  1.00  0.00    -0.744 OA
ENDBRANCH  79  80
ENDBRANCH  58  72
BRANCH  59  84
ATOM     84  C   UNL A   1      44.787  29.064  28.723  1.00  0.00     0.058 A 
ATOM     85  C   UNL A   1      44.310  29.097  27.401  1.00  0.00     0.135 A 
ATOM     86  C   UNL A   1      46.030  28.461  28.958  1.00  0.00     0.135 A 
ATOM     87  F   UNL A   1      43.113  29.642  27.131  1.00  0.00    -0.206 F 
ATOM     88  C   UNL A   1      45.106  28.702  26.334  1.00  0.00     0.059 A 
ATOM     89  C   UNL A   1      46.844  28.053  27.902  1.00  0.00     0.059 A 
ATOM     90  F   UNL A   1      46.535  28.417  30.200  1.00  0.00    -0.206 F 
ATOM     91  C   UNL A   1      46.398  28.245  26.595  1.00  0.00     0.060 A 
BRANCH  91  92
ATOM     92  S   UNL A   1      47.538  28.098  25.199  1.00  0.00     0.124 S 
ATOM     93  O   UNL A   1      46.796  28.756  24.129  1.00  0.00    -0.237 OA
ATOM     94  O   UNL A   1      48.705  28.822  25.700  1.00  0.00    -0.237 OA
ATOM     95  O   UNL A   1      47.707  26.658  25.061  1.00  0.00    -0.744 OA
ENDBRANCH  91  92
ENDBRANCH  59  84
BRANCH  71  96
ATOM     96  C   UNL A   1      42.457  35.939  28.882  1.00  0.00     0.058 A 
ATOM     97  C   UNL A   1      43.087  37.006  29.544  1.00  0.00     0.135 A 
ATOM     98  C   UNL A   1      41.962  36.249  27.587  1.00  0.00     0.135 A 
ATOM     99  F   UNL A   1      43.701  36.833  30.722  1.00  0.00    -0.206 F 
ATOM    100  C   UNL A   1      43.163  38.293  29.000  1.00  0.00     0.059 A 
ATOM    101  C   UNL A   1      42.073  37.510  27.003  1.00  0.00     0.059 A 
ATOM    102  F   UNL A   1      41.359  35.327  26.822  1.00  0.00    -0.206 F 
ATOM    103  C   UNL A   1      42.654  38.537  27.728  1.00  0.00     0.060 A 
BRANCH 103 104
ATOM    104  S   UNL A   1      42.812  40.174  26.990  1.00  0.00     0.124 S 
ATOM    105  O   UNL A   1      43.754  39.915  25.906  1.00  0.00    -0.237 OA
ATOM    106  O   UNL A   1      41.445  40.477  26.577  1.00  0.00    -0.237 OA
ATOM    107  O   UNL A   1      43.319  40.988  28.090  1.00  0.00    -0.744 OA
ENDBRANCH 103 104
ENDBRANCH  71  96
ENDBRANCH  45  46
ENDBRANCH  37  40
ENDBRANCH  35  36
ENDBRANCH  34  35
ENDBRANCH  33  34
ENDBRANCH   1  33
TORSDOF 20
ENDMDL
MODEL 2
REMARK VINA RESULT:     -13.7      4.605     11.013
REMARK SMILES Cc1ccc(C(=O)NC2CC2)cc1NC(=O)[C@@H]1[C@@H](C(=O)NCCCCCCNC(=O)c2ccc(-c3c4nc(c(-c5c(F)cc(S(=O)(=O)[O-])cc5F)c5ccc([nH]5)c(-c5c(F)cc(S(=O)(=O)[O-])cc5F)c5nc(c(-c6c(F)cc(S(=O)(=O)[O-])cc6F)c6ccc3[nH]6)C=C5)C=C4)cc2)[C@H]2C=C[C@@H]1C2
REMARK SMILES IDX 24 1 23 2 22 3 21 4 19 5 20 6 18 8 17 9 100 10 97 11 99 12
REMARK SMILES IDX 101 13 98 14 15 15 14 16 16 18 13 19 1 20 2 21 3 22 4 23
REMARK SMILES IDX 12 24 5 25 6 26 7 27 8 28 9 30 10 31 11 32 25 33 26 34 27 35
REMARK SMILES IDX 28 36 29 37 30 39 31 40 32 41 96 42 33 43 95 44 34 45 35 46
REMARK SMILES IDX 36 47 89 48 37 49 94 50 88 51 90 52 38 53 93 54 87 55 86 56
REMARK SMILES IDX 39 58 73 59 52 60 72 61 53 62 56 63 71 64 91 65 54 66 55 67
REMARK SMILES IDX 70 69 92 70 57 71 40 72 41 73 50 74 42 75 43 76 49 77 51 78
REMARK SMILES IDX 44 79 45 80 46 81 47 82 48 83 74 84 75 85 84 86 76 87 77 88
REMARK SMILES IDX 83 89 85 90 78 91 79 92 80 93 81 94 82 95 58 96 59 97 68 98
REMARK SMILES IDX 60 99 61 100 67 101 69 102 62 103 63 104 64 105 65 106
REMARK SMILES IDX 66 107
REMARK H PARENT 21 7 14 17 8 29 28 38 90 57 56 68
REMARK Flexibility Score: inf
ROOT
ATOM      1  C   UNL A   1      32.855  27.990  27.363  1.00  0.00     0.002 C 
ENDROOT
BRANCH   1   2
ATOM      2  C   UNL A   1      33.509  27.052  26.340  1.00  0.00     0.021 C 
BRANCH   2   3
ATOM      3  C   UNL A   1      32.761  25.765  25.991  1.00  0.00     0.116 C 
BRANCH   3   4
ATOM      4  N   UNL A   1      33.140  24.644  26.821  1.00  0.00    -0.356 N 
ATOM      5  C   UNL A   1      33.952  23.586  26.583  1.00  0.00     0.224 C 
ATOM      6  O   UNL A   1      34.094  22.794  27.522  1.00  0.00    -0.275 OA
ATOM      7  H   UNL A   1      32.737  24.650  27.718  1.00  0.00     0.163 HD
BRANCH   5   8
ATOM      8  C   UNL A   1      34.581  23.275  25.223  1.00  0.00     0.098 C 
ATOM      9  C   UNL A   1      35.174  21.807  25.265  1.00  0.00     0.099 C 
ATOM     10  C   UNL A   1      36.568  21.972  24.607  1.00  0.00     0.025 C 
ATOM     11  C   UNL A   1      35.801  24.073  24.712  1.00  0.00     0.025 C 
ATOM     12  C   UNL A   1      37.446  22.722  25.585  1.00  0.00    -0.027 C 
ATOM     13  C   UNL A   1      36.320  23.115  23.626  1.00  0.00     0.017 C 
ATOM     14  C   UNL A   1      36.964  23.970  25.672  1.00  0.00    -0.027 C 
BRANCH   9  15
ATOM     15  C   UNL A   1      34.337  20.749  24.568  1.00  0.00     0.228 C 
ATOM     16  N   UNL A   1      33.204  21.073  23.861  1.00  0.00    -0.326 N 
ATOM     17  H   UNL A   1      32.731  20.288  23.502  1.00  0.00     0.169 HD
ATOM     18  O   UNL A   1      34.590  19.548  24.689  1.00  0.00    -0.274 OA
BRANCH  16  19
ATOM     19  C   UNL A   1      32.574  22.298  23.543  1.00  0.00     0.044 A 
ATOM     20  C   UNL A   1      30.789  21.876  25.360  1.00  0.00     0.046 C 
ATOM     21  C   UNL A   1      31.463  22.714  24.305  1.00  0.00    -0.027 A 
ATOM     22  C   UNL A   1      30.908  23.980  24.059  1.00  0.00     0.006 A 
ATOM     23  C   UNL A   1      31.440  24.822  23.083  1.00  0.00     0.014 A 
ATOM     24  C   UNL A   1      33.000  23.112  22.478  1.00  0.00     0.040 A 
ATOM     25  C   UNL A   1      32.492  24.399  22.263  1.00  0.00     0.041 A 
BRANCH  25  26
ATOM     26  C   UNL A   1      32.965  25.373  21.222  1.00  0.00     0.251 C 
ATOM     27  O   UNL A   1      32.992  25.007  20.043  1.00  0.00    -0.269 OA
ATOM     28  N   UNL A   1      33.344  26.674  21.473  1.00  0.00    -0.349 N 
ATOM     29  H   UNL A   1      33.588  27.186  20.669  1.00  0.00     0.164 HD
BRANCH  28  30
ATOM     30  C   UNL A   1      33.445  27.410  22.682  1.00  0.00     0.082 C 
ATOM     31  C   UNL A   1      34.090  28.767  22.674  1.00  0.00     0.027 C 
ATOM     32  C   UNL A   1      32.621  28.641  22.939  1.00  0.00     0.027 C 
ENDBRANCH  28  30
ENDBRANCH  25  26
ENDBRANCH  16  19
ENDBRANCH   9  15
ENDBRANCH   5   8
ENDBRANCH   3   4
ENDBRANCH   2   3
ENDBRANCH   1   2
BRANCH   1  33
ATOM     33  C   UNL A   1      32.164  29.257  26.840  1.00  0.00     0.002 C 
BRANCH  33  34
ATOM     34  C   UNL A   1      32.997  30.539  26.793  1.00  0.00     0.021 C 
BRANCH  34  35
ATOM     35  C   UNL A   1      34.445  30.377  27.235  1.00  0.00     0.116 C 
BRANCH  35  36
ATOM     36  N   UNL A   1      34.914  31.388  28.182  1.00  0.00    -0.352 N 
ATOM     37  C   UNL A   1      35.949  31.271  29.080  1.00  0.00     0.251 C 
ATOM     38  H   UNL A   1      34.436  32.248  28.175  1.00  0.00     0.163 HD
ATOM     39  O   UNL A   1      36.162  32.098  29.944  1.00  0.00    -0.269 OA
BRANCH  37  40
ATOM     40  C   UNL A   1      36.875  30.123  28.900  1.00  0.00     0.039 A 
ATOM     41  C   UNL A   1      37.122  29.303  30.009  1.00  0.00     0.014 A 
ATOM     42  C   UNL A   1      37.656  30.018  27.748  1.00  0.00     0.014 A 
ATOM     43  C   UNL A   1      38.256  28.493  30.023  1.00  0.00     0.010 A 
ATOM     44  C   UNL A   1      38.826  29.281  27.801  1.00  0.00     0.010 A 
ATOM     45  C   UNL A   1      39.151  28.549  28.951  1.00  0.00    -0.014 A 
BRANCH  45  46
ATOM     46  C   UNL A   1      40.485  27.950  28.990  1.00  0.00     0.031 A 
ATOM     47  C   UNL A   1      40.699  26.541  28.576  1.00  0.00     0.074 A 
ATOM     48  C   UNL A   1      41.558  28.665  29.399  1.00  0.00     0.049 A 
ATOM     49  N   UNL A   1      41.602  25.769  29.087  1.00  0.00    -0.248 NA
ATOM     50  C   UNL A   1      39.889  25.880  27.558  1.00  0.00     0.031 C 
ATOM     51  C   UNL A   1      42.959  28.272  29.268  1.00  0.00     0.029 A 
ATOM     52  N   UNL A   1      41.605  29.799  30.214  1.00  0.00    -0.354 N 
ATOM     53  C   UNL A   1      41.680  24.639  28.304  1.00  0.00     0.074 A 
ATOM     54  C   UNL A   1      40.547  24.724  27.408  1.00  0.00     0.031 C 
ATOM     55  C   UNL A   1      43.676  28.919  30.197  1.00  0.00     0.029 A 
ATOM     56  C   UNL A   1      42.741  29.659  31.027  1.00  0.00     0.049 A 
ATOM     57  H   UNL A   1      40.967  30.548  30.218  1.00  0.00     0.167 HD
ATOM     58  C   UNL A   1      42.765  23.815  28.383  1.00  0.00     0.037 A 
ATOM     59  C   UNL A   1      42.753  29.687  32.390  1.00  0.00     0.037 A 
ATOM     60  C   UNL A   1      43.759  24.321  29.319  1.00  0.00     0.049 A 
ATOM     61  C   UNL A   1      43.418  28.481  33.012  1.00  0.00     0.074 A 
ATOM     62  C   UNL A   1      44.905  25.076  29.129  1.00  0.00     0.029 A 
ATOM     63  N   UNL A   1      43.518  24.305  30.686  1.00  0.00    -0.354 N 
ATOM     64  N   UNL A   1      43.644  27.370  32.370  1.00  0.00    -0.248 NA
ATOM     65  C   UNL A   1      43.837  28.407  34.408  1.00  0.00     0.031 C 
ATOM     66  C   UNL A   1      45.358  25.520  30.390  1.00  0.00     0.029 A 
ATOM     67  C   UNL A   1      44.483  25.040  31.348  1.00  0.00     0.049 A 
ATOM     68  H   UNL A   1      42.767  23.839  31.121  1.00  0.00     0.167 HD
ATOM     69  C   UNL A   1      44.189  26.442  33.223  1.00  0.00     0.074 A 
ATOM     70  C   UNL A   1      44.310  27.149  34.482  1.00  0.00     0.031 C 
ATOM     71  C   UNL A   1      44.476  25.174  32.797  1.00  0.00     0.037 A 
BRANCH  58  72
ATOM     72  C   UNL A   1      43.057  22.721  27.377  1.00  0.00     0.058 A 
ATOM     73  C   UNL A   1      42.320  21.515  27.372  1.00  0.00     0.135 A 
ATOM     74  C   UNL A   1      44.079  22.795  26.409  1.00  0.00     0.135 A 
ATOM     75  F   UNL A   1      41.258  21.332  28.166  1.00  0.00    -0.206 F 
ATOM     76  C   UNL A   1      42.649  20.427  26.566  1.00  0.00     0.059 A 
ATOM     77  C   UNL A   1      44.456  21.701  25.621  1.00  0.00     0.059 A 
ATOM     78  F   UNL A   1      44.732  23.945  26.185  1.00  0.00    -0.206 F 
ATOM     79  C   UNL A   1      43.745  20.512  25.720  1.00  0.00     0.060 A 
BRANCH  79  80
ATOM     80  S   UNL A   1      44.231  19.045  24.792  1.00  0.00     0.124 S 
ATOM     81  O   UNL A   1      43.138  18.121  25.082  1.00  0.00    -0.237 OA
ATOM     82  O   UNL A   1      44.286  19.553  23.425  1.00  0.00    -0.237 OA
ATOM     83  O   UNL A   1      45.517  18.682  25.380  1.00  0.00    -0.744 OA
ENDBRANCH  79  80
ENDBRANCH  58  72
BRANCH  59  84
ATOM     84  C   UNL A   1      41.632  30.438  33.005  1.00  0.00     0.058 A 
ATOM     85  C   UNL A   1      41.799  31.817  33.223  1.00  0.00     0.135 A 
ATOM     86  C   UNL A   1      40.325  29.934  32.963  1.00  0.00     0.135 A 
ATOM     87  F   UNL A   1      43.033  32.341  33.295  1.00  0.00    -0.206 F 
ATOM     88  C   UNL A   1      40.716  32.686  33.230  1.00  0.00     0.059 A 
ATOM     89  C   UNL A   1      39.223  30.788  32.973  1.00  0.00     0.059 A 
ATOM     90  F   UNL A   1      40.112  28.628  32.744  1.00  0.00    -0.206 F 
ATOM     91  C   UNL A   1      39.438  32.165  33.035  1.00  0.00     0.060 A 
BRANCH  91  92
ATOM     92  S   UNL A   1      38.100  33.326  32.670  1.00  0.00     0.124 S 
ATOM     93  O   UNL A   1      38.462  33.797  31.338  1.00  0.00    -0.237 OA
ATOM     94  O   UNL A   1      36.931  32.452  32.739  1.00  0.00    -0.237 OA
ATOM     95  O   UNL A   1      38.213  34.306  33.742  1.00  0.00    -0.744 OA
ENDBRANCH  91  92
ENDBRANCH  59  84
BRANCH  71  96
ATOM     96  C   UNL A   1      44.886  23.978  33.637  1.00  0.00     0.058 A 
ATOM     97  C   UNL A   1      44.030  22.926  34.005  1.00  0.00     0.135 A 
ATOM     98  C   UNL A   1      46.246  23.795  34.004  1.00  0.00     0.135 A 
ATOM     99  F   UNL A   1      42.745  22.907  33.628  1.00  0.00    -0.206 F 
ATOM    100  C   UNL A   1      44.468  21.816  34.734  1.00  0.00     0.059 A 
ATOM    101  C   UNL A   1      46.715  22.672  34.683  1.00  0.00     0.059 A 
ATOM    102  F   UNL A   1      47.187  24.702  33.698  1.00  0.00    -0.206 F 
ATOM    103  C   UNL A   1      45.813  21.695  35.070  1.00  0.00     0.060 A 
BRANCH 103 104
ATOM    104  S   UNL A   1      46.399  20.233  35.945  1.00  0.00     0.124 S 
ATOM    105  O   UNL A   1      45.770  20.402  37.251  1.00  0.00    -0.237 OA
ATOM    106  O   UNL A   1      45.878  19.138  35.133  1.00  0.00    -0.237 OA
ATOM    107  O   UNL A   1      47.850  20.387  35.916  1.00  0.00    -0.744 OA
ENDBRANCH 103 104
ENDBRANCH  71  96
ENDBRANCH  45  46
ENDBRANCH  37  40
ENDBRANCH  35  36
ENDBRANCH  34  35
ENDBRANCH  33  34
ENDBRANCH   1  33
TORSDOF 20
ENDMDL
MODEL 3
REMARK VINA RESULT:     -13.3      4.283     10.208
REMARK SMILES Cc1ccc(C(=O)NC2CC2)cc1NC(=O)[C@@H]1[C@@H](C(=O)NCCCCCCNC(=O)c2ccc(-c3c4nc(c(-c5c(F)cc(S(=O)(=O)[O-])cc5F)c5ccc([nH]5)c(-c5c(F)cc(S(=O)(=O)[O-])cc5F)c5nc(c(-c6c(F)cc(S(=O)(=O)[O-])cc6F)c6ccc3[nH]6)C=C5)C=C4)cc2)[C@H]2C=C[C@@H]1C2
REMARK SMILES IDX 24 1 23 2 22 3 21 4 19 5 20 6 18 8 17 9 100 10 97 11 99 12
REMARK SMILES IDX 101 13 98 14 15 15 14 16 16 18 13 19 1 20 2 21 3 22 4 23
REMARK SMILES IDX 12 24 5 25 6 26 7 27 8 28 9 30 10 31 11 32 25 33 26 34 27 35
REMARK SMILES IDX 28 36 29 37 30 39 31 40 32 41 96 42 33 43 95 44 34 45 35 46
REMARK SMILES IDX 36 47 89 48 37 49 94 50 88 51 90 52 38 53 93 54 87 55 86 56
REMARK SMILES IDX 39 58 73 59 52 60 72 61 53 62 56 63 71 64 91 65 54 66 55 67
REMARK SMILES IDX 70 69 92 70 57 71 40 72 41 73 50 74 42 75 43 76 49 77 51 78
REMARK SMILES IDX 44 79 45 80 46 81 47 82 48 83 74 84 75 85 84 86 76 87 77 88
REMARK SMILES IDX 83 89 85 90 78 91 79 92 80 93 81 94 82 95 58 96 59 97 68 98
REMARK SMILES IDX 60 99 61 100 67 101 69 102 62 103 63 104 64 105 65 106
REMARK SMILES IDX 66 107
REMARK H PARENT 21 7 14 17 8 29 28 38 90 57 56 68
REMARK Flexibility Score: inf
ROOT
ATOM      1  C   UNL A   1      34.337  30.751  27.268  1.00  0.00     0.002 C 
ENDROOT
BRANCH   1   2
ATOM      2  C   UNL A   1      34.264  29.218  27.299  1.00  0.00     0.021 C 
BRANCH   2   3
ATOM      3  C   UNL A   1      33.490  28.531  26.176  1.00  0.00     0.116 C 
BRANCH   3   4
ATOM      4  N   UNL A   1      34.111  27.307  25.722  1.00  0.00    -0.356 N 
ATOM      5  C   UNL A   1      33.580  26.149  25.260  1.00  0.00     0.224 C 
ATOM      6  O   UNL A   1      34.394  25.281  24.922  1.00  0.00    -0.275 OA
ATOM      7  H   UNL A   1      35.094  27.316  25.754  1.00  0.00     0.163 HD
BRANCH   5   8
ATOM      8  C   UNL A   1      32.083  25.835  25.249  1.00  0.00     0.098 C 
ATOM      9  C   UNL A   1      31.896  24.272  25.073  1.00  0.00     0.099 C 
ATOM     10  C   UNL A   1      30.777  24.170  24.006  1.00  0.00     0.025 C 
ATOM     11  C   UNL A   1      31.168  26.372  24.126  1.00  0.00     0.025 C 
ATOM     12  C   UNL A   1      31.373  24.594  22.681  1.00  0.00    -0.027 C 
ATOM     13  C   UNL A   1      29.961  25.431  24.283  1.00  0.00     0.017 C 
ATOM     14  C   UNL A   1      31.637  25.906  22.767  1.00  0.00    -0.027 C 
BRANCH   9  15
ATOM     15  C   UNL A   1      31.546  23.514  26.341  1.00  0.00     0.228 C 
ATOM     16  N   UNL A   1      31.987  22.233  26.563  1.00  0.00    -0.326 N 
ATOM     17  H   UNL A   1      31.646  21.843  27.400  1.00  0.00     0.169 HD
ATOM     18  O   UNL A   1      30.771  23.987  27.178  1.00  0.00    -0.274 OA
BRANCH  16  19
ATOM     19  C   UNL A   1      32.827  21.355  25.840  1.00  0.00     0.044 A 
ATOM     20  C   UNL A   1      34.915  22.556  26.767  1.00  0.00     0.046 C 
ATOM     21  C   UNL A   1      34.224  21.464  25.993  1.00  0.00    -0.027 A 
ATOM     22  C   UNL A   1      35.051  20.521  25.363  1.00  0.00     0.006 A 
ATOM     23  C   UNL A   1      34.512  19.487  24.599  1.00  0.00     0.014 A 
ATOM     24  C   UNL A   1      32.323  20.384  24.956  1.00  0.00     0.040 A 
ATOM     25  C   UNL A   1      33.133  19.405  24.370  1.00  0.00     0.041 A 
BRANCH  25  26
ATOM     26  C   UNL A   1      32.664  18.270  23.505  1.00  0.00     0.251 C 
ATOM     27  O   UNL A   1      32.210  18.532  22.387  1.00  0.00    -0.269 OA
ATOM     28  N   UNL A   1      32.730  16.937  23.847  1.00  0.00    -0.349 N 
ATOM     29  H   UNL A   1      32.415  16.324  23.144  1.00  0.00     0.164 HD
BRANCH  28  30
ATOM     30  C   UNL A   1      33.172  16.288  25.028  1.00  0.00     0.082 C 
ATOM     31  C   UNL A   1      32.167  15.858  26.060  1.00  0.00     0.027 C 
ATOM     32  C   UNL A   1      32.922  14.826  25.278  1.00  0.00     0.027 C 
ENDBRANCH  28  30
ENDBRANCH  25  26
ENDBRANCH  16  19
ENDBRANCH   9  15
ENDBRANCH   5   8
ENDBRANCH   3   4
ENDBRANCH   2   3
ENDBRANCH   1   2
BRANCH   1  33
ATOM     33  C   UNL A   1      33.048  31.538  27.543  1.00  0.00     0.002 C 
BRANCH  33  34
ATOM     34  C   UNL A   1      33.171  33.057  27.674  1.00  0.00     0.021 C 
BRANCH  34  35
ATOM     35  C   UNL A   1      34.354  33.534  28.504  1.00  0.00     0.116 C 
BRANCH  35  36
ATOM     36  N   UNL A   1      34.174  33.417  29.951  1.00  0.00    -0.352 N 
ATOM     37  C   UNL A   1      34.740  32.485  30.789  1.00  0.00     0.251 C 
ATOM     38  H   UNL A   1      33.583  34.082  30.373  1.00  0.00     0.163 HD
ATOM     39  O   UNL A   1      34.404  32.358  31.949  1.00  0.00    -0.269 OA
BRANCH  37  40
ATOM     40  C   UNL A   1      35.864  31.679  30.243  1.00  0.00     0.039 A 
ATOM     41  C   UNL A   1      36.061  30.395  30.768  1.00  0.00     0.014 A 
ATOM     42  C   UNL A   1      36.829  32.272  29.429  1.00  0.00     0.014 A 
ATOM     43  C   UNL A   1      37.297  29.773  30.609  1.00  0.00     0.010 A 
ATOM     44  C   UNL A   1      38.082  31.691  29.348  1.00  0.00     0.010 A 
ATOM     45  C   UNL A   1      38.333  30.460  29.971  1.00  0.00    -0.014 A 
BRANCH  45  46
ATOM     46  C   UNL A   1      39.726  30.010  29.990  1.00  0.00     0.031 A 
ATOM     47  C   UNL A   1      40.124  28.743  29.328  1.00  0.00     0.074 A 
ATOM     48  C   UNL A   1      40.685  30.737  30.608  1.00  0.00     0.049 A 
ATOM     49  N   UNL A   1      41.084  27.984  29.745  1.00  0.00    -0.248 NA
ATOM     50  C   UNL A   1      39.450  28.217  28.145  1.00  0.00     0.031 C 
ATOM     51  C   UNL A   1      42.127  30.528  30.505  1.00  0.00     0.029 A 
ATOM     52  N   UNL A   1      40.556  31.683  31.627  1.00  0.00    -0.354 N 
ATOM     53  C   UNL A   1      41.334  27.048  28.766  1.00  0.00     0.074 A 
ATOM     54  C   UNL A   1      40.247  27.191  27.823  1.00  0.00     0.031 C 
ATOM     55  C   UNL A   1      42.715  31.048  31.592  1.00  0.00     0.029 A 
ATOM     56  C   UNL A   1      41.658  31.504  32.479  1.00  0.00     0.049 A 
ATOM     57  H   UNL A   1      39.835  32.345  31.729  1.00  0.00     0.167 HD
ATOM     58  C   UNL A   1      42.504  26.344  28.763  1.00  0.00     0.037 A 
ATOM     59  C   UNL A   1      41.596  31.259  33.819  1.00  0.00     0.037 A 
ATOM     60  C   UNL A   1      43.383  26.754  29.850  1.00  0.00     0.049 A 
ATOM     61  C   UNL A   1      42.367  30.030  34.243  1.00  0.00     0.074 A 
ATOM     62  C   UNL A   1      44.440  27.648  29.894  1.00  0.00     0.029 A 
ATOM     63  N   UNL A   1      43.076  26.439  31.167  1.00  0.00    -0.354 N 
ATOM     64  N   UNL A   1      42.755  29.100  33.416  1.00  0.00    -0.248 NA
ATOM     65  C   UNL A   1      42.720  29.722  35.625  1.00  0.00     0.031 C 
ATOM     66  C   UNL A   1      44.773  27.875  31.246  1.00  0.00     0.029 A 
ATOM     67  C   UNL A   1      43.912  27.124  32.027  1.00  0.00     0.049 A 
ATOM     68  H   UNL A   1      42.364  25.819  31.448  1.00  0.00     0.167 HD
ATOM     69  C   UNL A   1      43.361  28.082  34.111  1.00  0.00     0.074 A 
ATOM     70  C   UNL A   1      43.333  28.532  35.489  1.00  0.00     0.031 C 
ATOM     71  C   UNL A   1      43.816  26.963  33.470  1.00  0.00     0.037 A 
BRANCH  58  72
ATOM     72  C   UNL A   1      42.974  25.511  27.589  1.00  0.00     0.058 A 
ATOM     73  C   UNL A   1      42.869  24.101  27.603  1.00  0.00     0.135 A 
ATOM     74  C   UNL A   1      43.567  26.049  26.430  1.00  0.00     0.135 A 
ATOM     75  F   UNL A   1      42.243  23.448  28.590  1.00  0.00    -0.206 F 
ATOM     76  C   UNL A   1      43.420  23.288  26.614  1.00  0.00     0.059 A 
ATOM     77  C   UNL A   1      44.167  25.253  25.446  1.00  0.00     0.059 A 
ATOM     78  F   UNL A   1      43.565  27.372  26.207  1.00  0.00    -0.206 F 
ATOM     79  C   UNL A   1      44.104  23.870  25.557  1.00  0.00     0.060 A 
BRANCH  79  80
ATOM     80  S   UNL A   1      44.924  22.793  24.367  1.00  0.00     0.124 S 
ATOM     81  O   UNL A   1      45.981  23.657  23.847  1.00  0.00    -0.237 OA
ATOM     82  O   UNL A   1      45.367  21.688  25.209  1.00  0.00    -0.237 OA
ATOM     83  O   UNL A   1      43.866  22.474  23.414  1.00  0.00    -0.744 OA
ENDBRANCH  79  80
ENDBRANCH  58  72
BRANCH  59  84
ATOM     84  C   UNL A   1      40.365  31.749  34.483  1.00  0.00     0.058 A 
ATOM     85  C   UNL A   1      39.303  30.845  34.660  1.00  0.00     0.135 A 
ATOM     86  C   UNL A   1      40.397  32.892  35.294  1.00  0.00     0.135 A 
ATOM     87  F   UNL A   1      39.218  29.749  33.889  1.00  0.00    -0.206 F 
ATOM     88  C   UNL A   1      38.404  30.980  35.709  1.00  0.00     0.059 A 
ATOM     89  C   UNL A   1      39.501  33.049  36.351  1.00  0.00     0.059 A 
ATOM     90  F   UNL A   1      41.397  33.777  35.175  1.00  0.00    -0.206 F 
ATOM     91  C   UNL A   1      38.557  32.051  36.589  1.00  0.00     0.060 A 
BRANCH  91  92
ATOM     92  S   UNL A   1      37.633  32.004  38.144  1.00  0.00     0.124 S 
ATOM     93  O   UNL A   1      37.127  30.636  38.155  1.00  0.00    -0.237 OA
ATOM     94  O   UNL A   1      38.684  32.301  39.115  1.00  0.00    -0.237 OA
ATOM     95  O   UNL A   1      36.633  33.049  37.965  1.00  0.00    -0.744 OA
ENDBRANCH  91  92
ENDBRANCH  59  84
BRANCH  71  96
ATOM     96  C   UNL A   1      44.321  25.673  34.091  1.00  0.00     0.058 A 
ATOM     97  C   UNL A   1      43.515  24.740  34.765  1.00  0.00     0.135 A 
ATOM     98  C   UNL A   1      45.670  25.270  33.904  1.00  0.00     0.135 A 
ATOM     99  F   UNL A   1      42.197  24.933  34.914  1.00  0.00    -0.206 F 
ATOM    100  C   UNL A   1      44.016  23.536  35.272  1.00  0.00     0.059 A 
ATOM    101  C   UNL A   1      46.178  24.053  34.353  1.00  0.00     0.059 A 
ATOM    102  F   UNL A   1      46.553  26.043  33.256  1.00  0.00    -0.206 F 
ATOM    103  C   UNL A   1      45.349  23.199  35.062  1.00  0.00     0.060 A 
BRANCH 103 104
ATOM    104  S   UNL A   1      45.985  21.618  35.649  1.00  0.00     0.124 S 
ATOM    105  O   UNL A   1      45.230  20.677  34.828  1.00  0.00    -0.237 OA
ATOM    106  O   UNL A   1      47.411  21.711  35.348  1.00  0.00    -0.237 OA
ATOM    107  O   UNL A   1      45.651  21.630  37.069  1.00  0.00    -0.744 OA
ENDBRANCH 103 104
ENDBRANCH  71  96
ENDBRANCH  45  46
ENDBRANCH  37  40
ENDBRANCH  35  36
ENDBRANCH  34  35
ENDBRANCH  33  34
ENDBRANCH   1  33
TORSDOF 20
ENDMDL
