MODEL 1
REMARK VINA RESULT:      -9.9      0.000      0.000
REMARK SMILES Cn1c(SCC(=O)Nc2cccc(C(=O)NCCCCCCNC(=O)c3ccc(-c4c5nc(c(-c6c(F)cc(S(=O)(=O)[O-])cc6F)c6ccc([nH]6)c(-c6c(F)cc(S(=O)(=O)[O-])cc6F)c6nc(c(-c7c(F)cc(S(=O)(=O)[O-])cc7F)c7ccc4[nH]7)C=C6)C=C5)cc3)c2)nnc1[C@@H]1CCCN1C(=O)c1ccccc1Cl
REMARK SMILES IDX 17 1 16 2 14 3 15 4 13 6 9 7 10 8 92 9 11 10 12 11 8 12 6 13
REMARK SMILES IDX 7 14 5 16 4 17 3 18 1 19 2 20 95 21 93 22 94 23 96 24 97 25
REMARK SMILES IDX 100 26 98 27 99 28 101 29 102 30 103 31 104 32 108 33 105 34
REMARK SMILES IDX 107 35 109 36 106 37 18 38 19 39 20 40 21 41 22 42 23 43
REMARK SMILES IDX 24 44 25 46 26 47 27 48 91 49 28 50 90 51 29 52 30 53 31 54
REMARK SMILES IDX 84 55 32 56 89 57 83 58 85 59 33 60 88 61 82 62 81 63 34 65
REMARK SMILES IDX 68 66 47 67 67 68 48 69 51 70 66 71 86 72 49 73 50 74 65 76
REMARK SMILES IDX 87 77 52 78 35 79 36 80 45 81 37 82 38 83 44 84 46 85 39 86
REMARK SMILES IDX 40 87 41 88 42 89 43 90 69 91 70 92 79 93 71 94 72 95 78 96
REMARK SMILES IDX 80 97 73 98 74 99 75 100 76 101 77 102 53 103 54 104 63 105
REMARK SMILES IDX 55 106 56 107 62 108 64 109 57 110 58 111 59 112 60 113
REMARK SMILES IDX 61 114
REMARK H PARENT 16 5 8 15 23 45 85 64 51 75
REMARK Flexibility Score: inf
ROOT
ATOM      1  C   UNL A   1      40.411  25.668  28.104  1.00  0.00     0.116 C 
ENDROOT
BRANCH   1   2
ATOM      2  N   UNL A   1      40.647  26.963  27.488  1.00  0.00    -0.352 N 
ATOM      3  C   UNL A   1      40.107  28.219  27.587  1.00  0.00     0.251 C 
ATOM      4  O   UNL A   1      40.695  29.082  26.921  1.00  0.00    -0.269 OA
ATOM      5  H   UNL A   1      41.381  26.930  26.833  1.00  0.00     0.163 HD
BRANCH   3   6
ATOM      6  C   UNL A   1      38.914  28.664  28.394  1.00  0.00     0.041 A 
ATOM      7  C   UNL A   1      36.832  29.841  28.893  1.00  0.00     0.041 A 
ATOM      8  C   UNL A   1      36.922  29.491  30.239  1.00  0.00     0.026 A 
ATOM      9  C   UNL A   1      37.840  29.463  27.982  1.00  0.00     0.040 A 
ATOM     10  C   UNL A   1      37.966  28.690  30.670  1.00  0.00     0.003 A 
ATOM     11  C   UNL A   1      38.940  28.278  29.756  1.00  0.00     0.014 A 
BRANCH   7  12
ATOM     12  N   UNL A   1      35.786  30.701  28.542  1.00  0.00    -0.325 N 
ATOM     13  C   UNL A   1      34.725  30.487  27.711  1.00  0.00     0.234 C 
ATOM     14  O   UNL A   1      33.933  31.419  27.541  1.00  0.00    -0.274 OA
ATOM     15  H   UNL A   1      35.820  31.593  28.956  1.00  0.00     0.169 HD
BRANCH  13  16
ATOM     16  C   UNL A   1      34.423  29.116  27.160  1.00  0.00     0.178 C 
BRANCH  16  17
ATOM     17  S   UNL A   1      33.119  29.016  25.955  1.00  0.00    -0.076 SA
BRANCH  17  18
ATOM     18  C   UNL A   1      33.179  27.446  25.247  1.00  0.00     0.191 A 
ATOM     19  C   UNL A   1      31.084  27.200  23.858  1.00  0.00     0.154 C 
ATOM     20  N   UNL A   1      32.138  26.736  24.719  1.00  0.00    -0.307 N 
ATOM     21  C   UNL A   1      32.421  25.424  25.032  1.00  0.00     0.156 A 
ATOM     22  N   UNL A   1      34.159  26.617  25.512  1.00  0.00    -0.123 NA
ATOM     23  N   UNL A   1      33.690  25.345  25.378  1.00  0.00    -0.132 NA
BRANCH  21  24
ATOM     24  C   UNL A   1      31.509  24.262  24.975  1.00  0.00     0.154 C 
ATOM     25  C   UNL A   1      30.653  24.163  26.244  1.00  0.00     0.035 C 
ATOM     26  N   UNL A   1      32.142  22.951  24.836  1.00  0.00    -0.328 N 
ATOM     27  C   UNL A   1      30.282  22.695  26.311  1.00  0.00     0.024 C 
ATOM     28  C   UNL A   1      31.486  21.984  25.711  1.00  0.00     0.120 C 
BRANCH  26  29
ATOM     29  C   UNL A   1      33.062  22.453  23.919  1.00  0.00     0.255 C 
ATOM     30  O   UNL A   1      32.732  22.083  22.795  1.00  0.00    -0.269 OA
BRANCH  29  31
ATOM     31  C   UNL A   1      34.486  22.251  24.222  1.00  0.00     0.058 A 
ATOM     32  C   UNL A   1      35.432  23.105  23.646  1.00  0.00     0.015 A 
ATOM     33  C   UNL A   1      34.921  21.035  24.764  1.00  0.00     0.053 A 
ATOM     34  C   UNL A   1      36.797  22.797  23.713  1.00  0.00     0.001 A 
ATOM     35  C   UNL A   1      36.289  20.765  24.893  1.00  0.00     0.021 A 
ATOM     36  Cl  UNL A   1      33.835  19.763  25.195  1.00  0.00    -0.083 Cl
ATOM     37  C   UNL A   1      37.230  21.653  24.380  1.00  0.00     0.002 A 
ENDBRANCH  29  31
ENDBRANCH  26  29
ENDBRANCH  21  24
ENDBRANCH  17  18
ENDBRANCH  16  17
ENDBRANCH  13  16
ENDBRANCH   7  12
ENDBRANCH   3   6
ENDBRANCH   1   2
BRANCH   1  38
ATOM     38  C   UNL A   1      39.232  24.922  27.459  1.00  0.00     0.021 C 
BRANCH  38  39
ATOM     39  C   UNL A   1      39.451  23.444  27.089  1.00  0.00     0.002 C 
BRANCH  39  40
ATOM     40  C   UNL A   1      40.675  23.072  26.243  1.00  0.00     0.002 C 
BRANCH  40  41
ATOM     41  C   UNL A   1      41.940  22.604  26.967  1.00  0.00     0.021 C 
BRANCH  41  42
ATOM     42  C   UNL A   1      42.280  21.106  26.939  1.00  0.00     0.116 C 
BRANCH  42  43
ATOM     43  N   UNL A   1      43.030  20.736  25.742  1.00  0.00    -0.352 N 
ATOM     44  C   UNL A   1      44.000  21.372  25.000  1.00  0.00     0.251 C 
ATOM     45  H   UNL A   1      42.793  19.846  25.393  1.00  0.00     0.163 HD
ATOM     46  O   UNL A   1      44.286  20.887  23.903  1.00  0.00    -0.269 OA
BRANCH  44  47
ATOM     47  C   UNL A   1      44.721  22.603  25.437  1.00  0.00     0.039 A 
ATOM     48  C   UNL A   1      44.584  23.772  24.667  1.00  0.00     0.014 A 
ATOM     49  C   UNL A   1      45.611  22.626  26.507  1.00  0.00     0.014 A 
ATOM     50  C   UNL A   1      45.287  24.950  24.989  1.00  0.00     0.010 A 
ATOM     51  C   UNL A   1      46.277  23.819  26.849  1.00  0.00     0.010 A 
ATOM     52  C   UNL A   1      46.130  25.005  26.107  1.00  0.00    -0.014 A 
BRANCH  52  53
ATOM     53  C   UNL A   1      46.857  26.263  26.505  1.00  0.00     0.031 A 
ATOM     54  C   UNL A   1      46.181  27.327  27.343  1.00  0.00     0.074 A 
ATOM     55  C   UNL A   1      48.102  26.524  26.048  1.00  0.00     0.049 A 
ATOM     56  N   UNL A   1      46.609  28.524  27.672  1.00  0.00    -0.248 NA
ATOM     57  C   UNL A   1      44.842  27.013  27.861  1.00  0.00     0.031 C 
ATOM     58  C   UNL A   1      48.890  25.641  25.192  1.00  0.00     0.029 A 
ATOM     59  N   UNL A   1      48.904  27.638  26.191  1.00  0.00    -0.354 N 
ATOM     60  C   UNL A   1      45.593  29.106  28.423  1.00  0.00     0.074 A 
ATOM     61  C   UNL A   1      44.500  28.155  28.445  1.00  0.00     0.031 C 
ATOM     62  C   UNL A   1      50.025  26.262  24.835  1.00  0.00     0.029 A 
ATOM     63  C   UNL A   1      50.054  27.592  25.433  1.00  0.00     0.049 A 
ATOM     64  H   UNL A   1      48.675  28.395  26.778  1.00  0.00     0.167 HD
ATOM     65  C   UNL A   1      45.574  30.301  29.067  1.00  0.00     0.037 A 
ATOM     66  C   UNL A   1      51.018  28.508  25.210  1.00  0.00     0.037 A 
ATOM     67  C   UNL A   1      46.670  31.238  29.101  1.00  0.00     0.049 A 
ATOM     68  C   UNL A   1      50.985  29.830  25.922  1.00  0.00     0.074 A 
ATOM     69  C   UNL A   1      46.775  32.411  29.833  1.00  0.00     0.029 A 
ATOM     70  N   UNL A   1      47.842  31.122  28.373  1.00  0.00    -0.354 N 
ATOM     71  N   UNL A   1      50.059  30.315  26.712  1.00  0.00    -0.248 NA
ATOM     72  C   UNL A   1      52.145  30.717  25.743  1.00  0.00     0.031 C 
ATOM     73  C   UNL A   1      47.991  33.026  29.513  1.00  0.00     0.029 A 
ATOM     74  C   UNL A   1      48.663  32.215  28.614  1.00  0.00     0.049 A 
ATOM     75  H   UNL A   1      48.062  30.373  27.771  1.00  0.00     0.167 HD
ATOM     76  C   UNL A   1      50.540  31.542  27.155  1.00  0.00     0.074 A 
ATOM     77  C   UNL A   1      51.837  31.732  26.542  1.00  0.00     0.031 C 
ATOM     78  C   UNL A   1      49.957  32.418  28.011  1.00  0.00     0.037 A 
BRANCH  65  79
ATOM     79  C   UNL A   1      44.317  30.666  29.814  1.00  0.00     0.058 A 
ATOM     80  C   UNL A   1      44.084  30.222  31.126  1.00  0.00     0.135 A 
ATOM     81  C   UNL A   1      43.347  31.489  29.221  1.00  0.00     0.135 A 
ATOM     82  F   UNL A   1      44.977  29.431  31.741  1.00  0.00    -0.206 F 
ATOM     83  C   UNL A   1      42.909  30.536  31.802  1.00  0.00     0.059 A 
ATOM     84  C   UNL A   1      42.178  31.841  29.890  1.00  0.00     0.059 A 
ATOM     85  F   UNL A   1      43.524  31.955  27.974  1.00  0.00    -0.206 F 
ATOM     86  C   UNL A   1      41.957  31.338  31.172  1.00  0.00     0.060 A 
BRANCH  86  87
ATOM     87  S   UNL A   1      40.422  31.707  32.046  1.00  0.00     0.124 S 
ATOM     88  O   UNL A   1      40.765  32.958  32.714  1.00  0.00    -0.237 OA
ATOM     89  O   UNL A   1      39.456  31.814  30.958  1.00  0.00    -0.237 OA
ATOM     90  O   UNL A   1      40.247  30.554  32.925  1.00  0.00    -0.744 OA
ENDBRANCH  86  87
ENDBRANCH  65  79
BRANCH  66  91
ATOM     91  C   UNL A   1      52.129  28.182  24.275  1.00  0.00     0.058 A 
ATOM     92  C   UNL A   1      52.083  28.582  22.932  1.00  0.00     0.135 A 
ATOM     93  C   UNL A   1      53.275  27.505  24.719  1.00  0.00     0.135 A 
ATOM     94  F   UNL A   1      51.000  29.215  22.458  1.00  0.00    -0.206 F 
ATOM     95  C   UNL A   1      53.138  28.328  22.061  1.00  0.00     0.059 A 
ATOM     96  C   UNL A   1      54.353  27.259  23.872  1.00  0.00     0.059 A 
ATOM     97  F   UNL A   1      53.362  27.095  25.995  1.00  0.00    -0.206 F 
ATOM     98  C   UNL A   1      54.274  27.674  22.543  1.00  0.00     0.060 A 
BRANCH  98  99
ATOM     99  S   UNL A   1      55.666  27.423  21.420  1.00  0.00     0.124 S 
ATOM    100  O   UNL A   1      56.721  27.016  22.341  1.00  0.00    -0.237 OA
ATOM    101  O   UNL A   1      55.160  26.381  20.531  1.00  0.00    -0.237 OA
ATOM    102  O   UNL A   1      55.842  28.733  20.799  1.00  0.00    -0.744 OA
ENDBRANCH  98  99
ENDBRANCH  66  91
BRANCH  78 103
ATOM    103  C   UNL A   1      50.726  33.658  28.375  1.00  0.00     0.058 A 
ATOM    104  C   UNL A   1      51.631  33.682  29.448  1.00  0.00     0.135 A 
ATOM    105  C   UNL A   1      50.590  34.829  27.611  1.00  0.00     0.135 A 
ATOM    106  F   UNL A   1      51.795  32.594  30.216  1.00  0.00    -0.206 F 
ATOM    107  C   UNL A   1      52.362  34.825  29.759  1.00  0.00     0.059 A 
ATOM    108  C   UNL A   1      51.327  35.977  27.890  1.00  0.00     0.059 A 
ATOM    109  F   UNL A   1      49.742  34.862  26.570  1.00  0.00    -0.206 F 
ATOM    110  C   UNL A   1      52.204  35.969  28.973  1.00  0.00     0.060 A 
BRANCH 110 111
ATOM    111  S   UNL A   1      53.186  37.434  29.362  1.00  0.00     0.124 S 
ATOM    112  O   UNL A   1      52.157  38.464  29.449  1.00  0.00    -0.237 OA
ATOM    113  O   UNL A   1      53.819  37.063  30.625  1.00  0.00    -0.237 OA
ATOM    114  O   UNL A   1      54.093  37.547  28.224  1.00  0.00    -0.744 OA
ENDBRANCH 110 111
ENDBRANCH  78 103
ENDBRANCH  52  53
ENDBRANCH  44  47
ENDBRANCH  42  43
ENDBRANCH  41  42
ENDBRANCH  40  41
ENDBRANCH  39  40
ENDBRANCH  38  39
ENDBRANCH   1  38
TORSDOF 23
ENDMDL
MODEL 2
REMARK VINA RESULT:      -9.9      4.871     10.248
REMARK SMILES Cn1c(SCC(=O)Nc2cccc(C(=O)NCCCCCCNC(=O)c3ccc(-c4c5nc(c(-c6c(F)cc(S(=O)(=O)[O-])cc6F)c6ccc([nH]6)c(-c6c(F)cc(S(=O)(=O)[O-])cc6F)c6nc(c(-c7c(F)cc(S(=O)(=O)[O-])cc7F)c7ccc4[nH]7)C=C6)C=C5)cc3)c2)nnc1[C@@H]1CCCN1C(=O)c1ccccc1Cl
REMARK SMILES IDX 17 1 16 2 14 3 15 4 13 6 9 7 10 8 92 9 11 10 12 11 8 12 6 13
REMARK SMILES IDX 7 14 5 16 4 17 3 18 1 19 2 20 95 21 93 22 94 23 96 24 97 25
REMARK SMILES IDX 100 26 98 27 99 28 101 29 102 30 103 31 104 32 108 33 105 34
REMARK SMILES IDX 107 35 109 36 106 37 18 38 19 39 20 40 21 41 22 42 23 43
REMARK SMILES IDX 24 44 25 46 26 47 27 48 91 49 28 50 90 51 29 52 30 53 31 54
REMARK SMILES IDX 84 55 32 56 89 57 83 58 85 59 33 60 88 61 82 62 81 63 34 65
REMARK SMILES IDX 68 66 47 67 67 68 48 69 51 70 66 71 86 72 49 73 50 74 65 76
REMARK SMILES IDX 87 77 52 78 35 79 36 80 45 81 37 82 38 83 44 84 46 85 39 86
REMARK SMILES IDX 40 87 41 88 42 89 43 90 69 91 70 92 79 93 71 94 72 95 78 96
REMARK SMILES IDX 80 97 73 98 74 99 75 100 76 101 77 102 53 103 54 104 63 105
REMARK SMILES IDX 55 106 56 107 62 108 64 109 57 110 58 111 59 112 60 113
REMARK SMILES IDX 61 114
REMARK H PARENT 16 5 8 15 23 45 85 64 51 75
REMARK Flexibility Score: inf
ROOT
ATOM      1  C   UNL A   1      34.435  32.565  32.102  1.00  0.00     0.116 C 
ENDROOT
BRANCH   1   2
ATOM      2  N   UNL A   1      34.444  32.863  30.680  1.00  0.00    -0.352 N 
ATOM      3  C   UNL A   1      35.282  32.621  29.623  1.00  0.00     0.251 C 
ATOM      4  O   UNL A   1      34.840  32.987  28.526  1.00  0.00    -0.269 OA
ATOM      5  H   UNL A   1      33.644  33.367  30.405  1.00  0.00     0.163 HD
BRANCH   3   6
ATOM      6  C   UNL A   1      36.644  31.973  29.638  1.00  0.00     0.041 A 
ATOM      7  C   UNL A   1      38.290  30.167  29.664  1.00  0.00     0.041 A 
ATOM      8  C   UNL A   1      39.322  31.072  29.903  1.00  0.00     0.026 A 
ATOM      9  C   UNL A   1      36.953  30.609  29.569  1.00  0.00     0.040 A 
ATOM     10  C   UNL A   1      39.044  32.427  29.962  1.00  0.00     0.003 A 
ATOM     11  C   UNL A   1      37.725  32.867  29.822  1.00  0.00     0.014 A 
BRANCH   7  12
ATOM     12  N   UNL A   1      38.634  28.812  29.677  1.00  0.00    -0.325 N 
ATOM     13  C   UNL A   1      39.052  28.010  28.656  1.00  0.00     0.234 C 
ATOM     14  O   UNL A   1      39.280  26.823  28.915  1.00  0.00    -0.274 OA
ATOM     15  H   UNL A   1      38.564  28.370  30.555  1.00  0.00     0.169 HD
BRANCH  13  16
ATOM     16  C   UNL A   1      39.400  28.578  27.303  1.00  0.00     0.178 C 
BRANCH  16  17
ATOM     17  S   UNL A   1      41.123  28.894  26.996  1.00  0.00    -0.076 SA
BRANCH  17  18
ATOM     18  C   UNL A   1      41.852  27.407  26.520  1.00  0.00     0.191 A 
ATOM     19  C   UNL A   1      42.927  26.437  28.590  1.00  0.00     0.154 C 
ATOM     20  N   UNL A   1      42.826  26.715  27.183  1.00  0.00    -0.307 N 
ATOM     21  C   UNL A   1      43.600  26.166  26.183  1.00  0.00     0.156 A 
ATOM     22  N   UNL A   1      41.827  27.004  25.274  1.00  0.00    -0.123 NA
ATOM     23  N   UNL A   1      42.921  26.224  25.055  1.00  0.00    -0.132 NA
BRANCH  21  24
ATOM     24  C   UNL A   1      44.948  25.572  26.304  1.00  0.00     0.154 C 
ATOM     25  C   UNL A   1      45.789  25.841  25.049  1.00  0.00     0.035 C 
ATOM     26  N   UNL A   1      45.000  24.124  26.497  1.00  0.00    -0.328 N 
ATOM     27  C   UNL A   1      46.808  24.718  25.055  1.00  0.00     0.024 C 
ATOM     28  C   UNL A   1      46.060  23.547  25.675  1.00  0.00     0.120 C 
BRANCH  26  29
ATOM     29  C   UNL A   1      44.394  23.285  27.427  1.00  0.00     0.255 C 
ATOM     30  O   UNL A   1      44.932  22.988  28.492  1.00  0.00    -0.269 OA
BRANCH  29  31
ATOM     31  C   UNL A   1      43.102  22.620  27.204  1.00  0.00     0.058 A 
ATOM     32  C   UNL A   1      42.072  22.805  28.132  1.00  0.00     0.015 A 
ATOM     33  C   UNL A   1      43.012  21.551  26.304  1.00  0.00     0.053 A 
ATOM     34  C   UNL A   1      40.925  22.002  28.084  1.00  0.00     0.001 A 
ATOM     35  C   UNL A   1      41.834  20.799  26.213  1.00  0.00     0.021 A 
ATOM     36  Cl  UNL A   1      44.349  21.019  25.349  1.00  0.00    -0.083 Cl
ATOM     37  C   UNL A   1      40.783  21.033  27.094  1.00  0.00     0.002 A 
ENDBRANCH  29  31
ENDBRANCH  26  29
ENDBRANCH  21  24
ENDBRANCH  17  18
ENDBRANCH  16  17
ENDBRANCH  13  16
ENDBRANCH   7  12
ENDBRANCH   3   6
ENDBRANCH   1   2
BRANCH   1  38
ATOM     38  C   UNL A   1      35.845  32.599  32.713  1.00  0.00     0.021 C 
BRANCH  38  39
ATOM     39  C   UNL A   1      36.341  33.947  33.266  1.00  0.00     0.002 C 
BRANCH  39  40
ATOM     40  C   UNL A   1      36.541  34.091  34.780  1.00  0.00     0.002 C 
BRANCH  40  41
ATOM     41  C   UNL A   1      37.964  34.301  35.304  1.00  0.00     0.021 C 
BRANCH  41  42
ATOM     42  C   UNL A   1      38.219  34.116  36.807  1.00  0.00     0.116 C 
BRANCH  42  43
ATOM     43  N   UNL A   1      37.886  32.767  37.257  1.00  0.00    -0.352 N 
ATOM     44  C   UNL A   1      38.256  31.510  36.831  1.00  0.00     0.251 C 
ATOM     45  H   UNL A   1      37.271  32.752  38.026  1.00  0.00     0.163 HD
ATOM     46  O   UNL A   1      37.628  30.550  37.281  1.00  0.00    -0.269 OA
BRANCH  44  47
ATOM     47  C   UNL A   1      39.360  31.241  35.864  1.00  0.00     0.039 A 
ATOM     48  C   UNL A   1      39.043  30.638  34.633  1.00  0.00     0.014 A 
ATOM     49  C   UNL A   1      40.703  31.455  36.160  1.00  0.00     0.014 A 
ATOM     50  C   UNL A   1      40.045  30.299  33.702  1.00  0.00     0.010 A 
ATOM     51  C   UNL A   1      41.696  31.155  35.207  1.00  0.00     0.010 A 
ATOM     52  C   UNL A   1      41.395  30.577  33.961  1.00  0.00    -0.014 A 
BRANCH  52  53
ATOM     53  C   UNL A   1      42.483  30.272  32.965  1.00  0.00     0.031 A 
ATOM     54  C   UNL A   1      43.303  29.004  33.063  1.00  0.00     0.074 A 
ATOM     55  C   UNL A   1      42.825  31.166  32.010  1.00  0.00     0.049 A 
ATOM     56  N   UNL A   1      44.359  28.639  32.372  1.00  0.00    -0.248 NA
ATOM     57  C   UNL A   1      42.896  28.027  34.083  1.00  0.00     0.031 C 
ATOM     58  C   UNL A   1      42.183  32.459  31.795  1.00  0.00     0.029 A 
ATOM     59  N   UNL A   1      43.841  31.149  31.076  1.00  0.00    -0.354 N 
ATOM     60  C   UNL A   1      44.745  27.403  32.879  1.00  0.00     0.074 A 
ATOM     61  C   UNL A   1      43.850  27.110  33.980  1.00  0.00     0.031 C 
ATOM     62  C   UNL A   1      42.847  33.136  30.845  1.00  0.00     0.029 A 
ATOM     63  C   UNL A   1      43.969  32.329  30.378  1.00  0.00     0.049 A 
ATOM     64  H   UNL A   1      44.420  30.367  30.924  1.00  0.00     0.167 HD
ATOM     65  C   UNL A   1      45.726  26.566  32.454  1.00  0.00     0.037 A 
ATOM     66  C   UNL A   1      44.888  32.746  29.482  1.00  0.00     0.037 A 
ATOM     67  C   UNL A   1      46.593  26.814  31.328  1.00  0.00     0.049 A 
ATOM     68  C   UNL A   1      45.974  31.815  29.023  1.00  0.00     0.074 A 
ATOM     69  C   UNL A   1      47.526  25.962  30.757  1.00  0.00     0.029 A 
ATOM     70  N   UNL A   1      46.645  27.995  30.606  1.00  0.00    -0.354 N 
ATOM     71  N   UNL A   1      46.254  30.608  29.446  1.00  0.00    -0.248 NA
ATOM     72  C   UNL A   1      46.847  32.288  27.937  1.00  0.00     0.031 C 
ATOM     73  C   UNL A   1      48.174  26.644  29.721  1.00  0.00     0.029 A 
ATOM     74  C   UNL A   1      47.614  27.906  29.617  1.00  0.00     0.049 A 
ATOM     75  H   UNL A   1      46.078  28.784  30.771  1.00  0.00     0.167 HD
ATOM     76  C   UNL A   1      47.307  30.161  28.654  1.00  0.00     0.074 A 
ATOM     77  C   UNL A   1      47.620  31.230  27.730  1.00  0.00     0.031 C 
ATOM     78  C   UNL A   1      47.938  28.962  28.688  1.00  0.00     0.037 A 
BRANCH  65  79
ATOM     79  C   UNL A   1      45.910  25.274  33.208  1.00  0.00     0.058 A 
ATOM     80  C   UNL A   1      45.159  24.127  32.902  1.00  0.00     0.135 A 
ATOM     81  C   UNL A   1      46.867  25.175  34.231  1.00  0.00     0.135 A 
ATOM     82  F   UNL A   1      44.230  24.167  31.933  1.00  0.00    -0.206 F 
ATOM     83  C   UNL A   1      45.311  22.945  33.619  1.00  0.00     0.059 A 
ATOM     84  C   UNL A   1      47.057  23.993  34.942  1.00  0.00     0.059 A 
ATOM     85  F   UNL A   1      47.623  26.235  34.557  1.00  0.00    -0.206 F 
ATOM     86  C   UNL A   1      46.256  22.891  34.645  1.00  0.00     0.060 A 
BRANCH  86  87
ATOM     87  S   UNL A   1      46.416  21.363  35.592  1.00  0.00     0.124 S 
ATOM     88  O   UNL A   1      46.133  20.360  34.570  1.00  0.00    -0.237 OA
ATOM     89  O   UNL A   1      47.798  21.422  36.056  1.00  0.00    -0.237 OA
ATOM     90  O   UNL A   1      45.402  21.502  36.633  1.00  0.00    -0.744 OA
ENDBRANCH  86  87
ENDBRANCH  65  79
BRANCH  66  91
ATOM     91  C   UNL A   1      44.794  34.126  28.932  1.00  0.00     0.058 A 
ATOM     92  C   UNL A   1      43.989  34.407  27.820  1.00  0.00     0.135 A 
ATOM     93  C   UNL A   1      45.473  35.195  29.538  1.00  0.00     0.135 A 
ATOM     94  F   UNL A   1      43.337  33.414  27.197  1.00  0.00    -0.206 F 
ATOM     95  C   UNL A   1      43.853  35.702  27.328  1.00  0.00     0.059 A 
ATOM     96  C   UNL A   1      45.336  36.502  29.078  1.00  0.00     0.059 A 
ATOM     97  F   UNL A   1      46.263  34.974  30.601  1.00  0.00    -0.206 F 
ATOM     98  C   UNL A   1      44.523  36.745  27.971  1.00  0.00     0.060 A 
BRANCH  98  99
ATOM     99  S   UNL A   1      44.274  38.430  27.368  1.00  0.00     0.124 S 
ATOM    100  O   UNL A   1      45.497  38.658  26.608  1.00  0.00    -0.237 OA
ATOM    101  O   UNL A   1      43.051  38.298  26.582  1.00  0.00    -0.237 OA
ATOM    102  O   UNL A   1      44.139  39.211  28.595  1.00  0.00    -0.744 OA
ENDBRANCH  98  99
ENDBRANCH  66  91
BRANCH  78 103
ATOM    103  C   UNL A   1      49.017  28.709  27.671  1.00  0.00     0.058 A 
ATOM    104  C   UNL A   1      50.379  28.838  27.987  1.00  0.00     0.135 A 
ATOM    105  C   UNL A   1      48.686  28.287  26.373  1.00  0.00     0.135 A 
ATOM    106  F   UNL A   1      50.752  29.246  29.210  1.00  0.00    -0.206 F 
ATOM    107  C   UNL A   1      51.372  28.573  27.048  1.00  0.00     0.059 A 
ATOM    108  C   UNL A   1      49.663  27.994  25.425  1.00  0.00     0.059 A 
ATOM    109  F   UNL A   1      47.399  28.141  26.018  1.00  0.00    -0.206 F 
ATOM    110  C   UNL A   1      51.004  28.150  25.769  1.00  0.00     0.060 A 
BRANCH 110 111
ATOM    111  S   UNL A   1      52.302  27.770  24.572  1.00  0.00     0.124 S 
ATOM    112  O   UNL A   1      51.769  28.374  23.356  1.00  0.00    -0.237 OA
ATOM    113  O   UNL A   1      53.467  28.433  25.150  1.00  0.00    -0.237 OA
ATOM    114  O   UNL A   1      52.354  26.311  24.578  1.00  0.00    -0.744 OA
ENDBRANCH 110 111
ENDBRANCH  78 103
ENDBRANCH  52  53
ENDBRANCH  44  47
ENDBRANCH  42  43
ENDBRANCH  41  42
ENDBRANCH  40  41
ENDBRANCH  39  40
ENDBRANCH  38  39
ENDBRANCH   1  38
TORSDOF 23
ENDMDL
MODEL 3
REMARK VINA RESULT:      -9.8      4.858     10.433
REMARK SMILES Cn1c(SCC(=O)Nc2cccc(C(=O)NCCCCCCNC(=O)c3ccc(-c4c5nc(c(-c6c(F)cc(S(=O)(=O)[O-])cc6F)c6ccc([nH]6)c(-c6c(F)cc(S(=O)(=O)[O-])cc6F)c6nc(c(-c7c(F)cc(S(=O)(=O)[O-])cc7F)c7ccc4[nH]7)C=C6)C=C5)cc3)c2)nnc1[C@@H]1CCCN1C(=O)c1ccccc1Cl
REMARK SMILES IDX 17 1 16 2 14 3 15 4 13 6 9 7 10 8 92 9 11 10 12 11 8 12 6 13
REMARK SMILES IDX 7 14 5 16 4 17 3 18 1 19 2 20 95 21 93 22 94 23 96 24 97 25
REMARK SMILES IDX 100 26 98 27 99 28 101 29 102 30 103 31 104 32 108 33 105 34
REMARK SMILES IDX 107 35 109 36 106 37 18 38 19 39 20 40 21 41 22 42 23 43
REMARK SMILES IDX 24 44 25 46 26 47 27 48 91 49 28 50 90 51 29 52 30 53 31 54
REMARK SMILES IDX 84 55 32 56 89 57 83 58 85 59 33 60 88 61 82 62 81 63 34 65
REMARK SMILES IDX 68 66 47 67 67 68 48 69 51 70 66 71 86 72 49 73 50 74 65 76
REMARK SMILES IDX 87 77 52 78 35 79 36 80 45 81 37 82 38 83 44 84 46 85 39 86
REMARK SMILES IDX 40 87 41 88 42 89 43 90 69 91 70 92 79 93 71 94 72 95 78 96
REMARK SMILES IDX 80 97 73 98 74 99 75 100 76 101 77 102 53 103 54 104 63 105
REMARK SMILES IDX 55 106 56 107 62 108 64 109 57 110 58 111 59 112 60 113
REMARK SMILES IDX 61 114
REMARK H PARENT 16 5 8 15 23 45 85 64 51 75
REMARK Flexibility Score: inf
ROOT
ATOM      1  C   UNL A   1      42.030  20.534  26.196  1.00  0.00     0.116 C 
ENDROOT
BRANCH   1   2
ATOM      2  N   UNL A   1      40.650  20.991  26.171  1.00  0.00    -0.352 N 
ATOM      3  C   UNL A   1      39.983  22.142  26.498  1.00  0.00     0.251 C 
ATOM      4  O   UNL A   1      38.776  22.129  26.219  1.00  0.00    -0.269 OA
ATOM      5  H   UNL A   1      40.040  20.297  25.832  1.00  0.00     0.163 HD
BRANCH   3   6
ATOM      6  C   UNL A   1      40.531  23.393  27.137  1.00  0.00     0.041 A 
ATOM      7  C   UNL A   1      40.807  25.784  27.559  1.00  0.00     0.041 A 
ATOM      8  C   UNL A   1      41.923  25.544  28.357  1.00  0.00     0.026 A 
ATOM      9  C   UNL A   1      40.136  24.719  26.921  1.00  0.00     0.040 A 
ATOM     10  C   UNL A   1      42.326  24.241  28.598  1.00  0.00     0.003 A 
ATOM     11  C   UNL A   1      41.632  23.185  28.001  1.00  0.00     0.014 A 
BRANCH   7  12
ATOM     12  N   UNL A   1      40.495  27.124  27.310  1.00  0.00    -0.325 N 
ATOM     13  C   UNL A   1      39.602  27.941  27.941  1.00  0.00     0.234 C 
ATOM     14  O   UNL A   1      39.489  29.098  27.522  1.00  0.00    -0.274 OA
ATOM     15  H   UNL A   1      40.993  27.541  26.570  1.00  0.00     0.169 HD
BRANCH  13  16
ATOM     16  C   UNL A   1      38.912  27.517  29.212  1.00  0.00     0.178 C 
BRANCH  16  17
ATOM     17  S   UNL A   1      39.331  28.425  30.683  1.00  0.00    -0.076 SA
BRANCH  17  18
ATOM     18  C   UNL A   1      38.063  29.553  30.981  1.00  0.00     0.191 A 
ATOM     19  C   UNL A   1      38.677  31.672  29.750  1.00  0.00     0.154 C 
ATOM     20  N   UNL A   1      38.111  30.911  30.831  1.00  0.00    -0.307 N 
ATOM     21  C   UNL A   1      37.321  31.399  31.849  1.00  0.00     0.156 A 
ATOM     22  N   UNL A   1      37.057  29.255  31.765  1.00  0.00    -0.123 NA
ATOM     23  N   UNL A   1      36.585  30.409  32.314  1.00  0.00    -0.132 NA
BRANCH  21  24
ATOM     24  C   UNL A   1      37.247  32.787  32.353  1.00  0.00     0.154 C 
ATOM     25  C   UNL A   1      38.143  32.982  33.583  1.00  0.00     0.035 C 
ATOM     26  N   UNL A   1      35.924  33.254  32.763  1.00  0.00    -0.328 N 
ATOM     27  C   UNL A   1      37.512  34.158  34.301  1.00  0.00     0.024 C 
ATOM     28  C   UNL A   1      36.025  34.014  34.006  1.00  0.00     0.120 C 
BRANCH  26  29
ATOM     29  C   UNL A   1      34.699  33.278  32.106  1.00  0.00     0.255 C 
ATOM     30  O   UNL A   1      33.798  32.483  32.368  1.00  0.00    -0.269 OA
BRANCH  29  31
ATOM     31  C   UNL A   1      34.386  34.193  30.998  1.00  0.00     0.058 A 
ATOM     32  C   UNL A   1      33.705  35.384  31.271  1.00  0.00     0.015 A 
ATOM     33  C   UNL A   1      34.432  33.733  29.676  1.00  0.00     0.053 A 
ATOM     34  C   UNL A   1      33.179  36.153  30.224  1.00  0.00     0.001 A 
ATOM     35  C   UNL A   1      33.969  34.538  28.629  1.00  0.00     0.021 A 
ATOM     36  Cl  UNL A   1      34.941  32.135  29.262  1.00  0.00    -0.083 Cl
ATOM     37  C   UNL A   1      33.354  35.757  28.900  1.00  0.00     0.002 A 
ENDBRANCH  29  31
ENDBRANCH  26  29
ENDBRANCH  21  24
ENDBRANCH  17  18
ENDBRANCH  16  17
ENDBRANCH  13  16
ENDBRANCH   7  12
ENDBRANCH   3   6
ENDBRANCH   1   2
BRANCH   1  38
ATOM     38  C   UNL A   1      42.138  19.021  26.445  1.00  0.00     0.021 C 
BRANCH  38  39
ATOM     39  C   UNL A   1      43.495  18.355  26.156  1.00  0.00     0.002 C 
BRANCH  39  40
ATOM     40  C   UNL A   1      44.275  18.787  24.908  1.00  0.00     0.002 C 
BRANCH  40  41
ATOM     41  C   UNL A   1      45.607  19.517  25.104  1.00  0.00     0.021 C 
BRANCH  41  42
ATOM     42  C   UNL A   1      45.955  20.663  24.143  1.00  0.00     0.116 C 
BRANCH  42  43
ATOM     43  N   UNL A   1      44.792  21.490  23.831  1.00  0.00    -0.352 N 
ATOM     44  C   UNL A   1      44.294  22.660  24.361  1.00  0.00     0.251 C 
ATOM     45  H   UNL A   1      44.251  21.138  23.087  1.00  0.00     0.163 HD
ATOM     46  O   UNL A   1      43.160  23.000  24.022  1.00  0.00    -0.269 OA
BRANCH  44  47
ATOM     47  C   UNL A   1      45.039  23.535  25.314  1.00  0.00     0.039 A 
ATOM     48  C   UNL A   1      45.570  22.957  26.481  1.00  0.00     0.014 A 
ATOM     49  C   UNL A   1      45.141  24.914  25.162  1.00  0.00     0.014 A 
ATOM     50  C   UNL A   1      46.228  23.739  27.452  1.00  0.00     0.010 A 
ATOM     51  C   UNL A   1      45.839  25.683  26.115  1.00  0.00     0.010 A 
ATOM     52  C   UNL A   1      46.400  25.119  27.274  1.00  0.00    -0.014 A 
BRANCH  52  53
ATOM     53  C   UNL A   1      47.142  25.972  28.270  1.00  0.00     0.031 A 
ATOM     54  C   UNL A   1      48.585  26.367  28.042  1.00  0.00     0.074 A 
ATOM     55  C   UNL A   1      46.572  26.332  29.441  1.00  0.00     0.049 A 
ATOM     56  N   UNL A   1      49.415  26.988  28.848  1.00  0.00    -0.248 NA
ATOM     57  C   UNL A   1      49.179  25.998  26.749  1.00  0.00     0.031 C 
ATOM     58  C   UNL A   1      45.210  26.002  29.855  1.00  0.00     0.029 A 
ATOM     59  N   UNL A   1      47.087  27.006  30.529  1.00  0.00    -0.354 N 
ATOM     60  C   UNL A   1      50.625  27.074  28.167  1.00  0.00     0.074 A 
ATOM     61  C   UNL A   1      50.438  26.383  26.907  1.00  0.00     0.031 C 
ATOM     62  C   UNL A   1      45.015  26.413  31.117  1.00  0.00     0.029 A 
ATOM     63  C   UNL A   1      46.237  27.039  31.613  1.00  0.00     0.049 A 
ATOM     64  H   UNL A   1      47.979  27.424  30.531  1.00  0.00     0.167 HD
ATOM     65  C   UNL A   1      51.775  27.697  28.530  1.00  0.00     0.037 A 
ATOM     66  C   UNL A   1      46.406  27.489  32.873  1.00  0.00     0.037 A 
ATOM     67  C   UNL A   1      51.964  28.435  29.755  1.00  0.00     0.049 A 
ATOM     68  C   UNL A   1      47.686  28.172  33.266  1.00  0.00     0.074 A 
ATOM     69  C   UNL A   1      53.056  29.199  30.139  1.00  0.00     0.029 A 
ATOM     70  N   UNL A   1      51.053  28.498  30.797  1.00  0.00    -0.354 N 
ATOM     71  N   UNL A   1      48.780  28.332  32.566  1.00  0.00    -0.248 NA
ATOM     72  C   UNL A   1      47.741  28.767  34.611  1.00  0.00     0.031 C 
ATOM     73  C   UNL A   1      52.824  29.686  31.430  1.00  0.00     0.029 A 
ATOM     74  C   UNL A   1      51.569  29.262  31.834  1.00  0.00     0.049 A 
ATOM     75  H   UNL A   1      50.169  28.064  30.801  1.00  0.00     0.167 HD
ATOM     76  C   UNL A   1      49.638  29.080  33.365  1.00  0.00     0.074 A 
ATOM     77  C   UNL A   1      48.940  29.335  34.607  1.00  0.00     0.031 C 
ATOM     78  C   UNL A   1      50.886  29.525  33.077  1.00  0.00     0.037 A 
BRANCH  65  79
ATOM     79  C   UNL A   1      52.935  27.624  27.571  1.00  0.00     0.058 A 
ATOM     80  C   UNL A   1      53.067  28.526  26.502  1.00  0.00     0.135 A 
ATOM     81  C   UNL A   1      53.940  26.658  27.738  1.00  0.00     0.135 A 
ATOM     82  F   UNL A   1      52.135  29.469  26.295  1.00  0.00    -0.206 F 
ATOM     83  C   UNL A   1      54.124  28.437  25.601  1.00  0.00     0.059 A 
ATOM     84  C   UNL A   1      55.022  26.569  26.866  1.00  0.00     0.059 A 
ATOM     85  F   UNL A   1      53.873  25.779  28.751  1.00  0.00    -0.206 F 
ATOM     86  C   UNL A   1      55.091  27.448  25.786  1.00  0.00     0.060 A 
BRANCH  86  87
ATOM     87  S   UNL A   1      56.436  27.320  24.589  1.00  0.00     0.124 S 
ATOM     88  O   UNL A   1      57.392  26.495  25.318  1.00  0.00    -0.237 OA
ATOM     89  O   UNL A   1      55.786  26.681  23.450  1.00  0.00    -0.237 OA
ATOM     90  O   UNL A   1      56.837  28.709  24.381  1.00  0.00    -0.744 OA
ENDBRANCH  86  87
ENDBRANCH  65  79
BRANCH  66  91
ATOM     91  C   UNL A   1      45.302  27.330  33.858  1.00  0.00     0.058 A 
ATOM     92  C   UNL A   1      44.316  28.316  34.001  1.00  0.00     0.135 A 
ATOM     93  C   UNL A   1      45.189  26.169  34.638  1.00  0.00     0.135 A 
ATOM     94  F   UNL A   1      44.393  29.450  33.290  1.00  0.00    -0.206 F 
ATOM     95  C   UNL A   1      43.250  28.155  34.882  1.00  0.00     0.059 A 
ATOM     96  C   UNL A   1      44.120  25.976  35.510  1.00  0.00     0.059 A 
ATOM     97  F   UNL A   1      46.113  25.201  34.542  1.00  0.00    -0.206 F 
ATOM     98  C   UNL A   1      43.155  26.977  35.625  1.00  0.00     0.060 A 
BRANCH  98  99
ATOM     99  S   UNL A   1      41.724  26.751  36.704  1.00  0.00     0.124 S 
ATOM    100  O   UNL A   1      42.357  26.376  37.963  1.00  0.00    -0.237 OA
ATOM    101  O   UNL A   1      41.103  28.072  36.672  1.00  0.00    -0.237 OA
ATOM    102  O   UNL A   1      40.963  25.694  36.041  1.00  0.00    -0.744 OA
ENDBRANCH  98  99
ENDBRANCH  66  91
BRANCH  78 103
ATOM    103  C   UNL A   1      51.582  30.373  34.106  1.00  0.00     0.058 A 
ATOM    104  C   UNL A   1      51.414  31.766  34.157  1.00  0.00     0.135 A 
ATOM    105  C   UNL A   1      52.394  29.779  35.086  1.00  0.00     0.135 A 
ATOM    106  F   UNL A   1      50.655  32.387  33.241  1.00  0.00    -0.206 F 
ATOM    107  C   UNL A   1      52.037  32.540  35.132  1.00  0.00     0.059 A 
ATOM    108  C   UNL A   1      53.009  30.530  36.084  1.00  0.00     0.059 A 
ATOM    109  F   UNL A   1      52.586  28.450  35.090  1.00  0.00    -0.206 F 
ATOM    110  C   UNL A   1      52.833  31.913  36.093  1.00  0.00     0.060 A 
BRANCH 110 111
ATOM    111  S   UNL A   1      53.605  32.922  37.376  1.00  0.00     0.124 S 
ATOM    112  O   UNL A   1      52.512  33.812  37.750  1.00  0.00    -0.237 OA
ATOM    113  O   UNL A   1      53.981  31.926  38.376  1.00  0.00    -0.237 OA
ATOM    114  O   UNL A   1      54.723  33.556  36.683  1.00  0.00    -0.744 OA
ENDBRANCH 110 111
ENDBRANCH  78 103
ENDBRANCH  52  53
ENDBRANCH  44  47
ENDBRANCH  42  43
ENDBRANCH  41  42
ENDBRANCH  40  41
ENDBRANCH  39  40
ENDBRANCH  38  39
ENDBRANCH   1  38
TORSDOF 23
ENDMDL
