MODEL 1
REMARK VINA RESULT:     -11.6      0.000      0.000
REMARK SMILES CCC(CC)COc1cc2c(cc1Cl)C=C(C(=O)NCCCCCCNC(=O)c1ccc(-c3c4nc(c(-c5c(F)cc(S(=O)(=O)[O-])cc5F)c5ccc([nH]5)c(-c5c(F)cc(S(=O)(=O)[O-])cc5F)c5nc(c(-c6c(F)cc(S(=O)(=O)[O-])cc6F)c6ccc3[nH]6)C=C5)C=C4)cc1)[C@@H](C(F)(F)F)O2
REMARK SMILES IDX 22 1 21 2 20 3 19 4 17 5 18 6 16 8 8 9 9 10 13 11 10 12
REMARK SMILES IDX 12 13 14 14 11 15 100 16 15 17 95 18 7 19 6 20 3 21 2 22
REMARK SMILES IDX 1 23 4 24 5 25 96 26 97 27 98 28 99 29 23 30 24 31 25 32
REMARK SMILES IDX 26 33 27 34 28 36 29 37 30 38 94 39 31 40 93 41 32 42 33 43
REMARK SMILES IDX 34 44 87 45 35 46 92 47 86 48 88 49 36 50 91 51 85 52 84 53
REMARK SMILES IDX 37 55 71 56 50 57 70 58 51 59 54 60 69 61 89 62 52 63 53 64
REMARK SMILES IDX 68 66 90 67 55 68 38 69 39 70 48 71 40 72 41 73 47 74 49 75
REMARK SMILES IDX 42 76 43 77 44 78 45 79 46 80 72 81 73 82 82 83 74 84 75 85
REMARK SMILES IDX 81 86 83 87 76 88 77 89 78 90 79 91 80 92 56 93 57 94 66 95
REMARK SMILES IDX 58 96 59 97 65 98 67 99 60 100 61 101 62 102 63 103 64 104
REMARK H PARENT 19 7 26 35 88 54 54 65
REMARK Flexibility Score: inf
ROOT
ATOM      1  C   UNL A   1      32.062  30.293  26.843  1.00  0.00     0.002 C 
ENDROOT
BRANCH   1   2
ATOM      2  C   UNL A   1      31.371  30.463  25.487  1.00  0.00     0.021 C 
BRANCH   2   3
ATOM      3  C   UNL A   1      31.367  29.203  24.626  1.00  0.00     0.116 C 
BRANCH   3   4
ATOM      4  N   UNL A   1      32.578  29.105  23.833  1.00  0.00    -0.352 N 
ATOM      5  C   UNL A   1      33.444  28.128  23.480  1.00  0.00     0.251 C 
ATOM      6  O   UNL A   1      34.348  28.475  22.712  1.00  0.00    -0.270 OA
ATOM      7  H   UNL A   1      32.836  29.975  23.452  1.00  0.00     0.163 HD
BRANCH   5   8
ATOM      8  C   UNL A   1      33.388  26.720  23.957  1.00  0.00     0.067 C 
ATOM      9  C   UNL A   1      33.602  21.715  24.060  1.00  0.00     0.141 A 
ATOM     10  C   UNL A   1      34.083  22.709  24.911  1.00  0.00     0.095 A 
ATOM     11  C   UNL A   1      32.768  22.051  22.985  1.00  0.00     0.083 A 
ATOM     12  C   UNL A   1      33.836  24.039  24.596  1.00  0.00     0.131 A 
ATOM     13  C   UNL A   1      32.596  23.390  22.630  1.00  0.00     0.036 A 
ATOM     14  Cl  UNL A   1      32.008  20.844  22.013  1.00  0.00    -0.080 Cl
ATOM     15  C   UNL A   1      33.169  24.386  23.416  1.00  0.00     0.019 A 
ATOM     16  O   UNL A   1      34.300  24.990  25.465  1.00  0.00    -0.475 OA
ATOM     17  C   UNL A   1      33.149  25.789  23.014  1.00  0.00     0.025 C 
ATOM     18  C   UNL A   1      33.600  26.269  25.375  1.00  0.00     0.314 C 
BRANCH   9  19
ATOM     19  O   UNL A   1      33.965  20.411  24.271  1.00  0.00    -0.492 OA
BRANCH  19  20
ATOM     20  C   UNL A   1      32.980  19.685  25.044  1.00  0.00     0.233 C 
BRANCH  20  21
ATOM     21  C   UNL A   1      33.429  18.225  25.303  1.00  0.00     0.026 C 
BRANCH  21  22
ATOM     22  C   UNL A   1      32.227  17.254  25.375  1.00  0.00     0.003 C 
ATOM     23  C   UNL A   1      32.631  15.847  25.792  1.00  0.00     0.004 C 
ENDBRANCH  21  22
BRANCH  21  24
ATOM     24  C   UNL A   1      34.479  17.761  24.269  1.00  0.00     0.003 C 
ATOM     25  C   UNL A   1      33.917  17.206  22.968  1.00  0.00     0.004 C 
ENDBRANCH  21  24
ENDBRANCH  20  21
ENDBRANCH  19  20
ENDBRANCH   9  19
BRANCH  18  26
ATOM     26  C   UNL A   1      32.269  26.232  26.161  1.00  0.00     0.429 C 
ATOM     27  F   UNL A   1      31.211  26.318  25.322  1.00  0.00    -0.167 F 
ATOM     28  F   UNL A   1      32.125  25.074  26.852  1.00  0.00    -0.167 F 
ATOM     29  F   UNL A   1      32.159  27.233  27.062  1.00  0.00    -0.167 F 
ENDBRANCH  18  26
ENDBRANCH   5   8
ENDBRANCH   3   4
ENDBRANCH   2   3
ENDBRANCH   1   2
BRANCH   1  30
ATOM     30  C   UNL A   1      33.587  30.461  26.829  1.00  0.00     0.002 C 
BRANCH  30  31
ATOM     31  C   UNL A   1      34.374  29.424  27.633  1.00  0.00     0.021 C 
BRANCH  31  32
ATOM     32  C   UNL A   1      35.657  29.943  28.273  1.00  0.00     0.116 C 
BRANCH  32  33
ATOM     33  N   UNL A   1      35.518  30.157  29.704  1.00  0.00    -0.352 N 
ATOM     34  C   UNL A   1      36.483  30.112  30.684  1.00  0.00     0.251 C 
ATOM     35  H   UNL A   1      34.607  30.365  30.016  1.00  0.00     0.163 HD
ATOM     36  O   UNL A   1      36.166  30.170  31.865  1.00  0.00    -0.269 OA
BRANCH  34  37
ATOM     37  C   UNL A   1      37.901  29.956  30.295  1.00  0.00     0.039 A 
ATOM     38  C   UNL A   1      38.349  30.405  29.050  1.00  0.00     0.014 A 
ATOM     39  C   UNL A   1      38.779  29.316  31.173  1.00  0.00     0.014 A 
ATOM     40  C   UNL A   1      39.630  30.074  28.621  1.00  0.00     0.010 A 
ATOM     41  C   UNL A   1      40.089  29.050  30.767  1.00  0.00     0.010 A 
ATOM     42  C   UNL A   1      40.510  29.382  29.469  1.00  0.00    -0.014 A 
BRANCH  42  43
ATOM     43  C   UNL A   1      41.853  28.982  28.974  1.00  0.00     0.031 A 
ATOM     44  C   UNL A   1      42.994  29.964  28.993  1.00  0.00     0.074 A 
ATOM     45  C   UNL A   1      42.055  27.720  28.548  1.00  0.00     0.049 A 
ATOM     46  N   UNL A   1      44.222  29.811  28.568  1.00  0.00    -0.248 NA
ATOM     47  C   UNL A   1      42.722  31.294  29.564  1.00  0.00     0.031 C 
ATOM     48  C   UNL A   1      41.035  26.671  28.507  1.00  0.00     0.029 A 
ATOM     49  N   UNL A   1      43.188  27.101  28.086  1.00  0.00    -0.354 N 
ATOM     50  C   UNL A   1      44.862  31.024  28.800  1.00  0.00     0.074 A 
ATOM     51  C   UNL A   1      43.881  31.913  29.381  1.00  0.00     0.031 C 
ATOM     52  C   UNL A   1      41.598  25.528  28.084  1.00  0.00     0.029 A 
ATOM     53  C   UNL A   1      42.999  25.778  27.765  1.00  0.00     0.049 A 
ATOM     54  H   UNL A   1      44.055  27.560  27.993  1.00  0.00     0.167 HD
ATOM     55  C   UNL A   1      46.153  31.359  28.563  1.00  0.00     0.037 A 
ATOM     56  C   UNL A   1      43.853  24.871  27.250  1.00  0.00     0.037 A 
ATOM     57  C   UNL A   1      47.133  30.462  28.007  1.00  0.00     0.049 A 
ATOM     58  C   UNL A   1      45.264  25.285  26.944  1.00  0.00     0.074 A 
ATOM     59  C   UNL A   1      48.470  30.704  27.741  1.00  0.00     0.029 A 
ATOM     60  N   UNL A   1      46.886  29.148  27.638  1.00  0.00    -0.354 N 
ATOM     61  N   UNL A   1      45.845  26.442  27.150  1.00  0.00    -0.248 NA
ATOM     62  C   UNL A   1      46.130  24.276  26.321  1.00  0.00     0.031 C 
ATOM     63  C   UNL A   1      49.021  29.548  27.177  1.00  0.00     0.029 A 
ATOM     64  C   UNL A   1      48.039  28.573  27.129  1.00  0.00     0.049 A 
ATOM     65  H   UNL A   1      46.018  28.690  27.724  1.00  0.00     0.167 HD
ATOM     66  C   UNL A   1      47.147  26.300  26.684  1.00  0.00     0.074 A 
ATOM     67  C   UNL A   1      47.274  24.938  26.209  1.00  0.00     0.031 C 
ATOM     68  C   UNL A   1      48.144  27.218  26.648  1.00  0.00     0.037 A 
BRANCH  55  69
ATOM     69  C   UNL A   1      46.585  32.761  28.893  1.00  0.00     0.058 A 
ATOM     70  C   UNL A   1      46.494  33.800  27.952  1.00  0.00     0.135 A 
ATOM     71  C   UNL A   1      47.048  33.082  30.179  1.00  0.00     0.135 A 
ATOM     72  F   UNL A   1      46.076  33.544  26.702  1.00  0.00    -0.206 F 
ATOM     73  C   UNL A   1      46.864  35.103  28.269  1.00  0.00     0.059 A 
ATOM     74  C   UNL A   1      47.403  34.383  30.526  1.00  0.00     0.059 A 
ATOM     75  F   UNL A   1      47.156  32.127  31.116  1.00  0.00    -0.206 F 
ATOM     76  C   UNL A   1      47.316  35.385  29.560  1.00  0.00     0.060 A 
BRANCH  76  77
ATOM     77  S   UNL A   1      47.783  37.084  29.955  1.00  0.00     0.124 S 
ATOM     78  O   UNL A   1      48.960  37.265  29.112  1.00  0.00    -0.237 OA
ATOM     79  O   UNL A   1      46.597  37.833  29.557  1.00  0.00    -0.237 OA
ATOM     80  O   UNL A   1      48.042  37.041  31.391  1.00  0.00    -0.744 OA
ENDBRANCH  76  77
ENDBRANCH  55  69
BRANCH  56  81
ATOM     81  C   UNL A   1      43.383  23.488  26.983  1.00  0.00     0.058 A 
ATOM     82  C   UNL A   1      43.114  23.059  25.675  1.00  0.00     0.135 A 
ATOM     83  C   UNL A   1      43.225  22.559  28.024  1.00  0.00     0.135 A 
ATOM     84  F   UNL A   1      43.242  23.914  24.650  1.00  0.00    -0.206 F 
ATOM     85  C   UNL A   1      42.704  21.757  25.408  1.00  0.00     0.059 A 
ATOM     86  C   UNL A   1      42.840  21.245  27.778  1.00  0.00     0.059 A 
ATOM     87  F   UNL A   1      43.481  22.918  29.292  1.00  0.00    -0.206 F 
ATOM     88  C   UNL A   1      42.577  20.856  26.466  1.00  0.00     0.060 A 
BRANCH  88  89
ATOM     89  S   UNL A   1      42.113  19.150  26.098  1.00  0.00     0.124 S 
ATOM     90  O   UNL A   1      42.987  18.845  24.971  1.00  0.00    -0.237 OA
ATOM     91  O   UNL A   1      42.426  18.470  27.351  1.00  0.00    -0.237 OA
ATOM     92  O   UNL A   1      40.690  19.248  25.787  1.00  0.00    -0.744 OA
ENDBRANCH  88  89
ENDBRANCH  56  81
BRANCH  68  93
ATOM     93  C   UNL A   1      49.460  26.779  26.072  1.00  0.00     0.058 A 
ATOM     94  C   UNL A   1      49.820  27.092  24.752  1.00  0.00     0.135 A 
ATOM     95  C   UNL A   1      50.389  26.081  26.858  1.00  0.00     0.135 A 
ATOM     96  F   UNL A   1      48.962  27.751  23.957  1.00  0.00    -0.206 F 
ATOM     97  C   UNL A   1      51.049  26.711  24.225  1.00  0.00     0.059 A 
ATOM     98  C   UNL A   1      51.635  25.710  26.360  1.00  0.00     0.059 A 
ATOM     99  F   UNL A   1      50.097  25.765  28.130  1.00  0.00    -0.206 F 
ATOM    100  C   UNL A   1      51.950  26.022  25.038  1.00  0.00     0.060 A 
BRANCH 100 101
ATOM    101  S   UNL A   1      53.555  25.561  24.349  1.00  0.00     0.124 S 
ATOM    102  O   UNL A   1      53.635  24.150  24.711  1.00  0.00    -0.237 OA
ATOM    103  O   UNL A   1      53.376  25.842  22.928  1.00  0.00    -0.237 OA
ATOM    104  O   UNL A   1      54.489  26.442  25.044  1.00  0.00    -0.744 OA
ENDBRANCH 100 101
ENDBRANCH  68  93
ENDBRANCH  42  43
ENDBRANCH  34  37
ENDBRANCH  32  33
ENDBRANCH  31  32
ENDBRANCH  30  31
ENDBRANCH   1  30
TORSDOF 22
ENDMDL
MODEL 2
REMARK VINA RESULT:     -10.3      4.939      9.186
REMARK SMILES CCC(CC)COc1cc2c(cc1Cl)C=C(C(=O)NCCCCCCNC(=O)c1ccc(-c3c4nc(c(-c5c(F)cc(S(=O)(=O)[O-])cc5F)c5ccc([nH]5)c(-c5c(F)cc(S(=O)(=O)[O-])cc5F)c5nc(c(-c6c(F)cc(S(=O)(=O)[O-])cc6F)c6ccc3[nH]6)C=C5)C=C4)cc1)[C@@H](C(F)(F)F)O2
REMARK SMILES IDX 22 1 21 2 20 3 19 4 17 5 18 6 16 8 8 9 9 10 13 11 10 12
REMARK SMILES IDX 12 13 14 14 11 15 100 16 15 17 95 18 7 19 6 20 3 21 2 22
REMARK SMILES IDX 1 23 4 24 5 25 96 26 97 27 98 28 99 29 23 30 24 31 25 32
REMARK SMILES IDX 26 33 27 34 28 36 29 37 30 38 94 39 31 40 93 41 32 42 33 43
REMARK SMILES IDX 34 44 87 45 35 46 92 47 86 48 88 49 36 50 91 51 85 52 84 53
REMARK SMILES IDX 37 55 71 56 50 57 70 58 51 59 54 60 69 61 89 62 52 63 53 64
REMARK SMILES IDX 68 66 90 67 55 68 38 69 39 70 48 71 40 72 41 73 47 74 49 75
REMARK SMILES IDX 42 76 43 77 44 78 45 79 46 80 72 81 73 82 82 83 74 84 75 85
REMARK SMILES IDX 81 86 83 87 76 88 77 89 78 90 79 91 80 92 56 93 57 94 66 95
REMARK SMILES IDX 58 96 59 97 65 98 67 99 60 100 61 101 62 102 63 103 64 104
REMARK H PARENT 19 7 26 35 88 54 54 65
REMARK Flexibility Score: inf
ROOT
ATOM      1  C   UNL A   1      31.125  29.210  24.058  1.00  0.00     0.002 C 
ENDROOT
BRANCH   1   2
ATOM      2  C   UNL A   1      30.593  28.852  22.668  1.00  0.00     0.021 C 
BRANCH   2   3
ATOM      3  C   UNL A   1      30.671  27.365  22.333  1.00  0.00     0.116 C 
BRANCH   3   4
ATOM      4  N   UNL A   1      32.010  26.990  21.918  1.00  0.00    -0.352 N 
ATOM      5  C   UNL A   1      32.850  25.953  22.135  1.00  0.00     0.251 C 
ATOM      6  O   UNL A   1      33.919  26.001  21.516  1.00  0.00    -0.270 OA
ATOM      7  H   UNL A   1      32.410  27.665  21.323  1.00  0.00     0.163 HD
BRANCH   5   8
ATOM      8  C   UNL A   1      32.585  24.812  23.051  1.00  0.00     0.067 C 
ATOM      9  C   UNL A   1      32.607  20.231  25.083  1.00  0.00     0.141 A 
ATOM     10  C   UNL A   1      32.771  21.511  25.611  1.00  0.00     0.095 A 
ATOM     11  C   UNL A   1      32.232  20.065  23.742  1.00  0.00     0.083 A 
ATOM     12  C   UNL A   1      32.693  22.604  24.758  1.00  0.00     0.131 A 
ATOM     13  C   UNL A   1      32.240  21.160  22.877  1.00  0.00     0.036 A 
ATOM     14  Cl  UNL A   1      31.847  18.513  23.093  1.00  0.00    -0.080 Cl
ATOM     15  C   UNL A   1      32.514  22.430  23.381  1.00  0.00     0.019 A 
ATOM     16  O   UNL A   1      32.834  23.849  25.311  1.00  0.00    -0.475 OA
ATOM     17  C   UNL A   1      32.681  23.584  22.504  1.00  0.00     0.025 C 
ATOM     18  C   UNL A   1      32.251  24.923  24.512  1.00  0.00     0.314 C 
BRANCH   9  19
ATOM     19  O   UNL A   1      32.830  19.139  25.878  1.00  0.00    -0.492 OA
BRANCH  19  20
ATOM     20  C   UNL A   1      32.671  17.893  25.157  1.00  0.00     0.233 C 
BRANCH  20  21
ATOM     21  C   UNL A   1      33.918  16.987  25.315  1.00  0.00     0.026 C 
BRANCH  21  22
ATOM     22  C   UNL A   1      33.534  15.495  25.456  1.00  0.00     0.003 C 
ATOM     23  C   UNL A   1      32.059  15.293  25.772  1.00  0.00     0.004 C 
ENDBRANCH  21  22
BRANCH  21  24
ATOM     24  C   UNL A   1      34.933  17.211  24.173  1.00  0.00     0.003 C 
ATOM     25  C   UNL A   1      34.525  16.659  22.814  1.00  0.00     0.004 C 
ENDBRANCH  21  24
ENDBRANCH  20  21
ENDBRANCH  19  20
ENDBRANCH   9  19
BRANCH  18  26
ATOM     26  C   UNL A   1      30.724  25.021  24.737  1.00  0.00     0.429 C 
ATOM     27  F   UNL A   1      30.324  24.154  25.697  1.00  0.00    -0.167 F 
ATOM     28  F   UNL A   1      30.355  26.258  25.152  1.00  0.00    -0.167 F 
ATOM     29  F   UNL A   1      30.007  24.758  23.622  1.00  0.00    -0.167 F 
ENDBRANCH  18  26
ENDBRANCH   5   8
ENDBRANCH   3   4
ENDBRANCH   2   3
ENDBRANCH   1   2
BRANCH   1  30
ATOM     30  C   UNL A   1      32.562  28.759  24.348  1.00  0.00     0.002 C 
BRANCH  30  31
ATOM     31  C   UNL A   1      32.855  28.373  25.800  1.00  0.00     0.021 C 
BRANCH  31  32
ATOM     32  C   UNL A   1      34.109  29.003  26.393  1.00  0.00     0.116 C 
BRANCH  32  33
ATOM     33  N   UNL A   1      33.896  30.376  26.819  1.00  0.00    -0.352 N 
ATOM     34  C   UNL A   1      34.620  31.127  27.716  1.00  0.00     0.251 C 
ATOM     35  H   UNL A   1      33.126  30.833  26.409  1.00  0.00     0.163 HD
ATOM     36  O   UNL A   1      34.212  32.225  28.073  1.00  0.00    -0.269 OA
BRANCH  34  37
ATOM     37  C   UNL A   1      35.878  30.578  28.269  1.00  0.00     0.039 A 
ATOM     38  C   UNL A   1      35.848  29.583  29.249  1.00  0.00     0.014 A 
ATOM     39  C   UNL A   1      37.096  31.097  27.826  1.00  0.00     0.014 A 
ATOM     40  C   UNL A   1      37.024  29.222  29.897  1.00  0.00     0.010 A 
ATOM     41  C   UNL A   1      38.285  30.677  28.429  1.00  0.00     0.010 A 
ATOM     42  C   UNL A   1      38.254  29.774  29.505  1.00  0.00    -0.014 A 
BRANCH  42  43
ATOM     43  C   UNL A   1      39.492  29.425  30.247  1.00  0.00     0.031 A 
ATOM     44  C   UNL A   1      40.415  28.355  29.726  1.00  0.00     0.074 A 
ATOM     45  C   UNL A   1      39.808  30.103  31.368  1.00  0.00     0.049 A 
ATOM     46  N   UNL A   1      41.517  27.886  30.255  1.00  0.00    -0.248 NA
ATOM     47  C   UNL A   1      40.054  27.727  28.445  1.00  0.00     0.031 C 
ATOM     48  C   UNL A   1      39.009  31.178  31.956  1.00  0.00     0.029 A 
ATOM     49  N   UNL A   1      40.893  30.000  32.201  1.00  0.00    -0.354 N 
ATOM     50  C   UNL A   1      41.969  26.900  29.385  1.00  0.00     0.074 A 
ATOM     51  C   UNL A   1      41.010  26.817  28.306  1.00  0.00     0.031 C 
ATOM     52  C   UNL A   1      39.649  31.664  33.031  1.00  0.00     0.029 A 
ATOM     53  C   UNL A   1      40.870  30.894  33.244  1.00  0.00     0.049 A 
ATOM     54  H   UNL A   1      41.619  29.349  32.065  1.00  0.00     0.167 HD
ATOM     55  C   UNL A   1      43.089  26.142  29.473  1.00  0.00     0.037 A 
ATOM     56  C   UNL A   1      41.726  31.063  34.271  1.00  0.00     0.037 A 
ATOM     57  C   UNL A   1      44.054  26.245  30.537  1.00  0.00     0.049 A 
ATOM     58  C   UNL A   1      42.931  30.173  34.375  1.00  0.00     0.074 A 
ATOM     59  C   UNL A   1      45.228  25.530  30.707  1.00  0.00     0.029 A 
ATOM     60  N   UNL A   1      43.963  27.122  31.608  1.00  0.00    -0.354 N 
ATOM     61  N   UNL A   1      43.331  29.231  33.555  1.00  0.00    -0.248 NA
ATOM     62  C   UNL A   1      43.791  30.355  35.552  1.00  0.00     0.031 C 
ATOM     63  C   UNL A   1      45.827  25.949  31.901  1.00  0.00     0.029 A 
ATOM     64  C   UNL A   1      45.048  26.953  32.453  1.00  0.00     0.049 A 
ATOM     65  H   UNL A   1      43.234  27.769  31.748  1.00  0.00     0.167 HD
ATOM     66  C   UNL A   1      44.491  28.710  34.115  1.00  0.00     0.074 A 
ATOM     67  C   UNL A   1      44.742  29.458  35.330  1.00  0.00     0.031 C 
ATOM     68  C   UNL A   1      45.274  27.699  33.666  1.00  0.00     0.037 A 
BRANCH  55  69
ATOM     69  C   UNL A   1      43.332  25.123  28.394  1.00  0.00     0.058 A 
ATOM     70  C   UNL A   1      42.876  23.801  28.514  1.00  0.00     0.135 A 
ATOM     71  C   UNL A   1      43.984  25.484  27.204  1.00  0.00     0.135 A 
ATOM     72  F   UNL A   1      42.262  23.398  29.639  1.00  0.00    -0.206 F 
ATOM     73  C   UNL A   1      43.073  22.868  27.501  1.00  0.00     0.059 A 
ATOM     74  C   UNL A   1      44.174  24.574  26.168  1.00  0.00     0.059 A 
ATOM     75  F   UNL A   1      44.444  26.735  27.038  1.00  0.00    -0.206 F 
ATOM     76  C   UNL A   1      43.723  23.265  26.331  1.00  0.00     0.060 A 
BRANCH  76  77
ATOM     77  S   UNL A   1      43.962  22.042  25.023  1.00  0.00     0.124 S 
ATOM     78  O   UNL A   1      43.201  20.910  25.542  1.00  0.00    -0.237 OA
ATOM     79  O   UNL A   1      43.388  22.713  23.862  1.00  0.00    -0.237 OA
ATOM     80  O   UNL A   1      45.410  21.860  24.987  1.00  0.00    -0.744 OA
ENDBRANCH  76  77
ENDBRANCH  55  69
BRANCH  56  81
ATOM     81  C   UNL A   1      41.458  32.114  35.287  1.00  0.00     0.058 A 
ATOM     82  C   UNL A   1      40.511  31.911  36.301  1.00  0.00     0.135 A 
ATOM     83  C   UNL A   1      42.165  33.328  35.282  1.00  0.00     0.135 A 
ATOM     84  F   UNL A   1      39.804  30.771  36.339  1.00  0.00    -0.206 F 
ATOM     85  C   UNL A   1      40.273  32.874  37.276  1.00  0.00     0.059 A 
ATOM     86  C   UNL A   1      41.962  34.294  36.261  1.00  0.00     0.059 A 
ATOM     87  F   UNL A   1      43.089  33.565  34.339  1.00  0.00    -0.206 F 
ATOM     88  C   UNL A   1      41.009  34.059  37.251  1.00  0.00     0.060 A 
BRANCH  88  89
ATOM     89  S   UNL A   1      40.742  35.270  38.564  1.00  0.00     0.124 S 
ATOM     90  O   UNL A   1      39.526  34.763  39.188  1.00  0.00    -0.237 OA
ATOM     91  O   UNL A   1      41.964  35.144  39.351  1.00  0.00    -0.237 OA
ATOM     92  O   UNL A   1      40.602  36.529  37.836  1.00  0.00    -0.744 OA
ENDBRANCH  88  89
ENDBRANCH  56  81
BRANCH  68  93
ATOM     93  C   UNL A   1      46.476  27.341  34.494  1.00  0.00     0.058 A 
ATOM     94  C   UNL A   1      47.715  27.967  34.292  1.00  0.00     0.135 A 
ATOM     95  C   UNL A   1      46.376  26.396  35.528  1.00  0.00     0.135 A 
ATOM     96  F   UNL A   1      47.862  28.871  33.311  1.00  0.00    -0.206 F 
ATOM     97  C   UNL A   1      48.821  27.657  35.076  1.00  0.00     0.059 A 
ATOM     98  C   UNL A   1      47.464  26.087  36.340  1.00  0.00     0.059 A 
ATOM     99  F   UNL A   1      45.211  25.775  35.767  1.00  0.00    -0.206 F 
ATOM    100  C   UNL A   1      48.684  26.717  36.098  1.00  0.00     0.060 A 
BRANCH 100 101
ATOM    101  S   UNL A   1      50.122  26.346  37.127  1.00  0.00     0.124 S 
ATOM    102  O   UNL A   1      51.102  27.298  36.616  1.00  0.00    -0.237 OA
ATOM    103  O   UNL A   1      49.620  26.614  38.472  1.00  0.00    -0.237 OA
ATOM    104  O   UNL A   1      50.397  24.943  36.834  1.00  0.00    -0.744 OA
ENDBRANCH 100 101
ENDBRANCH  68  93
ENDBRANCH  42  43
ENDBRANCH  34  37
ENDBRANCH  32  33
ENDBRANCH  31  32
ENDBRANCH  30  31
ENDBRANCH   1  30
TORSDOF 22
ENDMDL
MODEL 3
REMARK VINA RESULT:     -10.2      4.666      6.411
REMARK SMILES CCC(CC)COc1cc2c(cc1Cl)C=C(C(=O)NCCCCCCNC(=O)c1ccc(-c3c4nc(c(-c5c(F)cc(S(=O)(=O)[O-])cc5F)c5ccc([nH]5)c(-c5c(F)cc(S(=O)(=O)[O-])cc5F)c5nc(c(-c6c(F)cc(S(=O)(=O)[O-])cc6F)c6ccc3[nH]6)C=C5)C=C4)cc1)[C@@H](C(F)(F)F)O2
REMARK SMILES IDX 22 1 21 2 20 3 19 4 17 5 18 6 16 8 8 9 9 10 13 11 10 12
REMARK SMILES IDX 12 13 14 14 11 15 100 16 15 17 95 18 7 19 6 20 3 21 2 22
REMARK SMILES IDX 1 23 4 24 5 25 96 26 97 27 98 28 99 29 23 30 24 31 25 32
REMARK SMILES IDX 26 33 27 34 28 36 29 37 30 38 94 39 31 40 93 41 32 42 33 43
REMARK SMILES IDX 34 44 87 45 35 46 92 47 86 48 88 49 36 50 91 51 85 52 84 53
REMARK SMILES IDX 37 55 71 56 50 57 70 58 51 59 54 60 69 61 89 62 52 63 53 64
REMARK SMILES IDX 68 66 90 67 55 68 38 69 39 70 48 71 40 72 41 73 47 74 49 75
REMARK SMILES IDX 42 76 43 77 44 78 45 79 46 80 72 81 73 82 82 83 74 84 75 85
REMARK SMILES IDX 81 86 83 87 76 88 77 89 78 90 79 91 80 92 56 93 57 94 66 95
REMARK SMILES IDX 58 96 59 97 65 98 67 99 60 100 61 101 62 102 63 103 64 104
REMARK H PARENT 19 7 26 35 88 54 54 65
REMARK Flexibility Score: inf
ROOT
ATOM      1  C   UNL A   1      31.517  28.247  24.393  1.00  0.00     0.002 C 
ENDROOT
BRANCH   1   2
ATOM      2  C   UNL A   1      30.264  27.422  24.088  1.00  0.00     0.021 C 
BRANCH   2   3
ATOM      3  C   UNL A   1      30.201  26.088  24.826  1.00  0.00     0.116 C 
BRANCH   3   4
ATOM      4  N   UNL A   1      30.101  24.978  23.896  1.00  0.00    -0.352 N 
ATOM      5  C   UNL A   1      30.781  23.833  23.658  1.00  0.00     0.251 C 
ATOM      6  O   UNL A   1      30.307  23.111  22.775  1.00  0.00    -0.270 OA
ATOM      7  H   UNL A   1      29.342  25.085  23.279  1.00  0.00     0.163 HD
BRANCH   5   8
ATOM      8  C   UNL A   1      32.026  23.415  24.356  1.00  0.00     0.067 C 
ATOM      9  C   UNL A   1      36.442  21.257  25.335  1.00  0.00     0.141 A 
ATOM     10  C   UNL A   1      35.942  22.543  25.534  1.00  0.00     0.095 A 
ATOM     11  C   UNL A   1      35.594  20.234  24.888  1.00  0.00     0.083 A 
ATOM     12  C   UNL A   1      34.635  22.822  25.155  1.00  0.00     0.131 A 
ATOM     13  C   UNL A   1      34.312  20.543  24.431  1.00  0.00     0.036 A 
ATOM     14  Cl  UNL A   1      36.122  18.593  24.795  1.00  0.00    -0.080 Cl
ATOM     15  C   UNL A   1      33.848  21.852  24.526  1.00  0.00     0.019 A 
ATOM     16  O   UNL A   1      34.167  24.088  25.387  1.00  0.00    -0.475 OA
ATOM     17  C   UNL A   1      32.579  22.262  23.932  1.00  0.00     0.025 C 
ATOM     18  C   UNL A   1      32.711  24.178  25.455  1.00  0.00     0.314 C 
BRANCH   9  19
ATOM     19  O   UNL A   1      37.769  21.005  25.561  1.00  0.00    -0.492 OA
BRANCH  19  20
ATOM     20  C   UNL A   1      38.494  22.192  25.960  1.00  0.00     0.233 C 
BRANCH  20  21
ATOM     21  C   UNL A   1      40.017  21.923  26.040  1.00  0.00     0.026 C 
BRANCH  21  22
ATOM     22  C   UNL A   1      40.781  23.105  26.682  1.00  0.00     0.003 C 
ATOM     23  C   UNL A   1      39.879  24.010  27.509  1.00  0.00     0.004 C 
ENDBRANCH  21  22
BRANCH  21  24
ATOM     24  C   UNL A   1      40.323  20.588  26.755  1.00  0.00     0.003 C 
ATOM     25  C   UNL A   1      41.643  20.538  27.513  1.00  0.00     0.004 C 
ENDBRANCH  21  24
ENDBRANCH  20  21
ENDBRANCH  19  20
ENDBRANCH   9  19
BRANCH  18  26
ATOM     26  C   UNL A   1      32.190  23.754  26.848  1.00  0.00     0.429 C 
ATOM     27  F   UNL A   1      31.783  24.832  27.558  1.00  0.00    -0.167 F 
ATOM     28  F   UNL A   1      31.122  22.923  26.754  1.00  0.00    -0.167 F 
ATOM     29  F   UNL A   1      33.119  23.105  27.584  1.00  0.00    -0.167 F 
ENDBRANCH  18  26
ENDBRANCH   5   8
ENDBRANCH   3   4
ENDBRANCH   2   3
ENDBRANCH   1   2
BRANCH   1  30
ATOM     30  C   UNL A   1      32.699  27.459  24.973  1.00  0.00     0.002 C 
BRANCH  30  31
ATOM     31  C   UNL A   1      32.997  27.705  26.453  1.00  0.00     0.021 C 
BRANCH  31  32
ATOM     32  C   UNL A   1      34.248  28.530  26.730  1.00  0.00     0.116 C 
BRANCH  32  33
ATOM     33  N   UNL A   1      33.941  29.884  27.158  1.00  0.00    -0.352 N 
ATOM     34  C   UNL A   1      34.659  30.714  27.988  1.00  0.00     0.251 C 
ATOM     35  H   UNL A   1      33.102  30.261  26.805  1.00  0.00     0.163 HD
ATOM     36  O   UNL A   1      34.178  31.775  28.366  1.00  0.00    -0.269 OA
BRANCH  34  37
ATOM     37  C   UNL A   1      36.000  30.293  28.446  1.00  0.00     0.039 A 
ATOM     38  C   UNL A   1      36.142  29.456  29.555  1.00  0.00     0.014 A 
ATOM     39  C   UNL A   1      37.127  30.777  27.778  1.00  0.00     0.014 A 
ATOM     40  C   UNL A   1      37.406  29.232  30.091  1.00  0.00     0.010 A 
ATOM     41  C   UNL A   1      38.401  30.490  28.275  1.00  0.00     0.010 A 
ATOM     42  C   UNL A   1      38.549  29.757  29.465  1.00  0.00    -0.014 A 
BRANCH  42  43
ATOM     43  C   UNL A   1      39.886  29.562  30.083  1.00  0.00     0.031 A 
ATOM     44  C   UNL A   1      40.268  30.322  31.326  1.00  0.00     0.074 A 
ATOM     45  C   UNL A   1      40.739  28.666  29.549  1.00  0.00     0.049 A 
ATOM     46  N   UNL A   1      41.400  30.313  31.982  1.00  0.00    -0.248 NA
ATOM     47  C   UNL A   1      39.247  31.208  31.907  1.00  0.00     0.031 C 
ATOM     48  C   UNL A   1      40.473  27.850  28.363  1.00  0.00     0.029 A 
ATOM     49  N   UNL A   1      41.995  28.280  29.943  1.00  0.00    -0.354 N 
ATOM     50  C   UNL A   1      41.236  31.203  33.039  1.00  0.00     0.074 A 
ATOM     51  C   UNL A   1      39.904  31.754  32.923  1.00  0.00     0.031 C 
ATOM     52  C   UNL A   1      41.515  27.032  28.150  1.00  0.00     0.029 A 
ATOM     53  C   UNL A   1      42.547  27.308  29.144  1.00  0.00     0.049 A 
ATOM     54  H   UNL A   1      42.457  28.662  30.725  1.00  0.00     0.167 HD
ATOM     55  C   UNL A   1      42.112  31.520  34.023  1.00  0.00     0.037 A 
ATOM     56  C   UNL A   1      43.758  26.718  29.192  1.00  0.00     0.037 A 
ATOM     57  C   UNL A   1      43.428  30.950  34.148  1.00  0.00     0.049 A 
ATOM     58  C   UNL A   1      44.731  27.129  30.260  1.00  0.00     0.074 A 
ATOM     59  C   UNL A   1      44.385  31.197  35.118  1.00  0.00     0.029 A 
ATOM     60  N   UNL A   1      43.973  30.013  33.282  1.00  0.00    -0.354 N 
ATOM     61  N   UNL A   1      44.566  27.987  31.237  1.00  0.00    -0.248 NA
ATOM     62  C   UNL A   1      46.059  26.504  30.221  1.00  0.00     0.031 C 
ATOM     63  C   UNL A   1      45.521  30.438  34.817  1.00  0.00     0.029 A 
ATOM     64  C   UNL A   1      45.258  29.687  33.684  1.00  0.00     0.049 A 
ATOM     65  H   UNL A   1      43.513  29.636  32.497  1.00  0.00     0.167 HD
ATOM     66  C   UNL A   1      45.769  28.004  31.932  1.00  0.00     0.074 A 
ATOM     67  C   UNL A   1      46.643  27.051  31.279  1.00  0.00     0.031 C 
ATOM     68  C   UNL A   1      46.119  28.745  33.012  1.00  0.00     0.037 A 
BRANCH  55  69
ATOM     69  C   UNL A   1      41.682  32.539  35.041  1.00  0.00     0.058 A 
ATOM     70  C   UNL A   1      41.061  32.162  36.244  1.00  0.00     0.135 A 
ATOM     71  C   UNL A   1      41.937  33.904  34.837  1.00  0.00     0.135 A 
ATOM     72  F   UNL A   1      40.778  30.871  36.481  1.00  0.00    -0.206 F 
ATOM     73  C   UNL A   1      40.694  33.104  37.199  1.00  0.00     0.059 A 
ATOM     74  C   UNL A   1      41.598  34.863  35.788  1.00  0.00     0.059 A 
ATOM     75  F   UNL A   1      42.525  34.320  33.704  1.00  0.00    -0.206 F 
ATOM     76  C   UNL A   1      40.967  34.453  36.962  1.00  0.00     0.060 A 
BRANCH  76  77
ATOM     77  S   UNL A   1      40.490  35.661  38.218  1.00  0.00     0.124 S 
ATOM     78  O   UNL A   1      39.542  34.890  39.016  1.00  0.00    -0.237 OA
ATOM     79  O   UNL A   1      41.764  35.959  38.861  1.00  0.00    -0.237 OA
ATOM     80  O   UNL A   1      39.912  36.752  37.439  1.00  0.00    -0.744 OA
ENDBRANCH  76  77
ENDBRANCH  55  69
BRANCH  56  81
ATOM     81  C   UNL A   1      44.113  25.687  28.184  1.00  0.00     0.058 A 
ATOM     82  C   UNL A   1      43.824  24.333  28.406  1.00  0.00     0.135 A 
ATOM     83  C   UNL A   1      44.719  26.037  26.966  1.00  0.00     0.135 A 
ATOM     84  F   UNL A   1      43.254  23.950  29.559  1.00  0.00    -0.206 F 
ATOM     85  C   UNL A   1      44.123  23.361  27.457  1.00  0.00     0.059 A 
ATOM     86  C   UNL A   1      45.005  25.086  25.992  1.00  0.00     0.059 A 
ATOM     87  F   UNL A   1      45.006  27.321  26.702  1.00  0.00    -0.206 F 
ATOM     88  C   UNL A   1      44.707  23.749  26.250  1.00  0.00     0.060 A 
BRANCH  88  89
ATOM     89  S   UNL A   1      45.025  22.488  24.998  1.00  0.00     0.124 S 
ATOM     90  O   UNL A   1      46.094  21.718  25.622  1.00  0.00    -0.237 OA
ATOM     91  O   UNL A   1      43.730  21.820  24.900  1.00  0.00    -0.237 OA
ATOM     92  O   UNL A   1      45.409  23.268  23.825  1.00  0.00    -0.744 OA
ENDBRANCH  88  89
ENDBRANCH  56  81
BRANCH  68  93
ATOM     93  C   UNL A   1      47.509  28.559  33.552  1.00  0.00     0.058 A 
ATOM     94  C   UNL A   1      48.588  29.311  33.064  1.00  0.00     0.135 A 
ATOM     95  C   UNL A   1      47.756  27.655  34.596  1.00  0.00     0.135 A 
ATOM     96  F   UNL A   1      48.405  30.182  32.060  1.00  0.00    -0.206 F 
ATOM     97  C   UNL A   1      49.870  29.160  33.581  1.00  0.00     0.059 A 
ATOM     98  C   UNL A   1      49.026  27.504  35.146  1.00  0.00     0.059 A 
ATOM     99  F   UNL A   1      46.755  26.918  35.104  1.00  0.00    -0.206 F 
ATOM    100  C   UNL A   1      50.078  28.255  34.623  1.00  0.00     0.060 A 
BRANCH 100 101
ATOM    101  S   UNL A   1      51.742  28.092  35.305  1.00  0.00     0.124 S 
ATOM    102  O   UNL A   1      51.626  28.848  36.548  1.00  0.00    -0.237 OA
ATOM    103  O   UNL A   1      51.879  26.647  35.452  1.00  0.00    -0.237 OA
ATOM    104  O   UNL A   1      52.590  28.696  34.281  1.00  0.00    -0.744 OA
ENDBRANCH 100 101
ENDBRANCH  68  93
ENDBRANCH  42  43
ENDBRANCH  34  37
ENDBRANCH  32  33
ENDBRANCH  31  32
ENDBRANCH  30  31
ENDBRANCH   1  30
TORSDOF 22
ENDMDL
