MODEL 1
REMARK VINA RESULT:     -13.8      0.000      0.000
REMARK SMILES Cc1cccc(-c2cc(C(=O)NCCCCCCNC(=O)c3ccc(-c4c5nc(c(-c6c(F)cc(S(=O)(=O)[O-])cc6F)c6ccc([nH]6)c(-c6c(F)cc(S(=O)(=O)[O-])cc6F)c6nc(c(-c7c(F)cc(S(=O)(=O)[O-])cc7F)c7ccc4[nH]7)C=C6)C=C5)cc3)ccn2)c1
REMARK SMILES IDX 16 1 15 2 14 3 13 4 12 5 10 6 11 7 9 9 7 10 8 11 90 12 89 13
REMARK SMILES IDX 88 14 6 15 1 16 2 17 3 18 91 19 4 20 5 21 17 22 18 23 19 24
REMARK SMILES IDX 20 25 21 27 22 28 23 29 87 30 24 31 86 32 25 33 26 34 27 35
REMARK SMILES IDX 80 36 28 37 85 38 79 39 81 40 29 41 84 42 78 43 77 44 30 46
REMARK SMILES IDX 64 47 43 48 63 49 44 50 47 51 62 52 82 53 45 54 46 55 61 57
REMARK SMILES IDX 83 58 48 59 31 60 32 61 41 62 33 63 34 64 40 65 42 66 35 67
REMARK SMILES IDX 36 68 37 69 38 70 39 71 65 72 66 73 75 74 67 75 68 76 74 77
REMARK SMILES IDX 76 78 69 79 70 80 71 81 72 82 73 83 49 84 50 85 59 86 51 87
REMARK SMILES IDX 52 88 58 89 60 90 53 91 54 92 55 93 56 94 57 95
REMARK H PARENT 12 8 19 26 81 45 47 56
REMARK Flexibility Score: inf
ROOT
ATOM      1  C   UNL A   1      32.794  28.835  25.477  1.00  0.00     0.002 C 
ENDROOT
BRANCH   1   2
ATOM      2  C   UNL A   1      32.027  27.535  25.776  1.00  0.00     0.002 C 
BRANCH   2   3
ATOM      3  C   UNL A   1      30.822  27.231  24.872  1.00  0.00     0.021 C 
BRANCH   3   4
ATOM      4  C   UNL A   1      30.666  25.753  24.504  1.00  0.00     0.116 C 
BRANCH   4   5
ATOM      5  N   UNL A   1      30.185  24.977  25.637  1.00  0.00    -0.352 N 
ATOM      6  C   UNL A   1      30.665  23.871  26.290  1.00  0.00     0.251 C 
ATOM      7  O   UNL A   1      30.077  23.509  27.312  1.00  0.00    -0.269 OA
ATOM      8  H   UNL A   1      29.341  25.316  26.012  1.00  0.00     0.163 HD
BRANCH   6   9
ATOM      9  C   UNL A   1      31.879  23.119  25.872  1.00  0.00     0.043 A 
ATOM     10  C   UNL A   1      33.069  21.231  24.997  1.00  0.00     0.071 A 
ATOM     11  C   UNL A   1      31.877  21.796  25.447  1.00  0.00     0.042 A 
ATOM     12  N   UNL A   1      34.257  21.880  25.053  1.00  0.00    -0.256 NA
ATOM     13  C   UNL A   1      34.250  23.134  25.546  1.00  0.00     0.112 A 
ATOM     14  C   UNL A   1      33.101  23.794  25.944  1.00  0.00     0.034 A 
BRANCH  10  15
ATOM     15  C   UNL A   1      33.077  19.931  24.322  1.00  0.00     0.000 A 
ATOM     16  C   UNL A   1      34.852  16.565  24.699  1.00  0.00     0.044 C 
ATOM     17  C   UNL A   1      33.962  17.651  24.174  1.00  0.00    -0.050 A 
ATOM     18  C   UNL A   1      33.180  17.434  23.035  1.00  0.00     0.003 A 
ATOM     19  C   UNL A   1      33.904  18.899  24.804  1.00  0.00     0.013 A 
ATOM     20  C   UNL A   1      32.343  18.442  22.550  1.00  0.00     0.001 A 
ATOM     21  C   UNL A   1      32.286  19.680  23.195  1.00  0.00     0.010 A 
ENDBRANCH  10  15
ENDBRANCH   6   9
ENDBRANCH   4   5
ENDBRANCH   3   4
ENDBRANCH   2   3
ENDBRANCH   1   2
BRANCH   1  22
ATOM     22  C   UNL A   1      34.160  28.979  26.152  1.00  0.00     0.021 C 
BRANCH  22  23
ATOM     23  C   UNL A   1      34.071  29.245  27.656  1.00  0.00     0.116 C 
BRANCH  23  24
ATOM     24  N   UNL A   1      34.649  30.505  28.040  1.00  0.00    -0.352 N 
ATOM     25  C   UNL A   1      35.836  30.711  28.768  1.00  0.00     0.251 C 
ATOM     26  H   UNL A   1      34.161  31.313  27.762  1.00  0.00     0.163 HD
ATOM     27  O   UNL A   1      36.093  31.775  29.287  1.00  0.00    -0.269 OA
BRANCH  25  28
ATOM     28  C   UNL A   1      36.809  29.604  28.754  1.00  0.00     0.039 A 
ATOM     29  C   UNL A   1      37.088  28.993  29.982  1.00  0.00     0.014 A 
ATOM     30  C   UNL A   1      37.588  29.350  27.634  1.00  0.00     0.014 A 
ATOM     31  C   UNL A   1      38.255  28.238  30.127  1.00  0.00     0.010 A 
ATOM     32  C   UNL A   1      38.783  28.664  27.798  1.00  0.00     0.010 A 
ATOM     33  C   UNL A   1      39.141  28.141  29.052  1.00  0.00    -0.014 A 
BRANCH  33  34
ATOM     34  C   UNL A   1      40.508  27.630  29.175  1.00  0.00     0.031 A 
ATOM     35  C   UNL A   1      40.879  26.277  28.679  1.00  0.00     0.074 A 
ATOM     36  C   UNL A   1      41.491  28.425  29.657  1.00  0.00     0.049 A 
ATOM     37  N   UNL A   1      41.968  25.656  28.997  1.00  0.00    -0.248 NA
ATOM     38  C   UNL A   1      40.019  25.495  27.798  1.00  0.00     0.031 C 
ATOM     39  C   UNL A   1      42.930  28.233  29.495  1.00  0.00     0.029 A 
ATOM     40  N   UNL A   1      41.387  29.471  30.572  1.00  0.00    -0.354 N 
ATOM     41  C   UNL A   1      42.086  24.552  28.187  1.00  0.00     0.074 A 
ATOM     42  C   UNL A   1      40.826  24.477  27.481  1.00  0.00     0.031 C 
ATOM     43  C   UNL A   1      43.574  28.937  30.434  1.00  0.00     0.029 A 
ATOM     44  C   UNL A   1      42.578  29.501  31.325  1.00  0.00     0.049 A 
ATOM     45  H   UNL A   1      40.620  30.079  30.673  1.00  0.00     0.167 HD
ATOM     46  C   UNL A   1      43.271  23.879  28.117  1.00  0.00     0.037 A 
ATOM     47  C   UNL A   1      42.559  29.335  32.681  1.00  0.00     0.037 A 
ATOM     48  C   UNL A   1      44.261  24.401  29.056  1.00  0.00     0.049 A 
ATOM     49  C   UNL A   1      43.249  28.082  33.179  1.00  0.00     0.074 A 
ATOM     50  C   UNL A   1      45.349  25.252  28.954  1.00  0.00     0.029 A 
ATOM     51  N   UNL A   1      44.039  24.231  30.409  1.00  0.00    -0.354 N 
ATOM     52  N   UNL A   1      43.890  27.239  32.418  1.00  0.00    -0.248 NA
ATOM     53  C   UNL A   1      43.202  27.636  34.576  1.00  0.00     0.031 C 
ATOM     54  C   UNL A   1      45.762  25.611  30.268  1.00  0.00     0.029 A 
ATOM     55  C   UNL A   1      44.917  24.983  31.164  1.00  0.00     0.049 A 
ATOM     56  H   UNL A   1      43.343  23.647  30.788  1.00  0.00     0.167 HD
ATOM     57  C   UNL A   1      44.227  26.135  33.154  1.00  0.00     0.074 A 
ATOM     58  C   UNL A   1      43.821  26.444  34.509  1.00  0.00     0.031 C 
ATOM     59  C   UNL A   1      44.755  25.007  32.604  1.00  0.00     0.037 A 
BRANCH  46  60
ATOM     60  C   UNL A   1      43.594  22.879  27.030  1.00  0.00     0.058 A 
ATOM     61  C   UNL A   1      42.926  21.637  26.966  1.00  0.00     0.135 A 
ATOM     62  C   UNL A   1      44.588  23.066  26.051  1.00  0.00     0.135 A 
ATOM     63  F   UNL A   1      41.893  21.352  27.770  1.00  0.00    -0.206 F 
ATOM     64  C   UNL A   1      43.300  20.618  26.091  1.00  0.00     0.059 A 
ATOM     65  C   UNL A   1      45.025  22.041  25.205  1.00  0.00     0.059 A 
ATOM     66  F   UNL A   1      45.154  24.268  25.860  1.00  0.00    -0.206 F 
ATOM     67  C   UNL A   1      44.382  20.812  25.244  1.00  0.00     0.060 A 
BRANCH  67  68
ATOM     68  S   UNL A   1      44.944  19.433  24.227  1.00  0.00     0.124 S 
ATOM     69  O   UNL A   1      46.396  19.519  24.363  1.00  0.00    -0.237 OA
ATOM     70  O   UNL A   1      44.312  18.294  24.884  1.00  0.00    -0.237 OA
ATOM     71  O   UNL A   1      44.430  19.760  22.900  1.00  0.00    -0.744 OA
ENDBRANCH  67  68
ENDBRANCH  46  60
BRANCH  47  72
ATOM     72  C   UNL A   1      41.383  29.991  33.312  1.00  0.00     0.058 A 
ATOM     73  C   UNL A   1      41.436  31.390  33.464  1.00  0.00     0.135 A 
ATOM     74  C   UNL A   1      40.123  29.380  33.314  1.00  0.00     0.135 A 
ATOM     75  F   UNL A   1      42.625  32.018  33.493  1.00  0.00    -0.206 F 
ATOM     76  C   UNL A   1      40.289  32.170  33.421  1.00  0.00     0.059 A 
ATOM     77  C   UNL A   1      38.956  30.144  33.284  1.00  0.00     0.059 A 
ATOM     78  F   UNL A   1      40.015  28.050  33.183  1.00  0.00    -0.206 F 
ATOM     79  C   UNL A   1      39.060  31.536  33.252  1.00  0.00     0.060 A 
BRANCH  79  80
ATOM     80  S   UNL A   1      37.641  32.559  32.796  1.00  0.00     0.124 S 
ATOM     81  O   UNL A   1      36.576  31.570  32.672  1.00  0.00    -0.237 OA
ATOM     82  O   UNL A   1      37.544  33.453  33.948  1.00  0.00    -0.237 OA
ATOM     83  O   UNL A   1      38.070  33.185  31.550  1.00  0.00    -0.744 OA
ENDBRANCH  79  80
ENDBRANCH  47  72
BRANCH  59  84
ATOM     84  C   UNL A   1      45.153  23.818  33.415  1.00  0.00     0.058 A 
ATOM     85  C   UNL A   1      44.207  22.870  33.830  1.00  0.00     0.135 A 
ATOM     86  C   UNL A   1      46.459  23.683  33.925  1.00  0.00     0.135 A 
ATOM     87  F   UNL A   1      42.937  22.941  33.397  1.00  0.00    -0.206 F 
ATOM     88  C   UNL A   1      44.534  21.843  34.715  1.00  0.00     0.059 A 
ATOM     89  C   UNL A   1      46.802  22.687  34.833  1.00  0.00     0.059 A 
ATOM     90  F   UNL A   1      47.437  24.518  33.539  1.00  0.00    -0.206 F 
ATOM     91  C   UNL A   1      45.833  21.766  35.219  1.00  0.00     0.060 A 
BRANCH  91  92
ATOM     92  S   UNL A   1      46.249  20.490  36.425  1.00  0.00     0.124 S 
ATOM     93  O   UNL A   1      45.591  19.302  35.885  1.00  0.00    -0.237 OA
ATOM     94  O   UNL A   1      47.707  20.488  36.354  1.00  0.00    -0.237 OA
ATOM     95  O   UNL A   1      45.677  21.004  37.664  1.00  0.00    -0.744 OA
ENDBRANCH  91  92
ENDBRANCH  59  84
ENDBRANCH  33  34
ENDBRANCH  25  28
ENDBRANCH  23  24
ENDBRANCH  22  23
ENDBRANCH   1  22
TORSDOF 17
ENDMDL
MODEL 2
REMARK VINA RESULT:     -13.5      4.461     10.923
REMARK SMILES Cc1cccc(-c2cc(C(=O)NCCCCCCNC(=O)c3ccc(-c4c5nc(c(-c6c(F)cc(S(=O)(=O)[O-])cc6F)c6ccc([nH]6)c(-c6c(F)cc(S(=O)(=O)[O-])cc6F)c6nc(c(-c7c(F)cc(S(=O)(=O)[O-])cc7F)c7ccc4[nH]7)C=C6)C=C5)cc3)ccn2)c1
REMARK SMILES IDX 16 1 15 2 14 3 13 4 12 5 10 6 11 7 9 9 7 10 8 11 90 12 89 13
REMARK SMILES IDX 88 14 6 15 1 16 2 17 3 18 91 19 4 20 5 21 17 22 18 23 19 24
REMARK SMILES IDX 20 25 21 27 22 28 23 29 87 30 24 31 86 32 25 33 26 34 27 35
REMARK SMILES IDX 80 36 28 37 85 38 79 39 81 40 29 41 84 42 78 43 77 44 30 46
REMARK SMILES IDX 64 47 43 48 63 49 44 50 47 51 62 52 82 53 45 54 46 55 61 57
REMARK SMILES IDX 83 58 48 59 31 60 32 61 41 62 33 63 34 64 40 65 42 66 35 67
REMARK SMILES IDX 36 68 37 69 38 70 39 71 65 72 66 73 75 74 67 75 68 76 74 77
REMARK SMILES IDX 76 78 69 79 70 80 71 81 72 82 73 83 49 84 50 85 59 86 51 87
REMARK SMILES IDX 52 88 58 89 60 90 53 91 54 92 55 93 56 94 57 95
REMARK H PARENT 12 8 19 26 81 45 47 56
REMARK Flexibility Score: inf
ROOT
ATOM      1  C   UNL A   1      35.551  24.190  25.614  1.00  0.00     0.002 C 
ENDROOT
BRANCH   1   2
ATOM      2  C   UNL A   1      34.777  24.144  24.286  1.00  0.00     0.002 C 
BRANCH   2   3
ATOM      3  C   UNL A   1      33.460  24.935  24.236  1.00  0.00     0.021 C 
BRANCH   3   4
ATOM      4  C   UNL A   1      33.148  25.723  25.510  1.00  0.00     0.116 C 
BRANCH   4   5
ATOM      5  N   UNL A   1      31.870  25.322  26.078  1.00  0.00    -0.352 N 
ATOM      6  C   UNL A   1      31.391  24.136  26.572  1.00  0.00     0.251 C 
ATOM      7  O   UNL A   1      30.279  24.143  27.103  1.00  0.00    -0.269 OA
ATOM      8  H   UNL A   1      31.213  26.054  26.117  1.00  0.00     0.163 HD
BRANCH   6   9
ATOM      9  C   UNL A   1      32.154  22.858  26.554  1.00  0.00     0.043 A 
ATOM     10  C   UNL A   1      32.807  20.732  25.661  1.00  0.00     0.071 A 
ATOM     11  C   UNL A   1      31.967  21.843  25.624  1.00  0.00     0.042 A 
ATOM     12  N   UNL A   1      33.735  20.544  26.630  1.00  0.00    -0.256 NA
ATOM     13  C   UNL A   1      33.845  21.504  27.570  1.00  0.00     0.112 A 
ATOM     14  C   UNL A   1      33.102  22.670  27.564  1.00  0.00     0.034 A 
BRANCH  10  15
ATOM     15  C   UNL A   1      32.808  19.754  24.570  1.00  0.00     0.000 A 
ATOM     16  C   UNL A   1      34.122  16.216  23.952  1.00  0.00     0.044 C 
ATOM     17  C   UNL A   1      33.465  17.546  23.735  1.00  0.00    -0.050 A 
ATOM     18  C   UNL A   1      32.894  17.858  22.497  1.00  0.00     0.003 A 
ATOM     19  C   UNL A   1      33.418  18.499  24.759  1.00  0.00     0.013 A 
ATOM     20  C   UNL A   1      32.273  19.093  22.296  1.00  0.00     0.001 A 
ATOM     21  C   UNL A   1      32.223  20.032  23.330  1.00  0.00     0.010 A 
ENDBRANCH  10  15
ENDBRANCH   6   9
ENDBRANCH   4   5
ENDBRANCH   3   4
ENDBRANCH   2   3
ENDBRANCH   1   2
BRANCH   1  22
ATOM     22  C   UNL A   1      36.659  23.147  25.782  1.00  0.00     0.021 C 
BRANCH  22  23
ATOM     23  C   UNL A   1      38.033  23.638  25.323  1.00  0.00     0.116 C 
BRANCH  23  24
ATOM     24  N   UNL A   1      39.112  23.114  26.116  1.00  0.00    -0.352 N 
ATOM     25  C   UNL A   1      40.074  23.847  26.837  1.00  0.00     0.251 C 
ATOM     26  H   UNL A   1      39.186  22.134  26.161  1.00  0.00     0.163 HD
ATOM     27  O   UNL A   1      41.099  23.340  27.235  1.00  0.00    -0.269 OA
BRANCH  25  28
ATOM     28  C   UNL A   1      39.705  25.228  27.196  1.00  0.00     0.039 A 
ATOM     29  C   UNL A   1      40.378  26.256  26.525  1.00  0.00     0.014 A 
ATOM     30  C   UNL A   1      38.920  25.494  28.309  1.00  0.00     0.014 A 
ATOM     31  C   UNL A   1      40.389  27.543  27.068  1.00  0.00     0.010 A 
ATOM     32  C   UNL A   1      38.993  26.752  28.888  1.00  0.00     0.010 A 
ATOM     33  C   UNL A   1      39.759  27.770  28.294  1.00  0.00    -0.014 A 
BRANCH  33  34
ATOM     34  C   UNL A   1      39.949  28.986  29.088  1.00  0.00     0.031 A 
ATOM     35  C   UNL A   1      38.911  30.050  29.138  1.00  0.00     0.074 A 
ATOM     36  C   UNL A   1      41.040  29.120  29.876  1.00  0.00     0.049 A 
ATOM     37  N   UNL A   1      39.116  31.249  29.576  1.00  0.00    -0.248 NA
ATOM     38  C   UNL A   1      37.548  29.848  28.660  1.00  0.00     0.031 C 
ATOM     39  C   UNL A   1      41.204  30.047  30.993  1.00  0.00     0.029 A 
ATOM     40  N   UNL A   1      42.309  28.575  29.696  1.00  0.00    -0.354 N 
ATOM     41  C   UNL A   1      37.899  31.880  29.691  1.00  0.00     0.074 A 
ATOM     42  C   UNL A   1      36.956  30.975  29.072  1.00  0.00     0.031 C 
ATOM     43  C   UNL A   1      42.510  30.200  31.247  1.00  0.00     0.029 A 
ATOM     44  C   UNL A   1      43.246  29.489  30.219  1.00  0.00     0.049 A 
ATOM     45  H   UNL A   1      42.516  27.708  29.278  1.00  0.00     0.167 HD
ATOM     46  C   UNL A   1      37.798  33.049  30.389  1.00  0.00     0.037 A 
ATOM     47  C   UNL A   1      44.212  30.041  29.426  1.00  0.00     0.037 A 
ATOM     48  C   UNL A   1      39.098  33.538  30.840  1.00  0.00     0.049 A 
ATOM     49  C   UNL A   1      44.097  31.539  29.232  1.00  0.00     0.074 A 
ATOM     50  C   UNL A   1      39.791  33.502  32.039  1.00  0.00     0.029 A 
ATOM     51  N   UNL A   1      40.003  33.975  29.892  1.00  0.00    -0.354 N 
ATOM     52  N   UNL A   1      43.209  32.294  29.817  1.00  0.00    -0.248 NA
ATOM     53  C   UNL A   1      44.932  32.298  28.294  1.00  0.00     0.031 C 
ATOM     54  C   UNL A   1      41.135  33.901  31.790  1.00  0.00     0.029 A 
ATOM     55  C   UNL A   1      41.256  34.168  30.440  1.00  0.00     0.049 A 
ATOM     56  H   UNL A   1      39.784  34.129  28.945  1.00  0.00     0.167 HD
ATOM     57  C   UNL A   1      43.266  33.553  29.281  1.00  0.00     0.074 A 
ATOM     58  C   UNL A   1      44.388  33.525  28.366  1.00  0.00     0.031 C 
ATOM     59  C   UNL A   1      42.353  34.523  29.563  1.00  0.00     0.037 A 
BRANCH  46  60
ATOM     60  C   UNL A   1      36.479  33.630  30.844  1.00  0.00     0.058 A 
ATOM     61  C   UNL A   1      35.543  34.122  29.910  1.00  0.00     0.135 A 
ATOM     62  C   UNL A   1      36.101  33.776  32.193  1.00  0.00     0.135 A 
ATOM     63  F   UNL A   1      35.719  33.970  28.591  1.00  0.00    -0.206 F 
ATOM     64  C   UNL A   1      34.392  34.816  30.283  1.00  0.00     0.059 A 
ATOM     65  C   UNL A   1      34.988  34.521  32.594  1.00  0.00     0.059 A 
ATOM     66  F   UNL A   1      36.789  33.171  33.173  1.00  0.00    -0.206 F 
ATOM     67  C   UNL A   1      34.145  35.052  31.628  1.00  0.00     0.060 A 
BRANCH  67  68
ATOM     68  S   UNL A   1      32.733  36.078  32.082  1.00  0.00     0.124 S 
ATOM     69  O   UNL A   1      31.728  35.081  32.437  1.00  0.00    -0.237 OA
ATOM     70  O   UNL A   1      33.271  36.859  33.190  1.00  0.00    -0.237 OA
ATOM     71  O   UNL A   1      32.453  36.828  30.861  1.00  0.00    -0.744 OA
ENDBRANCH  67  68
ENDBRANCH  46  60
BRANCH  47  72
ATOM     72  C   UNL A   1      44.746  29.072  28.433  1.00  0.00     0.058 A 
ATOM     73  C   UNL A   1      45.625  28.082  28.914  1.00  0.00     0.135 A 
ATOM     74  C   UNL A   1      44.081  28.826  27.226  1.00  0.00     0.135 A 
ATOM     75  F   UNL A   1      46.305  28.284  30.056  1.00  0.00    -0.206 F 
ATOM     76  C   UNL A   1      45.692  26.825  28.330  1.00  0.00     0.059 A 
ATOM     77  C   UNL A   1      44.144  27.574  26.614  1.00  0.00     0.059 A 
ATOM     78  F   UNL A   1      43.241  29.740  26.717  1.00  0.00    -0.206 F 
ATOM     79  C   UNL A   1      44.886  26.560  27.225  1.00  0.00     0.060 A 
BRANCH  79  80
ATOM     80  S   UNL A   1      44.675  24.834  26.730  1.00  0.00     0.124 S 
ATOM     81  O   UNL A   1      44.265  24.205  27.980  1.00  0.00    -0.237 OA
ATOM     82  O   UNL A   1      43.636  24.950  25.708  1.00  0.00    -0.237 OA
ATOM     83  O   UNL A   1      45.999  24.465  26.241  1.00  0.00    -0.744 OA
ENDBRANCH  79  80
ENDBRANCH  47  72
BRANCH  59  84
ATOM     84  C   UNL A   1      42.439  35.905  29.003  1.00  0.00     0.058 A 
ATOM     85  C   UNL A   1      41.760  36.257  27.827  1.00  0.00     0.135 A 
ATOM     86  C   UNL A   1      43.323  36.860  29.541  1.00  0.00     0.135 A 
ATOM     87  F   UNL A   1      40.911  35.393  27.247  1.00  0.00    -0.206 F 
ATOM     88  C   UNL A   1      41.953  37.492  27.208  1.00  0.00     0.059 A 
ATOM     89  C   UNL A   1      43.557  38.085  28.925  1.00  0.00     0.059 A 
ATOM     90  F   UNL A   1      43.974  36.623  30.691  1.00  0.00    -0.206 F 
ATOM     91  C   UNL A   1      42.861  38.396  27.760  1.00  0.00     0.060 A 
BRANCH  91  92
ATOM     92  S   UNL A   1      43.180  39.964  26.927  1.00  0.00     0.124 S 
ATOM     93  O   UNL A   1      44.404  39.694  26.177  1.00  0.00    -0.237 OA
ATOM     94  O   UNL A   1      41.971  40.117  26.123  1.00  0.00    -0.237 OA
ATOM     95  O   UNL A   1      43.327  40.904  28.033  1.00  0.00    -0.744 OA
ENDBRANCH  91  92
ENDBRANCH  59  84
ENDBRANCH  33  34
ENDBRANCH  25  28
ENDBRANCH  23  24
ENDBRANCH  22  23
ENDBRANCH   1  22
TORSDOF 17
ENDMDL
MODEL 3
REMARK VINA RESULT:     -13.5      1.633      2.178
REMARK SMILES Cc1cccc(-c2cc(C(=O)NCCCCCCNC(=O)c3ccc(-c4c5nc(c(-c6c(F)cc(S(=O)(=O)[O-])cc6F)c6ccc([nH]6)c(-c6c(F)cc(S(=O)(=O)[O-])cc6F)c6nc(c(-c7c(F)cc(S(=O)(=O)[O-])cc7F)c7ccc4[nH]7)C=C6)C=C5)cc3)ccn2)c1
REMARK SMILES IDX 16 1 15 2 14 3 13 4 12 5 10 6 11 7 9 9 7 10 8 11 90 12 89 13
REMARK SMILES IDX 88 14 6 15 1 16 2 17 3 18 91 19 4 20 5 21 17 22 18 23 19 24
REMARK SMILES IDX 20 25 21 27 22 28 23 29 87 30 24 31 86 32 25 33 26 34 27 35
REMARK SMILES IDX 80 36 28 37 85 38 79 39 81 40 29 41 84 42 78 43 77 44 30 46
REMARK SMILES IDX 64 47 43 48 63 49 44 50 47 51 62 52 82 53 45 54 46 55 61 57
REMARK SMILES IDX 83 58 48 59 31 60 32 61 41 62 33 63 34 64 40 65 42 66 35 67
REMARK SMILES IDX 36 68 37 69 38 70 39 71 65 72 66 73 75 74 67 75 68 76 74 77
REMARK SMILES IDX 76 78 69 79 70 80 71 81 72 82 73 83 49 84 50 85 59 86 51 87
REMARK SMILES IDX 52 88 58 89 60 90 53 91 54 92 55 93 56 94 57 95
REMARK H PARENT 12 8 19 26 81 45 47 56
REMARK Flexibility Score: inf
ROOT
ATOM      1  C   UNL A   1      32.161  29.238  26.573  1.00  0.00     0.002 C 
ENDROOT
BRANCH   1   2
ATOM      2  C   UNL A   1      31.376  29.028  25.267  1.00  0.00     0.002 C 
BRANCH   2   3
ATOM      3  C   UNL A   1      31.674  27.736  24.491  1.00  0.00     0.021 C 
BRANCH   3   4
ATOM      4  C   UNL A   1      32.844  27.844  23.511  1.00  0.00     0.116 C 
BRANCH   4   5
ATOM      5  N   UNL A   1      32.512  27.248  22.226  1.00  0.00    -0.352 N 
ATOM      6  C   UNL A   1      32.408  25.952  21.789  1.00  0.00     0.251 C 
ATOM      7  O   UNL A   1      31.984  25.765  20.647  1.00  0.00    -0.269 OA
ATOM      8  H   UNL A   1      32.322  27.913  21.525  1.00  0.00     0.163 HD
BRANCH   6   9
ATOM      9  C   UNL A   1      32.722  24.764  22.627  1.00  0.00     0.043 A 
ATOM     10  C   UNL A   1      34.160  23.296  23.862  1.00  0.00     0.071 A 
ATOM     11  C   UNL A   1      34.004  24.380  22.999  1.00  0.00     0.042 A 
ATOM     12  N   UNL A   1      33.123  22.530  24.273  1.00  0.00    -0.256 NA
ATOM     13  C   UNL A   1      31.894  22.870  23.835  1.00  0.00     0.112 A 
ATOM     14  C   UNL A   1      31.644  23.973  23.038  1.00  0.00     0.034 A 
BRANCH  10  15
ATOM     15  C   UNL A   1      35.460  23.000  24.469  1.00  0.00     0.000 A 
ATOM     16  C   UNL A   1      37.748  19.966  24.899  1.00  0.00     0.044 C 
ATOM     17  C   UNL A   1      37.209  21.362  24.984  1.00  0.00    -0.050 A 
ATOM     18  C   UNL A   1      37.921  22.355  25.664  1.00  0.00     0.003 A 
ATOM     19  C   UNL A   1      35.983  21.695  24.395  1.00  0.00     0.013 A 
ATOM     20  C   UNL A   1      37.424  23.658  25.735  1.00  0.00     0.001 A 
ATOM     21  C   UNL A   1      36.205  23.980  25.134  1.00  0.00     0.010 A 
ENDBRANCH  10  15
ENDBRANCH   6   9
ENDBRANCH   4   5
ENDBRANCH   3   4
ENDBRANCH   2   3
ENDBRANCH   1   2
BRANCH   1  22
ATOM     22  C   UNL A   1      33.474  30.016  26.449  1.00  0.00     0.021 C 
BRANCH  22  23
ATOM     23  C   UNL A   1      34.497  29.660  27.529  1.00  0.00     0.116 C 
BRANCH  23  24
ATOM     24  N   UNL A   1      35.040  30.815  28.192  1.00  0.00    -0.352 N 
ATOM     25  C   UNL A   1      36.147  30.856  29.061  1.00  0.00     0.251 C 
ATOM     26  H   UNL A   1      34.588  31.672  28.019  1.00  0.00     0.163 HD
ATOM     27  O   UNL A   1      36.356  31.803  29.787  1.00  0.00    -0.269 OA
BRANCH  25  28
ATOM     28  C   UNL A   1      37.110  29.747  28.942  1.00  0.00     0.039 A 
ATOM     29  C   UNL A   1      37.307  28.957  30.080  1.00  0.00     0.014 A 
ATOM     30  C   UNL A   1      37.955  29.647  27.846  1.00  0.00     0.014 A 
ATOM     31  C   UNL A   1      38.456  28.169  30.182  1.00  0.00     0.010 A 
ATOM     32  C   UNL A   1      39.132  28.924  27.978  1.00  0.00     0.010 A 
ATOM     33  C   UNL A   1      39.407  28.215  29.161  1.00  0.00    -0.014 A 
BRANCH  33  34
ATOM     34  C   UNL A   1      40.759  27.669  29.289  1.00  0.00     0.031 A 
ATOM     35  C   UNL A   1      41.101  26.315  28.775  1.00  0.00     0.074 A 
ATOM     36  C   UNL A   1      41.757  28.430  29.794  1.00  0.00     0.049 A 
ATOM     37  N   UNL A   1      42.170  25.662  29.093  1.00  0.00    -0.248 NA
ATOM     38  C   UNL A   1      40.231  25.569  27.872  1.00  0.00     0.031 C 
ATOM     39  C   UNL A   1      43.192  28.205  29.643  1.00  0.00     0.029 A 
ATOM     40  N   UNL A   1      41.669  29.464  30.724  1.00  0.00    -0.354 N 
ATOM     41  C   UNL A   1      42.270  24.568  28.266  1.00  0.00     0.074 A 
ATOM     42  C   UNL A   1      41.015  24.536  27.546  1.00  0.00     0.031 C 
ATOM     43  C   UNL A   1      43.843  28.877  30.600  1.00  0.00     0.029 A 
ATOM     44  C   UNL A   1      42.852  29.451  31.490  1.00  0.00     0.049 A 
ATOM     45  H   UNL A   1      40.917  30.090  30.828  1.00  0.00     0.167 HD
ATOM     46  C   UNL A   1      43.439  23.866  28.197  1.00  0.00     0.037 A 
ATOM     47  C   UNL A   1      42.814  29.264  32.843  1.00  0.00     0.037 A 
ATOM     48  C   UNL A   1      44.431  24.348  29.154  1.00  0.00     0.049 A 
ATOM     49  C   UNL A   1      43.468  27.986  33.328  1.00  0.00     0.074 A 
ATOM     50  C   UNL A   1      45.541  25.173  29.078  1.00  0.00     0.029 A 
ATOM     51  N   UNL A   1      44.190  24.162  30.503  1.00  0.00    -0.354 N 
ATOM     52  N   UNL A   1      44.096  27.140  32.559  1.00  0.00    -0.248 NA
ATOM     53  C   UNL A   1      43.395  27.519  34.716  1.00  0.00     0.031 C 
ATOM     54  C   UNL A   1      45.948  25.500  30.402  1.00  0.00     0.029 A 
ATOM     55  C   UNL A   1      45.079  24.880  31.279  1.00  0.00     0.049 A 
ATOM     56  H   UNL A   1      43.476  23.589  30.865  1.00  0.00     0.167 HD
ATOM     57  C   UNL A   1      44.397  26.016  33.280  1.00  0.00     0.074 A 
ATOM     58  C   UNL A   1      43.985  26.314  34.636  1.00  0.00     0.031 C 
ATOM     59  C   UNL A   1      44.903  24.884  32.717  1.00  0.00     0.037 A 
BRANCH  46  60
ATOM     60  C   UNL A   1      43.747  22.877  27.097  1.00  0.00     0.058 A 
ATOM     61  C   UNL A   1      42.987  21.696  26.950  1.00  0.00     0.135 A 
ATOM     62  C   UNL A   1      44.813  23.011  26.186  1.00  0.00     0.135 A 
ATOM     63  F   UNL A   1      41.887  21.473  27.681  1.00  0.00    -0.206 F 
ATOM     64  C   UNL A   1      43.333  20.677  26.064  1.00  0.00     0.059 A 
ATOM     65  C   UNL A   1      45.217  21.979  25.333  1.00  0.00     0.059 A 
ATOM     66  F   UNL A   1      45.483  24.167  26.072  1.00  0.00    -0.206 F 
ATOM     67  C   UNL A   1      44.478  20.806  25.291  1.00  0.00     0.060 A 
BRANCH  67  68
ATOM     68  S   UNL A   1      44.990  19.416  24.262  1.00  0.00     0.124 S 
ATOM     69  O   UNL A   1      46.446  19.504  24.327  1.00  0.00    -0.237 OA
ATOM     70  O   UNL A   1      44.390  18.285  24.960  1.00  0.00    -0.237 OA
ATOM     71  O   UNL A   1      44.413  19.731  22.958  1.00  0.00    -0.744 OA
ENDBRANCH  67  68
ENDBRANCH  46  60
BRANCH  47  72
ATOM     72  C   UNL A   1      41.649  29.940  33.472  1.00  0.00     0.058 A 
ATOM     73  C   UNL A   1      41.747  31.331  33.673  1.00  0.00     0.135 A 
ATOM     74  C   UNL A   1      40.369  29.374  33.428  1.00  0.00     0.135 A 
ATOM     75  F   UNL A   1      42.956  31.915  33.747  1.00  0.00    -0.206 F 
ATOM     76  C   UNL A   1      40.628  32.151  33.635  1.00  0.00     0.059 A 
ATOM     77  C   UNL A   1      39.230  30.178  33.402  1.00  0.00     0.059 A 
ATOM     78  F   UNL A   1      40.218  28.053  33.250  1.00  0.00    -0.206 F 
ATOM     79  C   UNL A   1      39.382  31.567  33.420  1.00  0.00     0.060 A 
BRANCH  79  80
ATOM     80  S   UNL A   1      38.009  32.653  32.970  1.00  0.00     0.124 S 
ATOM     81  O   UNL A   1      38.510  33.297  31.761  1.00  0.00    -0.237 OA
ATOM     82  O   UNL A   1      36.928  31.689  32.773  1.00  0.00    -0.237 OA
ATOM     83  O   UNL A   1      37.874  33.518  34.137  1.00  0.00    -0.744 OA
ENDBRANCH  79  80
ENDBRANCH  47  72
BRANCH  59  84
ATOM     84  C   UNL A   1      45.262  23.672  33.512  1.00  0.00     0.058 A 
ATOM     85  C   UNL A   1      44.286  22.751  33.916  1.00  0.00     0.135 A 
ATOM     86  C   UNL A   1      46.563  23.489  34.020  1.00  0.00     0.135 A 
ATOM     87  F   UNL A   1      43.019  22.868  33.485  1.00  0.00    -0.206 F 
ATOM     88  C   UNL A   1      44.580  21.702  34.787  1.00  0.00     0.059 A 
ATOM     89  C   UNL A   1      46.873  22.471  34.915  1.00  0.00     0.059 A 
ATOM     90  F   UNL A   1      47.567  24.297  33.644  1.00  0.00    -0.206 F 
ATOM     91  C   UNL A   1      45.875  21.576  35.289  1.00  0.00     0.060 A 
BRANCH  91  92
ATOM     92  S   UNL A   1      46.251  20.272  36.478  1.00  0.00     0.124 S 
ATOM     93  O   UNL A   1      45.529  19.121  35.941  1.00  0.00    -0.237 OA
ATOM     94  O   UNL A   1      47.705  20.203  36.384  1.00  0.00    -0.237 OA
ATOM     95  O   UNL A   1      45.723  20.802  37.731  1.00  0.00    -0.744 OA
ENDBRANCH  91  92
ENDBRANCH  59  84
ENDBRANCH  33  34
ENDBRANCH  25  28
ENDBRANCH  23  24
ENDBRANCH  22  23
ENDBRANCH   1  22
TORSDOF 17
ENDMDL
