MODEL 1
REMARK VINA RESULT:     -12.4      0.000      0.000
REMARK SMILES O=C(NCCCCCCNC(=O)c1c(C2CC2)nn(-c2ccc(Cl)c(F)c2)c1Cl)c1ccc(-c2c3nc(c(-c4c(F)cc(S(=O)(=O)[O-])cc4F)c4ccc([nH]4)c(-c4c(F)cc(S(=O)(=O)[O-])cc4F)c4nc(c(-c5c(F)cc(S(=O)(=O)[O-])cc5F)c5ccc2[nH]5)C=C4)C=C3)cc1
REMARK SMILES IDX 5 1 4 2 3 3 1 4 2 5 30 7 31 8 95 9 32 10 94 11 33 12 34 13
REMARK SMILES IDX 35 14 88 15 36 16 93 17 87 18 89 19 37 20 92 21 86 22 85 23
REMARK SMILES IDX 38 25 72 26 51 27 71 28 52 29 55 30 70 31 90 32 53 33 54 34
REMARK SMILES IDX 69 36 91 37 56 38 39 39 40 40 49 41 41 42 42 43 48 44 50 45
REMARK SMILES IDX 43 46 44 47 45 48 46 49 47 50 73 51 74 52 83 53 75 54 76 55
REMARK SMILES IDX 82 56 84 57 77 58 78 59 79 60 80 61 81 62 57 63 58 64 67 65
REMARK SMILES IDX 59 66 60 67 66 68 68 69 61 70 62 71 63 72 64 73 65 74 6 75
REMARK SMILES IDX 7 76 8 77 9 78 10 79 11 80 12 82 13 83 14 84 28 85 18 86
REMARK SMILES IDX 19 87 29 88 15 89 16 90 17 91 20 92 21 93 27 94 22 95 25 96
REMARK SMILES IDX 23 97 26 98 24 99
REMARK H PARENT 3 6 89 24 55 35 10 81
REMARK Flexibility Score: inf
ROOT
ATOM      1  C   UNL A   1      35.839  23.749  25.247  1.00  0.00     0.021 C 
ENDROOT
BRANCH   1   2
ATOM      2  C   UNL A   1      36.268  22.694  26.267  1.00  0.00     0.116 C 
BRANCH   2   3
ATOM      3  N   UNL A   1      37.490  22.001  25.921  1.00  0.00    -0.352 N 
ATOM      4  O   UNL A   1      39.582  21.337  25.735  1.00  0.00    -0.269 OA
ATOM      5  C   UNL A   1      38.821  22.214  26.156  1.00  0.00     0.251 C 
ATOM      6  H   UNL A   1      37.326  21.186  25.393  1.00  0.00     0.163 HD
BRANCH   5   7
ATOM      7  C   UNL A   1      39.402  23.402  26.850  1.00  0.00     0.039 A 
ATOM      8  C   UNL A   1      40.537  23.403  27.661  1.00  0.00     0.014 A 
ATOM      9  C   UNL A   1      38.729  24.624  26.661  1.00  0.00     0.014 A 
ATOM     10  C   UNL A   1      40.966  24.570  28.296  1.00  0.00     0.010 A 
ATOM     11  C   UNL A   1      39.168  25.800  27.276  1.00  0.00     0.010 A 
ATOM     12  C   UNL A   1      40.280  25.772  28.116  1.00  0.00    -0.014 A 
BRANCH  12  13
ATOM     13  C   UNL A   1      40.805  26.968  28.785  1.00  0.00     0.031 A 
ATOM     14  C   UNL A   1      42.028  27.612  28.214  1.00  0.00     0.074 A 
ATOM     15  C   UNL A   1      40.159  27.629  29.768  1.00  0.00     0.049 A 
ATOM     16  N   UNL A   1      43.131  27.940  28.813  1.00  0.00    -0.248 NA
ATOM     17  C   UNL A   1      41.999  27.956  26.784  1.00  0.00     0.031 C 
ATOM     18  C   UNL A   1      38.788  27.406  30.229  1.00  0.00     0.029 A 
ATOM     19  N   UNL A   1      40.559  28.734  30.472  1.00  0.00    -0.354 N 
ATOM     20  C   UNL A   1      43.857  28.697  27.896  1.00  0.00     0.074 A 
ATOM     21  C   UNL A   1      43.152  28.610  26.640  1.00  0.00     0.031 C 
ATOM     22  C   UNL A   1      38.395  28.471  30.958  1.00  0.00     0.029 A 
ATOM     23  C   UNL A   1      39.521  29.380  31.120  1.00  0.00     0.049 A 
ATOM     24  H   UNL A   1      41.493  29.039  30.512  1.00  0.00     0.167 HD
ATOM     25  C   UNL A   1      44.903  29.495  28.243  1.00  0.00     0.037 A 
ATOM     26  C   UNL A   1      39.541  30.608  31.686  1.00  0.00     0.037 A 
ATOM     27  C   UNL A   1      45.432  29.212  29.547  1.00  0.00     0.049 A 
ATOM     28  C   UNL A   1      40.941  30.999  31.978  1.00  0.00     0.074 A 
ATOM     29  C   UNL A   1      46.034  28.133  30.159  1.00  0.00     0.029 A 
ATOM     30  N   UNL A   1      45.190  30.125  30.541  1.00  0.00    -0.354 N 
ATOM     31  N   UNL A   1      41.702  30.439  32.877  1.00  0.00    -0.248 NA
ATOM     32  C   UNL A   1      41.617  31.937  31.089  1.00  0.00     0.031 C 
ATOM     33  C   UNL A   1      45.787  28.287  31.554  1.00  0.00     0.029 A 
ATOM     34  C   UNL A   1      45.005  29.430  31.709  1.00  0.00     0.049 A 
ATOM     35  H   UNL A   1      45.156  31.103  30.436  1.00  0.00     0.167 HD
ATOM     36  C   UNL A   1      42.995  30.664  32.438  1.00  0.00     0.074 A 
ATOM     37  C   UNL A   1      42.883  31.720  31.447  1.00  0.00     0.031 C 
ATOM     38  C   UNL A   1      43.989  29.765  32.686  1.00  0.00     0.037 A 
BRANCH  25  39
ATOM     39  C   UNL A   1      45.279  30.758  27.507  1.00  0.00     0.058 A 
ATOM     40  C   UNL A   1      46.563  30.892  26.944  1.00  0.00     0.135 A 
ATOM     41  C   UNL A   1      44.514  31.941  27.594  1.00  0.00     0.135 A 
ATOM     42  F   UNL A   1      47.377  29.830  26.841  1.00  0.00    -0.206 F 
ATOM     43  C   UNL A   1      47.073  32.126  26.536  1.00  0.00     0.059 A 
ATOM     44  C   UNL A   1      44.985  33.174  27.153  1.00  0.00     0.059 A 
ATOM     45  F   UNL A   1      43.316  31.953  28.196  1.00  0.00    -0.206 F 
ATOM     46  C   UNL A   1      46.281  33.265  26.665  1.00  0.00     0.060 A 
BRANCH  46  47
ATOM     47  S   UNL A   1      46.965  34.880  26.242  1.00  0.00     0.124 S 
ATOM     48  O   UNL A   1      47.792  35.155  27.411  1.00  0.00    -0.237 OA
ATOM     49  O   UNL A   1      47.684  34.604  25.002  1.00  0.00    -0.237 OA
ATOM     50  O   UNL A   1      45.774  35.711  26.094  1.00  0.00    -0.744 OA
ENDBRANCH  46  47
ENDBRANCH  25  39
BRANCH  26  51
ATOM     51  C   UNL A   1      38.412  31.563  31.801  1.00  0.00     0.058 A 
ATOM     52  C   UNL A   1      37.981  32.327  30.705  1.00  0.00     0.135 A 
ATOM     53  C   UNL A   1      37.579  31.575  32.939  1.00  0.00     0.135 A 
ATOM     54  F   UNL A   1      38.689  32.335  29.566  1.00  0.00    -0.206 F 
ATOM     55  C   UNL A   1      36.789  33.055  30.732  1.00  0.00     0.059 A 
ATOM     56  C   UNL A   1      36.399  32.309  32.998  1.00  0.00     0.059 A 
ATOM     57  F   UNL A   1      37.850  30.804  34.004  1.00  0.00    -0.206 F 
ATOM     58  C   UNL A   1      36.000  33.035  31.883  1.00  0.00     0.060 A 
BRANCH  58  59
ATOM     59  S   UNL A   1      34.404  33.880  31.878  1.00  0.00     0.124 S 
ATOM     60  O   UNL A   1      33.981  33.713  30.492  1.00  0.00    -0.237 OA
ATOM     61  O   UNL A   1      33.653  33.120  32.871  1.00  0.00    -0.237 OA
ATOM     62  O   UNL A   1      34.742  35.246  32.268  1.00  0.00    -0.744 OA
ENDBRANCH  58  59
ENDBRANCH  26  51
BRANCH  38  63
ATOM     63  C   UNL A   1      43.820  28.830  33.847  1.00  0.00     0.058 A 
ATOM     64  C   UNL A   1      44.154  29.167  35.168  1.00  0.00     0.135 A 
ATOM     65  C   UNL A   1      43.166  27.605  33.637  1.00  0.00     0.135 A 
ATOM     66  F   UNL A   1      44.687  30.363  35.456  1.00  0.00    -0.206 F 
ATOM     67  C   UNL A   1      43.884  28.308  36.232  1.00  0.00     0.059 A 
ATOM     68  C   UNL A   1      42.861  26.744  34.689  1.00  0.00     0.059 A 
ATOM     69  F   UNL A   1      42.765  27.259  32.402  1.00  0.00    -0.206 F 
ATOM     70  C   UNL A   1      43.235  27.099  35.984  1.00  0.00     0.060 A 
BRANCH  70  71
ATOM     71  S   UNL A   1      42.778  26.042  37.377  1.00  0.00     0.124 S 
ATOM     72  O   UNL A   1      43.758  26.426  38.386  1.00  0.00    -0.237 OA
ATOM     73  O   UNL A   1      41.399  26.440  37.648  1.00  0.00    -0.237 OA
ATOM     74  O   UNL A   1      42.928  24.692  36.837  1.00  0.00    -0.744 OA
ENDBRANCH  70  71
ENDBRANCH  38  63
ENDBRANCH  12  13
ENDBRANCH   5   7
ENDBRANCH   2   3
ENDBRANCH   1   2
BRANCH   1  75
ATOM     75  C   UNL A   1      34.506  24.448  25.541  1.00  0.00     0.002 C 
BRANCH  75  76
ATOM     76  C   UNL A   1      34.421  25.932  25.169  1.00  0.00     0.002 C 
BRANCH  76  77
ATOM     77  C   UNL A   1      33.349  26.747  25.897  1.00  0.00     0.021 C 
BRANCH  77  78
ATOM     78  C   UNL A   1      32.249  25.930  26.569  1.00  0.00     0.116 C 
BRANCH  78  79
ATOM     79  N   UNL A   1      30.931  26.207  26.019  1.00  0.00    -0.352 N 
ATOM     80  C   UNL A   1      30.293  25.599  24.965  1.00  0.00     0.256 C 
ATOM     81  H   UNL A   1      30.429  26.927  26.462  1.00  0.00     0.163 HD
ATOM     82  O   UNL A   1      29.147  25.953  24.673  1.00  0.00    -0.269 OA
BRANCH  80  83
ATOM     83  C   UNL A   1      30.984  24.557  24.250  1.00  0.00     0.100 A 
ATOM     84  C   UNL A   1      31.678  24.560  23.017  1.00  0.00     0.080 A 
ATOM     85  C   UNL A   1      31.057  23.237  24.653  1.00  0.00     0.145 A 
ATOM     86  N   UNL A   1      32.292  23.394  22.779  1.00  0.00    -0.170 NA
ATOM     87  N   UNL A   1      31.905  22.577  23.791  1.00  0.00    -0.221 N 
ATOM     88  Cl  UNL A   1      30.414  22.503  26.056  1.00  0.00    -0.061 Cl
BRANCH  84  89
ATOM     89  C   UNL A   1      31.870  25.670  21.990  1.00  0.00     0.041 C 
ATOM     90  C   UNL A   1      32.091  27.115  22.364  1.00  0.00     0.011 C 
ATOM     91  C   UNL A   1      33.225  26.314  21.819  1.00  0.00     0.011 C 
ENDBRANCH  84  89
BRANCH  87  92
ATOM     92  C   UNL A   1      32.460  21.271  23.864  1.00  0.00     0.069 A 
ATOM     93  C   UNL A   1      33.412  21.006  24.864  1.00  0.00     0.030 A 
ATOM     94  C   UNL A   1      32.078  20.257  22.982  1.00  0.00     0.069 A 
ATOM     95  C   UNL A   1      33.927  19.716  25.020  1.00  0.00     0.026 A 
ATOM     96  C   UNL A   1      32.627  18.984  23.125  1.00  0.00     0.143 A 
ATOM     97  C   UNL A   1      33.532  18.703  24.148  1.00  0.00     0.076 A 
ATOM     98  F   UNL A   1      32.273  18.034  22.248  1.00  0.00    -0.205 F 
ATOM     99  Cl  UNL A   1      34.182  17.122  24.340  1.00  0.00    -0.081 Cl
ENDBRANCH  87  92
ENDBRANCH  80  83
ENDBRANCH  78  79
ENDBRANCH  77  78
ENDBRANCH  76  77
ENDBRANCH  75  76
ENDBRANCH   1  75
TORSDOF 18
ENDMDL
MODEL 2
REMARK VINA RESULT:     -12.3      2.323      3.655
REMARK SMILES O=C(NCCCCCCNC(=O)c1c(C2CC2)nn(-c2ccc(Cl)c(F)c2)c1Cl)c1ccc(-c2c3nc(c(-c4c(F)cc(S(=O)(=O)[O-])cc4F)c4ccc([nH]4)c(-c4c(F)cc(S(=O)(=O)[O-])cc4F)c4nc(c(-c5c(F)cc(S(=O)(=O)[O-])cc5F)c5ccc2[nH]5)C=C4)C=C3)cc1
REMARK SMILES IDX 5 1 4 2 3 3 1 4 2 5 30 7 31 8 95 9 32 10 94 11 33 12 34 13
REMARK SMILES IDX 35 14 88 15 36 16 93 17 87 18 89 19 37 20 92 21 86 22 85 23
REMARK SMILES IDX 38 25 72 26 51 27 71 28 52 29 55 30 70 31 90 32 53 33 54 34
REMARK SMILES IDX 69 36 91 37 56 38 39 39 40 40 49 41 41 42 42 43 48 44 50 45
REMARK SMILES IDX 43 46 44 47 45 48 46 49 47 50 73 51 74 52 83 53 75 54 76 55
REMARK SMILES IDX 82 56 84 57 77 58 78 59 79 60 80 61 81 62 57 63 58 64 67 65
REMARK SMILES IDX 59 66 60 67 66 68 68 69 61 70 62 71 63 72 64 73 65 74 6 75
REMARK SMILES IDX 7 76 8 77 9 78 10 79 11 80 12 82 13 83 14 84 28 85 18 86
REMARK SMILES IDX 19 87 29 88 15 89 16 90 17 91 20 92 21 93 27 94 22 95 25 96
REMARK SMILES IDX 23 97 26 98 24 99
REMARK H PARENT 3 6 89 24 55 35 10 81
REMARK Flexibility Score: inf
ROOT
ATOM      1  C   UNL A   1      40.679  19.880  26.214  1.00  0.00     0.021 C 
ENDROOT
BRANCH   1   2
ATOM      2  C   UNL A   1      42.117  19.414  26.446  1.00  0.00     0.116 C 
BRANCH   2   3
ATOM      3  N   UNL A   1      43.039  19.802  25.400  1.00  0.00    -0.352 N 
ATOM      4  O   UNL A   1      44.456  20.879  24.103  1.00  0.00    -0.269 OA
ATOM      5  C   UNL A   1      43.672  20.964  25.053  1.00  0.00     0.251 C 
ATOM      6  H   UNL A   1      43.264  19.056  24.798  1.00  0.00     0.163 HD
BRANCH   5   7
ATOM      7  C   UNL A   1      43.477  22.290  25.713  1.00  0.00     0.039 A 
ATOM      8  C   UNL A   1      42.955  23.435  25.111  1.00  0.00     0.014 A 
ATOM      9  C   UNL A   1      43.863  22.377  27.064  1.00  0.00     0.014 A 
ATOM     10  C   UNL A   1      42.857  24.637  25.815  1.00  0.00     0.010 A 
ATOM     11  C   UNL A   1      43.745  23.570  27.780  1.00  0.00     0.010 A 
ATOM     12  C   UNL A   1      43.260  24.715  27.149  1.00  0.00    -0.014 A 
BRANCH  12  13
ATOM     13  C   UNL A   1      43.098  26.000  27.840  1.00  0.00     0.031 A 
ATOM     14  C   UNL A   1      44.161  27.035  27.656  1.00  0.00     0.074 A 
ATOM     15  C   UNL A   1      41.971  26.377  28.480  1.00  0.00     0.049 A 
ATOM     16  N   UNL A   1      44.815  27.701  28.558  1.00  0.00    -0.248 NA
ATOM     17  C   UNL A   1      44.524  27.387  26.274  1.00  0.00     0.031 C 
ATOM     18  C   UNL A   1      40.679  25.690  28.471  1.00  0.00     0.029 A 
ATOM     19  N   UNL A   1      41.717  27.533  29.169  1.00  0.00    -0.354 N 
ATOM     20  C   UNL A   1      45.526  28.683  27.871  1.00  0.00     0.074 A 
ATOM     21  C   UNL A   1      45.374  28.396  26.466  1.00  0.00     0.031 C 
ATOM     22  C   UNL A   1      39.731  26.540  28.920  1.00  0.00     0.029 A 
ATOM     23  C   UNL A   1      40.368  27.772  29.365  1.00  0.00     0.049 A 
ATOM     24  H   UNL A   1      42.425  28.135  29.493  1.00  0.00     0.167 HD
ATOM     25  C   UNL A   1      46.063  29.778  28.473  1.00  0.00     0.037 A 
ATOM     26  C   UNL A   1      39.788  28.919  29.786  1.00  0.00     0.037 A 
ATOM     27  C   UNL A   1      46.165  29.657  29.900  1.00  0.00     0.049 A 
ATOM     28  C   UNL A   1      40.788  29.752  30.494  1.00  0.00     0.074 A 
ATOM     29  C   UNL A   1      46.832  28.829  30.778  1.00  0.00     0.029 A 
ATOM     30  N   UNL A   1      45.308  30.407  30.663  1.00  0.00    -0.354 N 
ATOM     31  N   UNL A   1      41.326  29.460  31.646  1.00  0.00    -0.248 NA
ATOM     32  C   UNL A   1      41.387  30.887  29.801  1.00  0.00     0.031 C 
ATOM     33  C   UNL A   1      46.079  28.853  31.987  1.00  0.00     0.029 A 
ATOM     34  C   UNL A   1      44.964  29.659  31.760  1.00  0.00     0.049 A 
ATOM     35  H   UNL A   1      44.996  31.319  30.460  1.00  0.00     0.167 HD
ATOM     36  C   UNL A   1      42.542  30.120  31.649  1.00  0.00     0.074 A 
ATOM     37  C   UNL A   1      42.445  31.102  30.583  1.00  0.00     0.031 C 
ATOM     38  C   UNL A   1      43.622  29.605  32.301  1.00  0.00     0.037 A 
BRANCH  25  39
ATOM     39  C   UNL A   1      46.239  31.113  27.791  1.00  0.00     0.058 A 
ATOM     40  C   UNL A   1      47.510  31.717  27.735  1.00  0.00     0.135 A 
ATOM     41  C   UNL A   1      45.145  31.939  27.450  1.00  0.00     0.135 A 
ATOM     42  F   UNL A   1      48.610  31.022  28.066  1.00  0.00    -0.206 F 
ATOM     43  C   UNL A   1      47.682  33.063  27.408  1.00  0.00     0.059 A 
ATOM     44  C   UNL A   1      45.298  33.271  27.078  1.00  0.00     0.059 A 
ATOM     45  F   UNL A   1      43.883  31.501  27.556  1.00  0.00    -0.206 F 
ATOM     46  C   UNL A   1      46.565  33.836  27.101  1.00  0.00     0.060 A 
BRANCH  46  47
ATOM     47  S   UNL A   1      46.762  35.601  26.781  1.00  0.00     0.124 S 
ATOM     48  O   UNL A   1      47.912  35.603  25.885  1.00  0.00    -0.237 OA
ATOM     49  O   UNL A   1      45.482  35.958  26.178  1.00  0.00    -0.237 OA
ATOM     50  O   UNL A   1      46.992  36.151  28.114  1.00  0.00    -0.744 OA
ENDBRANCH  46  47
ENDBRANCH  25  39
BRANCH  26  51
ATOM     51  C   UNL A   1      38.445  29.431  29.423  1.00  0.00     0.058 A 
ATOM     52  C   UNL A   1      37.483  29.729  30.402  1.00  0.00     0.135 A 
ATOM     53  C   UNL A   1      38.155  29.859  28.111  1.00  0.00     0.135 A 
ATOM     54  F   UNL A   1      37.699  29.401  31.685  1.00  0.00    -0.206 F 
ATOM     55  C   UNL A   1      36.307  30.419  30.100  1.00  0.00     0.059 A 
ATOM     56  C   UNL A   1      36.981  30.528  27.781  1.00  0.00     0.059 A 
ATOM     57  F   UNL A   1      39.049  29.709  27.121  1.00  0.00    -0.206 F 
ATOM     58  C   UNL A   1      36.066  30.820  28.785  1.00  0.00     0.060 A 
BRANCH  58  59
ATOM     59  S   UNL A   1      34.604  31.813  28.414  1.00  0.00     0.124 S 
ATOM     60  O   UNL A   1      35.141  32.803  27.488  1.00  0.00    -0.237 OA
ATOM     61  O   UNL A   1      33.700  30.823  27.839  1.00  0.00    -0.237 OA
ATOM     62  O   UNL A   1      34.206  32.331  29.720  1.00  0.00    -0.744 OA
ENDBRANCH  58  59
ENDBRANCH  26  51
BRANCH  38  63
ATOM     63  C   UNL A   1      43.373  28.637  33.421  1.00  0.00     0.058 A 
ATOM     64  C   UNL A   1      43.112  29.032  34.742  1.00  0.00     0.135 A 
ATOM     65  C   UNL A   1      43.254  27.271  33.117  1.00  0.00     0.135 A 
ATOM     66  F   UNL A   1      43.106  30.330  35.081  1.00  0.00    -0.206 F 
ATOM     67  C   UNL A   1      42.782  28.106  35.730  1.00  0.00     0.059 A 
ATOM     68  C   UNL A   1      42.899  26.332  34.083  1.00  0.00     0.059 A 
ATOM     69  F   UNL A   1      43.430  26.844  31.856  1.00  0.00    -0.206 F 
ATOM     70  C   UNL A   1      42.676  26.757  35.391  1.00  0.00     0.060 A 
BRANCH  70  71
ATOM     71  S   UNL A   1      42.131  25.574  36.644  1.00  0.00     0.124 S 
ATOM     72  O   UNL A   1      42.904  24.386  36.299  1.00  0.00    -0.237 OA
ATOM     73  O   UNL A   1      42.502  26.230  37.895  1.00  0.00    -0.237 OA
ATOM     74  O   UNL A   1      40.692  25.475  36.409  1.00  0.00    -0.744 OA
ENDBRANCH  70  71
ENDBRANCH  38  63
ENDBRANCH  12  13
ENDBRANCH   5   7
ENDBRANCH   2   3
ENDBRANCH   1   2
BRANCH   1  75
ATOM     75  C   UNL A   1      40.268  21.150  26.969  1.00  0.00     0.002 C 
BRANCH  75  76
ATOM     76  C   UNL A   1      39.658  22.274  26.126  1.00  0.00     0.002 C 
BRANCH  76  77
ATOM     77  C   UNL A   1      38.727  23.239  26.864  1.00  0.00     0.021 C 
BRANCH  77  78
ATOM     78  C   UNL A   1      37.380  23.493  26.192  1.00  0.00     0.116 C 
BRANCH  78  79
ATOM     79  N   UNL A   1      37.492  23.627  24.748  1.00  0.00    -0.352 N 
ATOM     80  C   UNL A   1      36.710  23.068  23.768  1.00  0.00     0.256 C 
ATOM     81  H   UNL A   1      38.229  24.196  24.431  1.00  0.00     0.163 HD
ATOM     82  O   UNL A   1      36.943  23.338  22.587  1.00  0.00    -0.269 OA
BRANCH  80  83
ATOM     83  C   UNL A   1      35.631  22.197  24.161  1.00  0.00     0.100 A 
ATOM     84  C   UNL A   1      34.240  22.420  24.290  1.00  0.00     0.080 A 
ATOM     85  C   UNL A   1      35.782  20.885  24.566  1.00  0.00     0.145 A 
ATOM     86  N   UNL A   1      33.569  21.293  24.559  1.00  0.00    -0.170 NA
ATOM     87  N   UNL A   1      34.526  20.345  24.731  1.00  0.00    -0.221 N 
ATOM     88  Cl  UNL A   1      37.209  19.951  24.679  1.00  0.00    -0.061 Cl
BRANCH  84  89
ATOM     89  C   UNL A   1      33.419  23.693  24.118  1.00  0.00     0.041 C 
ATOM     90  C   UNL A   1      32.388  24.156  25.118  1.00  0.00     0.011 C 
ATOM     91  C   UNL A   1      33.683  24.888  25.004  1.00  0.00     0.011 C 
ENDBRANCH  84  89
BRANCH  87  92
ATOM     92  C   UNL A   1      34.123  19.001  24.954  1.00  0.00     0.069 A 
ATOM     93  C   UNL A   1      32.844  18.768  25.493  1.00  0.00     0.030 A 
ATOM     94  C   UNL A   1      34.954  17.921  24.647  1.00  0.00     0.069 A 
ATOM     95  C   UNL A   1      32.378  17.461  25.658  1.00  0.00     0.026 A 
ATOM     96  C   UNL A   1      34.490  16.622  24.851  1.00  0.00     0.143 A 
ATOM     97  C   UNL A   1      33.204  16.386  25.336  1.00  0.00     0.076 A 
ATOM     98  F   UNL A   1      35.316  15.600  24.582  1.00  0.00    -0.205 F 
ATOM     99  Cl  UNL A   1      32.626  14.780  25.556  1.00  0.00    -0.081 Cl
ENDBRANCH  87  92
ENDBRANCH  80  83
ENDBRANCH  78  79
ENDBRANCH  77  78
ENDBRANCH  76  77
ENDBRANCH  75  76
ENDBRANCH   1  75
TORSDOF 18
ENDMDL
MODEL 3
REMARK VINA RESULT:     -12.2      2.822      8.795
REMARK SMILES O=C(NCCCCCCNC(=O)c1c(C2CC2)nn(-c2ccc(Cl)c(F)c2)c1Cl)c1ccc(-c2c3nc(c(-c4c(F)cc(S(=O)(=O)[O-])cc4F)c4ccc([nH]4)c(-c4c(F)cc(S(=O)(=O)[O-])cc4F)c4nc(c(-c5c(F)cc(S(=O)(=O)[O-])cc5F)c5ccc2[nH]5)C=C4)C=C3)cc1
REMARK SMILES IDX 5 1 4 2 3 3 1 4 2 5 30 7 31 8 95 9 32 10 94 11 33 12 34 13
REMARK SMILES IDX 35 14 88 15 36 16 93 17 87 18 89 19 37 20 92 21 86 22 85 23
REMARK SMILES IDX 38 25 72 26 51 27 71 28 52 29 55 30 70 31 90 32 53 33 54 34
REMARK SMILES IDX 69 36 91 37 56 38 39 39 40 40 49 41 41 42 42 43 48 44 50 45
REMARK SMILES IDX 43 46 44 47 45 48 46 49 47 50 73 51 74 52 83 53 75 54 76 55
REMARK SMILES IDX 82 56 84 57 77 58 78 59 79 60 80 61 81 62 57 63 58 64 67 65
REMARK SMILES IDX 59 66 60 67 66 68 68 69 61 70 62 71 63 72 64 73 65 74 6 75
REMARK SMILES IDX 7 76 8 77 9 78 10 79 11 80 12 82 13 83 14 84 28 85 18 86
REMARK SMILES IDX 19 87 29 88 15 89 16 90 17 91 20 92 21 93 27 94 22 95 25 96
REMARK SMILES IDX 23 97 26 98 24 99
REMARK H PARENT 3 6 89 24 55 35 10 81
REMARK Flexibility Score: inf
ROOT
ATOM      1  C   UNL A   1      32.121  28.833  27.087  1.00  0.00     0.021 C 
ENDROOT
BRANCH   1   2
ATOM      2  C   UNL A   1      33.459  29.570  27.017  1.00  0.00     0.116 C 
BRANCH   2   3
ATOM      3  N   UNL A   1      33.463  30.852  27.688  1.00  0.00    -0.352 N 
ATOM      4  O   UNL A   1      34.029  32.709  28.729  1.00  0.00    -0.269 OA
ATOM      5  C   UNL A   1      34.411  31.607  28.324  1.00  0.00     0.251 C 
ATOM      6  H   UNL A   1      32.578  31.282  27.687  1.00  0.00     0.163 HD
BRANCH   5   7
ATOM      7  C   UNL A   1      35.826  31.198  28.570  1.00  0.00     0.039 A 
ATOM      8  C   UNL A   1      36.897  32.059  28.810  1.00  0.00     0.014 A 
ATOM      9  C   UNL A   1      36.087  29.814  28.550  1.00  0.00     0.014 A 
ATOM     10  C   UNL A   1      38.192  31.565  28.985  1.00  0.00     0.010 A 
ATOM     11  C   UNL A   1      37.377  29.314  28.748  1.00  0.00     0.010 A 
ATOM     12  C   UNL A   1      38.441  30.192  28.945  1.00  0.00    -0.014 A 
BRANCH  12  13
ATOM     13  C   UNL A   1      39.819  29.739  29.171  1.00  0.00     0.031 A 
ATOM     14  C   UNL A   1      40.332  29.726  30.575  1.00  0.00     0.074 A 
ATOM     15  C   UNL A   1      40.590  29.164  28.225  1.00  0.00     0.049 A 
ATOM     16  N   UNL A   1      41.422  30.247  31.049  1.00  0.00    -0.248 NA
ATOM     17  C   UNL A   1      39.526  29.011  31.578  1.00  0.00     0.031 C 
ATOM     18  C   UNL A   1      40.175  28.734  26.889  1.00  0.00     0.029 A 
ATOM     19  N   UNL A   1      41.884  28.725  28.316  1.00  0.00    -0.354 N 
ATOM     20  C   UNL A   1      41.540  29.771  32.354  1.00  0.00     0.074 A 
ATOM     21  C   UNL A   1      40.310  29.081  32.654  1.00  0.00     0.031 C 
ATOM     22  C   UNL A   1      41.113  27.903  26.388  1.00  0.00     0.029 A 
ATOM     23  C   UNL A   1      42.242  27.849  27.307  1.00  0.00     0.049 A 
ATOM     24  H   UNL A   1      42.500  29.005  29.031  1.00  0.00     0.167 HD
ATOM     25  C   UNL A   1      42.699  29.816  33.066  1.00  0.00     0.037 A 
ATOM     26  C   UNL A   1      43.343  27.066  27.248  1.00  0.00     0.037 A 
ATOM     27  C   UNL A   1      43.673  30.716  32.519  1.00  0.00     0.049 A 
ATOM     28  C   UNL A   1      44.387  27.606  28.149  1.00  0.00     0.074 A 
ATOM     29  C   UNL A   1      43.748  32.073  32.285  1.00  0.00     0.029 A 
ATOM     30  N   UNL A   1      44.775  30.166  31.916  1.00  0.00    -0.354 N 
ATOM     31  N   UNL A   1      45.027  28.728  27.967  1.00  0.00    -0.248 NA
ATOM     32  C   UNL A   1      44.606  26.971  29.444  1.00  0.00     0.031 C 
ATOM     33  C   UNL A   1      44.692  32.237  31.230  1.00  0.00     0.029 A 
ATOM     34  C   UNL A   1      45.105  30.961  30.847  1.00  0.00     0.049 A 
ATOM     35  H   UNL A   1      45.245  29.349  32.198  1.00  0.00     0.167 HD
ATOM     36  C   UNL A   1      45.423  29.122  29.233  1.00  0.00     0.074 A 
ATOM     37  C   UNL A   1      45.291  27.935  30.060  1.00  0.00     0.031 C 
ATOM     38  C   UNL A   1      45.522  30.441  29.562  1.00  0.00     0.037 A 
BRANCH  25  39
ATOM     39  C   UNL A   1      43.076  28.809  34.125  1.00  0.00     0.058 A 
ATOM     40  C   UNL A   1      43.159  27.441  33.804  1.00  0.00     0.135 A 
ATOM     41  C   UNL A   1      43.073  29.123  35.502  1.00  0.00     0.135 A 
ATOM     42  F   UNL A   1      43.142  27.040  32.522  1.00  0.00    -0.206 F 
ATOM     43  C   UNL A   1      43.190  26.446  34.781  1.00  0.00     0.059 A 
ATOM     44  C   UNL A   1      43.148  28.150  36.494  1.00  0.00     0.059 A 
ATOM     45  F   UNL A   1      42.904  30.383  35.929  1.00  0.00    -0.206 F 
ATOM     46  C   UNL A   1      43.163  26.812  36.125  1.00  0.00     0.060 A 
BRANCH  46  47
ATOM     47  S   UNL A   1      43.095  25.534  37.397  1.00  0.00     0.124 S 
ATOM     48  O   UNL A   1      41.742  25.021  37.215  1.00  0.00    -0.237 OA
ATOM     49  O   UNL A   1      44.177  24.637  37.003  1.00  0.00    -0.237 OA
ATOM     50  O   UNL A   1      43.332  26.284  38.627  1.00  0.00    -0.744 OA
ENDBRANCH  46  47
ENDBRANCH  25  39
BRANCH  26  51
ATOM     51  C   UNL A   1      43.467  25.739  26.597  1.00  0.00     0.058 A 
ATOM     52  C   UNL A   1      44.317  25.537  25.498  1.00  0.00     0.135 A 
ATOM     53  C   UNL A   1      42.923  24.581  27.190  1.00  0.00     0.135 A 
ATOM     54  F   UNL A   1      44.914  26.580  24.904  1.00  0.00    -0.206 F 
ATOM     55  C   UNL A   1      44.618  24.259  25.019  1.00  0.00     0.059 A 
ATOM     56  C   UNL A   1      43.191  23.300  26.717  1.00  0.00     0.059 A 
ATOM     57  F   UNL A   1      42.177  24.658  28.302  1.00  0.00    -0.206 F 
ATOM     58  C   UNL A   1      44.054  23.145  25.640  1.00  0.00     0.060 A 
BRANCH  58  59
ATOM     59  S   UNL A   1      44.533  21.490  25.097  1.00  0.00     0.124 S 
ATOM     60  O   UNL A   1      45.867  21.361  25.672  1.00  0.00    -0.237 OA
ATOM     61  O   UNL A   1      43.495  20.658  25.697  1.00  0.00    -0.237 OA
ATOM     62  O   UNL A   1      44.486  21.584  23.641  1.00  0.00    -0.744 OA
ENDBRANCH  58  59
ENDBRANCH  26  51
BRANCH  38  63
ATOM     63  C   UNL A   1      45.718  31.431  28.452  1.00  0.00     0.058 A 
ATOM     64  C   UNL A   1      44.665  31.952  27.684  1.00  0.00     0.135 A 
ATOM     65  C   UNL A   1      46.997  31.976  28.253  1.00  0.00     0.135 A 
ATOM     66  F   UNL A   1      43.402  31.552  27.892  1.00  0.00    -0.206 F 
ATOM     67  C   UNL A   1      44.878  32.947  26.732  1.00  0.00     0.059 A 
ATOM     68  C   UNL A   1      47.227  32.991  27.326  1.00  0.00     0.059 A 
ATOM     69  F   UNL A   1      48.031  31.561  29.003  1.00  0.00    -0.206 F 
ATOM     70  C   UNL A   1      46.162  33.463  26.561  1.00  0.00     0.060 A 
BRANCH  70  71
ATOM     71  S   UNL A   1      46.415  34.837  25.414  1.00  0.00     0.124 S 
ATOM     72  O   UNL A   1      45.469  34.524  24.350  1.00  0.00    -0.237 OA
ATOM     73  O   UNL A   1      46.091  36.005  26.228  1.00  0.00    -0.237 OA
ATOM     74  O   UNL A   1      47.826  34.717  25.053  1.00  0.00    -0.744 OA
ENDBRANCH  70  71
ENDBRANCH  38  63
ENDBRANCH  12  13
ENDBRANCH   5   7
ENDBRANCH   2   3
ENDBRANCH   1   2
BRANCH   1  75
ATOM     75  C   UNL A   1      31.414  28.621  25.743  1.00  0.00     0.002 C 
BRANCH  75  76
ATOM     76  C   UNL A   1      31.091  27.170  25.369  1.00  0.00     0.002 C 
BRANCH  76  77
ATOM     77  C   UNL A   1      31.954  26.095  26.034  1.00  0.00     0.021 C 
BRANCH  77  78
ATOM     78  C   UNL A   1      31.261  24.757  26.277  1.00  0.00     0.116 C 
BRANCH  78  79
ATOM     79  N   UNL A   1      30.579  24.258  25.094  1.00  0.00    -0.352 N 
ATOM     80  C   UNL A   1      31.121  23.773  23.928  1.00  0.00     0.256 C 
ATOM     81  H   UNL A   1      29.596  24.268  25.134  1.00  0.00     0.163 HD
ATOM     82  O   UNL A   1      30.367  23.354  23.046  1.00  0.00    -0.269 OA
BRANCH  80  83
ATOM     83  C   UNL A   1      32.555  23.758  23.789  1.00  0.00     0.100 A 
ATOM     84  C   UNL A   1      33.429  24.497  22.958  1.00  0.00     0.080 A 
ATOM     85  C   UNL A   1      33.406  22.908  24.469  1.00  0.00     0.145 A 
ATOM     86  N   UNL A   1      34.716  24.264  23.242  1.00  0.00    -0.170 NA
ATOM     87  N   UNL A   1      34.700  23.279  24.176  1.00  0.00    -0.221 N 
ATOM     88  Cl  UNL A   1      33.031  21.715  25.634  1.00  0.00    -0.061 Cl
BRANCH  84  89
ATOM     89  C   UNL A   1      33.131  25.523  21.869  1.00  0.00     0.041 C 
ATOM     90  C   UNL A   1      31.856  26.329  21.816  1.00  0.00     0.011 C 
ATOM     91  C   UNL A   1      33.134  26.997  22.200  1.00  0.00     0.011 C 
ENDBRANCH  84  89
BRANCH  87  92
ATOM     92  C   UNL A   1      35.931  22.859  24.746  1.00  0.00     0.069 A 
ATOM     93  C   UNL A   1      36.363  21.542  24.505  1.00  0.00     0.030 A 
ATOM     94  C   UNL A   1      36.715  23.715  25.522  1.00  0.00     0.069 A 
ATOM     95  C   UNL A   1      37.603  21.110  24.983  1.00  0.00     0.026 A 
ATOM     96  C   UNL A   1      37.933  23.260  26.025  1.00  0.00     0.143 A 
ATOM     97  C   UNL A   1      38.389  21.973  25.745  1.00  0.00     0.076 A 
ATOM     98  F   UNL A   1      38.654  24.087  26.796  1.00  0.00    -0.205 F 
ATOM     99  Cl  UNL A   1      39.909  21.427  26.340  1.00  0.00    -0.081 Cl
ENDBRANCH  87  92
ENDBRANCH  80  83
ENDBRANCH  78  79
ENDBRANCH  77  78
ENDBRANCH  76  77
ENDBRANCH  75  76
ENDBRANCH   1  75
TORSDOF 18
ENDMDL
