MODEL 1
REMARK VINA RESULT:     -11.4      0.000      0.000
REMARK SMILES CC[C@](C)(NC(=O)N1Cc2ccccc2C1)C(=O)NCCCCCCNC(=O)c1ccc(-c2c3nc(c(-c4c(F)cc(S(=O)(=O)[O-])cc4F)c4ccc([nH]4)c(-c4c(F)cc(S(=O)(=O)[O-])cc4F)c4nc(c(-c5c(F)cc(S(=O)(=O)[O-])cc5F)c5ccc2[nH]5)C=C4)C=C3)cc1
REMARK SMILES IDX 23 1 22 2 21 3 20 4 19 5 17 6 18 7 3 9 4 10 2 11 1 12 5 13
REMARK SMILES IDX 6 14 7 16 8 17 9 18 16 19 10 20 15 21 11 22 14 23 12 24
REMARK SMILES IDX 13 25 24 26 25 27 26 28 27 29 28 31 29 32 30 33 94 34 31 35
REMARK SMILES IDX 93 36 32 37 33 38 34 39 87 40 35 41 92 42 86 43 88 44 36 45
REMARK SMILES IDX 91 46 85 47 84 48 37 50 71 51 50 52 70 53 51 54 54 55 69 56
REMARK SMILES IDX 89 57 52 58 53 59 68 61 90 62 55 63 38 64 39 65 48 66 40 67
REMARK SMILES IDX 41 68 47 69 49 70 42 71 43 72 44 73 45 74 46 75 72 76 73 77
REMARK SMILES IDX 82 78 74 79 75 80 81 81 83 82 76 83 77 84 78 85 79 86 80 87
REMARK SMILES IDX 56 88 57 89 66 90 58 91 59 92 65 93 67 94 60 95 61 96 62 97
REMARK SMILES IDX 63 98 64 99
REMARK H PARENT 19 8 5 15 26 30 88 49 54 60
REMARK Flexibility Score: inf
ROOT
ATOM      1  C   UNL A   1      32.013  30.901  26.319  1.00  0.00     0.002 C 
ENDROOT
BRANCH   1   2
ATOM      2  C   UNL A   1      32.182  29.648  27.170  1.00  0.00     0.002 C 
BRANCH   2   3
ATOM      3  C   UNL A   1      33.517  28.915  27.037  1.00  0.00     0.021 C 
BRANCH   3   4
ATOM      4  C   UNL A   1      33.510  27.495  26.460  1.00  0.00     0.116 C 
BRANCH   4   5
ATOM      5  N   UNL A   1      33.599  27.372  25.012  1.00  0.00    -0.354 N 
ATOM      6  C   UNL A   1      32.750  26.838  24.076  1.00  0.00     0.245 C 
ATOM      7  O   UNL A   1      33.066  26.994  22.890  1.00  0.00    -0.272 OA
ATOM      8  H   UNL A   1      34.428  27.744  24.632  1.00  0.00     0.163 HD
BRANCH   6   9
ATOM      9  C   UNL A   1      31.402  26.171  24.470  1.00  0.00     0.117 C 
ATOM     10  C   UNL A   1      30.890  25.187  23.399  1.00  0.00     0.045 C 
BRANCH   9  11
ATOM     11  C   UNL A   1      30.444  27.415  24.492  1.00  0.00     0.035 C 
ATOM     12  C   UNL A   1      29.299  27.473  23.496  1.00  0.00     0.007 C 
ENDBRANCH   9  11
BRANCH   9  13
ATOM     13  N   UNL A   1      31.457  25.448  25.764  1.00  0.00    -0.324 N 
ATOM     14  C   UNL A   1      31.876  24.215  26.154  1.00  0.00     0.318 C 
ATOM     15  H   UNL A   1      31.111  25.986  26.513  1.00  0.00     0.166 HD
ATOM     16  O   UNL A   1      31.372  23.792  27.200  1.00  0.00    -0.249 OA
ATOM     17  N   UNL A   1      32.833  23.494  25.503  1.00  0.00    -0.316 N 
ATOM     18  C   UNL A   1      33.337  22.240  26.104  1.00  0.00     0.157 C 
ATOM     19  C   UNL A   1      33.668  23.872  24.377  1.00  0.00     0.157 C 
ATOM     20  C   UNL A   1      34.630  21.969  25.383  1.00  0.00    -0.023 A 
ATOM     21  C   UNL A   1      34.815  22.926  24.389  1.00  0.00    -0.023 A 
ATOM     22  C   UNL A   1      35.609  21.019  25.612  1.00  0.00     0.006 A 
ATOM     23  C   UNL A   1      35.983  23.015  23.648  1.00  0.00     0.006 A 
ATOM     24  C   UNL A   1      36.792  21.081  24.858  1.00  0.00     0.000 A 
ATOM     25  C   UNL A   1      36.985  22.083  23.895  1.00  0.00     0.000 A 
ENDBRANCH   9  13
ENDBRANCH   6   9
ENDBRANCH   4   5
ENDBRANCH   3   4
ENDBRANCH   2   3
ENDBRANCH   1   2
BRANCH   1  26
ATOM     26  C   UNL A   1      31.720  32.174  27.106  1.00  0.00     0.021 C 
BRANCH  26  27
ATOM     27  C   UNL A   1      32.954  32.955  27.533  1.00  0.00     0.116 C 
BRANCH  27  28
ATOM     28  N   UNL A   1      32.653  34.345  27.840  1.00  0.00    -0.352 N 
ATOM     29  C   UNL A   1      33.157  35.119  28.859  1.00  0.00     0.251 C 
ATOM     30  H   UNL A   1      32.007  34.787  27.244  1.00  0.00     0.163 HD
ATOM     31  O   UNL A   1      32.676  36.222  29.103  1.00  0.00    -0.269 OA
BRANCH  29  32
ATOM     32  C   UNL A   1      34.269  34.588  29.674  1.00  0.00     0.039 A 
ATOM     33  C   UNL A   1      33.982  33.900  30.853  1.00  0.00     0.014 A 
ATOM     34  C   UNL A   1      35.589  34.724  29.235  1.00  0.00     0.014 A 
ATOM     35  C   UNL A   1      35.019  33.290  31.561  1.00  0.00     0.010 A 
ATOM     36  C   UNL A   1      36.609  34.050  29.898  1.00  0.00     0.010 A 
ATOM     37  C   UNL A   1      36.336  33.330  31.071  1.00  0.00    -0.014 A 
BRANCH  37  38
ATOM     38  C   UNL A   1      37.441  32.626  31.772  1.00  0.00     0.031 A 
ATOM     39  C   UNL A   1      37.949  33.150  33.088  1.00  0.00     0.074 A 
ATOM     40  C   UNL A   1      38.026  31.557  31.195  1.00  0.00     0.049 A 
ATOM     41  N   UNL A   1      38.938  32.713  33.824  1.00  0.00    -0.248 NA
ATOM     42  C   UNL A   1      37.277  34.340  33.635  1.00  0.00     0.031 C 
ATOM     43  C   UNL A   1      37.659  30.989  29.896  1.00  0.00     0.029 A 
ATOM     44  N   UNL A   1      39.062  30.763  31.621  1.00  0.00    -0.354 N 
ATOM     45  C   UNL A   1      39.016  33.580  34.907  1.00  0.00     0.074 A 
ATOM     46  C   UNL A   1      38.012  34.600  34.707  1.00  0.00     0.031 C 
ATOM     47  C   UNL A   1      38.439  29.925  29.643  1.00  0.00     0.029 A 
ATOM     48  C   UNL A   1      39.388  29.758  30.739  1.00  0.00     0.049 A 
ATOM     49  H   UNL A   1      39.528  30.900  32.477  1.00  0.00     0.167 HD
ATOM     50  C   UNL A   1      39.835  33.517  35.985  1.00  0.00     0.037 A 
ATOM     51  C   UNL A   1      40.348  28.814  30.803  1.00  0.00     0.037 A 
ATOM     52  C   UNL A   1      40.812  32.480  36.191  1.00  0.00     0.049 A 
ATOM     53  C   UNL A   1      41.243  28.763  32.013  1.00  0.00     0.074 A 
ATOM     54  C   UNL A   1      41.641  32.286  37.283  1.00  0.00     0.029 A 
ATOM     55  N   UNL A   1      41.097  31.467  35.287  1.00  0.00    -0.354 N 
ATOM     56  N   UNL A   1      41.249  29.545  33.067  1.00  0.00    -0.248 NA
ATOM     57  C   UNL A   1      42.256  27.700  32.047  1.00  0.00     0.031 C 
ATOM     58  C   UNL A   1      42.464  31.188  37.015  1.00  0.00     0.029 A 
ATOM     59  C   UNL A   1      42.108  30.661  35.783  1.00  0.00     0.049 A 
ATOM     60  H   UNL A   1      40.647  31.340  34.421  1.00  0.00     0.167 HD
ATOM     61  C   UNL A   1      42.245  29.049  33.903  1.00  0.00     0.074 A 
ATOM     62  C   UNL A   1      42.811  27.894  33.237  1.00  0.00     0.031 C 
ATOM     63  C   UNL A   1      42.654  29.508  35.112  1.00  0.00     0.037 A 
BRANCH  50  64
ATOM     64  C   UNL A   1      39.708  34.596  37.026  1.00  0.00     0.058 A 
ATOM     65  C   UNL A   1      38.825  34.479  38.111  1.00  0.00     0.135 A 
ATOM     66  C   UNL A   1      40.513  35.746  36.961  1.00  0.00     0.135 A 
ATOM     67  F   UNL A   1      38.020  33.408  38.215  1.00  0.00    -0.206 F 
ATOM     68  C   UNL A   1      38.723  35.473  39.079  1.00  0.00     0.059 A 
ATOM     69  C   UNL A   1      40.451  36.738  37.935  1.00  0.00     0.059 A 
ATOM     70  F   UNL A   1      41.374  35.912  35.945  1.00  0.00    -0.206 F 
ATOM     71  C   UNL A   1      39.543  36.598  38.984  1.00  0.00     0.060 A 
BRANCH  71  72
ATOM     72  S   UNL A   1      39.410  37.871  40.257  1.00  0.00     0.124 S 
ATOM     73  O   UNL A   1      38.139  38.499  39.909  1.00  0.00    -0.237 OA
ATOM     74  O   UNL A   1      39.411  37.082  41.485  1.00  0.00    -0.237 OA
ATOM     75  O   UNL A   1      40.595  38.694  40.041  1.00  0.00    -0.744 OA
ENDBRANCH  71  72
ENDBRANCH  50  64
BRANCH  51  76
ATOM     76  C   UNL A   1      40.502  27.829  29.699  1.00  0.00     0.058 A 
ATOM     77  C   UNL A   1      41.534  27.952  28.756  1.00  0.00     0.135 A 
ATOM     78  C   UNL A   1      39.621  26.744  29.562  1.00  0.00     0.135 A 
ATOM     79  F   UNL A   1      42.399  28.975  28.840  1.00  0.00    -0.206 F 
ATOM     80  C   UNL A   1      41.676  27.052  27.705  1.00  0.00     0.059 A 
ATOM     81  C   UNL A   1      39.760  25.814  28.535  1.00  0.00     0.059 A 
ATOM     82  F   UNL A   1      38.627  26.568  30.445  1.00  0.00    -0.206 F 
ATOM     83  C   UNL A   1      40.783  25.984  27.605  1.00  0.00     0.060 A 
BRANCH  83  84
ATOM     84  S   UNL A   1      40.998  24.799  26.259  1.00  0.00     0.124 S 
ATOM     85  O   UNL A   1      42.186  24.073  26.693  1.00  0.00    -0.237 OA
ATOM     86  O   UNL A   1      39.743  24.055  26.303  1.00  0.00    -0.237 OA
ATOM     87  O   UNL A   1      41.171  25.652  25.087  1.00  0.00    -0.744 OA
ENDBRANCH  83  84
ENDBRANCH  51  76
BRANCH  63  88
ATOM     88  C   UNL A   1      43.739  28.739  35.816  1.00  0.00     0.058 A 
ATOM     89  C   UNL A   1      45.092  29.087  35.690  1.00  0.00     0.135 A 
ATOM     90  C   UNL A   1      43.411  27.676  36.673  1.00  0.00     0.135 A 
ATOM     91  F   UNL A   1      45.461  30.090  34.879  1.00  0.00    -0.206 F 
ATOM     92  C   UNL A   1      46.086  28.390  36.371  1.00  0.00     0.059 A 
ATOM     93  C   UNL A   1      44.385  26.986  37.387  1.00  0.00     0.059 A 
ATOM     94  F   UNL A   1      42.130  27.310  36.839  1.00  0.00    -0.206 F 
ATOM     95  C   UNL A   1      45.722  27.343  37.220  1.00  0.00     0.060 A 
BRANCH  95  96
ATOM     96  S   UNL A   1      47.019  26.471  38.124  1.00  0.00     0.124 S 
ATOM     97  O   UNL A   1      47.690  25.747  37.050  1.00  0.00    -0.237 OA
ATOM     98  O   UNL A   1      47.776  27.569  38.718  1.00  0.00    -0.237 OA
ATOM     99  O   UNL A   1      46.276  25.645  39.071  1.00  0.00    -0.744 OA
ENDBRANCH  95  96
ENDBRANCH  63  88
ENDBRANCH  37  38
ENDBRANCH  29  32
ENDBRANCH  27  28
ENDBRANCH  26  27
ENDBRANCH   1  26
TORSDOF 18
ENDMDL
MODEL 2
REMARK VINA RESULT:     -11.4      6.254      9.043
REMARK SMILES CC[C@](C)(NC(=O)N1Cc2ccccc2C1)C(=O)NCCCCCCNC(=O)c1ccc(-c2c3nc(c(-c4c(F)cc(S(=O)(=O)[O-])cc4F)c4ccc([nH]4)c(-c4c(F)cc(S(=O)(=O)[O-])cc4F)c4nc(c(-c5c(F)cc(S(=O)(=O)[O-])cc5F)c5ccc2[nH]5)C=C4)C=C3)cc1
REMARK SMILES IDX 23 1 22 2 21 3 20 4 19 5 17 6 18 7 3 9 4 10 2 11 1 12 5 13
REMARK SMILES IDX 6 14 7 16 8 17 9 18 16 19 10 20 15 21 11 22 14 23 12 24
REMARK SMILES IDX 13 25 24 26 25 27 26 28 27 29 28 31 29 32 30 33 94 34 31 35
REMARK SMILES IDX 93 36 32 37 33 38 34 39 87 40 35 41 92 42 86 43 88 44 36 45
REMARK SMILES IDX 91 46 85 47 84 48 37 50 71 51 50 52 70 53 51 54 54 55 69 56
REMARK SMILES IDX 89 57 52 58 53 59 68 61 90 62 55 63 38 64 39 65 48 66 40 67
REMARK SMILES IDX 41 68 47 69 49 70 42 71 43 72 44 73 45 74 46 75 72 76 73 77
REMARK SMILES IDX 82 78 74 79 75 80 81 81 83 82 76 83 77 84 78 85 79 86 80 87
REMARK SMILES IDX 56 88 57 89 66 90 58 91 59 92 65 93 67 94 60 95 61 96 62 97
REMARK SMILES IDX 63 98 64 99
REMARK H PARENT 19 8 5 15 26 30 88 49 54 60
REMARK Flexibility Score: inf
ROOT
ATOM      1  C   UNL A   1      34.516  30.114  27.276  1.00  0.00     0.002 C 
ENDROOT
BRANCH   1   2
ATOM      2  C   UNL A   1      33.291  29.970  26.380  1.00  0.00     0.002 C 
BRANCH   2   3
ATOM      3  C   UNL A   1      32.073  29.291  27.004  1.00  0.00     0.021 C 
BRANCH   3   4
ATOM      4  C   UNL A   1      32.188  27.814  27.398  1.00  0.00     0.116 C 
BRANCH   4   5
ATOM      5  N   UNL A   1      31.050  26.960  27.091  1.00  0.00    -0.354 N 
ATOM      6  C   UNL A   1      30.883  25.926  26.205  1.00  0.00     0.245 C 
ATOM      7  O   UNL A   1      29.811  25.313  26.265  1.00  0.00    -0.272 OA
ATOM      8  H   UNL A   1      30.246  27.163  27.622  1.00  0.00     0.163 HD
BRANCH   6   9
ATOM      9  C   UNL A   1      32.022  25.468  25.249  1.00  0.00     0.117 C 
ATOM     10  C   UNL A   1      31.496  24.671  24.038  1.00  0.00     0.045 C 
BRANCH   9  11
ATOM     11  C   UNL A   1      32.817  24.481  26.177  1.00  0.00     0.035 C 
ATOM     12  C   UNL A   1      34.308  24.306  25.950  1.00  0.00     0.007 C 
ENDBRANCH   9  11
BRANCH   9  13
ATOM     13  N   UNL A   1      32.848  26.587  24.735  1.00  0.00    -0.324 N 
ATOM     14  C   UNL A   1      32.728  27.473  23.710  1.00  0.00     0.318 C 
ATOM     15  H   UNL A   1      33.673  26.719  25.256  1.00  0.00     0.166 HD
ATOM     16  O   UNL A   1      33.789  27.963  23.309  1.00  0.00    -0.249 OA
ATOM     17  N   UNL A   1      31.536  27.870  23.182  1.00  0.00    -0.316 N 
ATOM     18  C   UNL A   1      31.507  28.963  22.186  1.00  0.00     0.157 C 
ATOM     19  C   UNL A   1      30.185  27.562  23.615  1.00  0.00     0.157 C 
ATOM     20  C   UNL A   1      30.073  29.417  22.166  1.00  0.00    -0.023 A 
ATOM     21  C   UNL A   1      29.317  28.603  23.004  1.00  0.00    -0.023 A 
ATOM     22  C   UNL A   1      29.476  30.495  21.535  1.00  0.00     0.006 A 
ATOM     23  C   UNL A   1      27.986  28.861  23.295  1.00  0.00     0.006 A 
ATOM     24  C   UNL A   1      28.124  30.762  21.803  1.00  0.00     0.000 A 
ATOM     25  C   UNL A   1      27.389  29.961  22.690  1.00  0.00     0.000 A 
ENDBRANCH   9  13
ENDBRANCH   6   9
ENDBRANCH   4   5
ENDBRANCH   3   4
ENDBRANCH   2   3
ENDBRANCH   1   2
BRANCH   1  26
ATOM     26  C   UNL A   1      34.719  31.507  27.863  1.00  0.00     0.021 C 
BRANCH  26  27
ATOM     27  C   UNL A   1      35.948  31.650  28.750  1.00  0.00     0.116 C 
BRANCH  27  28
ATOM     28  N   UNL A   1      35.742  31.092  30.077  1.00  0.00    -0.352 N 
ATOM     29  C   UNL A   1      36.597  30.303  30.809  1.00  0.00     0.251 C 
ATOM     30  H   UNL A   1      34.883  31.307  30.506  1.00  0.00     0.163 HD
ATOM     31  O   UNL A   1      36.216  29.758  31.841  1.00  0.00    -0.269 OA
BRANCH  29  32
ATOM     32  C   UNL A   1      37.975  30.097  30.317  1.00  0.00     0.039 A 
ATOM     33  C   UNL A   1      39.022  30.020  31.235  1.00  0.00     0.014 A 
ATOM     34  C   UNL A   1      38.213  29.923  28.950  1.00  0.00     0.014 A 
ATOM     35  C   UNL A   1      40.306  29.703  30.786  1.00  0.00     0.010 A 
ATOM     36  C   UNL A   1      39.474  29.530  28.516  1.00  0.00     0.010 A 
ATOM     37  C   UNL A   1      40.535  29.420  29.428  1.00  0.00    -0.014 A 
BRANCH  37  38
ATOM     38  C   UNL A   1      41.879  29.009  28.943  1.00  0.00     0.031 A 
ATOM     39  C   UNL A   1      42.982  30.028  28.836  1.00  0.00     0.074 A 
ATOM     40  C   UNL A   1      42.086  27.740  28.541  1.00  0.00     0.049 A 
ATOM     41  N   UNL A   1      44.200  29.881  28.384  1.00  0.00    -0.248 NA
ATOM     42  C   UNL A   1      42.664  31.400  29.266  1.00  0.00     0.031 C 
ATOM     43  C   UNL A   1      41.079  26.675  28.544  1.00  0.00     0.029 A 
ATOM     44  N   UNL A   1      43.209  27.130  28.040  1.00  0.00    -0.354 N 
ATOM     45  C   UNL A   1      44.787  31.139  28.460  1.00  0.00     0.074 A 
ATOM     46  C   UNL A   1      43.776  32.049  28.950  1.00  0.00     0.031 C 
ATOM     47  C   UNL A   1      41.637  25.540  28.092  1.00  0.00     0.029 A 
ATOM     48  C   UNL A   1      43.026  25.802  27.729  1.00  0.00     0.049 A 
ATOM     49  H   UNL A   1      44.065  27.598  27.914  1.00  0.00     0.167 HD
ATOM     50  C   UNL A   1      46.061  31.497  28.172  1.00  0.00     0.037 A 
ATOM     51  C   UNL A   1      43.878  24.900  27.203  1.00  0.00     0.037 A 
ATOM     52  C   UNL A   1      47.069  30.579  27.713  1.00  0.00     0.049 A 
ATOM     53  C   UNL A   1      45.290  25.323  26.893  1.00  0.00     0.074 A 
ATOM     54  C   UNL A   1      48.407  30.827  27.460  1.00  0.00     0.029 A 
ATOM     55  N   UNL A   1      46.852  29.237  27.432  1.00  0.00    -0.354 N 
ATOM     56  N   UNL A   1      45.851  26.499  27.048  1.00  0.00    -0.248 NA
ATOM     57  C   UNL A   1      46.188  24.296  26.346  1.00  0.00     0.031 C 
ATOM     58  C   UNL A   1      48.986  29.650  26.977  1.00  0.00     0.029 A 
ATOM     59  C   UNL A   1      48.023  28.652  26.983  1.00  0.00     0.049 A 
ATOM     60  H   UNL A   1      45.991  28.771  27.536  1.00  0.00     0.167 HD
ATOM     61  C   UNL A   1      47.174  26.346  26.645  1.00  0.00     0.074 A 
ATOM     62  C   UNL A   1      47.332  24.961  26.253  1.00  0.00     0.031 C 
ATOM     63  C   UNL A   1      48.167  27.268  26.604  1.00  0.00     0.037 A 
BRANCH  50  64
ATOM     64  C   UNL A   1      46.438  32.944  28.346  1.00  0.00     0.058 A 
ATOM     65  C   UNL A   1      46.315  33.872  27.300  1.00  0.00     0.135 A 
ATOM     66  C   UNL A   1      46.888  33.418  29.589  1.00  0.00     0.135 A 
ATOM     67  F   UNL A   1      45.905  33.472  26.085  1.00  0.00    -0.206 F 
ATOM     68  C   UNL A   1      46.651  35.212  27.471  1.00  0.00     0.059 A 
ATOM     69  C   UNL A   1      47.200  34.758  29.792  1.00  0.00     0.059 A 
ATOM     70  F   UNL A   1      47.027  32.574  30.624  1.00  0.00    -0.206 F 
ATOM     71  C   UNL A   1      47.090  35.646  28.722  1.00  0.00     0.060 A 
BRANCH  71  72
ATOM     72  S   UNL A   1      47.506  37.390  28.932  1.00  0.00     0.124 S 
ATOM     73  O   UNL A   1      48.935  37.386  28.635  1.00  0.00    -0.237 OA
ATOM     74  O   UNL A   1      46.655  38.033  27.936  1.00  0.00    -0.237 OA
ATOM     75  O   UNL A   1      47.156  37.659  30.322  1.00  0.00    -0.744 OA
ENDBRANCH  71  72
ENDBRANCH  50  64
BRANCH  51  76
ATOM     76  C   UNL A   1      43.428  23.504  26.952  1.00  0.00     0.058 A 
ATOM     77  C   UNL A   1      43.162  23.051  25.650  1.00  0.00     0.135 A 
ATOM     78  C   UNL A   1      43.254  22.594  28.007  1.00  0.00     0.135 A 
ATOM     79  F   UNL A   1      43.308  23.883  24.609  1.00  0.00    -0.206 F 
ATOM     80  C   UNL A   1      42.719  21.755  25.404  1.00  0.00     0.059 A 
ATOM     81  C   UNL A   1      42.838  21.284  27.782  1.00  0.00     0.059 A 
ATOM     82  F   UNL A   1      43.511  22.969  29.269  1.00  0.00    -0.206 F 
ATOM     83  C   UNL A   1      42.561  20.879  26.478  1.00  0.00     0.060 A 
BRANCH  83  84
ATOM     84  S   UNL A   1      42.020  19.188  26.144  1.00  0.00     0.124 S 
ATOM     85  O   UNL A   1      42.797  18.861  24.954  1.00  0.00    -0.237 OA
ATOM     86  O   UNL A   1      42.407  18.496  27.369  1.00  0.00    -0.237 OA
ATOM     87  O   UNL A   1      40.582  19.331  25.941  1.00  0.00    -0.744 OA
ENDBRANCH  83  84
ENDBRANCH  51  76
BRANCH  63  88
ATOM     88  C   UNL A   1      49.527  26.804  26.158  1.00  0.00     0.058 A 
ATOM     89  C   UNL A   1      49.935  26.891  24.818  1.00  0.00     0.135 A 
ATOM     90  C   UNL A   1      50.454  26.320  27.096  1.00  0.00     0.135 A 
ATOM     91  F   UNL A   1      49.087  27.340  23.880  1.00  0.00    -0.206 F 
ATOM     92  C   UNL A   1      51.207  26.490  24.420  1.00  0.00     0.059 A 
ATOM     93  C   UNL A   1      51.740  25.943  26.725  1.00  0.00     0.059 A 
ATOM     94  F   UNL A   1      50.119  26.228  28.393  1.00  0.00    -0.206 F 
ATOM     95  C   UNL A   1      52.103  26.020  25.382  1.00  0.00     0.060 A 
BRANCH  95  96
ATOM     96  S   UNL A   1      53.762  25.537  24.856  1.00  0.00     0.124 S 
ATOM     97  O   UNL A   1      53.901  26.277  23.607  1.00  0.00    -0.237 OA
ATOM     98  O   UNL A   1      54.588  26.003  25.965  1.00  0.00    -0.237 OA
ATOM     99  O   UNL A   1      53.666  24.087  24.720  1.00  0.00    -0.744 OA
ENDBRANCH  95  96
ENDBRANCH  63  88
ENDBRANCH  37  38
ENDBRANCH  29  32
ENDBRANCH  27  28
ENDBRANCH  26  27
ENDBRANCH   1  26
TORSDOF 18
ENDMDL
MODEL 3
REMARK VINA RESULT:     -11.4      0.501      8.199
REMARK SMILES CC[C@](C)(NC(=O)N1Cc2ccccc2C1)C(=O)NCCCCCCNC(=O)c1ccc(-c2c3nc(c(-c4c(F)cc(S(=O)(=O)[O-])cc4F)c4ccc([nH]4)c(-c4c(F)cc(S(=O)(=O)[O-])cc4F)c4nc(c(-c5c(F)cc(S(=O)(=O)[O-])cc5F)c5ccc2[nH]5)C=C4)C=C3)cc1
REMARK SMILES IDX 23 1 22 2 21 3 20 4 19 5 17 6 18 7 3 9 4 10 2 11 1 12 5 13
REMARK SMILES IDX 6 14 7 16 8 17 9 18 16 19 10 20 15 21 11 22 14 23 12 24
REMARK SMILES IDX 13 25 24 26 25 27 26 28 27 29 28 31 29 32 30 33 94 34 31 35
REMARK SMILES IDX 93 36 32 37 33 38 34 39 87 40 35 41 92 42 86 43 88 44 36 45
REMARK SMILES IDX 91 46 85 47 84 48 37 50 71 51 50 52 70 53 51 54 54 55 69 56
REMARK SMILES IDX 89 57 52 58 53 59 68 61 90 62 55 63 38 64 39 65 48 66 40 67
REMARK SMILES IDX 41 68 47 69 49 70 42 71 43 72 44 73 45 74 46 75 72 76 73 77
REMARK SMILES IDX 82 78 74 79 75 80 81 81 83 82 76 83 77 84 78 85 79 86 80 87
REMARK SMILES IDX 56 88 57 89 66 90 58 91 59 92 65 93 67 94 60 95 61 96 62 97
REMARK SMILES IDX 63 98 64 99
REMARK H PARENT 19 8 5 15 26 30 88 49 54 60
REMARK Flexibility Score: inf
ROOT
ATOM      1  C   UNL A   1      31.881  30.457  26.788  1.00  0.00     0.002 C 
ENDROOT
BRANCH   1   2
ATOM      2  C   UNL A   1      33.212  29.948  27.328  1.00  0.00     0.002 C 
BRANCH   2   3
ATOM      3  C   UNL A   1      34.103  29.200  26.337  1.00  0.00     0.021 C 
BRANCH   3   4
ATOM      4  C   UNL A   1      33.753  27.747  26.001  1.00  0.00     0.116 C 
BRANCH   4   5
ATOM      5  N   UNL A   1      33.746  27.379  24.592  1.00  0.00    -0.354 N 
ATOM      6  C   UNL A   1      32.817  26.744  23.807  1.00  0.00     0.245 C 
ATOM      7  O   UNL A   1      33.065  26.682  22.597  1.00  0.00    -0.272 OA
ATOM      8  H   UNL A   1      34.566  27.636  24.111  1.00  0.00     0.163 HD
BRANCH   6   9
ATOM      9  C   UNL A   1      31.467  26.228  24.381  1.00  0.00     0.117 C 
ATOM     10  C   UNL A   1      30.778  25.207  23.453  1.00  0.00     0.045 C 
BRANCH   9  11
ATOM     11  C   UNL A   1      30.614  27.547  24.379  1.00  0.00     0.035 C 
ATOM     12  C   UNL A   1      29.540  27.720  23.320  1.00  0.00     0.007 C 
ENDBRANCH   9  11
BRANCH   9  13
ATOM     13  N   UNL A   1      31.593  25.611  25.724  1.00  0.00    -0.324 N 
ATOM     14  C   UNL A   1      32.037  24.412  26.189  1.00  0.00     0.318 C 
ATOM     15  H   UNL A   1      31.286  26.207  26.445  1.00  0.00     0.166 HD
ATOM     16  O   UNL A   1      31.591  24.075  27.291  1.00  0.00    -0.249 OA
ATOM     17  N   UNL A   1      32.960  23.641  25.547  1.00  0.00    -0.316 N 
ATOM     18  C   UNL A   1      33.499  22.438  26.219  1.00  0.00     0.157 C 
ATOM     19  C   UNL A   1      33.733  23.926  24.351  1.00  0.00     0.157 C 
ATOM     20  C   UNL A   1      34.752  22.109  25.453  1.00  0.00    -0.023 A 
ATOM     21  C   UNL A   1      34.881  22.983  24.378  1.00  0.00    -0.023 A 
ATOM     22  C   UNL A   1      35.746  21.179  25.705  1.00  0.00     0.006 A 
ATOM     23  C   UNL A   1      36.008  23.011  23.570  1.00  0.00     0.006 A 
ATOM     24  C   UNL A   1      36.887  21.180  24.887  1.00  0.00     0.000 A 
ATOM     25  C   UNL A   1      37.024  22.101  23.837  1.00  0.00     0.000 A 
ENDBRANCH   9  13
ENDBRANCH   6   9
ENDBRANCH   4   5
ENDBRANCH   3   4
ENDBRANCH   2   3
ENDBRANCH   1   2
BRANCH   1  26
ATOM     26  C   UNL A   1      31.718  31.973  26.813  1.00  0.00     0.021 C 
BRANCH  26  27
ATOM     27  C   UNL A   1      32.828  32.720  27.538  1.00  0.00     0.116 C 
BRANCH  27  28
ATOM     28  N   UNL A   1      32.522  34.130  27.720  1.00  0.00    -0.352 N 
ATOM     29  C   UNL A   1      33.067  35.009  28.626  1.00  0.00     0.251 C 
ATOM     30  H   UNL A   1      31.838  34.503  27.118  1.00  0.00     0.163 HD
ATOM     31  O   UNL A   1      32.583  36.126  28.784  1.00  0.00    -0.269 OA
BRANCH  29  32
ATOM     32  C   UNL A   1      34.229  34.575  29.428  1.00  0.00     0.039 A 
ATOM     33  C   UNL A   1      34.028  34.128  30.734  1.00  0.00     0.014 A 
ATOM     34  C   UNL A   1      35.507  34.557  28.861  1.00  0.00     0.014 A 
ATOM     35  C   UNL A   1      35.104  33.601  31.452  1.00  0.00     0.010 A 
ATOM     36  C   UNL A   1      36.558  33.961  29.548  1.00  0.00     0.010 A 
ATOM     37  C   UNL A   1      36.369  33.480  30.853  1.00  0.00    -0.014 A 
BRANCH  37  38
ATOM     38  C   UNL A   1      37.508  32.856  31.576  1.00  0.00     0.031 A 
ATOM     39  C   UNL A   1      38.170  31.626  31.014  1.00  0.00     0.074 A 
ATOM     40  C   UNL A   1      37.903  33.357  32.763  1.00  0.00     0.049 A 
ATOM     41  N   UNL A   1      39.135  30.904  31.521  1.00  0.00    -0.248 NA
ATOM     42  C   UNL A   1      37.658  31.124  29.728  1.00  0.00     0.031 C 
ATOM     43  C   UNL A   1      37.303  34.512  33.437  1.00  0.00     0.029 A 
ATOM     44  N   UNL A   1      38.895  32.954  33.622  1.00  0.00    -0.354 N 
ATOM     45  C   UNL A   1      39.335  29.859  30.628  1.00  0.00     0.074 A 
ATOM     46  C   UNL A   1      38.356  30.007  29.575  1.00  0.00     0.031 C 
ATOM     47  C   UNL A   1      37.954  34.737  34.589  1.00  0.00     0.029 A 
ATOM     48  C   UNL A   1      38.990  33.723  34.759  1.00  0.00     0.049 A 
ATOM     49  H   UNL A   1      39.483  32.185  33.442  1.00  0.00     0.167 HD
ATOM     50  C   UNL A   1      40.268  28.877  30.668  1.00  0.00     0.037 A 
ATOM     51  C   UNL A   1      39.814  33.618  35.821  1.00  0.00     0.037 A 
ATOM     52  C   UNL A   1      41.260  28.754  31.705  1.00  0.00     0.049 A 
ATOM     53  C   UNL A   1      40.844  32.520  35.841  1.00  0.00     0.074 A 
ATOM     54  C   UNL A   1      42.293  27.839  31.801  1.00  0.00     0.029 A 
ATOM     55  N   UNL A   1      41.339  29.566  32.828  1.00  0.00    -0.354 N 
ATOM     56  N   UNL A   1      41.072  31.587  34.946  1.00  0.00    -0.248 NA
ATOM     57  C   UNL A   1      41.734  32.464  37.008  1.00  0.00     0.031 C 
ATOM     58  C   UNL A   1      42.964  28.063  33.007  1.00  0.00     0.029 A 
ATOM     59  C   UNL A   1      42.386  29.156  33.635  1.00  0.00     0.049 A 
ATOM     60  H   UNL A   1      40.739  30.322  33.021  1.00  0.00     0.167 HD
ATOM     61  C   UNL A   1      42.150  30.852  35.430  1.00  0.00     0.074 A 
ATOM     62  C   UNL A   1      42.536  31.458  36.687  1.00  0.00     0.031 C 
ATOM     63  C   UNL A   1      42.764  29.775  34.881  1.00  0.00     0.037 A 
BRANCH  50  64
ATOM     64  C   UNL A   1      40.265  27.860  29.559  1.00  0.00     0.058 A 
ATOM     65  C   UNL A   1      41.107  27.979  28.443  1.00  0.00     0.135 A 
ATOM     66  C   UNL A   1      39.439  26.726  29.636  1.00  0.00     0.135 A 
ATOM     67  F   UNL A   1      41.907  29.050  28.309  1.00  0.00    -0.206 F 
ATOM     68  C   UNL A   1      41.111  27.027  27.428  1.00  0.00     0.059 A 
ATOM     69  C   UNL A   1      39.448  25.746  28.649  1.00  0.00     0.059 A 
ATOM     70  F   UNL A   1      38.612  26.562  30.681  1.00  0.00    -0.206 F 
ATOM     71  C   UNL A   1      40.279  25.912  27.541  1.00  0.00     0.060 A 
BRANCH  71  72
ATOM     72  S   UNL A   1      40.308  24.679  26.224  1.00  0.00     0.124 S 
ATOM     73  O   UNL A   1      40.936  25.426  25.139  1.00  0.00    -0.237 OA
ATOM     74  O   UNL A   1      41.117  23.615  26.812  1.00  0.00    -0.237 OA
ATOM     75  O   UNL A   1      38.899  24.356  26.028  1.00  0.00    -0.744 OA
ENDBRANCH  71  72
ENDBRANCH  50  64
BRANCH  51  76
ATOM     76  C   UNL A   1      39.711  34.588  36.944  1.00  0.00     0.058 A 
ATOM     77  C   UNL A   1      38.875  34.339  38.043  1.00  0.00     0.135 A 
ATOM     78  C   UNL A   1      40.446  35.785  36.943  1.00  0.00     0.135 A 
ATOM     79  F   UNL A   1      38.147  33.213  38.089  1.00  0.00    -0.206 F 
ATOM     80  C   UNL A   1      38.752  35.248  39.089  1.00  0.00     0.059 A 
ATOM     81  C   UNL A   1      40.362  36.696  37.992  1.00  0.00     0.059 A 
ATOM     82  F   UNL A   1      41.274  36.065  35.926  1.00  0.00    -0.206 F 
ATOM     83  C   UNL A   1      39.502  36.425  39.054  1.00  0.00     0.060 A 
BRANCH  83  84
ATOM     84  S   UNL A   1      39.364  37.581  40.435  1.00  0.00     0.124 S 
ATOM     85  O   UNL A   1      40.657  38.255  40.384  1.00  0.00    -0.237 OA
ATOM     86  O   UNL A   1      38.209  38.384  40.047  1.00  0.00    -0.237 OA
ATOM     87  O   UNL A   1      39.152  36.706  41.584  1.00  0.00    -0.744 OA
ENDBRANCH  83  84
ENDBRANCH  51  76
BRANCH  63  88
ATOM     88  C   UNL A   1      43.947  29.202  35.614  1.00  0.00     0.058 A 
ATOM     89  C   UNL A   1      45.244  29.706  35.434  1.00  0.00     0.135 A 
ATOM     90  C   UNL A   1      43.768  28.172  36.552  1.00  0.00     0.135 A 
ATOM     91  F   UNL A   1      45.472  30.685  34.545  1.00  0.00    -0.206 F 
ATOM     92  C   UNL A   1      46.326  29.192  36.141  1.00  0.00     0.059 A 
ATOM     93  C   UNL A   1      44.830  27.665  37.293  1.00  0.00     0.059 A 
ATOM     94  F   UNL A   1      42.545  27.662  36.773  1.00  0.00    -0.206 F 
ATOM     95  C   UNL A   1      46.109  28.173  37.070  1.00  0.00     0.060 A 
BRANCH  95  96
ATOM     96  S   UNL A   1      47.517  27.541  38.006  1.00  0.00     0.124 S 
ATOM     97  O   UNL A   1      47.004  27.579  39.371  1.00  0.00    -0.237 OA
ATOM     98  O   UNL A   1      47.699  26.210  37.434  1.00  0.00    -0.237 OA
ATOM     99  O   UNL A   1      48.581  28.495  37.707  1.00  0.00    -0.744 OA
ENDBRANCH  95  96
ENDBRANCH  63  88
ENDBRANCH  37  38
ENDBRANCH  29  32
ENDBRANCH  27  28
ENDBRANCH  26  27
ENDBRANCH   1  26
TORSDOF 18
ENDMDL
