MODEL 1
REMARK VINA RESULT:     -11.1      0.000      0.000
REMARK SMILES O=C(C[C@@H]1C[N@@H+](CCSc2ccccc2F)CCO1)NCCCCCCNC(=O)c1ccc(-c2c3nc(c(-c4c(F)cc(S(=O)(=O)[O-])cc4F)c4ccc([nH]4)c(-c4c(F)cc(S(=O)(=O)[O-])cc4F)c4nc(c(-c5c(F)cc(S(=O)(=O)[O-])cc5F)c5ccc2[nH]5)C=C4)C=C3)cc1
REMARK SMILES IDX 22 1 21 2 20 3 1 4 2 5 3 7 4 8 5 9 19 10 6 11 18 12 17 13
REMARK SMILES IDX 7 15 8 16 9 17 10 18 11 19 15 20 12 21 14 22 16 23 13 24
REMARK SMILES IDX 23 25 24 26 25 27 26 28 27 29 28 30 29 32 30 33 31 34 95 35
REMARK SMILES IDX 32 36 94 37 33 38 34 39 35 40 88 41 36 42 93 43 87 44 89 45
REMARK SMILES IDX 37 46 92 47 86 48 85 49 38 51 72 52 51 53 71 54 52 55 55 56
REMARK SMILES IDX 70 57 90 58 53 59 54 60 69 62 91 63 56 64 39 65 40 66 49 67
REMARK SMILES IDX 41 68 42 69 48 70 50 71 43 72 44 73 45 74 46 75 47 76 73 77
REMARK SMILES IDX 74 78 83 79 75 80 76 81 82 82 84 83 77 84 78 85 79 86 80 87
REMARK SMILES IDX 81 88 57 89 58 90 67 91 59 92 60 93 66 94 68 95 61 96 62 97
REMARK SMILES IDX 63 98 64 99 65 100
REMARK H PARENT 20 6 6 14 27 31 89 50 55 61
REMARK Flexibility Score: inf
ROOT
ATOM      1  C   UNL A   1      37.199  22.129  24.687  1.00  0.00     0.021 C 
ENDROOT
BRANCH   1   2
ATOM      2  C   UNL A   1      36.302  20.950  25.090  1.00  0.00     0.116 C 
BRANCH   2   3
ATOM      3  N   UNL A   1      34.882  21.271  25.016  1.00  0.00    -0.356 N 
ATOM      4  O   UNL A   1      34.547  21.524  27.276  1.00  0.00    -0.275 OA
ATOM      5  C   UNL A   1      34.120  21.587  26.125  1.00  0.00     0.222 C 
ATOM      6  H   UNL A   1      34.446  21.264  24.134  1.00  0.00     0.163 HD
BRANCH   5   7
ATOM      7  C   UNL A   1      32.668  22.000  25.830  1.00  0.00     0.138 C 
BRANCH   7   8
ATOM      8  C   UNL A   1      32.494  23.401  25.198  1.00  0.00     0.182 C 
ATOM      9  C   UNL A   1      31.512  23.450  23.930  1.00  0.00     0.295 C 
ATOM     10  O   UNL A   1      33.821  23.892  25.030  1.00  0.00    -0.366 OA
ATOM     11  N   UNL A   1      32.004  23.969  22.634  1.00  0.00    -0.330 N 
ATOM     12  C   UNL A   1      34.031  24.556  23.815  1.00  0.00     0.222 C 
ATOM     13  C   UNL A   1      33.412  23.734  22.656  1.00  0.00     0.291 C 
ATOM     14  H   UNL A   1      31.423  23.482  21.953  1.00  0.00     0.348 HD
BRANCH  11  15
ATOM     15  C   UNL A   1      31.798  25.366  22.213  1.00  0.00     0.273 C 
BRANCH  15  16
ATOM     16  C   UNL A   1      31.453  26.595  23.220  1.00  0.00     0.136 C 
BRANCH  16  17
ATOM     17  S   UNL A   1      31.295  27.016  25.157  1.00  0.00    -0.117 SA
BRANCH  17  18
ATOM     18  C   UNL A   1      32.195  28.333  26.034  1.00  0.00     0.043 A 
ATOM     19  C   UNL A   1      33.494  27.960  26.440  1.00  0.00     0.018 A 
ATOM     20  C   UNL A   1      31.989  29.718  26.151  1.00  0.00     0.136 A 
ATOM     21  C   UNL A   1      34.404  28.866  27.035  1.00  0.00     0.001 A 
ATOM     22  C   UNL A   1      32.782  30.571  26.916  1.00  0.00     0.040 A 
ATOM     23  F   UNL A   1      31.176  30.409  25.358  1.00  0.00    -0.206 F 
ATOM     24  C   UNL A   1      34.018  30.160  27.341  1.00  0.00     0.003 A 
ENDBRANCH  17  18
ENDBRANCH  16  17
ENDBRANCH  15  16
ENDBRANCH  11  15
ENDBRANCH   7   8
ENDBRANCH   5   7
ENDBRANCH   2   3
ENDBRANCH   1   2
BRANCH   1  25
ATOM     25  C   UNL A   1      38.039  22.720  25.828  1.00  0.00     0.002 C 
BRANCH  25  26
ATOM     26  C   UNL A   1      39.396  22.045  26.033  1.00  0.00     0.002 C 
BRANCH  26  27
ATOM     27  C   UNL A   1      40.109  22.309  27.357  1.00  0.00     0.021 C 
BRANCH  27  28
ATOM     28  C   UNL A   1      41.427  23.063  27.254  1.00  0.00     0.116 C 
BRANCH  28  29
ATOM     29  N   UNL A   1      41.478  23.973  26.118  1.00  0.00    -0.352 N 
ATOM     30  C   UNL A   1      41.368  25.343  26.093  1.00  0.00     0.251 C 
ATOM     31  H   UNL A   1      41.611  23.546  25.241  1.00  0.00     0.163 HD
ATOM     32  O   UNL A   1      41.295  25.930  25.011  1.00  0.00    -0.269 OA
BRANCH  30  33
ATOM     33  C   UNL A   1      41.301  26.110  27.357  1.00  0.00     0.039 A 
ATOM     34  C   UNL A   1      42.344  26.981  27.682  1.00  0.00     0.014 A 
ATOM     35  C   UNL A   1      40.201  25.992  28.212  1.00  0.00     0.014 A 
ATOM     36  C   UNL A   1      42.246  27.783  28.821  1.00  0.00     0.010 A 
ATOM     37  C   UNL A   1      40.057  26.867  29.285  1.00  0.00     0.010 A 
ATOM     38  C   UNL A   1      41.081  27.767  29.608  1.00  0.00    -0.014 A 
BRANCH  38  39
ATOM     39  C   UNL A   1      40.921  28.683  30.769  1.00  0.00     0.031 A 
ATOM     40  C   UNL A   1      39.875  29.765  30.747  1.00  0.00     0.074 A 
ATOM     41  C   UNL A   1      41.750  28.568  31.825  1.00  0.00     0.049 A 
ATOM     42  N   UNL A   1      39.598  30.663  31.657  1.00  0.00    -0.248 NA
ATOM     43  C   UNL A   1      39.051  29.871  29.533  1.00  0.00     0.031 C 
ATOM     44  C   UNL A   1      42.840  27.597  31.941  1.00  0.00     0.029 A 
ATOM     45  N   UNL A   1      41.802  29.265  33.007  1.00  0.00    -0.354 N 
ATOM     46  C   UNL A   1      38.572  31.436  31.127  1.00  0.00     0.074 A 
ATOM     47  C   UNL A   1      38.331  30.954  29.786  1.00  0.00     0.031 C 
ATOM     48  C   UNL A   1      43.419  27.726  33.145  1.00  0.00     0.029 A 
ATOM     49  C   UNL A   1      42.773  28.816  33.870  1.00  0.00     0.049 A 
ATOM     50  H   UNL A   1      41.202  30.017  33.215  1.00  0.00     0.167 HD
ATOM     51  C   UNL A   1      37.867  32.432  31.716  1.00  0.00     0.037 A 
ATOM     52  C   UNL A   1      43.104  29.229  35.110  1.00  0.00     0.037 A 
ATOM     53  C   UNL A   1      38.108  32.902  33.056  1.00  0.00     0.049 A 
ATOM     54  C   UNL A   1      42.326  30.349  35.740  1.00  0.00     0.074 A 
ATOM     55  C   UNL A   1      37.429  33.880  33.759  1.00  0.00     0.029 A 
ATOM     56  N   UNL A   1      39.112  32.432  33.893  1.00  0.00    -0.354 N 
ATOM     57  N   UNL A   1      41.320  31.032  35.245  1.00  0.00    -0.248 NA
ATOM     58  C   UNL A   1      42.721  30.754  37.094  1.00  0.00     0.031 C 
ATOM     59  C   UNL A   1      38.052  34.038  35.002  1.00  0.00     0.029 A 
ATOM     60  C   UNL A   1      39.085  33.117  35.097  1.00  0.00     0.049 A 
ATOM     61  H   UNL A   1      39.749  31.717  33.665  1.00  0.00     0.167 HD
ATOM     62  C   UNL A   1      40.953  31.939  36.234  1.00  0.00     0.074 A 
ATOM     63  C   UNL A   1      41.831  31.702  37.362  1.00  0.00     0.031 C 
ATOM     64  C   UNL A   1      39.978  32.882  36.208  1.00  0.00     0.037 A 
BRANCH  51  65
ATOM     65  C   UNL A   1      36.762  33.068  30.914  1.00  0.00     0.058 A 
ATOM     66  C   UNL A   1      35.428  32.666  31.081  1.00  0.00     0.135 A 
ATOM     67  C   UNL A   1      37.026  34.068  29.962  1.00  0.00     0.135 A 
ATOM     68  F   UNL A   1      35.114  31.718  31.977  1.00  0.00    -0.206 F 
ATOM     69  C   UNL A   1      34.397  33.232  30.337  1.00  0.00     0.059 A 
ATOM     70  C   UNL A   1      36.007  34.672  29.231  1.00  0.00     0.059 A 
ATOM     71  F   UNL A   1      38.281  34.507  29.773  1.00  0.00    -0.206 F 
ATOM     72  C   UNL A   1      34.696  34.241  29.420  1.00  0.00     0.060 A 
BRANCH  72  73
ATOM     73  S   UNL A   1      33.338  35.015  28.515  1.00  0.00     0.124 S 
ATOM     74  O   UNL A   1      34.053  35.862  27.566  1.00  0.00    -0.237 OA
ATOM     75  O   UNL A   1      32.651  33.858  27.947  1.00  0.00    -0.237 OA
ATOM     76  O   UNL A   1      32.597  35.721  29.556  1.00  0.00    -0.744 OA
ENDBRANCH  72  73
ENDBRANCH  51  65
BRANCH  52  77
ATOM     77  C   UNL A   1      44.192  28.527  35.843  1.00  0.00     0.058 A 
ATOM     78  C   UNL A   1      45.532  28.920  35.715  1.00  0.00     0.135 A 
ATOM     79  C   UNL A   1      43.916  27.392  36.622  1.00  0.00     0.135 A 
ATOM     80  F   UNL A   1      45.851  29.993  34.974  1.00  0.00    -0.206 F 
ATOM     81  C   UNL A   1      46.564  28.190  36.293  1.00  0.00     0.059 A 
ATOM     82  C   UNL A   1      44.929  26.659  37.232  1.00  0.00     0.059 A 
ATOM     83  F   UNL A   1      42.648  26.985  36.786  1.00  0.00    -0.206 F 
ATOM     84  C   UNL A   1      46.253  27.053  37.041  1.00  0.00     0.060 A 
BRANCH  84  85
ATOM     85  S   UNL A   1      47.612  26.081  37.725  1.00  0.00     0.124 S 
ATOM     86  O   UNL A   1      46.890  25.042  38.453  1.00  0.00    -0.237 OA
ATOM     87  O   UNL A   1      48.311  25.644  36.521  1.00  0.00    -0.237 OA
ATOM     88  O   UNL A   1      48.332  27.041  38.555  1.00  0.00    -0.744 OA
ENDBRANCH  84  85
ENDBRANCH  52  77
BRANCH  64  89
ATOM     89  C   UNL A   1      39.802  33.734  37.437  1.00  0.00     0.058 A 
ATOM     90  C   UNL A   1      38.884  33.370  38.434  1.00  0.00     0.135 A 
ATOM     91  C   UNL A   1      40.500  34.942  37.600  1.00  0.00     0.135 A 
ATOM     92  F   UNL A   1      38.184  32.229  38.326  1.00  0.00    -0.206 F 
ATOM     93  C   UNL A   1      38.655  34.176  39.543  1.00  0.00     0.059 A 
ATOM     94  C   UNL A   1      40.310  35.749  38.718  1.00  0.00     0.059 A 
ATOM     95  F   UNL A   1      41.396  35.333  36.680  1.00  0.00    -0.206 F 
ATOM     96  C   UNL A   1      39.374  35.364  39.678  1.00  0.00     0.060 A 
BRANCH  96  97
ATOM     97  S   UNL A   1      39.089  36.380  41.142  1.00  0.00     0.124 S 
ATOM     98  O   UNL A   1      38.734  37.665  40.551  1.00  0.00    -0.237 OA
ATOM     99  O   UNL A   1      38.004  35.664  41.806  1.00  0.00    -0.237 OA
ATOM    100  O   UNL A   1      40.373  36.341  41.837  1.00  0.00    -0.744 OA
ENDBRANCH  96  97
ENDBRANCH  64  89
ENDBRANCH  38  39
ENDBRANCH  30  33
ENDBRANCH  28  29
ENDBRANCH  27  28
ENDBRANCH  26  27
ENDBRANCH  25  26
ENDBRANCH   1  25
TORSDOF 21
ENDMDL
MODEL 2
REMARK VINA RESULT:     -11.0      1.491      8.330
REMARK SMILES O=C(C[C@@H]1C[N@@H+](CCSc2ccccc2F)CCO1)NCCCCCCNC(=O)c1ccc(-c2c3nc(c(-c4c(F)cc(S(=O)(=O)[O-])cc4F)c4ccc([nH]4)c(-c4c(F)cc(S(=O)(=O)[O-])cc4F)c4nc(c(-c5c(F)cc(S(=O)(=O)[O-])cc5F)c5ccc2[nH]5)C=C4)C=C3)cc1
REMARK SMILES IDX 22 1 21 2 20 3 1 4 2 5 3 7 4 8 5 9 19 10 6 11 18 12 17 13
REMARK SMILES IDX 7 15 8 16 9 17 10 18 11 19 15 20 12 21 14 22 16 23 13 24
REMARK SMILES IDX 23 25 24 26 25 27 26 28 27 29 28 30 29 32 30 33 31 34 95 35
REMARK SMILES IDX 32 36 94 37 33 38 34 39 35 40 88 41 36 42 93 43 87 44 89 45
REMARK SMILES IDX 37 46 92 47 86 48 85 49 38 51 72 52 51 53 71 54 52 55 55 56
REMARK SMILES IDX 70 57 90 58 53 59 54 60 69 62 91 63 56 64 39 65 40 66 49 67
REMARK SMILES IDX 41 68 42 69 48 70 50 71 43 72 44 73 45 74 46 75 47 76 73 77
REMARK SMILES IDX 74 78 83 79 75 80 76 81 82 82 84 83 77 84 78 85 79 86 80 87
REMARK SMILES IDX 81 88 57 89 58 90 67 91 59 92 60 93 66 94 68 95 61 96 62 97
REMARK SMILES IDX 63 98 64 99 65 100
REMARK H PARENT 20 6 6 14 27 31 89 50 55 61
REMARK Flexibility Score: inf
ROOT
ATOM      1  C   UNL A   1      37.040  21.890  24.565  1.00  0.00     0.021 C 
ENDROOT
BRANCH   1   2
ATOM      2  C   UNL A   1      36.481  20.674  25.316  1.00  0.00     0.116 C 
BRANCH   2   3
ATOM      3  N   UNL A   1      35.057  20.471  25.081  1.00  0.00    -0.356 N 
ATOM      4  O   UNL A   1      34.325  21.411  27.047  1.00  0.00    -0.275 OA
ATOM      5  C   UNL A   1      34.077  20.908  25.953  1.00  0.00     0.222 C 
ATOM      6  H   UNL A   1      34.780  20.002  24.262  1.00  0.00     0.163 HD
BRANCH   5   7
ATOM      7  C   UNL A   1      32.630  20.694  25.478  1.00  0.00     0.138 C 
BRANCH   7   8
ATOM      8  C   UNL A   1      31.939  21.944  24.882  1.00  0.00     0.182 C 
ATOM      9  C   UNL A   1      32.768  22.680  23.721  1.00  0.00     0.295 C 
ATOM     10  O   UNL A   1      31.547  22.717  26.011  1.00  0.00    -0.366 OA
ATOM     11  N   UNL A   1      33.121  24.111  23.860  1.00  0.00    -0.330 N 
ATOM     12  C   UNL A   1      31.760  24.093  25.859  1.00  0.00     0.222 C 
ATOM     13  C   UNL A   1      33.171  24.342  25.268  1.00  0.00     0.291 C 
ATOM     14  H   UNL A   1      33.973  24.195  23.305  1.00  0.00     0.348 HD
BRANCH  11  15
ATOM     15  C   UNL A   1      32.307  25.187  23.268  1.00  0.00     0.273 C 
BRANCH  15  16
ATOM     16  C   UNL A   1      32.765  26.744  23.164  1.00  0.00     0.136 C 
BRANCH  16  17
ATOM     17  S   UNL A   1      32.021  28.563  22.863  1.00  0.00    -0.117 SA
BRANCH  17  18
ATOM     18  C   UNL A   1      30.252  28.984  22.764  1.00  0.00     0.043 A 
ATOM     19  C   UNL A   1      29.964  30.009  21.838  1.00  0.00     0.018 A 
ATOM     20  C   UNL A   1      29.087  28.329  23.197  1.00  0.00     0.136 A 
ATOM     21  C   UNL A   1      28.643  30.411  21.522  1.00  0.00     0.001 A 
ATOM     22  C   UNL A   1      27.798  28.840  23.061  1.00  0.00     0.040 A 
ATOM     23  F   UNL A   1      29.055  27.050  23.558  1.00  0.00    -0.206 F 
ATOM     24  C   UNL A   1      27.559  29.873  22.193  1.00  0.00     0.003 A 
ENDBRANCH  17  18
ENDBRANCH  16  17
ENDBRANCH  15  16
ENDBRANCH  11  15
ENDBRANCH   7   8
ENDBRANCH   5   7
ENDBRANCH   2   3
ENDBRANCH   1   2
BRANCH   1  25
ATOM     25  C   UNL A   1      36.777  23.242  25.242  1.00  0.00     0.002 C 
BRANCH  25  26
ATOM     26  C   UNL A   1      37.954  23.786  26.051  1.00  0.00     0.002 C 
BRANCH  26  27
ATOM     27  C   UNL A   1      39.008  22.779  26.505  1.00  0.00     0.021 C 
BRANCH  27  28
ATOM     28  C   UNL A   1      40.277  23.377  27.095  1.00  0.00     0.116 C 
BRANCH  28  29
ATOM     29  N   UNL A   1      41.147  23.977  26.091  1.00  0.00    -0.352 N 
ATOM     30  C   UNL A   1      41.570  25.278  25.971  1.00  0.00     0.251 C 
ATOM     31  H   UNL A   1      41.480  23.361  25.399  1.00  0.00     0.163 HD
ATOM     32  O   UNL A   1      42.195  25.627  24.966  1.00  0.00    -0.269 OA
BRANCH  30  33
ATOM     33  C   UNL A   1      41.249  26.269  27.023  1.00  0.00     0.039 A 
ATOM     34  C   UNL A   1      40.393  25.903  28.065  1.00  0.00     0.014 A 
ATOM     35  C   UNL A   1      41.809  27.550  27.000  1.00  0.00     0.014 A 
ATOM     36  C   UNL A   1      40.161  26.794  29.116  1.00  0.00     0.010 A 
ATOM     37  C   UNL A   1      41.662  28.393  28.097  1.00  0.00     0.010 A 
ATOM     38  C   UNL A   1      40.830  28.029  29.165  1.00  0.00    -0.014 A 
BRANCH  38  39
ATOM     39  C   UNL A   1      40.668  28.949  30.322  1.00  0.00     0.031 A 
ATOM     40  C   UNL A   1      41.594  28.855  31.505  1.00  0.00     0.074 A 
ATOM     41  C   UNL A   1      39.657  29.840  30.326  1.00  0.00     0.049 A 
ATOM     42  N   UNL A   1      41.598  29.560  32.607  1.00  0.00    -0.248 NA
ATOM     43  C   UNL A   1      42.633  27.815  31.457  1.00  0.00     0.031 C 
ATOM     44  C   UNL A   1      38.659  29.990  29.265  1.00  0.00     0.029 A 
ATOM     45  N   UNL A   1      39.304  30.794  31.248  1.00  0.00    -0.354 N 
ATOM     46  C   UNL A   1      42.635  29.051  33.379  1.00  0.00     0.074 A 
ATOM     47  C   UNL A   1      43.185  27.926  32.657  1.00  0.00     0.031 C 
ATOM     48  C   UNL A   1      37.840  31.007  29.571  1.00  0.00     0.029 A 
ATOM     49  C   UNL A   1      38.224  31.556  30.868  1.00  0.00     0.049 A 
ATOM     50  H   UNL A   1      39.779  30.920  32.102  1.00  0.00     0.167 HD
ATOM     51  C   UNL A   1      43.113  29.501  34.565  1.00  0.00     0.037 A 
ATOM     52  C   UNL A   1      37.613  32.584  31.490  1.00  0.00     0.037 A 
ATOM     53  C   UNL A   1      42.564  30.627  35.275  1.00  0.00     0.049 A 
ATOM     54  C   UNL A   1      38.142  33.056  32.814  1.00  0.00     0.074 A 
ATOM     55  C   UNL A   1      42.995  31.186  36.464  1.00  0.00     0.029 A 
ATOM     56  N   UNL A   1      41.459  31.362  34.865  1.00  0.00    -0.354 N 
ATOM     57  N   UNL A   1      39.160  32.598  33.505  1.00  0.00    -0.248 NA
ATOM     58  C   UNL A   1      37.446  34.185  33.444  1.00  0.00     0.031 C 
ATOM     59  C   UNL A   1      42.122  32.226  36.800  1.00  0.00     0.029 A 
ATOM     60  C   UNL A   1      41.180  32.355  35.791  1.00  0.00     0.049 A 
ATOM     61  H   UNL A   1      40.950  31.202  34.038  1.00  0.00     0.167 HD
ATOM     62  C   UNL A   1      39.236  33.392  34.644  1.00  0.00     0.074 A 
ATOM     63  C   UNL A   1      38.173  34.371  34.539  1.00  0.00     0.031 C 
ATOM     64  C   UNL A   1      40.106  33.315  35.682  1.00  0.00     0.037 A 
BRANCH  51  65
ATOM     65  C   UNL A   1      44.295  28.777  35.156  1.00  0.00     0.058 A 
ATOM     66  C   UNL A   1      45.606  29.137  34.809  1.00  0.00     0.135 A 
ATOM     67  C   UNL A   1      44.128  27.711  36.058  1.00  0.00     0.135 A 
ATOM     68  F   UNL A   1      45.828  30.148  33.956  1.00  0.00    -0.206 F 
ATOM     69  C   UNL A   1      46.708  28.469  35.335  1.00  0.00     0.059 A 
ATOM     70  C   UNL A   1      45.217  27.052  36.621  1.00  0.00     0.059 A 
ATOM     71  F   UNL A   1      42.897  27.336  36.441  1.00  0.00    -0.206 F 
ATOM     72  C   UNL A   1      46.503  27.433  36.246  1.00  0.00     0.060 A 
BRANCH  72  73
ATOM     73  S   UNL A   1      47.946  26.625  36.974  1.00  0.00     0.124 S 
ATOM     74  O   UNL A   1      47.695  25.223  36.661  1.00  0.00    -0.237 OA
ATOM     75  O   UNL A   1      49.046  27.254  36.249  1.00  0.00    -0.237 OA
ATOM     76  O   UNL A   1      47.856  26.981  38.387  1.00  0.00    -0.744 OA
ENDBRANCH  72  73
ENDBRANCH  51  65
BRANCH  52  77
ATOM     77  C   UNL A   1      36.468  33.260  30.823  1.00  0.00     0.058 A 
ATOM     78  C   UNL A   1      36.657  34.083  29.702  1.00  0.00     0.135 A 
ATOM     79  C   UNL A   1      35.171  33.160  31.349  1.00  0.00     0.135 A 
ATOM     80  F   UNL A   1      37.879  34.220  29.166  1.00  0.00    -0.206 F 
ATOM     81  C   UNL A   1      35.612  34.818  29.154  1.00  0.00     0.059 A 
ATOM     82  C   UNL A   1      34.103  33.866  30.802  1.00  0.00     0.059 A 
ATOM     83  F   UNL A   1      34.937  32.375  32.411  1.00  0.00    -0.206 F 
ATOM     84  C   UNL A   1      34.340  34.713  29.719  1.00  0.00     0.060 A 
BRANCH  84  85
ATOM     85  S   UNL A   1      33.013  35.728  29.035  1.00  0.00     0.124 S 
ATOM     86  O   UNL A   1      32.365  34.787  28.126  1.00  0.00    -0.237 OA
ATOM     87  O   UNL A   1      32.255  36.084  30.229  1.00  0.00    -0.237 OA
ATOM     88  O   UNL A   1      33.725  36.829  28.393  1.00  0.00    -0.744 OA
ENDBRANCH  84  85
ENDBRANCH  52  77
BRANCH  64  89
ATOM     89  C   UNL A   1      39.952  34.318  36.794  1.00  0.00     0.058 A 
ATOM     90  C   UNL A   1      39.057  34.082  37.850  1.00  0.00     0.135 A 
ATOM     91  C   UNL A   1      40.644  35.540  36.784  1.00  0.00     0.135 A 
ATOM     92  F   UNL A   1      38.363  32.934  37.907  1.00  0.00    -0.206 F 
ATOM     93  C   UNL A   1      38.846  35.025  38.851  1.00  0.00     0.059 A 
ATOM     94  C   UNL A   1      40.472  36.484  37.792  1.00  0.00     0.059 A 
ATOM     95  F   UNL A   1      41.518  35.812  35.802  1.00  0.00    -0.206 F 
ATOM     96  C   UNL A   1      39.560  36.223  38.815  1.00  0.00     0.060 A 
BRANCH  96  97
ATOM     97  S   UNL A   1      39.299  37.418  40.141  1.00  0.00     0.124 S 
ATOM     98  O   UNL A   1      40.652  37.914  40.369  1.00  0.00    -0.237 OA
ATOM     99  O   UNL A   1      38.372  38.363  39.525  1.00  0.00    -0.237 OA
ATOM    100  O   UNL A   1      38.735  36.611  41.219  1.00  0.00    -0.744 OA
ENDBRANCH  96  97
ENDBRANCH  64  89
ENDBRANCH  38  39
ENDBRANCH  30  33
ENDBRANCH  28  29
ENDBRANCH  27  28
ENDBRANCH  26  27
ENDBRANCH  25  26
ENDBRANCH   1  25
TORSDOF 21
ENDMDL
MODEL 3
REMARK VINA RESULT:     -11.0      2.937      9.645
REMARK SMILES O=C(C[C@@H]1C[N@@H+](CCSc2ccccc2F)CCO1)NCCCCCCNC(=O)c1ccc(-c2c3nc(c(-c4c(F)cc(S(=O)(=O)[O-])cc4F)c4ccc([nH]4)c(-c4c(F)cc(S(=O)(=O)[O-])cc4F)c4nc(c(-c5c(F)cc(S(=O)(=O)[O-])cc5F)c5ccc2[nH]5)C=C4)C=C3)cc1
REMARK SMILES IDX 22 1 21 2 20 3 1 4 2 5 3 7 4 8 5 9 19 10 6 11 18 12 17 13
REMARK SMILES IDX 7 15 8 16 9 17 10 18 11 19 15 20 12 21 14 22 16 23 13 24
REMARK SMILES IDX 23 25 24 26 25 27 26 28 27 29 28 30 29 32 30 33 31 34 95 35
REMARK SMILES IDX 32 36 94 37 33 38 34 39 35 40 88 41 36 42 93 43 87 44 89 45
REMARK SMILES IDX 37 46 92 47 86 48 85 49 38 51 72 52 51 53 71 54 52 55 55 56
REMARK SMILES IDX 70 57 90 58 53 59 54 60 69 62 91 63 56 64 39 65 40 66 49 67
REMARK SMILES IDX 41 68 42 69 48 70 50 71 43 72 44 73 45 74 46 75 47 76 73 77
REMARK SMILES IDX 74 78 83 79 75 80 76 81 82 82 84 83 77 84 78 85 79 86 80 87
REMARK SMILES IDX 81 88 57 89 58 90 67 91 59 92 60 93 66 94 68 95 61 96 62 97
REMARK SMILES IDX 63 98 64 99 65 100
REMARK H PARENT 20 6 6 14 27 31 89 50 55 61
REMARK Flexibility Score: inf
ROOT
ATOM      1  C   UNL A   1      36.124  31.369  27.928  1.00  0.00     0.021 C 
ENDROOT
BRANCH   1   2
ATOM      2  C   UNL A   1      35.004  30.322  28.014  1.00  0.00     0.116 C 
BRANCH   2   3
ATOM      3  N   UNL A   1      34.288  30.158  26.755  1.00  0.00    -0.356 N 
ATOM      4  O   UNL A   1      33.139  28.257  27.347  1.00  0.00    -0.275 OA
ATOM      5  C   UNL A   1      33.362  29.155  26.537  1.00  0.00     0.222 C 
ATOM      6  H   UNL A   1      34.473  30.792  26.026  1.00  0.00     0.163 HD
BRANCH   5   7
ATOM      7  C   UNL A   1      32.635  29.212  25.183  1.00  0.00     0.138 C 
BRANCH   7   8
ATOM      8  C   UNL A   1      32.434  27.848  24.483  1.00  0.00     0.182 C 
ATOM      9  C   UNL A   1      32.857  27.817  22.935  1.00  0.00     0.295 C 
ATOM     10  O   UNL A   1      31.105  27.459  24.816  1.00  0.00    -0.366 OA
ATOM     11  N   UNL A   1      31.869  27.420  21.906  1.00  0.00    -0.330 N 
ATOM     12  C   UNL A   1      30.394  26.893  23.750  1.00  0.00     0.222 C 
ATOM     13  C   UNL A   1      30.599  27.746  22.473  1.00  0.00     0.291 C 
ATOM     14  H   UNL A   1      32.190  27.911  21.073  1.00  0.00     0.348 HD
BRANCH  11  15
ATOM     15  C   UNL A   1      31.777  26.043  21.389  1.00  0.00     0.273 C 
BRANCH  15  16
ATOM     16  C   UNL A   1      32.848  24.862  21.707  1.00  0.00     0.136 C 
BRANCH  16  17
ATOM     17  S   UNL A   1      34.013  24.175  23.166  1.00  0.00    -0.117 SA
BRANCH  17  18
ATOM     18  C   UNL A   1      33.938  22.504  23.886  1.00  0.00     0.043 A 
ATOM     19  C   UNL A   1      32.764  21.795  23.554  1.00  0.00     0.018 A 
ATOM     20  C   UNL A   1      34.907  21.668  24.465  1.00  0.00     0.136 A 
ATOM     21  C   UNL A   1      32.555  20.442  23.914  1.00  0.00     0.001 A 
ATOM     22  C   UNL A   1      34.643  20.412  25.006  1.00  0.00     0.040 A 
ATOM     23  F   UNL A   1      36.216  21.866  24.342  1.00  0.00    -0.206 F 
ATOM     24  C   UNL A   1      33.469  19.770  24.708  1.00  0.00     0.003 A 
ENDBRANCH  17  18
ENDBRANCH  16  17
ENDBRANCH  15  16
ENDBRANCH  11  15
ENDBRANCH   7   8
ENDBRANCH   5   7
ENDBRANCH   2   3
ENDBRANCH   1   2
BRANCH   1  25
ATOM     25  C   UNL A   1      35.658  32.823  28.084  1.00  0.00     0.002 C 
BRANCH  25  26
ATOM     26  C   UNL A   1      34.481  33.013  29.041  1.00  0.00     0.002 C 
BRANCH  26  27
ATOM     27  C   UNL A   1      33.440  34.064  28.660  1.00  0.00     0.021 C 
BRANCH  27  28
ATOM     28  C   UNL A   1      33.604  35.423  29.324  1.00  0.00     0.116 C 
BRANCH  28  29
ATOM     29  N   UNL A   1      32.639  35.658  30.390  1.00  0.00    -0.352 N 
ATOM     30  C   UNL A   1      32.702  35.306  31.717  1.00  0.00     0.251 C 
ATOM     31  H   UNL A   1      31.823  36.140  30.122  1.00  0.00     0.163 HD
ATOM     32  O   UNL A   1      31.717  35.470  32.440  1.00  0.00    -0.269 OA
BRANCH  30  33
ATOM     33  C   UNL A   1      33.934  34.700  32.270  1.00  0.00     0.039 A 
ATOM     34  C   UNL A   1      33.864  33.439  32.868  1.00  0.00     0.014 A 
ATOM     35  C   UNL A   1      35.163  35.360  32.180  1.00  0.00     0.014 A 
ATOM     36  C   UNL A   1      35.035  32.814  33.304  1.00  0.00     0.010 A 
ATOM     37  C   UNL A   1      36.337  34.693  32.517  1.00  0.00     0.010 A 
ATOM     38  C   UNL A   1      36.287  33.415  33.091  1.00  0.00    -0.014 A 
BRANCH  38  39
ATOM     39  C   UNL A   1      37.549  32.722  33.463  1.00  0.00     0.031 A 
ATOM     40  C   UNL A   1      38.272  33.087  34.732  1.00  0.00     0.074 A 
ATOM     41  C   UNL A   1      38.069  31.796  32.634  1.00  0.00     0.049 A 
ATOM     42  N   UNL A   1      39.389  32.604  35.213  1.00  0.00    -0.248 NA
ATOM     43  C   UNL A   1      37.679  34.153  35.555  1.00  0.00     0.031 C 
ATOM     44  C   UNL A   1      37.492  31.396  31.348  1.00  0.00     0.029 A 
ATOM     45  N   UNL A   1      39.193  31.015  32.750  1.00  0.00    -0.354 N 
ATOM     46  C   UNL A   1      39.629  33.304  36.389  1.00  0.00     0.074 A 
ATOM     47  C   UNL A   1      38.588  34.300  36.507  1.00  0.00     0.031 C 
ATOM     48  C   UNL A   1      38.237  30.412  30.819  1.00  0.00     0.029 A 
ATOM     49  C   UNL A   1      39.366  30.140  31.703  1.00  0.00     0.049 A 
ATOM     50  H   UNL A   1      39.816  31.078  33.509  1.00  0.00     0.167 HD
ATOM     51  C   UNL A   1      40.607  33.112  37.309  1.00  0.00     0.037 A 
ATOM     52  C   UNL A   1      40.323  29.217  31.482  1.00  0.00     0.037 A 
ATOM     53  C   UNL A   1      41.637  32.112  37.187  1.00  0.00     0.049 A 
ATOM     54  C   UNL A   1      41.411  29.032  32.501  1.00  0.00     0.074 A 
ATOM     55  C   UNL A   1      42.651  31.811  38.078  1.00  0.00     0.029 A 
ATOM     56  N   UNL A   1      41.787  31.255  36.105  1.00  0.00    -0.354 N 
ATOM     57  N   UNL A   1      41.592  29.665  33.636  1.00  0.00    -0.248 NA
ATOM     58  C   UNL A   1      42.422  28.007  32.215  1.00  0.00     0.031 C 
ATOM     59  C   UNL A   1      43.446  30.809  37.512  1.00  0.00     0.029 A 
ATOM     60  C   UNL A   1      42.893  30.442  36.294  1.00  0.00     0.049 A 
ATOM     61  H   UNL A   1      41.196  31.230  35.318  1.00  0.00     0.167 HD
ATOM     62  C   UNL A   1      42.730  29.106  34.208  1.00  0.00     0.074 A 
ATOM     63  C   UNL A   1      43.182  28.069  33.301  1.00  0.00     0.031 C 
ATOM     64  C   UNL A   1      43.343  29.423  35.375  1.00  0.00     0.037 A 
BRANCH  51  65
ATOM     65  C   UNL A   1      40.595  33.996  38.529  1.00  0.00     0.058 A 
ATOM     66  C   UNL A   1      41.352  35.176  38.570  1.00  0.00     0.135 A 
ATOM     67  C   UNL A   1      39.844  33.663  39.670  1.00  0.00     0.135 A 
ATOM     68  F   UNL A   1      42.087  35.547  37.510  1.00  0.00    -0.206 F 
ATOM     69  C   UNL A   1      41.364  35.995  39.695  1.00  0.00     0.059 A 
ATOM     70  C   UNL A   1      39.815  34.485  40.793  1.00  0.00     0.059 A 
ATOM     71  F   UNL A   1      39.084  32.556  39.680  1.00  0.00    -0.206 F 
ATOM     72  C   UNL A   1      40.586  35.645  40.799  1.00  0.00     0.060 A 
BRANCH  72  73
ATOM     73  S   UNL A   1      40.556  36.756  42.223  1.00  0.00     0.124 S 
ATOM     74  O   UNL A   1      40.570  35.817  43.338  1.00  0.00    -0.237 OA
ATOM     75  O   UNL A   1      41.776  37.535  42.027  1.00  0.00    -0.237 OA
ATOM     76  O   UNL A   1      39.315  37.503  42.043  1.00  0.00    -0.744 OA
ENDBRANCH  72  73
ENDBRANCH  51  65
BRANCH  52  77
ATOM     77  C   UNL A   1      40.244  28.367  30.263  1.00  0.00     0.058 A 
ATOM     78  C   UNL A   1      39.352  27.287  30.181  1.00  0.00     0.135 A 
ATOM     79  C   UNL A   1      41.123  28.571  29.188  1.00  0.00     0.135 A 
ATOM     80  F   UNL A   1      38.497  27.042  31.185  1.00  0.00    -0.206 F 
ATOM     81  C   UNL A   1      39.364  26.413  29.100  1.00  0.00     0.059 A 
ATOM     82  C   UNL A   1      41.137  27.725  28.083  1.00  0.00     0.059 A 
ATOM     83  F   UNL A   1      41.986  29.599  29.214  1.00  0.00    -0.206 F 
ATOM     84  C   UNL A   1      40.269  26.634  28.060  1.00  0.00     0.060 A 
BRANCH  84  85
ATOM     85  S   UNL A   1      40.315  25.448  26.700  1.00  0.00     0.124 S 
ATOM     86  O   UNL A   1      38.907  25.078  26.588  1.00  0.00    -0.237 OA
ATOM     87  O   UNL A   1      40.847  26.256  25.608  1.00  0.00    -0.237 OA
ATOM     88  O   UNL A   1      41.200  24.398  27.194  1.00  0.00    -0.744 OA
ENDBRANCH  84  85
ENDBRANCH  52  77
BRANCH  64  89
ATOM     89  C   UNL A   1      44.575  28.642  35.748  1.00  0.00     0.058 A 
ATOM     90  C   UNL A   1      45.843  29.051  35.305  1.00  0.00     0.135 A 
ATOM     91  C   UNL A   1      44.494  27.453  36.493  1.00  0.00     0.135 A 
ATOM     92  F   UNL A   1      45.978  30.175  34.583  1.00  0.00    -0.206 F 
ATOM     93  C   UNL A   1      46.985  28.306  35.578  1.00  0.00     0.059 A 
ATOM     94  C   UNL A   1      45.629  26.709  36.805  1.00  0.00     0.059 A 
ATOM     95  F   UNL A   1      43.307  27.022  36.947  1.00  0.00    -0.206 F 
ATOM     96  C   UNL A   1      46.869  27.138  36.331  1.00  0.00     0.060 A 
BRANCH  96  97
ATOM     97  S   UNL A   1      48.367  26.204  36.705  1.00  0.00     0.124 S 
ATOM     98  O   UNL A   1      49.412  27.142  36.311  1.00  0.00    -0.237 OA
ATOM     99  O   UNL A   1      48.232  25.969  38.139  1.00  0.00    -0.237 OA
ATOM    100  O   UNL A   1      48.243  25.014  35.867  1.00  0.00    -0.744 OA
ENDBRANCH  96  97
ENDBRANCH  64  89
ENDBRANCH  38  39
ENDBRANCH  30  33
ENDBRANCH  28  29
ENDBRANCH  27  28
ENDBRANCH  26  27
ENDBRANCH  25  26
ENDBRANCH   1  25
TORSDOF 21
ENDMDL
