MODEL 1
REMARK VINA RESULT:     -11.1      0.000      0.000
REMARK SMILES COc1ccc(C[N@@H+]2CCO[C@H](CC(=O)NCCCCCCNC(=O)c3ccc(-c4c5nc(c(-c6c(F)cc(S(=O)(=O)[O-])cc6F)c6ccc([nH]6)c(-c6c(F)cc(S(=O)(=O)[O-])cc6F)c6nc(c(-c7c(F)cc(S(=O)(=O)[O-])cc7F)c7ccc4[nH]7)C=C6)C=C5)cc3)C2)cc1OC
REMARK SMILES IDX 19 1 18 2 17 3 16 4 14 5 15 6 13 8 12 9 8 10 9 11 92 12
REMARK SMILES IDX 10 14 11 15 7 16 6 17 3 18 4 19 94 20 5 21 93 22 2 23 1 24
REMARK SMILES IDX 95 25 96 26 20 27 21 28 22 29 23 30 24 31 25 33 26 34 27 35
REMARK SMILES IDX 91 36 28 37 90 38 29 39 30 40 31 41 84 42 32 43 89 44 83 45
REMARK SMILES IDX 85 46 33 47 88 48 82 49 81 50 34 52 68 53 47 54 67 55 48 56
REMARK SMILES IDX 51 57 66 58 86 59 49 60 50 61 65 63 87 64 52 65 35 66 36 67
REMARK SMILES IDX 45 68 37 69 38 70 44 71 46 72 39 73 40 74 41 75 42 76 43 77
REMARK SMILES IDX 69 78 70 79 79 80 71 81 72 82 78 83 80 84 73 85 74 86 75 87
REMARK SMILES IDX 76 88 77 89 53 90 54 91 63 92 55 93 56 94 62 95 64 96 57 97
REMARK SMILES IDX 58 98 59 99 60 100 61 101
REMARK H PARENT 16 7 8 13 23 32 85 51 51 62
REMARK Flexibility Score: inf
ROOT
ATOM      1  C   UNL A   1      34.012  31.580  27.990  1.00  0.00     0.002 C 
ENDROOT
BRANCH   1   2
ATOM      2  C   UNL A   1      34.883  30.384  27.572  1.00  0.00     0.021 C 
BRANCH   2   3
ATOM      3  C   UNL A   1      34.169  29.182  26.951  1.00  0.00     0.116 C 
BRANCH   3   4
ATOM      4  N   UNL A   1      33.947  29.356  25.542  1.00  0.00    -0.356 N 
ATOM      5  C   UNL A   1      33.757  28.459  24.553  1.00  0.00     0.222 C 
ATOM      6  O   UNL A   1      33.654  28.948  23.431  1.00  0.00    -0.275 OA
ATOM      7  H   UNL A   1      33.930  30.294  25.246  1.00  0.00     0.163 HD
BRANCH   5   8
ATOM      8  C   UNL A   1      33.687  26.970  24.828  1.00  0.00     0.138 C 
BRANCH   8   9
ATOM      9  C   UNL A   1      32.354  26.527  25.427  1.00  0.00     0.182 C 
ATOM     10  N   UNL A   1      31.420  24.539  24.099  1.00  0.00    -0.327 N 
ATOM     11  C   UNL A   1      30.299  25.412  23.763  1.00  0.00     0.291 C 
ATOM     12  C   UNL A   1      32.051  25.012  25.331  1.00  0.00     0.295 C 
ATOM     13  H   UNL A   1      31.018  23.621  24.288  1.00  0.00     0.348 HD
ATOM     14  C   UNL A   1      30.652  26.910  23.768  1.00  0.00     0.222 C 
ATOM     15  O   UNL A   1      31.244  27.339  24.995  1.00  0.00    -0.366 OA
BRANCH  10  16
ATOM     16  C   UNL A   1      32.277  23.998  23.026  1.00  0.00     0.299 C 
BRANCH  16  17
ATOM     17  C   UNL A   1      33.473  23.138  23.396  1.00  0.00     0.010 A 
ATOM     18  C   UNL A   1      35.536  21.802  24.750  1.00  0.00     0.160 A 
ATOM     19  C   UNL A   1      35.805  22.960  24.016  1.00  0.00     0.051 A 
ATOM     20  C   UNL A   1      34.288  21.192  24.641  1.00  0.00     0.161 A 
ATOM     21  C   UNL A   1      34.784  23.603  23.310  1.00  0.00     0.013 A 
ATOM     22  C   UNL A   1      33.292  21.840  23.893  1.00  0.00     0.060 A 
BRANCH  18  23
ATOM     23  O   UNL A   1      36.469  21.440  25.682  1.00  0.00    -0.493 OA
ATOM     24  C   UNL A   1      37.780  21.348  25.146  1.00  0.00     0.278 C 
ENDBRANCH  18  23
BRANCH  20  25
ATOM     25  O   UNL A   1      33.866  20.023  25.211  1.00  0.00    -0.493 OA
ATOM     26  C   UNL A   1      33.443  18.970  24.358  1.00  0.00     0.278 C 
ENDBRANCH  20  25
ENDBRANCH  16  17
ENDBRANCH  10  16
ENDBRANCH   8   9
ENDBRANCH   5   8
ENDBRANCH   3   4
ENDBRANCH   2   3
ENDBRANCH   1   2
BRANCH   1  27
ATOM     27  C   UNL A   1      34.719  32.896  28.324  1.00  0.00     0.002 C 
BRANCH  27  28
ATOM     28  C   UNL A   1      36.238  32.879  28.216  1.00  0.00     0.021 C 
BRANCH  28  29
ATOM     29  C   UNL A   1      36.955  32.988  29.547  1.00  0.00     0.116 C 
BRANCH  29  30
ATOM     30  N   UNL A   1      36.356  32.138  30.556  1.00  0.00    -0.352 N 
ATOM     31  C   UNL A   1      36.763  30.879  30.932  1.00  0.00     0.251 C 
ATOM     32  H   UNL A   1      35.571  32.502  31.025  1.00  0.00     0.163 HD
ATOM     33  O   UNL A   1      36.065  30.184  31.649  1.00  0.00    -0.269 OA
BRANCH  31  34
ATOM     34  C   UNL A   1      38.059  30.383  30.415  1.00  0.00     0.039 A 
ATOM     35  C   UNL A   1      38.175  30.087  29.058  1.00  0.00     0.014 A 
ATOM     36  C   UNL A   1      39.163  30.268  31.267  1.00  0.00     0.014 A 
ATOM     37  C   UNL A   1      39.412  29.693  28.549  1.00  0.00     0.010 A 
ATOM     38  C   UNL A   1      40.413  29.968  30.740  1.00  0.00     0.010 A 
ATOM     39  C   UNL A   1      40.545  29.645  29.381  1.00  0.00    -0.014 A 
BRANCH  39  40
ATOM     40  C   UNL A   1      41.859  29.198  28.854  1.00  0.00     0.031 A 
ATOM     41  C   UNL A   1      42.998  30.182  28.766  1.00  0.00     0.074 A 
ATOM     42  C   UNL A   1      42.020  27.927  28.438  1.00  0.00     0.049 A 
ATOM     43  N   UNL A   1      44.215  29.996  28.328  1.00  0.00    -0.248 NA
ATOM     44  C   UNL A   1      42.726  31.565  29.198  1.00  0.00     0.031 C 
ATOM     45  C   UNL A   1      40.977  26.897  28.430  1.00  0.00     0.029 A 
ATOM     46  N   UNL A   1      43.124  27.279  27.941  1.00  0.00    -0.354 N 
ATOM     47  C   UNL A   1      44.843  31.234  28.414  1.00  0.00     0.074 A 
ATOM     48  C   UNL A   1      43.858  32.178  28.893  1.00  0.00     0.031 C 
ATOM     49  C   UNL A   1      41.500  25.741  27.988  1.00  0.00     0.029 A 
ATOM     50  C   UNL A   1      42.903  25.954  27.645  1.00  0.00     0.049 A 
ATOM     51  H   UNL A   1      43.993  27.723  27.809  1.00  0.00     0.167 HD
ATOM     52  C   UNL A   1      46.129  31.551  28.145  1.00  0.00     0.037 A 
ATOM     53  C   UNL A   1      43.740  25.018  27.153  1.00  0.00     0.037 A 
ATOM     54  C   UNL A   1      47.115  30.595  27.714  1.00  0.00     0.049 A 
ATOM     55  C   UNL A   1      45.172  25.400  26.874  1.00  0.00     0.074 A 
ATOM     56  C   UNL A   1      48.466  30.796  27.489  1.00  0.00     0.029 A 
ATOM     57  N   UNL A   1      46.858  29.259  27.445  1.00  0.00    -0.354 N 
ATOM     58  N   UNL A   1      45.767  26.557  27.041  1.00  0.00    -0.248 NA
ATOM     59  C   UNL A   1      46.050  24.342  26.354  1.00  0.00     0.031 C 
ATOM     60  C   UNL A   1      49.014  29.596  27.028  1.00  0.00     0.029 A 
ATOM     61  C   UNL A   1      48.020  28.630  27.031  1.00  0.00     0.049 A 
ATOM     62  H   UNL A   1      45.981  28.823  27.536  1.00  0.00     0.167 HD
ATOM     63  C   UNL A   1      47.098  26.354  26.690  1.00  0.00     0.074 A 
ATOM     64  C   UNL A   1      47.220  24.961  26.312  1.00  0.00     0.031 C 
ATOM     65  C   UNL A   1      48.127  27.236  26.684  1.00  0.00     0.037 A 
BRANCH  52  66
ATOM     66  C   UNL A   1      46.559  32.984  28.307  1.00  0.00     0.058 A 
ATOM     67  C   UNL A   1      46.461  33.912  27.259  1.00  0.00     0.135 A 
ATOM     68  C   UNL A   1      47.007  33.450  29.554  1.00  0.00     0.135 A 
ATOM     69  F   UNL A   1      46.059  33.519  26.039  1.00  0.00    -0.206 F 
ATOM     70  C   UNL A   1      46.799  35.250  27.439  1.00  0.00     0.059 A 
ATOM     71  C   UNL A   1      47.322  34.789  29.764  1.00  0.00     0.059 A 
ATOM     72  F   UNL A   1      47.127  32.603  30.588  1.00  0.00    -0.206 F 
ATOM     73  C   UNL A   1      47.219  35.680  28.697  1.00  0.00     0.060 A 
BRANCH  73  74
ATOM     74  S   UNL A   1      47.606  37.429  28.926  1.00  0.00     0.124 S 
ATOM     75  O   UNL A   1      46.823  38.043  27.858  1.00  0.00    -0.237 OA
ATOM     76  O   UNL A   1      47.131  37.676  30.283  1.00  0.00    -0.237 OA
ATOM     77  O   UNL A   1      49.054  37.484  28.752  1.00  0.00    -0.744 OA
ENDBRANCH  73  74
ENDBRANCH  52  66
BRANCH  53  78
ATOM     78  C   UNL A   1      43.266  23.628  26.909  1.00  0.00     0.058 A 
ATOM     79  C   UNL A   1      43.058  22.736  27.974  1.00  0.00     0.135 A 
ATOM     80  C   UNL A   1      43.052  23.148  25.608  1.00  0.00     0.135 A 
ATOM     81  F   UNL A   1      43.249  23.145  29.237  1.00  0.00    -0.206 F 
ATOM     82  C   UNL A   1      42.702  21.409  27.756  1.00  0.00     0.059 A 
ATOM     83  C   UNL A   1      42.663  21.834  25.367  1.00  0.00     0.059 A 
ATOM     84  F   UNL A   1      43.213  23.963  24.555  1.00  0.00    -0.206 F 
ATOM     85  C   UNL A   1      42.514  20.965  26.447  1.00  0.00     0.060 A 
BRANCH  85  86
ATOM     86  S   UNL A   1      42.058  19.240  26.173  1.00  0.00     0.124 S 
ATOM     87  O   UNL A   1      42.456  18.628  27.435  1.00  0.00    -0.237 OA
ATOM     88  O   UNL A   1      40.622  19.336  25.934  1.00  0.00    -0.237 OA
ATOM     89  O   UNL A   1      42.856  18.864  25.009  1.00  0.00    -0.744 OA
ENDBRANCH  85  86
ENDBRANCH  53  78
BRANCH  65  90
ATOM     90  C   UNL A   1      49.491  26.710  26.326  1.00  0.00     0.058 A 
ATOM     91  C   UNL A   1      50.014  26.813  25.028  1.00  0.00     0.135 A 
ATOM     92  C   UNL A   1      50.300  26.126  27.315  1.00  0.00     0.135 A 
ATOM     93  F   UNL A   1      49.282  27.361  24.044  1.00  0.00    -0.206 F 
ATOM     94  C   UNL A   1      51.276  26.319  24.713  1.00  0.00     0.059 A 
ATOM     95  C   UNL A   1      51.579  25.658  27.031  1.00  0.00     0.059 A 
ATOM     96  F   UNL A   1      49.856  26.017  28.577  1.00  0.00    -0.206 F 
ATOM     97  C   UNL A   1      52.051  25.743  25.722  1.00  0.00     0.060 A 
BRANCH  97  98
ATOM     98  S   UNL A   1      53.691  25.117  25.304  1.00  0.00     0.124 S 
ATOM     99  O   UNL A   1      54.505  25.694  26.369  1.00  0.00    -0.237 OA
ATOM    100  O   UNL A   1      53.498  23.671  25.367  1.00  0.00    -0.237 OA
ATOM    101  O   UNL A   1      53.930  25.654  23.968  1.00  0.00    -0.744 OA
ENDBRANCH  97  98
ENDBRANCH  65  90
ENDBRANCH  39  40
ENDBRANCH  31  34
ENDBRANCH  29  30
ENDBRANCH  28  29
ENDBRANCH  27  28
ENDBRANCH   1  27
TORSDOF 21
ENDMDL
MODEL 2
REMARK VINA RESULT:     -10.8      2.368      9.091
REMARK SMILES COc1ccc(C[N@@H+]2CCO[C@H](CC(=O)NCCCCCCNC(=O)c3ccc(-c4c5nc(c(-c6c(F)cc(S(=O)(=O)[O-])cc6F)c6ccc([nH]6)c(-c6c(F)cc(S(=O)(=O)[O-])cc6F)c6nc(c(-c7c(F)cc(S(=O)(=O)[O-])cc7F)c7ccc4[nH]7)C=C6)C=C5)cc3)C2)cc1OC
REMARK SMILES IDX 19 1 18 2 17 3 16 4 14 5 15 6 13 8 12 9 8 10 9 11 92 12
REMARK SMILES IDX 10 14 11 15 7 16 6 17 3 18 4 19 94 20 5 21 93 22 2 23 1 24
REMARK SMILES IDX 95 25 96 26 20 27 21 28 22 29 23 30 24 31 25 33 26 34 27 35
REMARK SMILES IDX 91 36 28 37 90 38 29 39 30 40 31 41 84 42 32 43 89 44 83 45
REMARK SMILES IDX 85 46 33 47 88 48 82 49 81 50 34 52 68 53 47 54 67 55 48 56
REMARK SMILES IDX 51 57 66 58 86 59 49 60 50 61 65 63 87 64 52 65 35 66 36 67
REMARK SMILES IDX 45 68 37 69 38 70 44 71 46 72 39 73 40 74 41 75 42 76 43 77
REMARK SMILES IDX 69 78 70 79 79 80 71 81 72 82 78 83 80 84 73 85 74 86 75 87
REMARK SMILES IDX 76 88 77 89 53 90 54 91 63 92 55 93 56 94 62 95 64 96 57 97
REMARK SMILES IDX 58 98 59 99 60 100 61 101
REMARK H PARENT 16 7 8 13 23 32 85 51 51 62
REMARK Flexibility Score: inf
ROOT
ATOM      1  C   UNL A   1      37.254  22.076  24.733  1.00  0.00     0.002 C 
ENDROOT
BRANCH   1   2
ATOM      2  C   UNL A   1      36.747  22.753  23.448  1.00  0.00     0.021 C 
BRANCH   2   3
ATOM      3  C   UNL A   1      35.233  22.877  23.274  1.00  0.00     0.116 C 
BRANCH   3   4
ATOM      4  N   UNL A   1      34.824  24.238  23.064  1.00  0.00    -0.356 N 
ATOM      5  C   UNL A   1      34.032  25.052  23.789  1.00  0.00     0.222 C 
ATOM      6  O   UNL A   1      33.836  26.157  23.288  1.00  0.00    -0.275 OA
ATOM      7  H   UNL A   1      35.187  24.649  22.246  1.00  0.00     0.163 HD
BRANCH   5   8
ATOM      8  C   UNL A   1      33.434  24.614  25.111  1.00  0.00     0.138 C 
BRANCH   8   9
ATOM      9  C   UNL A   1      32.468  23.439  24.980  1.00  0.00     0.182 C 
ATOM     10  N   UNL A   1      30.107  24.171  25.671  1.00  0.00    -0.327 N 
ATOM     11  C   UNL A   1      30.218  23.187  26.744  1.00  0.00     0.291 C 
ATOM     12  C   UNL A   1      31.018  23.809  24.585  1.00  0.00     0.295 C 
ATOM     13  H   UNL A   1      29.154  24.095  25.315  1.00  0.00     0.348 HD
ATOM     14  C   UNL A   1      31.666  22.910  27.187  1.00  0.00     0.222 C 
ATOM     15  O   UNL A   1      32.520  22.538  26.104  1.00  0.00    -0.366 OA
BRANCH  10  16
ATOM     16  C   UNL A   1      29.924  25.598  25.998  1.00  0.00     0.299 C 
BRANCH  16  17
ATOM     17  C   UNL A   1      30.082  26.636  24.900  1.00  0.00     0.010 A 
ATOM     18  C   UNL A   1      30.070  28.991  23.373  1.00  0.00     0.160 A 
ATOM     19  C   UNL A   1      29.099  28.006  23.166  1.00  0.00     0.051 A 
ATOM     20  C   UNL A   1      31.165  28.716  24.189  1.00  0.00     0.161 A 
ATOM     21  C   UNL A   1      29.129  26.817  23.899  1.00  0.00     0.013 A 
ATOM     22  C   UNL A   1      31.188  27.496  24.885  1.00  0.00     0.060 A 
BRANCH  18  23
ATOM     23  O   UNL A   1      29.783  30.241  22.900  1.00  0.00    -0.493 OA
ATOM     24  C   UNL A   1      29.264  30.225  21.579  1.00  0.00     0.278 C 
ENDBRANCH  18  23
BRANCH  20  25
ATOM     25  O   UNL A   1      32.246  29.511  24.449  1.00  0.00    -0.493 OA
ATOM     26  C   UNL A   1      33.220  29.045  25.371  1.00  0.00     0.278 C 
ENDBRANCH  20  25
ENDBRANCH  16  17
ENDBRANCH  10  16
ENDBRANCH   8   9
ENDBRANCH   5   8
ENDBRANCH   3   4
ENDBRANCH   2   3
ENDBRANCH   1   2
BRANCH   1  27
ATOM     27  C   UNL A   1      36.925  20.595  24.938  1.00  0.00     0.002 C 
BRANCH  27  28
ATOM     28  C   UNL A   1      38.121  19.655  25.014  1.00  0.00     0.021 C 
BRANCH  28  29
ATOM     29  C   UNL A   1      39.361  20.278  25.620  1.00  0.00     0.116 C 
BRANCH  29  30
ATOM     30  N   UNL A   1      40.342  19.280  25.993  1.00  0.00    -0.352 N 
ATOM     31  C   UNL A   1      41.648  19.495  26.365  1.00  0.00     0.251 C 
ATOM     32  H   UNL A   1      40.041  18.343  25.979  1.00  0.00     0.163 HD
ATOM     33  O   UNL A   1      42.432  18.566  26.465  1.00  0.00    -0.269 OA
BRANCH  31  34
ATOM     34  C   UNL A   1      42.082  20.888  26.613  1.00  0.00     0.039 A 
ATOM     35  C   UNL A   1      42.271  21.313  27.927  1.00  0.00     0.014 A 
ATOM     36  C   UNL A   1      42.351  21.747  25.541  1.00  0.00     0.014 A 
ATOM     37  C   UNL A   1      42.753  22.599  28.167  1.00  0.00     0.010 A 
ATOM     38  C   UNL A   1      42.920  22.992  25.780  1.00  0.00     0.010 A 
ATOM     39  C   UNL A   1      43.097  23.444  27.096  1.00  0.00    -0.014 A 
BRANCH  39  40
ATOM     40  C   UNL A   1      43.582  24.825  27.341  1.00  0.00     0.031 A 
ATOM     41  C   UNL A   1      45.017  25.173  27.036  1.00  0.00     0.074 A 
ATOM     42  C   UNL A   1      42.748  25.751  27.854  1.00  0.00     0.049 A 
ATOM     43  N   UNL A   1      45.638  26.314  27.187  1.00  0.00    -0.248 NA
ATOM     44  C   UNL A   1      45.876  24.092  26.521  1.00  0.00     0.031 C 
ATOM     45  C   UNL A   1      41.352  25.518  28.234  1.00  0.00     0.029 A 
ATOM     46  N   UNL A   1      42.950  27.077  28.145  1.00  0.00    -0.354 N 
ATOM     47  C   UNL A   1      46.956  26.082  26.807  1.00  0.00     0.074 A 
ATOM     48  C   UNL A   1      47.061  24.680  26.470  1.00  0.00     0.031 C 
ATOM     49  C   UNL A   1      40.815  26.670  28.672  1.00  0.00     0.029 A 
ATOM     50  C   UNL A   1      41.836  27.713  28.640  1.00  0.00     0.049 A 
ATOM     51  H   UNL A   1      43.814  27.531  28.011  1.00  0.00     0.167 HD
ATOM     52  C   UNL A   1      47.979  26.962  26.721  1.00  0.00     0.037 A 
ATOM     53  C   UNL A   1      41.659  28.993  29.024  1.00  0.00     0.037 A 
ATOM     54  C   UNL A   1      47.853  28.365  27.012  1.00  0.00     0.049 A 
ATOM     55  C   UNL A   1      42.816  29.953  28.904  1.00  0.00     0.074 A 
ATOM     56  C   UNL A   1      48.808  29.358  26.880  1.00  0.00     0.029 A 
ATOM     57  N   UNL A   1      46.703  28.975  27.491  1.00  0.00    -0.354 N 
ATOM     58  N   UNL A   1      44.032  29.732  28.463  1.00  0.00    -0.248 NA
ATOM     59  C   UNL A   1      42.571  31.341  29.320  1.00  0.00     0.031 C 
ATOM     60  C   UNL A   1      48.254  30.558  27.336  1.00  0.00     0.029 A 
ATOM     61  C   UNL A   1      46.933  30.326  27.686  1.00  0.00     0.049 A 
ATOM     62  H   UNL A   1      45.851  28.515  27.667  1.00  0.00     0.167 HD
ATOM     63  C   UNL A   1      44.681  30.962  28.506  1.00  0.00     0.074 A 
ATOM     64  C   UNL A   1      43.720  31.922  29.006  1.00  0.00     0.031 C 
ATOM     65  C   UNL A   1      45.955  31.272  28.160  1.00  0.00     0.037 A 
BRANCH  52  66
ATOM     66  C   UNL A   1      49.326  26.447  26.291  1.00  0.00     0.058 A 
ATOM     67  C   UNL A   1      49.836  26.683  25.005  1.00  0.00     0.135 A 
ATOM     68  C   UNL A   1      50.148  25.771  27.208  1.00  0.00     0.135 A 
ATOM     69  F   UNL A   1      49.086  27.306  24.082  1.00  0.00    -0.206 F 
ATOM     70  C   UNL A   1      51.110  26.260  24.640  1.00  0.00     0.059 A 
ATOM     71  C   UNL A   1      51.436  25.365  26.873  1.00  0.00     0.059 A 
ATOM     72  F   UNL A   1      49.707  25.512  28.448  1.00  0.00    -0.206 F 
ATOM     73  C   UNL A   1      51.906  25.611  25.584  1.00  0.00     0.060 A 
BRANCH  73  74
ATOM     74  S   UNL A   1      53.575  25.113  25.108  1.00  0.00     0.124 S 
ATOM     75  O   UNL A   1      54.390  25.945  25.988  1.00  0.00    -0.237 OA
ATOM     76  O   UNL A   1      53.571  23.686  25.410  1.00  0.00    -0.237 OA
ATOM     77  O   UNL A   1      53.641  25.451  23.689  1.00  0.00    -0.744 OA
ENDBRANCH  73  74
ENDBRANCH  52  66
BRANCH  53  78
ATOM     78  C   UNL A   1      40.341  29.457  29.538  1.00  0.00     0.058 A 
ATOM     79  C   UNL A   1      39.293  29.777  28.660  1.00  0.00     0.135 A 
ATOM     80  C   UNL A   1      40.114  29.633  30.912  1.00  0.00     0.135 A 
ATOM     81  F   UNL A   1      39.459  29.627  27.336  1.00  0.00    -0.206 F 
ATOM     82  C   UNL A   1      38.087  30.296  29.119  1.00  0.00     0.059 A 
ATOM     83  C   UNL A   1      38.905  30.119  31.398  1.00  0.00     0.059 A 
ATOM     84  F   UNL A   1      41.073  29.322  31.797  1.00  0.00    -0.206 F 
ATOM     85  C   UNL A   1      37.905  30.471  30.491  1.00  0.00     0.060 A 
BRANCH  85  86
ATOM     86  S   UNL A   1      36.340  31.152  31.080  1.00  0.00     0.124 S 
ATOM     87  O   UNL A   1      36.766  32.436  31.623  1.00  0.00    -0.237 OA
ATOM     88  O   UNL A   1      35.549  31.206  29.854  1.00  0.00    -0.237 OA
ATOM     89  O   UNL A   1      35.894  30.167  32.061  1.00  0.00    -0.744 OA
ENDBRANCH  85  86
ENDBRANCH  53  78
BRANCH  65  90
ATOM     90  C   UNL A   1      46.364  32.718  28.240  1.00  0.00     0.058 A 
ATOM     91  C   UNL A   1      46.174  33.607  27.173  1.00  0.00     0.135 A 
ATOM     92  C   UNL A   1      46.921  33.225  29.426  1.00  0.00     0.135 A 
ATOM     93  F   UNL A   1      45.647  33.174  26.016  1.00  0.00    -0.206 F 
ATOM     94  C   UNL A   1      46.560  34.941  27.262  1.00  0.00     0.059 A 
ATOM     95  C   UNL A   1      47.280  34.563  29.551  1.00  0.00     0.059 A 
ATOM     96  F   UNL A   1      47.109  32.421  30.485  1.00  0.00    -0.206 F 
ATOM     97  C   UNL A   1      47.113  35.409  28.456  1.00  0.00     0.060 A 
BRANCH  97  98
ATOM     98  S   UNL A   1      47.598  37.144  28.564  1.00  0.00     0.124 S 
ATOM     99  O   UNL A   1      46.822  37.733  27.478  1.00  0.00    -0.237 OA
ATOM    100  O   UNL A   1      47.175  37.502  29.914  1.00  0.00    -0.237 OA
ATOM    101  O   UNL A   1      49.043  37.107  28.356  1.00  0.00    -0.744 OA
ENDBRANCH  97  98
ENDBRANCH  65  90
ENDBRANCH  39  40
ENDBRANCH  31  34
ENDBRANCH  29  30
ENDBRANCH  28  29
ENDBRANCH  27  28
ENDBRANCH   1  27
TORSDOF 21
ENDMDL
MODEL 3
REMARK VINA RESULT:     -10.8      6.272     12.054
REMARK SMILES COc1ccc(C[N@@H+]2CCO[C@H](CC(=O)NCCCCCCNC(=O)c3ccc(-c4c5nc(c(-c6c(F)cc(S(=O)(=O)[O-])cc6F)c6ccc([nH]6)c(-c6c(F)cc(S(=O)(=O)[O-])cc6F)c6nc(c(-c7c(F)cc(S(=O)(=O)[O-])cc7F)c7ccc4[nH]7)C=C6)C=C5)cc3)C2)cc1OC
REMARK SMILES IDX 19 1 18 2 17 3 16 4 14 5 15 6 13 8 12 9 8 10 9 11 92 12
REMARK SMILES IDX 10 14 11 15 7 16 6 17 3 18 4 19 94 20 5 21 93 22 2 23 1 24
REMARK SMILES IDX 95 25 96 26 20 27 21 28 22 29 23 30 24 31 25 33 26 34 27 35
REMARK SMILES IDX 91 36 28 37 90 38 29 39 30 40 31 41 84 42 32 43 89 44 83 45
REMARK SMILES IDX 85 46 33 47 88 48 82 49 81 50 34 52 68 53 47 54 67 55 48 56
REMARK SMILES IDX 51 57 66 58 86 59 49 60 50 61 65 63 87 64 52 65 35 66 36 67
REMARK SMILES IDX 45 68 37 69 38 70 44 71 46 72 39 73 40 74 41 75 42 76 43 77
REMARK SMILES IDX 69 78 70 79 79 80 71 81 72 82 78 83 80 84 73 85 74 86 75 87
REMARK SMILES IDX 76 88 77 89 53 90 54 91 63 92 55 93 56 94 62 95 64 96 57 97
REMARK SMILES IDX 58 98 59 99 60 100 61 101
REMARK H PARENT 16 7 8 13 23 32 85 51 51 62
REMARK Flexibility Score: inf
ROOT
ATOM      1  C   UNL A   1      39.631  21.203  26.146  1.00  0.00     0.002 C 
ENDROOT
BRANCH   1   2
ATOM      2  C   UNL A   1      38.267  21.427  25.471  1.00  0.00     0.021 C 
BRANCH   2   3
ATOM      3  C   UNL A   1      37.773  22.869  25.354  1.00  0.00     0.116 C 
BRANCH   3   4
ATOM      4  N   UNL A   1      37.024  23.085  24.147  1.00  0.00    -0.356 N 
ATOM      5  C   UNL A   1      35.775  23.548  23.944  1.00  0.00     0.222 C 
ATOM      6  O   UNL A   1      35.414  23.554  22.770  1.00  0.00    -0.275 OA
ATOM      7  H   UNL A   1      37.509  22.855  23.322  1.00  0.00     0.163 HD
BRANCH   5   8
ATOM      8  C   UNL A   1      34.900  24.012  25.092  1.00  0.00     0.138 C 
BRANCH   8   9
ATOM      9  C   UNL A   1      34.076  22.889  25.718  1.00  0.00     0.182 C 
ATOM     10  N   UNL A   1      31.885  22.587  24.415  1.00  0.00    -0.327 N 
ATOM     11  C   UNL A   1      31.207  22.965  25.652  1.00  0.00     0.291 C 
ATOM     12  C   UNL A   1      33.215  22.065  24.730  1.00  0.00     0.295 C 
ATOM     13  H   UNL A   1      31.339  21.824  24.015  1.00  0.00     0.348 HD
ATOM     14  C   UNL A   1      32.049  23.868  26.572  1.00  0.00     0.222 C 
ATOM     15  O   UNL A   1      33.331  23.315  26.876  1.00  0.00    -0.366 OA
BRANCH  10  16
ATOM     16  C   UNL A   1      31.715  23.411  23.203  1.00  0.00     0.299 C 
BRANCH  16  17
ATOM     17  C   UNL A   1      31.431  24.896  23.350  1.00  0.00     0.010 A 
ATOM     18  C   UNL A   1      31.161  27.523  24.299  1.00  0.00     0.160 A 
ATOM     19  C   UNL A   1      30.049  26.681  24.221  1.00  0.00     0.051 A 
ATOM     20  C   UNL A   1      32.363  27.133  23.713  1.00  0.00     0.161 A 
ATOM     21  C   UNL A   1      30.176  25.385  23.712  1.00  0.00     0.013 A 
ATOM     22  C   UNL A   1      32.452  25.839  23.174  1.00  0.00     0.060 A 
BRANCH  18  23
ATOM     23  O   UNL A   1      31.045  28.613  25.117  1.00  0.00    -0.493 OA
ATOM     24  C   UNL A   1      31.771  28.475  26.329  1.00  0.00     0.278 C 
ENDBRANCH  18  23
BRANCH  20  25
ATOM     25  O   UNL A   1      33.526  27.843  23.615  1.00  0.00    -0.493 OA
ATOM     26  C   UNL A   1      33.997  28.194  22.323  1.00  0.00     0.278 C 
ENDBRANCH  20  25
ENDBRANCH  16  17
ENDBRANCH  10  16
ENDBRANCH   8   9
ENDBRANCH   5   8
ENDBRANCH   3   4
ENDBRANCH   2   3
ENDBRANCH   1   2
BRANCH   1  27
ATOM     27  C   UNL A   1      40.108  22.249  27.157  1.00  0.00     0.002 C 
BRANCH  27  28
ATOM     28  C   UNL A   1      41.504  22.031  27.727  1.00  0.00     0.021 C 
BRANCH  28  29
ATOM     29  C   UNL A   1      42.407  23.244  27.634  1.00  0.00     0.116 C 
BRANCH  29  30
ATOM     30  N   UNL A   1      42.276  23.920  26.360  1.00  0.00    -0.352 N 
ATOM     31  C   UNL A   1      41.802  25.191  26.137  1.00  0.00     0.251 C 
ATOM     32  H   UNL A   1      42.560  23.414  25.564  1.00  0.00     0.163 HD
ATOM     33  O   UNL A   1      41.554  25.578  25.008  1.00  0.00    -0.269 OA
BRANCH  31  34
ATOM     34  C   UNL A   1      41.572  26.064  27.310  1.00  0.00     0.039 A 
ATOM     35  C   UNL A   1      42.434  27.137  27.531  1.00  0.00     0.014 A 
ATOM     36  C   UNL A   1      40.474  25.848  28.150  1.00  0.00     0.014 A 
ATOM     37  C   UNL A   1      42.181  28.010  28.589  1.00  0.00     0.010 A 
ATOM     38  C   UNL A   1      40.171  26.772  29.142  1.00  0.00     0.010 A 
ATOM     39  C   UNL A   1      41.039  27.845  29.393  1.00  0.00    -0.014 A 
BRANCH  39  40
ATOM     40  C   UNL A   1      40.778  28.751  30.539  1.00  0.00     0.031 A 
ATOM     41  C   UNL A   1      41.610  28.624  31.791  1.00  0.00     0.074 A 
ATOM     42  C   UNL A   1      39.788  29.662  30.466  1.00  0.00     0.049 A 
ATOM     43  N   UNL A   1      41.536  29.309  32.902  1.00  0.00    -0.248 NA
ATOM     44  C   UNL A   1      42.641  27.572  31.808  1.00  0.00     0.031 C 
ATOM     45  C   UNL A   1      38.885  29.846  29.326  1.00  0.00     0.029 A 
ATOM     46  N   UNL A   1      39.373  30.610  31.368  1.00  0.00    -0.354 N 
ATOM     47  C   UNL A   1      42.491  28.759  33.750  1.00  0.00     0.074 A 
ATOM     48  C   UNL A   1      43.096  27.649  33.048  1.00  0.00     0.031 C 
ATOM     49  C   UNL A   1      38.050  30.866  29.583  1.00  0.00     0.029 A 
ATOM     50  C   UNL A   1      38.330  31.386  30.918  1.00  0.00     0.049 A 
ATOM     51  H   UNL A   1      39.785  30.724  32.256  1.00  0.00     0.167 HD
ATOM     52  C   UNL A   1      42.851  29.159  34.991  1.00  0.00     0.037 A 
ATOM     53  C   UNL A   1      37.676  32.402  31.516  1.00  0.00     0.037 A 
ATOM     54  C   UNL A   1      42.277  30.295  35.663  1.00  0.00     0.049 A 
ATOM     55  C   UNL A   1      38.109  32.832  32.895  1.00  0.00     0.074 A 
ATOM     56  C   UNL A   1      42.626  30.833  36.889  1.00  0.00     0.029 A 
ATOM     57  N   UNL A   1      41.238  31.067  35.167  1.00  0.00    -0.354 N 
ATOM     58  N   UNL A   1      39.071  32.352  33.647  1.00  0.00    -0.248 NA
ATOM     59  C   UNL A   1      37.377  33.954  33.500  1.00  0.00     0.031 C 
ATOM     60  C   UNL A   1      41.758  31.895  37.161  1.00  0.00     0.029 A 
ATOM     61  C   UNL A   1      40.915  32.061  36.075  1.00  0.00     0.049 A 
ATOM     62  H   UNL A   1      40.796  30.929  34.298  1.00  0.00     0.167 HD
ATOM     63  C   UNL A   1      39.088  33.142  34.793  1.00  0.00     0.074 A 
ATOM     64  C   UNL A   1      38.047  34.135  34.628  1.00  0.00     0.031 C 
ATOM     65  C   UNL A   1      39.893  33.058  35.881  1.00  0.00     0.037 A 
BRANCH  52  66
ATOM     66  C   UNL A   1      43.915  28.376  35.711  1.00  0.00     0.058 A 
ATOM     67  C   UNL A   1      43.602  27.303  36.559  1.00  0.00     0.135 A 
ATOM     68  C   UNL A   1      45.273  28.660  35.488  1.00  0.00     0.135 A 
ATOM     69  F   UNL A   1      42.321  26.999  36.825  1.00  0.00    -0.206 F 
ATOM     70  C   UNL A   1      44.597  26.543  37.168  1.00  0.00     0.059 A 
ATOM     71  C   UNL A   1      46.283  27.895  36.063  1.00  0.00     0.059 A 
ATOM     72  F   UNL A   1      45.628  29.680  34.692  1.00  0.00    -0.206 F 
ATOM     73  C   UNL A   1      45.934  26.842  36.906  1.00  0.00     0.060 A 
BRANCH  73  74
ATOM     74  S   UNL A   1      47.211  25.815  37.665  1.00  0.00     0.124 S 
ATOM     75  O   UNL A   1      46.482  24.574  37.908  1.00  0.00    -0.237 OA
ATOM     76  O   UNL A   1      48.226  25.760  36.618  1.00  0.00    -0.237 OA
ATOM     77  O   UNL A   1      47.586  26.565  38.860  1.00  0.00    -0.744 OA
ENDBRANCH  73  74
ENDBRANCH  52  66
BRANCH  53  78
ATOM     78  C   UNL A   1      36.560  33.100  30.822  1.00  0.00     0.058 A 
ATOM     79  C   UNL A   1      36.808  33.988  29.762  1.00  0.00     0.135 A 
ATOM     80  C   UNL A   1      35.227  32.929  31.227  1.00  0.00     0.135 A 
ATOM     81  F   UNL A   1      38.065  34.187  29.337  1.00  0.00    -0.206 F 
ATOM     82  C   UNL A   1      35.785  34.716  29.163  1.00  0.00     0.059 A 
ATOM     83  C   UNL A   1      34.183  33.621  30.621  1.00  0.00     0.059 A 
ATOM     84  F   UNL A   1      34.929  32.076  32.219  1.00  0.00    -0.206 F 
ATOM     85  C   UNL A   1      34.475  34.530  29.605  1.00  0.00     0.060 A 
BRANCH  85  86
ATOM     86  S   UNL A   1      33.154  35.482  28.827  1.00  0.00     0.124 S 
ATOM     87  O   UNL A   1      32.443  36.000  29.989  1.00  0.00    -0.237 OA
ATOM     88  O   UNL A   1      33.901  36.462  28.045  1.00  0.00    -0.237 OA
ATOM     89  O   UNL A   1      32.437  34.481  28.042  1.00  0.00    -0.744 OA
ENDBRANCH  85  86
ENDBRANCH  53  78
BRANCH  65  90
ATOM     90  C   UNL A   1      39.731  34.108  36.947  1.00  0.00     0.058 A 
ATOM     91  C   UNL A   1      39.001  33.873  38.121  1.00  0.00     0.135 A 
ATOM     92  C   UNL A   1      40.355  35.358  36.801  1.00  0.00     0.135 A 
ATOM     93  F   UNL A   1      38.383  32.695  38.311  1.00  0.00    -0.206 F 
ATOM     94  C   UNL A   1      38.859  34.856  39.096  1.00  0.00     0.059 A 
ATOM     95  C   UNL A   1      40.258  36.342  37.779  1.00  0.00     0.059 A 
ATOM     96  F   UNL A   1      41.081  35.630  35.704  1.00  0.00    -0.206 F 
ATOM     97  C   UNL A   1      39.491  36.088  38.915  1.00  0.00     0.060 A 
BRANCH  97  98
ATOM     98  S   UNL A   1      39.311  37.350  40.192  1.00  0.00     0.124 S 
ATOM     99  O   UNL A   1      40.694  37.779  40.377  1.00  0.00    -0.237 OA
ATOM    100  O   UNL A   1      38.427  38.317  39.551  1.00  0.00    -0.237 OA
ATOM    101  O   UNL A   1      38.725  36.619  41.312  1.00  0.00    -0.744 OA
ENDBRANCH  97  98
ENDBRANCH  65  90
ENDBRANCH  39  40
ENDBRANCH  31  34
ENDBRANCH  29  30
ENDBRANCH  28  29
ENDBRANCH  27  28
ENDBRANCH   1  27
TORSDOF 21
ENDMDL
