MODEL 1
REMARK VINA RESULT:     -10.6      0.000      0.000
REMARK SMILES C[C@@](COc1ccccc1)(NC(=O)CN1CSCC1=O)C(=O)NCCCCCCNC(=O)c1ccc(-c2c3nc(c(-c4c(F)cc(S(=O)(=O)[O-])cc4F)c4ccc([nH]4)c(-c4c(F)cc(S(=O)(=O)[O-])cc4F)c4nc(c(-c5c(F)cc(S(=O)(=O)[O-])cc5F)c5ccc2[nH]5)C=C4)C=C3)cc1
REMARK SMILES IDX 26 1 25 2 24 3 23 4 21 5 22 6 2 8 1 9 3 10 4 11 5 12 6 13
REMARK SMILES IDX 10 14 7 15 9 16 8 17 11 18 12 19 13 21 14 22 15 23 16 24
REMARK SMILES IDX 19 25 17 26 18 27 20 28 27 29 28 30 29 31 30 32 31 33 32 35
REMARK SMILES IDX 33 36 34 37 98 38 35 39 97 40 36 41 37 42 38 43 91 44 39 45
REMARK SMILES IDX 96 46 90 47 92 48 40 49 95 50 89 51 88 52 41 54 75 55 54 56
REMARK SMILES IDX 74 57 55 58 58 59 73 60 93 61 56 62 57 63 72 65 94 66 59 67
REMARK SMILES IDX 42 68 43 69 52 70 44 71 45 72 51 73 53 74 46 75 47 76 48 77
REMARK SMILES IDX 49 78 50 79 76 80 77 81 86 82 78 83 79 84 85 85 87 86 80 87
REMARK SMILES IDX 81 88 82 89 83 90 84 91 60 92 61 93 70 94 62 95 63 96 69 97
REMARK SMILES IDX 71 98 64 99 65 100 66 101 67 102 68 103
REMARK H PARENT 23 7 11 20 30 34 92 53 58 64
REMARK Flexibility Score: inf
ROOT
ATOM      1  C   UNL A   1      30.773  26.658  25.299  1.00  0.00     0.002 C 
ENDROOT
BRANCH   1   2
ATOM      2  C   UNL A   1      30.738  26.026  23.901  1.00  0.00     0.021 C 
BRANCH   2   3
ATOM      3  C   UNL A   1      31.044  24.526  23.855  1.00  0.00     0.116 C 
BRANCH   3   4
ATOM      4  N   UNL A   1      32.093  24.169  22.909  1.00  0.00    -0.354 N 
ATOM      5  C   UNL A   1      33.326  23.609  23.086  1.00  0.00     0.249 C 
ATOM      6  O   UNL A   1      33.893  23.210  22.063  1.00  0.00    -0.272 OA
ATOM      7  H   UNL A   1      31.872  24.367  21.970  1.00  0.00     0.163 HD
BRANCH   5   8
ATOM      8  C   UNL A   1      33.901  23.306  24.495  1.00  0.00     0.150 C 
ATOM      9  C   UNL A   1      34.113  24.560  25.352  1.00  0.00     0.049 C 
BRANCH   8  10
ATOM     10  C   UNL A   1      35.304  22.688  24.132  1.00  0.00     0.267 C 
BRANCH  10  11
ATOM     11  O   UNL A   1      36.023  22.089  25.210  1.00  0.00    -0.491 OA
BRANCH  11  12
ATOM     12  C   UNL A   1      37.251  22.580  25.563  1.00  0.00     0.119 A 
ATOM     13  C   UNL A   1      38.284  21.643  25.601  1.00  0.00     0.046 A 
ATOM     14  C   UNL A   1      37.509  23.867  26.024  1.00  0.00     0.046 A 
ATOM     15  C   UNL A   1      39.504  21.953  26.209  1.00  0.00     0.004 A 
ATOM     16  C   UNL A   1      38.691  24.158  26.708  1.00  0.00     0.004 A 
ATOM     17  C   UNL A   1      39.683  23.193  26.818  1.00  0.00     0.000 A 
ENDBRANCH  11  12
ENDBRANCH  10  11
ENDBRANCH   8  10
BRANCH   8  18
ATOM     18  N   UNL A   1      33.023  22.428  25.285  1.00  0.00    -0.338 N 
ATOM     19  C   UNL A   1      32.541  21.187  24.932  1.00  0.00     0.240 C 
ATOM     20  H   UNL A   1      32.749  22.767  26.169  1.00  0.00     0.164 HD
ATOM     21  O   UNL A   1      31.471  20.842  25.439  1.00  0.00    -0.273 OA
BRANCH  19  22
ATOM     22  C   UNL A   1      33.350  20.211  24.017  1.00  0.00     0.220 C 
BRANCH  22  23
ATOM     23  N   UNL A   1      33.529  18.800  24.353  1.00  0.00    -0.323 N 
ATOM     24  C   UNL A   1      32.460  17.853  24.147  1.00  0.00     0.190 C 
ATOM     25  C   UNL A   1      34.785  18.269  24.585  1.00  0.00     0.233 C 
ATOM     26  S   UNL A   1      33.042  16.237  24.656  1.00  0.00    -0.130 SA
ATOM     27  C   UNL A   1      34.756  16.770  24.783  1.00  0.00     0.171 C 
ATOM     28  O   UNL A   1      35.822  18.920  24.608  1.00  0.00    -0.274 OA
ENDBRANCH  22  23
ENDBRANCH  19  22
ENDBRANCH   8  18
ENDBRANCH   5   8
ENDBRANCH   3   4
ENDBRANCH   2   3
ENDBRANCH   1   2
BRANCH   1  29
ATOM     29  C   UNL A   1      31.753  27.820  25.453  1.00  0.00     0.002 C 
BRANCH  29  30
ATOM     30  C   UNL A   1      32.806  27.622  26.543  1.00  0.00     0.021 C 
BRANCH  30  31
ATOM     31  C   UNL A   1      34.059  28.464  26.360  1.00  0.00     0.116 C 
BRANCH  31  32
ATOM     32  N   UNL A   1      33.790  29.877  26.562  1.00  0.00    -0.352 N 
ATOM     33  C   UNL A   1      34.426  30.741  27.415  1.00  0.00     0.251 C 
ATOM     34  H   UNL A   1      33.064  30.260  26.019  1.00  0.00     0.163 HD
ATOM     35  O   UNL A   1      33.940  31.847  27.653  1.00  0.00    -0.269 OA
BRANCH  33  36
ATOM     36  C   UNL A   1      35.686  30.320  28.058  1.00  0.00     0.039 A 
ATOM     37  C   UNL A   1      36.896  30.535  27.395  1.00  0.00     0.014 A 
ATOM     38  C   UNL A   1      35.670  29.728  29.326  1.00  0.00     0.014 A 
ATOM     39  C   UNL A   1      38.093  30.182  28.020  1.00  0.00     0.010 A 
ATOM     40  C   UNL A   1      36.866  29.461  29.980  1.00  0.00     0.010 A 
ATOM     41  C   UNL A   1      38.090  29.660  29.325  1.00  0.00    -0.014 A 
BRANCH  41  42
ATOM     42  C   UNL A   1      39.353  29.259  29.997  1.00  0.00     0.031 A 
ATOM     43  C   UNL A   1      39.793  29.982  31.243  1.00  0.00     0.074 A 
ATOM     44  C   UNL A   1      40.114  28.278  29.474  1.00  0.00     0.049 A 
ATOM     45  N   UNL A   1      40.881  29.821  31.950  1.00  0.00    -0.248 NA
ATOM     46  C   UNL A   1      38.907  31.046  31.746  1.00  0.00     0.031 C 
ATOM     47  C   UNL A   1      39.811  27.531  28.251  1.00  0.00     0.029 A 
ATOM     48  N   UNL A   1      41.301  27.741  29.902  1.00  0.00    -0.354 N 
ATOM     49  C   UNL A   1      40.813  30.764  32.970  1.00  0.00     0.074 A 
ATOM     50  C   UNL A   1      39.614  31.539  32.751  1.00  0.00     0.031 C 
ATOM     51  C   UNL A   1      40.771  26.614  28.045  1.00  0.00     0.029 A 
ATOM     52  C   UNL A   1      41.777  26.734  29.096  1.00  0.00     0.049 A 
ATOM     53  H   UNL A   1      41.770  28.049  30.711  1.00  0.00     0.167 HD
ATOM     54  C   UNL A   1      41.654  30.945  34.015  1.00  0.00     0.037 A 
ATOM     55  C   UNL A   1      42.900  25.993  29.193  1.00  0.00     0.037 A 
ATOM     56  C   UNL A   1      42.834  30.153  34.242  1.00  0.00     0.049 A 
ATOM     57  C   UNL A   1      43.830  26.228  30.354  1.00  0.00     0.074 A 
ATOM     58  C   UNL A   1      43.736  30.231  35.288  1.00  0.00     0.029 A 
ATOM     59  N   UNL A   1      43.275  29.134  33.408  1.00  0.00    -0.354 N 
ATOM     60  N   UNL A   1      43.723  27.091  31.337  1.00  0.00    -0.248 NA
ATOM     61  C   UNL A   1      45.030  25.383  30.426  1.00  0.00     0.031 C 
ATOM     62  C   UNL A   1      44.748  29.293  35.063  1.00  0.00     0.029 A 
ATOM     63  C   UNL A   1      44.443  28.587  33.910  1.00  0.00     0.049 A 
ATOM     64  H   UNL A   1      42.824  28.844  32.583  1.00  0.00     0.167 HD
ATOM     65  C   UNL A   1      44.818  26.862  32.165  1.00  0.00     0.074 A 
ATOM     66  C   UNL A   1      45.569  25.776  31.571  1.00  0.00     0.031 C 
ATOM     67  C   UNL A   1      45.167  27.490  33.316  1.00  0.00     0.037 A 
BRANCH  54  68
ATOM     68  C   UNL A   1      41.322  32.034  35.000  1.00  0.00     0.058 A 
ATOM     69  C   UNL A   1      41.894  33.314  34.904  1.00  0.00     0.135 A 
ATOM     70  C   UNL A   1      40.395  31.811  36.030  1.00  0.00     0.135 A 
ATOM     71  F   UNL A   1      42.800  33.580  33.950  1.00  0.00    -0.206 F 
ATOM     72  C   UNL A   1      41.580  34.323  35.808  1.00  0.00     0.059 A 
ATOM     73  C   UNL A   1      40.040  32.816  36.927  1.00  0.00     0.059 A 
ATOM     74  F   UNL A   1      39.818  30.607  36.172  1.00  0.00    -0.206 F 
ATOM     75  C   UNL A   1      40.648  34.065  36.815  1.00  0.00     0.060 A 
BRANCH  75  76
ATOM     76  S   UNL A   1      40.240  35.392  37.967  1.00  0.00     0.124 S 
ATOM     77  O   UNL A   1      41.459  35.469  38.767  1.00  0.00    -0.237 OA
ATOM     78  O   UNL A   1      39.998  36.518  37.072  1.00  0.00    -0.237 OA
ATOM     79  O   UNL A   1      39.062  34.886  38.667  1.00  0.00    -0.744 OA
ENDBRANCH  75  76
ENDBRANCH  54  68
BRANCH  55  80
ATOM     80  C   UNL A   1      43.197  24.944  28.180  1.00  0.00     0.058 A 
ATOM     81  C   UNL A   1      42.869  23.599  28.415  1.00  0.00     0.135 A 
ATOM     82  C   UNL A   1      43.823  25.259  26.964  1.00  0.00     0.135 A 
ATOM     83  F   UNL A   1      42.273  23.246  29.564  1.00  0.00    -0.206 F 
ATOM     84  C   UNL A   1      43.178  22.601  27.497  1.00  0.00     0.059 A 
ATOM     85  C   UNL A   1      44.115  24.282  26.016  1.00  0.00     0.059 A 
ATOM     86  F   UNL A   1      44.140  26.531  26.679  1.00  0.00    -0.206 F 
ATOM     87  C   UNL A   1      43.802  22.953  26.299  1.00  0.00     0.060 A 
BRANCH  87  88
ATOM     88  S   UNL A   1      44.177  21.653  25.103  1.00  0.00     0.124 S 
ATOM     89  O   UNL A   1      43.119  20.687  25.377  1.00  0.00    -0.237 OA
ATOM     90  O   UNL A   1      44.078  22.368  23.835  1.00  0.00    -0.237 OA
ATOM     91  O   UNL A   1      45.525  21.234  25.475  1.00  0.00    -0.744 OA
ENDBRANCH  87  88
ENDBRANCH  55  80
BRANCH  67  92
ATOM     92  C   UNL A   1      46.381  26.981  34.046  1.00  0.00     0.058 A 
ATOM     93  C   UNL A   1      47.666  27.490  33.802  1.00  0.00     0.135 A 
ATOM     94  C   UNL A   1      46.242  26.003  35.045  1.00  0.00     0.135 A 
ATOM     95  F   UNL A   1      47.855  28.422  32.855  1.00  0.00    -0.206 F 
ATOM     96  C   UNL A   1      48.775  27.025  34.501  1.00  0.00     0.059 A 
ATOM     97  C   UNL A   1      47.332  25.548  35.779  1.00  0.00     0.059 A 
ATOM     98  F   UNL A   1      45.034  25.490  35.328  1.00  0.00    -0.206 F 
ATOM     99  C   UNL A   1      48.597  26.056  35.490  1.00  0.00     0.060 A 
BRANCH  99 100
ATOM    100  S   UNL A   1      50.041  25.485  36.410  1.00  0.00     0.124 S 
ATOM    101  O   UNL A   1      51.124  25.804  35.486  1.00  0.00    -0.237 OA
ATOM    102  O   UNL A   1      49.981  26.297  37.621  1.00  0.00    -0.237 OA
ATOM    103  O   UNL A   1      49.781  24.061  36.604  1.00  0.00    -0.744 OA
ENDBRANCH  99 100
ENDBRANCH  67  92
ENDBRANCH  41  42
ENDBRANCH  33  36
ENDBRANCH  31  32
ENDBRANCH  30  31
ENDBRANCH  29  30
ENDBRANCH   1  29
TORSDOF 22
ENDMDL
MODEL 2
REMARK VINA RESULT:     -10.6      2.308      3.740
REMARK SMILES C[C@@](COc1ccccc1)(NC(=O)CN1CSCC1=O)C(=O)NCCCCCCNC(=O)c1ccc(-c2c3nc(c(-c4c(F)cc(S(=O)(=O)[O-])cc4F)c4ccc([nH]4)c(-c4c(F)cc(S(=O)(=O)[O-])cc4F)c4nc(c(-c5c(F)cc(S(=O)(=O)[O-])cc5F)c5ccc2[nH]5)C=C4)C=C3)cc1
REMARK SMILES IDX 26 1 25 2 24 3 23 4 21 5 22 6 2 8 1 9 3 10 4 11 5 12 6 13
REMARK SMILES IDX 10 14 7 15 9 16 8 17 11 18 12 19 13 21 14 22 15 23 16 24
REMARK SMILES IDX 19 25 17 26 18 27 20 28 27 29 28 30 29 31 30 32 31 33 32 35
REMARK SMILES IDX 33 36 34 37 98 38 35 39 97 40 36 41 37 42 38 43 91 44 39 45
REMARK SMILES IDX 96 46 90 47 92 48 40 49 95 50 89 51 88 52 41 54 75 55 54 56
REMARK SMILES IDX 74 57 55 58 58 59 73 60 93 61 56 62 57 63 72 65 94 66 59 67
REMARK SMILES IDX 42 68 43 69 52 70 44 71 45 72 51 73 53 74 46 75 47 76 48 77
REMARK SMILES IDX 49 78 50 79 76 80 77 81 86 82 78 83 79 84 85 85 87 86 80 87
REMARK SMILES IDX 81 88 82 89 83 90 84 91 60 92 61 93 70 94 62 95 63 96 69 97
REMARK SMILES IDX 71 98 64 99 65 100 66 101 67 102 68 103
REMARK H PARENT 23 7 11 20 30 34 92 53 58 64
REMARK Flexibility Score: inf
ROOT
ATOM      1  C   UNL A   1      30.902  26.387  26.428  1.00  0.00     0.002 C 
ENDROOT
BRANCH   1   2
ATOM      2  C   UNL A   1      30.627  25.416  25.272  1.00  0.00     0.021 C 
BRANCH   2   3
ATOM      3  C   UNL A   1      31.192  24.004  25.458  1.00  0.00     0.116 C 
BRANCH   3   4
ATOM      4  N   UNL A   1      31.557  23.348  24.210  1.00  0.00    -0.354 N 
ATOM      5  C   UNL A   1      32.769  23.098  23.633  1.00  0.00     0.249 C 
ATOM      6  O   UNL A   1      32.766  22.312  22.680  1.00  0.00    -0.272 OA
ATOM      7  H   UNL A   1      30.788  23.025  23.686  1.00  0.00     0.163 HD
BRANCH   5   8
ATOM      8  C   UNL A   1      34.098  23.606  24.252  1.00  0.00     0.150 C 
ATOM      9  C   UNL A   1      34.070  23.681  25.784  1.00  0.00     0.049 C 
BRANCH   8  10
ATOM     10  C   UNL A   1      34.174  25.067  23.668  1.00  0.00     0.267 C 
BRANCH  10  11
ATOM     11  O   UNL A   1      33.433  25.302  22.469  1.00  0.00    -0.491 OA
BRANCH  11  12
ATOM     12  C   UNL A   1      32.730  26.468  22.324  1.00  0.00     0.119 A 
ATOM     13  C   UNL A   1      33.453  27.638  22.556  1.00  0.00     0.046 A 
ATOM     14  C   UNL A   1      31.356  26.568  22.124  1.00  0.00     0.046 A 
ATOM     15  C   UNL A   1      32.794  28.861  22.716  1.00  0.00     0.004 A 
ATOM     16  C   UNL A   1      30.684  27.767  22.367  1.00  0.00     0.004 A 
ATOM     17  C   UNL A   1      31.403  28.912  22.682  1.00  0.00     0.000 A 
ENDBRANCH  11  12
ENDBRANCH  10  11
ENDBRANCH   8  10
BRANCH   8  18
ATOM     18  N   UNL A   1      35.243  22.744  23.917  1.00  0.00    -0.338 N 
ATOM     19  C   UNL A   1      35.679  21.628  24.597  1.00  0.00     0.240 C 
ATOM     20  H   UNL A   1      35.756  22.994  23.114  1.00  0.00     0.164 HD
ATOM     21  O   UNL A   1      36.877  21.351  24.499  1.00  0.00    -0.273 OA
BRANCH  19  22
ATOM     22  C   UNL A   1      34.698  20.691  25.372  1.00  0.00     0.220 C 
BRANCH  22  23
ATOM     23  N   UNL A   1      34.085  19.520  24.748  1.00  0.00    -0.323 N 
ATOM     24  C   UNL A   1      34.876  18.352  24.439  1.00  0.00     0.190 C 
ATOM     25  C   UNL A   1      32.712  19.361  24.707  1.00  0.00     0.233 C 
ATOM     26  S   UNL A   1      33.796  17.128  23.701  1.00  0.00    -0.130 SA
ATOM     27  C   UNL A   1      32.297  18.023  24.138  1.00  0.00     0.171 C 
ATOM     28  O   UNL A   1      31.904  20.191  25.104  1.00  0.00    -0.274 OA
ENDBRANCH  22  23
ENDBRANCH  19  22
ENDBRANCH   8  18
ENDBRANCH   5   8
ENDBRANCH   3   4
ENDBRANCH   2   3
ENDBRANCH   1   2
BRANCH   1  29
ATOM     29  C   UNL A   1      31.845  27.540  26.086  1.00  0.00     0.002 C 
BRANCH  29  30
ATOM     30  C   UNL A   1      33.297  27.318  26.506  1.00  0.00     0.021 C 
BRANCH  30  31
ATOM     31  C   UNL A   1      34.235  28.456  26.133  1.00  0.00     0.116 C 
BRANCH  31  32
ATOM     32  N   UNL A   1      33.845  29.703  26.767  1.00  0.00    -0.352 N 
ATOM     33  C   UNL A   1      34.503  30.387  27.756  1.00  0.00     0.251 C 
ATOM     34  H   UNL A   1      33.005  30.106  26.448  1.00  0.00     0.163 HD
ATOM     35  O   UNL A   1      33.940  31.299  28.360  1.00  0.00    -0.269 OA
BRANCH  33  36
ATOM     36  C   UNL A   1      35.887  30.001  28.097  1.00  0.00     0.039 A 
ATOM     37  C   UNL A   1      36.893  30.149  27.140  1.00  0.00     0.014 A 
ATOM     38  C   UNL A   1      36.190  29.511  29.373  1.00  0.00     0.014 A 
ATOM     39  C   UNL A   1      38.211  29.831  27.475  1.00  0.00     0.010 A 
ATOM     40  C   UNL A   1      37.513  29.280  29.729  1.00  0.00     0.010 A 
ATOM     41  C   UNL A   1      38.535  29.412  28.777  1.00  0.00    -0.014 A 
BRANCH  41  42
ATOM     42  C   UNL A   1      39.927  29.049  29.145  1.00  0.00     0.031 A 
ATOM     43  C   UNL A   1      40.786  30.046  29.879  1.00  0.00     0.074 A 
ATOM     44  C   UNL A   1      40.427  27.849  28.793  1.00  0.00     0.049 A 
ATOM     45  N   UNL A   1      42.037  29.946  30.247  1.00  0.00    -0.248 NA
ATOM     46  C   UNL A   1      40.165  31.337  30.221  1.00  0.00     0.031 C 
ATOM     47  C   UNL A   1      39.705  26.815  28.047  1.00  0.00     0.029 A 
ATOM     48  N   UNL A   1      41.663  27.294  29.012  1.00  0.00    -0.354 N 
ATOM     49  C   UNL A   1      42.352  31.157  30.852  1.00  0.00     0.074 A 
ATOM     50  C   UNL A   1      41.185  32.003  30.741  1.00  0.00     0.031 C 
ATOM     51  C   UNL A   1      40.500  25.743  27.898  1.00  0.00     0.029 A 
ATOM     52  C   UNL A   1      41.799  26.025  28.500  1.00  0.00     0.049 A 
ATOM     53  H   UNL A   1      42.385  27.761  29.491  1.00  0.00     0.167 HD
ATOM     54  C   UNL A   1      43.496  31.522  31.477  1.00  0.00     0.037 A 
ATOM     55  C   UNL A   1      42.856  25.187  28.513  1.00  0.00     0.037 A 
ATOM     56  C   UNL A   1      44.646  30.666  31.606  1.00  0.00     0.049 A 
ATOM     57  C   UNL A   1      44.125  25.623  29.195  1.00  0.00     0.074 A 
ATOM     58  C   UNL A   1      45.844  30.924  32.248  1.00  0.00     0.029 A 
ATOM     59  N   UNL A   1      44.741  29.383  31.083  1.00  0.00    -0.354 N 
ATOM     60  N   UNL A   1      44.388  26.754  29.807  1.00  0.00    -0.248 NA
ATOM     61  C   UNL A   1      45.240  24.667  29.199  1.00  0.00     0.031 C 
ATOM     62  C   UNL A   1      46.680  29.818  32.074  1.00  0.00     0.029 A 
ATOM     63  C   UNL A   1      45.981  28.844  31.377  1.00  0.00     0.049 A 
ATOM     64  H   UNL A   1      44.031  28.925  30.579  1.00  0.00     0.167 HD
ATOM     65  C   UNL A   1      45.681  26.627  30.304  1.00  0.00     0.074 A 
ATOM     66  C   UNL A   1      46.144  25.307  29.927  1.00  0.00     0.031 C 
ATOM     67  C   UNL A   1      46.417  27.519  31.012  1.00  0.00     0.037 A 
BRANCH  54  68
ATOM     68  C   UNL A   1      43.558  32.900  32.078  1.00  0.00     0.058 A 
ATOM     69  C   UNL A   1      43.992  34.010  31.333  1.00  0.00     0.135 A 
ATOM     70  C   UNL A   1      43.144  33.125  33.400  1.00  0.00     0.135 A 
ATOM     71  F   UNL A   1      44.417  33.853  30.070  1.00  0.00    -0.206 F 
ATOM     72  C   UNL A   1      44.040  35.285  31.886  1.00  0.00     0.059 A 
ATOM     73  C   UNL A   1      43.151  34.399  33.964  1.00  0.00     0.059 A 
ATOM     74  F   UNL A   1      42.720  32.102  34.160  1.00  0.00    -0.206 F 
ATOM     75  C   UNL A   1      43.614  35.471  33.201  1.00  0.00     0.060 A 
BRANCH  75  76
ATOM     76  S   UNL A   1      43.665  37.135  33.895  1.00  0.00     0.124 S 
ATOM     77  O   UNL A   1      44.589  36.957  35.012  1.00  0.00    -0.237 OA
ATOM     78  O   UNL A   1      44.170  37.923  32.775  1.00  0.00    -0.237 OA
ATOM     79  O   UNL A   1      42.277  37.394  34.265  1.00  0.00    -0.744 OA
ENDBRANCH  75  76
ENDBRANCH  54  68
BRANCH  55  80
ATOM     80  C   UNL A   1      42.753  23.842  27.883  1.00  0.00     0.058 A 
ATOM     81  C   UNL A   1      42.923  23.677  26.499  1.00  0.00     0.135 A 
ATOM     82  C   UNL A   1      42.472  22.697  28.645  1.00  0.00     0.135 A 
ATOM     83  F   UNL A   1      43.189  24.740  25.726  1.00  0.00    -0.206 F 
ATOM     84  C   UNL A   1      42.788  22.434  25.890  1.00  0.00     0.059 A 
ATOM     85  C   UNL A   1      42.363  21.438  28.063  1.00  0.00     0.059 A 
ATOM     86  F   UNL A   1      42.320  22.795  29.975  1.00  0.00    -0.206 F 
ATOM     87  C   UNL A   1      42.507  21.320  26.682  1.00  0.00     0.060 A 
BRANCH  87  88
ATOM     88  S   UNL A   1      42.358  19.706  25.883  1.00  0.00     0.124 S 
ATOM     89  O   UNL A   1      40.951  19.696  25.500  1.00  0.00    -0.237 OA
ATOM     90  O   UNL A   1      43.319  19.816  24.791  1.00  0.00    -0.237 OA
ATOM     91  O   UNL A   1      42.729  18.772  26.943  1.00  0.00    -0.744 OA
ENDBRANCH  87  88
ENDBRANCH  55  80
BRANCH  67  92
ATOM     92  C   UNL A   1      47.778  27.080  31.484  1.00  0.00     0.058 A 
ATOM     93  C   UNL A   1      47.970  26.457  32.727  1.00  0.00     0.135 A 
ATOM     94  C   UNL A   1      48.897  27.240  30.651  1.00  0.00     0.135 A 
ATOM     95  F   UNL A   1      46.935  26.284  33.564  1.00  0.00    -0.206 F 
ATOM     96  C   UNL A   1      49.230  26.036  33.140  1.00  0.00     0.059 A 
ATOM     97  C   UNL A   1      50.161  26.796  31.030  1.00  0.00     0.059 A 
ATOM     98  F   UNL A   1      48.768  27.818  29.446  1.00  0.00    -0.206 F 
ATOM     99  C   UNL A   1      50.318  26.207  32.283  1.00  0.00     0.060 A 
BRANCH  99 100
ATOM    100  S   UNL A   1      51.941  25.628  32.820  1.00  0.00     0.124 S 
ATOM    101  O   UNL A   1      52.802  26.725  32.390  1.00  0.00    -0.237 OA
ATOM    102  O   UNL A   1      51.762  25.490  34.261  1.00  0.00    -0.237 OA
ATOM    103  O   UNL A   1      52.114  24.373  32.092  1.00  0.00    -0.744 OA
ENDBRANCH  99 100
ENDBRANCH  67  92
ENDBRANCH  41  42
ENDBRANCH  33  36
ENDBRANCH  31  32
ENDBRANCH  30  31
ENDBRANCH  29  30
ENDBRANCH   1  29
TORSDOF 22
ENDMDL
MODEL 3
REMARK VINA RESULT:     -10.5      3.748      9.448
REMARK SMILES C[C@@](COc1ccccc1)(NC(=O)CN1CSCC1=O)C(=O)NCCCCCCNC(=O)c1ccc(-c2c3nc(c(-c4c(F)cc(S(=O)(=O)[O-])cc4F)c4ccc([nH]4)c(-c4c(F)cc(S(=O)(=O)[O-])cc4F)c4nc(c(-c5c(F)cc(S(=O)(=O)[O-])cc5F)c5ccc2[nH]5)C=C4)C=C3)cc1
REMARK SMILES IDX 26 1 25 2 24 3 23 4 21 5 22 6 2 8 1 9 3 10 4 11 5 12 6 13
REMARK SMILES IDX 10 14 7 15 9 16 8 17 11 18 12 19 13 21 14 22 15 23 16 24
REMARK SMILES IDX 19 25 17 26 18 27 20 28 27 29 28 30 29 31 30 32 31 33 32 35
REMARK SMILES IDX 33 36 34 37 98 38 35 39 97 40 36 41 37 42 38 43 91 44 39 45
REMARK SMILES IDX 96 46 90 47 92 48 40 49 95 50 89 51 88 52 41 54 75 55 54 56
REMARK SMILES IDX 74 57 55 58 58 59 73 60 93 61 56 62 57 63 72 65 94 66 59 67
REMARK SMILES IDX 42 68 43 69 52 70 44 71 45 72 51 73 53 74 46 75 47 76 48 77
REMARK SMILES IDX 49 78 50 79 76 80 77 81 86 82 78 83 79 84 85 85 87 86 80 87
REMARK SMILES IDX 81 88 82 89 83 90 84 91 60 92 61 93 70 94 62 95 63 96 69 97
REMARK SMILES IDX 71 98 64 99 65 100 66 101 67 102 68 103
REMARK H PARENT 23 7 11 20 30 34 92 53 58 64
REMARK Flexibility Score: inf
ROOT
ATOM      1  C   UNL A   1      35.989  23.434  24.018  1.00  0.00     0.002 C 
ENDROOT
BRANCH   1   2
ATOM      2  C   UNL A   1      34.480  23.258  24.232  1.00  0.00     0.021 C 
BRANCH   2   3
ATOM      3  C   UNL A   1      33.754  24.481  24.800  1.00  0.00     0.116 C 
BRANCH   3   4
ATOM      4  N   UNL A   1      34.149  25.739  24.180  1.00  0.00    -0.354 N 
ATOM      5  C   UNL A   1      33.416  26.761  23.646  1.00  0.00     0.249 C 
ATOM      6  O   UNL A   1      34.032  27.804  23.407  1.00  0.00    -0.272 OA
ATOM      7  H   UNL A   1      35.123  25.879  24.139  1.00  0.00     0.163 HD
BRANCH   5   8
ATOM      8  C   UNL A   1      31.870  26.694  23.530  1.00  0.00     0.150 C 
ATOM      9  C   UNL A   1      31.375  25.613  22.561  1.00  0.00     0.049 C 
BRANCH   8  10
ATOM     10  C   UNL A   1      31.542  28.113  22.929  1.00  0.00     0.267 C 
BRANCH  10  11
ATOM     11  O   UNL A   1      30.234  28.274  22.379  1.00  0.00    -0.491 OA
BRANCH  11  12
ATOM     12  C   UNL A   1      29.639  29.507  22.394  1.00  0.00     0.119 A 
ATOM     13  C   UNL A   1      29.719  30.197  23.603  1.00  0.00     0.046 A 
ATOM     14  C   UNL A   1      28.851  30.040  21.378  1.00  0.00     0.046 A 
ATOM     15  C   UNL A   1      28.922  31.323  23.833  1.00  0.00     0.004 A 
ATOM     16  C   UNL A   1      27.990  31.110  21.629  1.00  0.00     0.004 A 
ATOM     17  C   UNL A   1      28.013  31.742  22.865  1.00  0.00     0.000 A 
ENDBRANCH  11  12
ENDBRANCH  10  11
ENDBRANCH   8  10
BRANCH   8  18
ATOM     18  N   UNL A   1      31.220  26.402  24.818  1.00  0.00    -0.338 N 
ATOM     19  C   UNL A   1      31.342  27.103  25.997  1.00  0.00     0.240 C 
ATOM     20  H   UNL A   1      30.629  25.613  24.838  1.00  0.00     0.164 HD
ATOM     21  O   UNL A   1      31.167  26.470  27.041  1.00  0.00    -0.273 OA
BRANCH  19  22
ATOM     22  C   UNL A   1      31.587  28.646  26.024  1.00  0.00     0.220 C 
BRANCH  22  23
ATOM     23  N   UNL A   1      32.736  29.239  26.707  1.00  0.00    -0.323 N 
ATOM     24  C   UNL A   1      33.974  28.507  26.835  1.00  0.00     0.190 C 
ATOM     25  C   UNL A   1      32.791  30.593  26.981  1.00  0.00     0.233 C 
ATOM     26  S   UNL A   1      35.144  29.543  27.709  1.00  0.00    -0.130 SA
ATOM     27  C   UNL A   1      34.119  31.015  27.569  1.00  0.00     0.171 C 
ATOM     28  O   UNL A   1      31.885  31.385  26.758  1.00  0.00    -0.274 OA
ENDBRANCH  22  23
ENDBRANCH  19  22
ENDBRANCH   8  18
ENDBRANCH   5   8
ENDBRANCH   3   4
ENDBRANCH   2   3
ENDBRANCH   1   2
BRANCH   1  29
ATOM     29  C   UNL A   1      36.851  23.108  25.238  1.00  0.00     0.002 C 
BRANCH  29  30
ATOM     30  C   UNL A   1      37.329  24.330  26.021  1.00  0.00     0.021 C 
BRANCH  30  31
ATOM     31  C   UNL A   1      38.605  24.099  26.817  1.00  0.00     0.116 C 
BRANCH  31  32
ATOM     32  N   UNL A   1      39.789  24.375  26.024  1.00  0.00    -0.352 N 
ATOM     33  C   UNL A   1      40.637  25.448  26.121  1.00  0.00     0.251 C 
ATOM     34  H   UNL A   1      40.011  23.709  25.333  1.00  0.00     0.163 HD
ATOM     35  O   UNL A   1      41.460  25.670  25.233  1.00  0.00    -0.269 OA
BRANCH  33  36
ATOM     36  C   UNL A   1      40.535  26.341  27.292  1.00  0.00     0.039 A 
ATOM     37  C   UNL A   1      39.725  25.968  28.366  1.00  0.00     0.014 A 
ATOM     38  C   UNL A   1      41.256  27.539  27.331  1.00  0.00     0.014 A 
ATOM     39  C   UNL A   1      39.664  26.787  29.495  1.00  0.00     0.010 A 
ATOM     40  C   UNL A   1      41.262  28.306  28.491  1.00  0.00     0.010 A 
ATOM     41  C   UNL A   1      40.446  27.952  29.575  1.00  0.00    -0.014 A 
BRANCH  41  42
ATOM     42  C   UNL A   1      40.377  28.846  30.759  1.00  0.00     0.031 A 
ATOM     43  C   UNL A   1      39.368  29.965  30.789  1.00  0.00     0.074 A 
ATOM     44  C   UNL A   1      41.235  28.676  31.784  1.00  0.00     0.049 A 
ATOM     45  N   UNL A   1      39.179  30.882  31.701  1.00  0.00    -0.248 NA
ATOM     46  C   UNL A   1      38.472  30.086  29.626  1.00  0.00     0.031 C 
ATOM     47  C   UNL A   1      42.280  27.652  31.853  1.00  0.00     0.029 A 
ATOM     48  N   UNL A   1      41.367  29.362  32.965  1.00  0.00    -0.354 N 
ATOM     49  C   UNL A   1      38.153  31.689  31.220  1.00  0.00     0.074 A 
ATOM     50  C   UNL A   1      37.808  31.197  29.906  1.00  0.00     0.031 C 
ATOM     51  C   UNL A   1      42.925  27.759  33.026  1.00  0.00     0.029 A 
ATOM     52  C   UNL A   1      42.369  28.882  33.776  1.00  0.00     0.049 A 
ATOM     53  H   UNL A   1      40.799  30.128  33.209  1.00  0.00     0.167 HD
ATOM     54  C   UNL A   1      37.530  32.724  31.831  1.00  0.00     0.037 A 
ATOM     55  C   UNL A   1      42.792  29.304  34.985  1.00  0.00     0.037 A 
ATOM     56  C   UNL A   1      37.862  33.193  33.150  1.00  0.00     0.049 A 
ATOM     57  C   UNL A   1      42.096  30.471  35.634  1.00  0.00     0.074 A 
ATOM     58  C   UNL A   1      37.271  34.212  33.876  1.00  0.00     0.029 A 
ATOM     59  N   UNL A   1      38.876  32.673  33.944  1.00  0.00    -0.354 N 
ATOM     60  N   UNL A   1      41.094  31.189  35.186  1.00  0.00    -0.248 NA
ATOM     61  C   UNL A   1      42.581  30.879  36.960  1.00  0.00     0.031 C 
ATOM     62  C   UNL A   1      37.956  34.340  35.088  1.00  0.00     0.029 A 
ATOM     63  C   UNL A   1      38.934  33.359  35.144  1.00  0.00     0.049 A 
ATOM     64  H   UNL A   1      39.465  31.927  33.691  1.00  0.00     0.167 HD
ATOM     65  C   UNL A   1      40.802  32.105  36.192  1.00  0.00     0.074 A 
ATOM     66  C   UNL A   1      41.729  31.845  37.274  1.00  0.00     0.031 C 
ATOM     67  C   UNL A   1      39.851  33.072  36.220  1.00  0.00     0.037 A 
BRANCH  54  68
ATOM     68  C   UNL A   1      36.418  33.411  31.084  1.00  0.00     0.058 A 
ATOM     69  C   UNL A   1      35.073  33.257  31.461  1.00  0.00     0.135 A 
ATOM     70  C   UNL A   1      36.699  34.261  30.004  1.00  0.00     0.135 A 
ATOM     71  F   UNL A   1      34.743  32.442  32.474  1.00  0.00    -0.206 F 
ATOM     72  C   UNL A   1      34.047  33.900  30.776  1.00  0.00     0.059 A 
ATOM     73  C   UNL A   1      35.691  34.941  29.325  1.00  0.00     0.059 A 
ATOM     74  F   UNL A   1      37.967  34.445  29.599  1.00  0.00    -0.206 F 
ATOM     75  C   UNL A   1      34.366  34.743  29.711  1.00  0.00     0.060 A 
BRANCH  75  76
ATOM     76  S   UNL A   1      33.023  35.582  28.847  1.00  0.00     0.124 S 
ATOM     77  O   UNL A   1      32.393  34.472  28.138  1.00  0.00    -0.237 OA
ATOM     78  O   UNL A   1      32.251  36.149  29.948  1.00  0.00    -0.237 OA
ATOM     79  O   UNL A   1      33.714  36.553  28.003  1.00  0.00    -0.744 OA
ENDBRANCH  75  76
ENDBRANCH  54  68
BRANCH  55  80
ATOM     80  C   UNL A   1      43.912  28.606  35.673  1.00  0.00     0.058 A 
ATOM     81  C   UNL A   1      45.244  29.000  35.467  1.00  0.00     0.135 A 
ATOM     82  C   UNL A   1      43.679  27.525  36.538  1.00  0.00     0.135 A 
ATOM     83  F   UNL A   1      45.521  30.024  34.646  1.00  0.00    -0.206 F 
ATOM     84  C   UNL A   1      46.305  28.330  36.069  1.00  0.00     0.059 A 
ATOM     85  C   UNL A   1      44.721  26.859  37.175  1.00  0.00     0.059 A 
ATOM     86  F   UNL A   1      42.424  27.119  36.784  1.00  0.00    -0.206 F 
ATOM     87  C   UNL A   1      46.032  27.260  36.922  1.00  0.00     0.060 A 
BRANCH  87  88
ATOM     88  S   UNL A   1      47.415  26.413  37.717  1.00  0.00     0.124 S 
ATOM     89  O   UNL A   1      47.056  25.013  37.520  1.00  0.00    -0.237 OA
ATOM     90  O   UNL A   1      48.554  26.896  36.944  1.00  0.00    -0.237 OA
ATOM     91  O   UNL A   1      47.354  26.892  39.095  1.00  0.00    -0.744 OA
ENDBRANCH  87  88
ENDBRANCH  55  80
BRANCH  67  92
ATOM     92  C   UNL A   1      39.717  33.880  37.483  1.00  0.00     0.058 A 
ATOM     93  C   UNL A   1      38.855  33.499  38.523  1.00  0.00     0.135 A 
ATOM     94  C   UNL A   1      40.506  35.026  37.673  1.00  0.00     0.135 A 
ATOM     95  F   UNL A   1      38.075  32.415  38.393  1.00  0.00    -0.206 F 
ATOM     96  C   UNL A   1      38.759  34.244  39.695  1.00  0.00     0.059 A 
ATOM     97  C   UNL A   1      40.451  35.767  38.849  1.00  0.00     0.059 A 
ATOM     98  F   UNL A   1      41.357  35.429  36.715  1.00  0.00    -0.206 F 
ATOM     99  C   UNL A   1      39.563  35.374  39.849  1.00  0.00     0.060 A 
BRANCH  99 100
ATOM    100  S   UNL A   1      39.449  36.313  41.386  1.00  0.00     0.124 S 
ATOM    101  O   UNL A   1      38.970  37.605  40.907  1.00  0.00    -0.237 OA
ATOM    102  O   UNL A   1      38.492  35.530  42.160  1.00  0.00    -0.237 OA
ATOM    103  O   UNL A   1      40.818  36.301  41.895  1.00  0.00    -0.744 OA
ENDBRANCH  99 100
ENDBRANCH  67  92
ENDBRANCH  41  42
ENDBRANCH  33  36
ENDBRANCH  31  32
ENDBRANCH  30  31
ENDBRANCH  29  30
ENDBRANCH   1  29
TORSDOF 22
ENDMDL
