MODEL 1
REMARK VINA RESULT:     -11.3      0.000      0.000
REMARK SMILES CCSc1nc(CC(=O)N[C@@H](C(=O)NCCCCCCNC(=O)c2ccc(-c3c4nc(c(-c5c(F)cc(S(=O)(=O)[O-])cc5F)c5ccc([nH]5)c(-c5c(F)cc(S(=O)(=O)[O-])cc5F)c5nc(c(-c6c(F)cc(S(=O)(=O)[O-])cc6F)c6ccc3[nH]6)C=C5)C=C4)cc2)C2=C(C)N=N[C@@H]2C)cs1
REMARK SMILES IDX 16 1 15 2 14 3 12 4 13 5 11 7 10 8 8 9 9 10 7 12 6 13 4 14
REMARK SMILES IDX 5 15 98 16 97 17 3 18 2 19 1 20 90 21 91 22 95 23 92 24
REMARK SMILES IDX 93 25 94 26 96 27 17 28 18 29 19 30 20 31 21 32 22 33 23 35
REMARK SMILES IDX 24 36 25 37 89 38 26 39 88 40 27 41 28 42 29 43 82 44 30 45
REMARK SMILES IDX 87 46 81 47 83 48 31 49 86 50 80 51 79 52 32 54 66 55 45 56
REMARK SMILES IDX 65 57 46 58 49 59 64 60 84 61 47 62 48 63 63 65 85 66 50 67
REMARK SMILES IDX 33 68 34 69 43 70 35 71 36 72 42 73 44 74 37 75 38 76 39 77
REMARK SMILES IDX 40 78 41 79 67 80 68 81 77 82 69 83 70 84 76 85 78 86 71 87
REMARK SMILES IDX 72 88 73 89 74 90 75 91 51 92 52 93 61 94 53 95 54 96 60 97
REMARK SMILES IDX 62 98 55 99 56 100 57 101 58 102 59 103
REMARK H PARENT 14 6 10 11 21 34 83 53 49 64
REMARK Flexibility Score: inf
ROOT
ATOM      1  C   UNL A   1      37.602  21.722  24.842  1.00  0.00     0.021 C 
ENDROOT
BRANCH   1   2
ATOM      2  C   UNL A   1      36.091  21.819  24.974  1.00  0.00     0.116 C 
BRANCH   2   3
ATOM      3  N   UNL A   1      35.613  21.857  26.335  1.00  0.00    -0.354 N 
ATOM      4  C   UNL A   1      34.323  21.807  26.784  1.00  0.00     0.247 C 
ATOM      5  O   UNL A   1      34.172  21.241  27.875  1.00  0.00    -0.272 OA
ATOM      6  H   UNL A   1      36.306  21.928  27.030  1.00  0.00     0.163 HD
BRANCH   4   7
ATOM      7  C   UNL A   1      33.085  22.371  25.970  1.00  0.00     0.202 C 
BRANCH   7   8
ATOM      8  N   UNL A   1      31.839  22.454  26.730  1.00  0.00    -0.340 N 
ATOM      9  C   UNL A   1      30.738  23.244  26.552  1.00  0.00     0.226 C 
ATOM     10  O   UNL A   1      29.894  23.236  27.455  1.00  0.00    -0.275 OA
ATOM     11  H   UNL A   1      31.783  21.837  27.497  1.00  0.00     0.164 HD
BRANCH   9  12
ATOM     12  C   UNL A   1      30.524  24.094  25.308  1.00  0.00     0.157 C 
BRANCH  12  13
ATOM     13  C   UNL A   1      31.269  25.387  25.292  1.00  0.00     0.062 A 
ATOM     14  C   UNL A   1      31.921  27.278  26.258  1.00  0.00     0.150 A 
ATOM     15  N   UNL A   1      31.193  26.198  26.416  1.00  0.00    -0.234 NA
ATOM     16  S   UNL A   1      32.769  27.383  24.776  1.00  0.00    -0.116 S 
ATOM     17  C   UNL A   1      32.082  25.884  24.290  1.00  0.00     0.092 A 
BRANCH  14  18
ATOM     18  S   UNL A   1      31.936  28.548  27.457  1.00  0.00    -0.096 SA
BRANCH  18  19
ATOM     19  C   UNL A   1      33.327  29.566  26.883  1.00  0.00     0.074 C 
ATOM     20  C   UNL A   1      34.656  29.176  27.510  1.00  0.00     0.016 C 
ENDBRANCH  18  19
ENDBRANCH  14  18
ENDBRANCH  12  13
ENDBRANCH   9  12
ENDBRANCH   7   8
BRANCH   7  21
ATOM     21  C   UNL A   1      32.787  21.541  24.741  1.00  0.00     0.011 C 
ATOM     22  C   UNL A   1      32.664  20.212  24.604  1.00  0.00     0.064 C 
ATOM     23  C   UNL A   1      32.451  22.083  23.384  1.00  0.00     0.156 C 
ATOM     24  C   UNL A   1      32.833  19.132  25.611  1.00  0.00     0.069 C 
ATOM     25  N   UNL A   1      32.312  19.836  23.332  1.00  0.00    -0.160 NA
ATOM     26  N   UNL A   1      32.171  20.848  22.598  1.00  0.00    -0.181 NA
ATOM     27  C   UNL A   1      33.575  22.833  22.683  1.00  0.00     0.040 C 
ENDBRANCH   7  21
ENDBRANCH   4   7
ENDBRANCH   2   3
ENDBRANCH   1   2
BRANCH   1  28
ATOM     28  C   UNL A   1      38.380  22.408  25.965  1.00  0.00     0.002 C 
BRANCH  28  29
ATOM     29  C   UNL A   1      39.773  21.832  26.252  1.00  0.00     0.002 C 
BRANCH  29  30
ATOM     30  C   UNL A   1      40.369  22.186  27.617  1.00  0.00     0.021 C 
BRANCH  30  31
ATOM     31  C   UNL A   1      41.515  23.190  27.586  1.00  0.00     0.116 C 
BRANCH  31  32
ATOM     32  N   UNL A   1      41.605  23.882  26.312  1.00  0.00    -0.352 N 
ATOM     33  C   UNL A   1      41.375  25.201  26.012  1.00  0.00     0.251 C 
ATOM     34  H   UNL A   1      41.873  23.320  25.549  1.00  0.00     0.163 HD
ATOM     35  O   UNL A   1      41.318  25.556  24.839  1.00  0.00    -0.269 OA
BRANCH  33  36
ATOM     36  C   UNL A   1      41.177  26.188  27.097  1.00  0.00     0.039 A 
ATOM     37  C   UNL A   1      40.150  25.975  28.021  1.00  0.00     0.014 A 
ATOM     38  C   UNL A   1      41.982  27.326  27.195  1.00  0.00     0.014 A 
ATOM     39  C   UNL A   1      39.967  26.876  29.073  1.00  0.00     0.010 A 
ATOM     40  C   UNL A   1      41.848  28.180  28.286  1.00  0.00     0.010 A 
ATOM     41  C   UNL A   1      40.834  27.969  29.233  1.00  0.00    -0.014 A 
BRANCH  41  42
ATOM     42  C   UNL A   1      40.692  28.901  30.382  1.00  0.00     0.031 A 
ATOM     43  C   UNL A   1      41.559  28.737  31.602  1.00  0.00     0.074 A 
ATOM     44  C   UNL A   1      39.741  29.856  30.350  1.00  0.00     0.049 A 
ATOM     45  N   UNL A   1      41.540  29.408  32.725  1.00  0.00    -0.248 NA
ATOM     46  C   UNL A   1      42.563  27.660  31.566  1.00  0.00     0.031 C 
ATOM     47  C   UNL A   1      38.807  30.083  29.244  1.00  0.00     0.029 A 
ATOM     48  N   UNL A   1      39.395  30.809  31.276  1.00  0.00    -0.354 N 
ATOM     49  C   UNL A   1      42.513  28.829  33.531  1.00  0.00     0.074 A 
ATOM     50  C   UNL A   1      43.068  27.718  32.789  1.00  0.00     0.031 C 
ATOM     51  C   UNL A   1      38.010  31.120  29.546  1.00  0.00     0.029 A 
ATOM     52  C   UNL A   1      38.345  31.606  30.882  1.00  0.00     0.049 A 
ATOM     53  H   UNL A   1      39.855  30.912  32.140  1.00  0.00     0.167 HD
ATOM     54  C   UNL A   1      42.922  29.203  34.766  1.00  0.00     0.037 A 
ATOM     55  C   UNL A   1      37.716  32.608  31.526  1.00  0.00     0.037 A 
ATOM     56  C   UNL A   1      42.381  30.327  35.486  1.00  0.00     0.049 A 
ATOM     57  C   UNL A   1      38.188  33.005  32.899  1.00  0.00     0.074 A 
ATOM     58  C   UNL A   1      42.771  30.827  36.717  1.00  0.00     0.029 A 
ATOM     59  N   UNL A   1      41.334  31.124  35.046  1.00  0.00    -0.354 N 
ATOM     60  N   UNL A   1      39.158  32.489  33.619  1.00  0.00    -0.248 NA
ATOM     61  C   UNL A   1      37.489  34.123  33.547  1.00  0.00     0.031 C 
ATOM     62  C   UNL A   1      41.926  31.892  37.044  1.00  0.00     0.029 A 
ATOM     63  C   UNL A   1      41.048  32.095  35.990  1.00  0.00     0.049 A 
ATOM     64  H   UNL A   1      40.864  31.015  34.187  1.00  0.00     0.167 HD
ATOM     65  C   UNL A   1      39.203  33.239  34.789  1.00  0.00     0.074 A 
ATOM     66  C   UNL A   1      38.173  34.251  34.676  1.00  0.00     0.031 C 
ATOM     67  C   UNL A   1      40.023  33.102  35.861  1.00  0.00     0.037 A 
BRANCH  54  68
ATOM     68  C   UNL A   1      44.009  28.395  35.422  1.00  0.00     0.058 A 
ATOM     69  C   UNL A   1      43.719  27.306  36.260  1.00  0.00     0.135 A 
ATOM     70  C   UNL A   1      45.362  28.681  35.170  1.00  0.00     0.135 A 
ATOM     71  F   UNL A   1      42.445  26.996  36.547  1.00  0.00    -0.206 F 
ATOM     72  C   UNL A   1      44.727  26.546  36.843  1.00  0.00     0.059 A 
ATOM     73  C   UNL A   1      46.386  27.916  35.718  1.00  0.00     0.059 A 
ATOM     74  F   UNL A   1      45.698  29.710  34.377  1.00  0.00    -0.206 F 
ATOM     75  C   UNL A   1      46.059  26.857  36.564  1.00  0.00     0.060 A 
BRANCH  75  76
ATOM     76  S   UNL A   1      47.354  25.850  37.316  1.00  0.00     0.124 S 
ATOM     77  O   UNL A   1      46.650  24.591  37.541  1.00  0.00    -0.237 OA
ATOM     78  O   UNL A   1      48.375  25.827  36.274  1.00  0.00    -0.237 OA
ATOM     79  O   UNL A   1      47.708  26.593  38.521  1.00  0.00    -0.744 OA
ENDBRANCH  75  76
ENDBRANCH  54  68
BRANCH  55  80
ATOM     80  C   UNL A   1      36.579  33.315  30.876  1.00  0.00     0.058 A 
ATOM     81  C   UNL A   1      36.785  34.166  29.781  1.00  0.00     0.135 A 
ATOM     82  C   UNL A   1      35.262  33.147  31.333  1.00  0.00     0.135 A 
ATOM     83  F   UNL A   1      38.026  34.364  29.310  1.00  0.00    -0.206 F 
ATOM     84  C   UNL A   1      35.733  34.845  29.175  1.00  0.00     0.059 A 
ATOM     85  C   UNL A   1      34.189  33.792  30.727  1.00  0.00     0.059 A 
ATOM     86  F   UNL A   1      35.007  32.329  32.366  1.00  0.00    -0.206 F 
ATOM     87  C   UNL A   1      34.436  34.649  29.655  1.00  0.00     0.060 A 
BRANCH  87  88
ATOM     88  S   UNL A   1      33.072  35.503  28.837  1.00  0.00     0.124 S 
ATOM     89  O   UNL A   1      33.779  36.524  28.073  1.00  0.00    -0.237 OA
ATOM     90  O   UNL A   1      32.460  34.430  28.060  1.00  0.00    -0.237 OA
ATOM     91  O   UNL A   1      32.268  35.994  29.953  1.00  0.00    -0.744 OA
ENDBRANCH  87  88
ENDBRANCH  55  80
BRANCH  67  92
ATOM     92  C   UNL A   1      39.870  34.091  36.983  1.00  0.00     0.058 A 
ATOM     93  C   UNL A   1      40.449  35.369  36.928  1.00  0.00     0.135 A 
ATOM     94  C   UNL A   1      39.087  33.775  38.106  1.00  0.00     0.135 A 
ATOM     95  F   UNL A   1      41.212  35.721  35.881  1.00  0.00    -0.206 F 
ATOM     96  C   UNL A   1      40.279  36.289  37.958  1.00  0.00     0.059 A 
ATOM     97  C   UNL A   1      38.878  34.690  39.133  1.00  0.00     0.059 A 
ATOM     98  F   UNL A   1      38.503  32.571  38.204  1.00  0.00    -0.206 F 
ATOM     99  C   UNL A   1      39.487  35.941  39.055  1.00  0.00     0.060 A 
BRANCH  99 100
ATOM    100  S   UNL A   1      39.245  37.156  40.367  1.00  0.00     0.124 S 
ATOM    101  O   UNL A   1      40.621  37.436  40.766  1.00  0.00    -0.237 OA
ATOM    102  O   UNL A   1      38.555  38.237  39.668  1.00  0.00    -0.237 OA
ATOM    103  O   UNL A   1      38.439  36.440  41.350  1.00  0.00    -0.744 OA
ENDBRANCH  99 100
ENDBRANCH  67  92
ENDBRANCH  41  42
ENDBRANCH  33  36
ENDBRANCH  31  32
ENDBRANCH  30  31
ENDBRANCH  29  30
ENDBRANCH  28  29
ENDBRANCH   1  28
TORSDOF 22
ENDMDL
MODEL 2
REMARK VINA RESULT:     -10.9      1.872      3.940
REMARK SMILES CCSc1nc(CC(=O)N[C@@H](C(=O)NCCCCCCNC(=O)c2ccc(-c3c4nc(c(-c5c(F)cc(S(=O)(=O)[O-])cc5F)c5ccc([nH]5)c(-c5c(F)cc(S(=O)(=O)[O-])cc5F)c5nc(c(-c6c(F)cc(S(=O)(=O)[O-])cc6F)c6ccc3[nH]6)C=C5)C=C4)cc2)C2=C(C)N=N[C@@H]2C)cs1
REMARK SMILES IDX 16 1 15 2 14 3 12 4 13 5 11 7 10 8 8 9 9 10 7 12 6 13 4 14
REMARK SMILES IDX 5 15 98 16 97 17 3 18 2 19 1 20 90 21 91 22 95 23 92 24
REMARK SMILES IDX 93 25 94 26 96 27 17 28 18 29 19 30 20 31 21 32 22 33 23 35
REMARK SMILES IDX 24 36 25 37 89 38 26 39 88 40 27 41 28 42 29 43 82 44 30 45
REMARK SMILES IDX 87 46 81 47 83 48 31 49 86 50 80 51 79 52 32 54 66 55 45 56
REMARK SMILES IDX 65 57 46 58 49 59 64 60 84 61 47 62 48 63 63 65 85 66 50 67
REMARK SMILES IDX 33 68 34 69 43 70 35 71 36 72 42 73 44 74 37 75 38 76 39 77
REMARK SMILES IDX 40 78 41 79 67 80 68 81 77 82 69 83 70 84 76 85 78 86 71 87
REMARK SMILES IDX 72 88 73 89 74 90 75 91 51 92 52 93 61 94 53 95 54 96 60 97
REMARK SMILES IDX 62 98 55 99 56 100 57 101 58 102 59 103
REMARK H PARENT 14 6 10 11 21 34 83 53 49 64
REMARK Flexibility Score: inf
ROOT
ATOM      1  C   UNL A   1      34.886  23.130  26.707  1.00  0.00     0.021 C 
ENDROOT
BRANCH   1   2
ATOM      2  C   UNL A   1      34.008  24.139  25.986  1.00  0.00     0.116 C 
BRANCH   2   3
ATOM      3  N   UNL A   1      32.636  24.164  26.435  1.00  0.00    -0.354 N 
ATOM      4  C   UNL A   1      31.496  24.093  25.684  1.00  0.00     0.247 C 
ATOM      5  O   UNL A   1      30.546  23.520  26.233  1.00  0.00    -0.272 OA
ATOM      6  H   UNL A   1      32.505  24.241  27.406  1.00  0.00     0.163 HD
BRANCH   4   7
ATOM      7  C   UNL A   1      31.381  24.643  24.201  1.00  0.00     0.202 C 
BRANCH   7   8
ATOM      8  N   UNL A   1      32.499  24.287  23.329  1.00  0.00    -0.340 N 
ATOM      9  C   UNL A   1      32.819  23.100  22.732  1.00  0.00     0.226 C 
ATOM     10  O   UNL A   1      33.927  23.031  22.188  1.00  0.00    -0.275 OA
ATOM     11  H   UNL A   1      33.124  25.025  23.140  1.00  0.00     0.164 HD
BRANCH   9  12
ATOM     12  C   UNL A   1      31.875  21.907  22.708  1.00  0.00     0.157 C 
BRANCH  12  13
ATOM     13  C   UNL A   1      32.271  20.771  23.592  1.00  0.00     0.062 A 
ATOM     14  C   UNL A   1      32.985  18.691  23.897  1.00  0.00     0.150 A 
ATOM     15  N   UNL A   1      32.639  19.575  22.992  1.00  0.00    -0.234 NA
ATOM     16  S   UNL A   1      32.929  19.236  25.517  1.00  0.00    -0.116 S 
ATOM     17  C   UNL A   1      32.361  20.763  24.972  1.00  0.00     0.092 A 
BRANCH  14  18
ATOM     18  S   UNL A   1      33.388  17.049  23.458  1.00  0.00    -0.096 SA
BRANCH  18  19
ATOM     19  C   UNL A   1      33.681  16.303  25.088  1.00  0.00     0.074 C 
ATOM     20  C   UNL A   1      32.671  15.225  25.447  1.00  0.00     0.016 C 
ENDBRANCH  18  19
ENDBRANCH  14  18
ENDBRANCH  12  13
ENDBRANCH   9  12
ENDBRANCH   7   8
BRANCH   7  21
ATOM     21  C   UNL A   1      31.265  26.151  24.162  1.00  0.00     0.011 C 
ATOM     22  C   UNL A   1      30.182  26.931  24.031  1.00  0.00     0.064 C 
ATOM     23  C   UNL A   1      32.390  27.118  24.378  1.00  0.00     0.156 C 
ATOM     24  C   UNL A   1      28.757  26.557  23.831  1.00  0.00     0.069 C 
ATOM     25  N   UNL A   1      30.473  28.270  24.116  1.00  0.00    -0.160 NA
ATOM     26  N   UNL A   1      31.703  28.440  24.318  1.00  0.00    -0.181 NA
ATOM     27  C   UNL A   1      33.473  27.110  23.308  1.00  0.00     0.040 C 
ENDBRANCH   7  21
ENDBRANCH   4   7
ENDBRANCH   2   3
ENDBRANCH   1   2
BRANCH   1  28
ATOM     28  C   UNL A   1      35.565  22.112  25.790  1.00  0.00     0.002 C 
BRANCH  28  29
ATOM     29  C   UNL A   1      37.084  22.264  25.645  1.00  0.00     0.002 C 
BRANCH  29  30
ATOM     30  C   UNL A   1      37.591  23.693  25.433  1.00  0.00     0.021 C 
BRANCH  30  31
ATOM     31  C   UNL A   1      38.495  24.234  26.534  1.00  0.00     0.116 C 
BRANCH  31  32
ATOM     32  N   UNL A   1      39.903  24.109  26.201  1.00  0.00    -0.352 N 
ATOM     33  C   UNL A   1      40.967  24.890  26.577  1.00  0.00     0.251 C 
ATOM     34  H   UNL A   1      40.129  23.347  25.618  1.00  0.00     0.163 HD
ATOM     35  O   UNL A   1      42.057  24.733  26.035  1.00  0.00    -0.269 OA
BRANCH  33  36
ATOM     36  C   UNL A   1      40.796  25.929  27.616  1.00  0.00     0.039 A 
ATOM     37  C   UNL A   1      39.796  25.763  28.578  1.00  0.00     0.014 A 
ATOM     38  C   UNL A   1      41.601  27.072  27.634  1.00  0.00     0.014 A 
ATOM     39  C   UNL A   1      39.640  26.715  29.587  1.00  0.00     0.010 A 
ATOM     40  C   UNL A   1      41.495  27.980  28.684  1.00  0.00     0.010 A 
ATOM     41  C   UNL A   1      40.508  27.816  29.668  1.00  0.00    -0.014 A 
BRANCH  41  42
ATOM     42  C   UNL A   1      40.395  28.804  30.773  1.00  0.00     0.031 A 
ATOM     43  C   UNL A   1      41.253  28.667  32.002  1.00  0.00     0.074 A 
ATOM     44  C   UNL A   1      39.478  29.789  30.693  1.00  0.00     0.049 A 
ATOM     45  N   UNL A   1      41.255  29.390  33.093  1.00  0.00    -0.248 NA
ATOM     46  C   UNL A   1      42.219  27.555  32.020  1.00  0.00     0.031 C 
ATOM     47  C   UNL A   1      38.556  29.997  29.574  1.00  0.00     0.029 A 
ATOM     48  N   UNL A   1      39.163  30.795  31.572  1.00  0.00    -0.354 N 
ATOM     49  C   UNL A   1      42.205  28.815  33.929  1.00  0.00     0.074 A 
ATOM     50  C   UNL A   1      42.724  27.653  33.241  1.00  0.00     0.031 C 
ATOM     51  C   UNL A   1      37.794  31.074  29.825  1.00  0.00     0.029 A 
ATOM     52  C   UNL A   1      38.142  31.608  31.138  1.00  0.00     0.049 A 
ATOM     53  H   UNL A   1      39.624  30.922  32.432  1.00  0.00     0.167 HD
ATOM     54  C   UNL A   1      42.624  29.232  35.147  1.00  0.00     0.037 A 
ATOM     55  C   UNL A   1      37.547  32.661  31.732  1.00  0.00     0.037 A 
ATOM     56  C   UNL A   1      42.121  30.406  35.812  1.00  0.00     0.049 A 
ATOM     57  C   UNL A   1      38.029  33.104  33.088  1.00  0.00     0.074 A 
ATOM     58  C   UNL A   1      42.525  30.949  37.020  1.00  0.00     0.029 A 
ATOM     59  N   UNL A   1      41.103  31.217  35.331  1.00  0.00    -0.354 N 
ATOM     60  N   UNL A   1      38.979  32.589  33.834  1.00  0.00    -0.248 NA
ATOM     61  C   UNL A   1      37.368  34.274  33.681  1.00  0.00     0.031 C 
ATOM     62  C   UNL A   1      41.717  32.056  37.294  1.00  0.00     0.029 A 
ATOM     63  C   UNL A   1      40.848  32.240  36.229  1.00  0.00     0.049 A 
ATOM     64  H   UNL A   1      40.632  31.085  34.477  1.00  0.00     0.167 HD
ATOM     65  C   UNL A   1      39.047  33.390  34.969  1.00  0.00     0.074 A 
ATOM     66  C   UNL A   1      38.053  34.430  34.805  1.00  0.00     0.031 C 
ATOM     67  C   UNL A   1      39.859  33.275  36.049  1.00  0.00     0.037 A 
BRANCH  54  68
ATOM     68  C   UNL A   1      43.682  28.418  35.843  1.00  0.00     0.058 A 
ATOM     69  C   UNL A   1      45.050  28.678  35.667  1.00  0.00     0.135 A 
ATOM     70  C   UNL A   1      43.321  27.397  36.739  1.00  0.00     0.135 A 
ATOM     71  F   UNL A   1      45.453  29.632  34.813  1.00  0.00    -0.206 F 
ATOM     72  C   UNL A   1      46.023  27.939  36.333  1.00  0.00     0.059 A 
ATOM     73  C   UNL A   1      44.276  26.666  37.438  1.00  0.00     0.059 A 
ATOM     74  F   UNL A   1      42.027  27.105  36.945  1.00  0.00    -0.206 F 
ATOM     75  C   UNL A   1      45.626  26.937  37.219  1.00  0.00     0.060 A 
BRANCH  75  76
ATOM     76  S   UNL A   1      46.902  26.001  38.087  1.00  0.00     0.124 S 
ATOM     77  O   UNL A   1      47.733  27.073  38.628  1.00  0.00    -0.237 OA
ATOM     78  O   UNL A   1      46.125  25.247  39.066  1.00  0.00    -0.237 OA
ATOM     79  O   UNL A   1      47.518  25.203  37.032  1.00  0.00    -0.744 OA
ENDBRANCH  75  76
ENDBRANCH  54  68
BRANCH  55  80
ATOM     80  C   UNL A   1      36.436  33.375  31.046  1.00  0.00     0.058 A 
ATOM     81  C   UNL A   1      36.682  34.213  29.949  1.00  0.00     0.135 A 
ATOM     82  C   UNL A   1      35.106  33.228  31.469  1.00  0.00     0.135 A 
ATOM     83  F   UNL A   1      37.937  34.391  29.509  1.00  0.00    -0.206 F 
ATOM     84  C   UNL A   1      35.655  34.899  29.310  1.00  0.00     0.059 A 
ATOM     85  C   UNL A   1      34.057  33.880  30.829  1.00  0.00     0.059 A 
ATOM     86  F   UNL A   1      34.813  32.423  32.503  1.00  0.00    -0.206 F 
ATOM     87  C   UNL A   1      34.344  34.724  29.756  1.00  0.00     0.060 A 
BRANCH  87  88
ATOM     88  S   UNL A   1      33.012  35.588  28.895  1.00  0.00     0.124 S 
ATOM     89  O   UNL A   1      33.757  36.554  28.097  1.00  0.00    -0.237 OA
ATOM     90  O   UNL A   1      32.373  34.504  28.156  1.00  0.00    -0.237 OA
ATOM     91  O   UNL A   1      32.216  36.147  29.984  1.00  0.00    -0.744 OA
ENDBRANCH  87  88
ENDBRANCH  55  80
BRANCH  67  92
ATOM     92  C   UNL A   1      39.738  34.320  37.124  1.00  0.00     0.058 A 
ATOM     93  C   UNL A   1      38.932  34.126  38.256  1.00  0.00     0.135 A 
ATOM     94  C   UNL A   1      40.484  35.508  37.045  1.00  0.00     0.135 A 
ATOM     95  F   UNL A   1      38.195  33.011  38.379  1.00  0.00    -0.206 F 
ATOM     96  C   UNL A   1      38.849  35.085  39.261  1.00  0.00     0.059 A 
ATOM     97  C   UNL A   1      40.440  36.467  38.052  1.00  0.00     0.059 A 
ATOM     98  F   UNL A   1      41.279  35.738  35.988  1.00  0.00    -0.206 F 
ATOM     99  C   UNL A   1      39.610  36.251  39.151  1.00  0.00     0.060 A 
BRANCH  99 100
ATOM    100  S   UNL A   1      39.519  37.471  40.478  1.00  0.00     0.124 S 
ATOM    101  O   UNL A   1      40.843  38.082  40.407  1.00  0.00    -0.237 OA
ATOM    102  O   UNL A   1      38.408  38.316  40.050  1.00  0.00    -0.237 OA
ATOM    103  O   UNL A   1      39.263  36.664  41.667  1.00  0.00    -0.744 OA
ENDBRANCH  99 100
ENDBRANCH  67  92
ENDBRANCH  41  42
ENDBRANCH  33  36
ENDBRANCH  31  32
ENDBRANCH  30  31
ENDBRANCH  29  30
ENDBRANCH  28  29
ENDBRANCH   1  28
TORSDOF 22
ENDMDL
MODEL 3
REMARK VINA RESULT:     -10.8      1.116      2.117
REMARK SMILES CCSc1nc(CC(=O)N[C@@H](C(=O)NCCCCCCNC(=O)c2ccc(-c3c4nc(c(-c5c(F)cc(S(=O)(=O)[O-])cc5F)c5ccc([nH]5)c(-c5c(F)cc(S(=O)(=O)[O-])cc5F)c5nc(c(-c6c(F)cc(S(=O)(=O)[O-])cc6F)c6ccc3[nH]6)C=C5)C=C4)cc2)C2=C(C)N=N[C@@H]2C)cs1
REMARK SMILES IDX 16 1 15 2 14 3 12 4 13 5 11 7 10 8 8 9 9 10 7 12 6 13 4 14
REMARK SMILES IDX 5 15 98 16 97 17 3 18 2 19 1 20 90 21 91 22 95 23 92 24
REMARK SMILES IDX 93 25 94 26 96 27 17 28 18 29 19 30 20 31 21 32 22 33 23 35
REMARK SMILES IDX 24 36 25 37 89 38 26 39 88 40 27 41 28 42 29 43 82 44 30 45
REMARK SMILES IDX 87 46 81 47 83 48 31 49 86 50 80 51 79 52 32 54 66 55 45 56
REMARK SMILES IDX 65 57 46 58 49 59 64 60 84 61 47 62 48 63 63 65 85 66 50 67
REMARK SMILES IDX 33 68 34 69 43 70 35 71 36 72 42 73 44 74 37 75 38 76 39 77
REMARK SMILES IDX 40 78 41 79 67 80 68 81 77 82 69 83 70 84 76 85 78 86 71 87
REMARK SMILES IDX 72 88 73 89 74 90 75 91 51 92 52 93 61 94 53 95 54 96 60 97
REMARK SMILES IDX 62 98 55 99 56 100 57 101 58 102 59 103
REMARK H PARENT 14 6 10 11 21 34 83 53 49 64
REMARK Flexibility Score: inf
ROOT
ATOM      1  C   UNL A   1      38.664  23.349  26.275  1.00  0.00     0.021 C 
ENDROOT
BRANCH   1   2
ATOM      2  C   UNL A   1      37.348  23.020  25.590  1.00  0.00     0.116 C 
BRANCH   2   3
ATOM      3  N   UNL A   1      36.216  22.939  26.482  1.00  0.00    -0.354 N 
ATOM      4  C   UNL A   1      35.015  22.320  26.275  1.00  0.00     0.247 C 
ATOM      5  O   UNL A   1      34.493  21.843  27.292  1.00  0.00    -0.272 OA
ATOM      6  H   UNL A   1      36.322  23.388  27.350  1.00  0.00     0.163 HD
BRANCH   4   7
ATOM      7  C   UNL A   1      34.340  22.158  24.849  1.00  0.00     0.202 C 
BRANCH   7   8
ATOM      8  N   UNL A   1      33.101  22.911  24.669  1.00  0.00    -0.340 N 
ATOM      9  C   UNL A   1      32.884  24.257  24.568  1.00  0.00     0.226 C 
ATOM     10  O   UNL A   1      31.709  24.636  24.601  1.00  0.00    -0.275 OA
ATOM     11  H   UNL A   1      32.288  22.358  24.611  1.00  0.00     0.164 HD
BRANCH   9  12
ATOM     12  C   UNL A   1      34.012  25.265  24.405  1.00  0.00     0.157 C 
BRANCH  12  13
ATOM     13  C   UNL A   1      33.574  26.659  24.103  1.00  0.00     0.062 A 
ATOM     14  C   UNL A   1      32.671  28.597  24.705  1.00  0.00     0.150 A 
ATOM     15  N   UNL A   1      32.970  27.388  25.118  1.00  0.00    -0.234 NA
ATOM     16  S   UNL A   1      33.118  28.956  23.094  1.00  0.00    -0.116 S 
ATOM     17  C   UNL A   1      33.728  27.358  22.919  1.00  0.00     0.092 A 
BRANCH  14  18
ATOM     18  S   UNL A   1      31.795  29.715  25.723  1.00  0.00    -0.096 SA
BRANCH  18  19
ATOM     19  C   UNL A   1      32.775  29.650  27.252  1.00  0.00     0.074 C 
ATOM     20  C   UNL A   1      34.213  30.105  27.063  1.00  0.00     0.016 C 
ENDBRANCH  18  19
ENDBRANCH  14  18
ENDBRANCH  12  13
ENDBRANCH   9  12
ENDBRANCH   7   8
BRANCH   7  21
ATOM     21  C   UNL A   1      34.018  20.714  24.534  1.00  0.00     0.011 C 
ATOM     22  C   UNL A   1      34.787  19.618  24.621  1.00  0.00     0.064 C 
ATOM     23  C   UNL A   1      32.671  20.187  24.141  1.00  0.00     0.156 C 
ATOM     24  C   UNL A   1      36.216  19.485  25.006  1.00  0.00     0.069 C 
ATOM     25  N   UNL A   1      34.109  18.464  24.316  1.00  0.00    -0.160 NA
ATOM     26  N   UNL A   1      32.908  18.719  24.042  1.00  0.00    -0.181 NA
ATOM     27  C   UNL A   1      32.151  20.664  22.792  1.00  0.00     0.040 C 
ENDBRANCH   7  21
ENDBRANCH   4   7
ENDBRANCH   2   3
ENDBRANCH   1   2
BRANCH   1  28
ATOM     28  C   UNL A   1      39.580  22.144  26.497  1.00  0.00     0.002 C 
BRANCH  28  29
ATOM     29  C   UNL A   1      40.456  22.203  27.754  1.00  0.00     0.002 C 
BRANCH  29  30
ATOM     30  C   UNL A   1      41.957  21.999  27.527  1.00  0.00     0.021 C 
BRANCH  30  31
ATOM     31  C   UNL A   1      42.781  23.279  27.438  1.00  0.00     0.116 C 
BRANCH  31  32
ATOM     32  N   UNL A   1      42.484  24.041  26.238  1.00  0.00    -0.352 N 
ATOM     33  C   UNL A   1      41.933  25.291  26.107  1.00  0.00     0.251 C 
ATOM     34  H   UNL A   1      42.715  23.595  25.391  1.00  0.00     0.163 HD
ATOM     35  O   UNL A   1      41.584  25.688  24.999  1.00  0.00    -0.269 OA
BRANCH  33  36
ATOM     36  C   UNL A   1      41.741  26.149  27.297  1.00  0.00     0.039 A 
ATOM     37  C   UNL A   1      42.655  27.178  27.540  1.00  0.00     0.014 A 
ATOM     38  C   UNL A   1      40.680  25.932  28.181  1.00  0.00     0.014 A 
ATOM     39  C   UNL A   1      42.474  28.021  28.639  1.00  0.00     0.010 A 
ATOM     40  C   UNL A   1      40.458  26.819  29.231  1.00  0.00     0.010 A 
ATOM     41  C   UNL A   1      41.356  27.869  29.476  1.00  0.00    -0.014 A 
BRANCH  41  42
ATOM     42  C   UNL A   1      41.115  28.797  30.612  1.00  0.00     0.031 A 
ATOM     43  C   UNL A   1      41.925  28.673  31.875  1.00  0.00     0.074 A 
ATOM     44  C   UNL A   1      40.128  29.711  30.527  1.00  0.00     0.049 A 
ATOM     45  N   UNL A   1      41.820  29.346  32.992  1.00  0.00    -0.248 NA
ATOM     46  C   UNL A   1      42.973  27.640  31.896  1.00  0.00     0.031 C 
ATOM     47  C   UNL A   1      39.243  29.895  29.373  1.00  0.00     0.029 A 
ATOM     48  N   UNL A   1      39.694  30.651  31.429  1.00  0.00    -0.354 N 
ATOM     49  C   UNL A   1      42.774  28.811  33.850  1.00  0.00     0.074 A 
ATOM     50  C   UNL A   1      43.413  27.723  33.143  1.00  0.00     0.031 C 
ATOM     51  C   UNL A   1      38.388  30.898  29.629  1.00  0.00     0.029 A 
ATOM     52  C   UNL A   1      38.634  31.401  30.978  1.00  0.00     0.049 A 
ATOM     53  H   UNL A   1      40.105  30.776  32.314  1.00  0.00     0.167 HD
ATOM     54  C   UNL A   1      43.103  29.206  35.102  1.00  0.00     0.037 A 
ATOM     55  C   UNL A   1      37.931  32.378  31.584  1.00  0.00     0.037 A 
ATOM     56  C   UNL A   1      42.479  30.308  35.788  1.00  0.00     0.049 A 
ATOM     57  C   UNL A   1      38.315  32.798  32.977  1.00  0.00     0.074 A 
ATOM     58  C   UNL A   1      42.783  30.828  37.035  1.00  0.00     0.029 A 
ATOM     59  N   UNL A   1      41.423  31.058  35.291  1.00  0.00    -0.354 N 
ATOM     60  N   UNL A   1      39.268  32.326  33.748  1.00  0.00    -0.248 NA
ATOM     61  C   UNL A   1      37.537  33.887  33.583  1.00  0.00     0.031 C 
ATOM     62  C   UNL A   1      41.879  31.857  37.313  1.00  0.00     0.029 A 
ATOM     63  C   UNL A   1      41.048  32.019  36.215  1.00  0.00     0.049 A 
ATOM     64  H   UNL A   1      41.003  30.927  34.410  1.00  0.00     0.167 HD
ATOM     65  C   UNL A   1      39.221  33.080  34.915  1.00  0.00     0.074 A 
ATOM     66  C   UNL A   1      38.156  34.047  34.745  1.00  0.00     0.031 C 
ATOM     67  C   UNL A   1      39.990  32.981  36.028  1.00  0.00     0.037 A 
BRANCH  54  68
ATOM     68  C   UNL A   1      44.189  28.446  35.817  1.00  0.00     0.058 A 
ATOM     69  C   UNL A   1      45.545  28.780  35.669  1.00  0.00     0.135 A 
ATOM     70  C   UNL A   1      43.866  27.403  36.701  1.00  0.00     0.135 A 
ATOM     71  F   UNL A   1      45.912  29.758  34.827  1.00  0.00    -0.206 F 
ATOM     72  C   UNL A   1      46.542  28.092  36.351  1.00  0.00     0.059 A 
ATOM     73  C   UNL A   1      44.845  26.721  37.417  1.00  0.00     0.059 A 
ATOM     74  F   UNL A   1      42.586  27.041  36.881  1.00  0.00    -0.206 F 
ATOM     75  C   UNL A   1      46.183  27.065  37.225  1.00  0.00     0.060 A 
BRANCH  75  76
ATOM     76  S   UNL A   1      47.490  26.194  38.115  1.00  0.00     0.124 S 
ATOM     77  O   UNL A   1      46.997  26.254  39.488  1.00  0.00    -0.237 OA
ATOM     78  O   UNL A   1      47.466  24.876  37.491  1.00  0.00    -0.237 OA
ATOM     79  O   UNL A   1      48.679  26.993  37.841  1.00  0.00    -0.744 OA
ENDBRANCH  75  76
ENDBRANCH  54  68
BRANCH  55  80
ATOM     80  C   UNL A   1      36.799  33.034  30.873  1.00  0.00     0.058 A 
ATOM     81  C   UNL A   1      35.469  32.757  31.219  1.00  0.00     0.135 A 
ATOM     82  C   UNL A   1      37.026  33.955  29.839  1.00  0.00     0.135 A 
ATOM     83  F   UNL A   1      35.199  31.879  32.198  1.00  0.00    -0.206 F 
ATOM     84  C   UNL A   1      34.402  33.350  30.552  1.00  0.00     0.059 A 
ATOM     85  C   UNL A   1      35.978  34.584  29.176  1.00  0.00     0.059 A 
ATOM     86  F   UNL A   1      38.281  34.269  29.481  1.00  0.00    -0.206 F 
ATOM     87  C   UNL A   1      34.667  34.265  29.531  1.00  0.00     0.060 A 
BRANCH  87  88
ATOM     88  S   UNL A   1      33.277  35.061  28.698  1.00  0.00     0.124 S 
ATOM     89  O   UNL A   1      32.797  33.987  27.837  1.00  0.00    -0.237 OA
ATOM     90  O   UNL A   1      32.414  35.420  29.817  1.00  0.00    -0.237 OA
ATOM     91  O   UNL A   1      33.900  36.190  28.011  1.00  0.00    -0.744 OA
ENDBRANCH  87  88
ENDBRANCH  55  80
BRANCH  67  92
ATOM     92  C   UNL A   1      39.738  33.967  37.137  1.00  0.00     0.058 A 
ATOM     93  C   UNL A   1      38.866  33.680  38.198  1.00  0.00     0.135 A 
ATOM     94  C   UNL A   1      40.423  35.193  37.164  1.00  0.00     0.135 A 
ATOM     95  F   UNL A   1      38.182  32.525  38.217  1.00  0.00    -0.206 F 
ATOM     96  C   UNL A   1      38.661  34.584  39.235  1.00  0.00     0.059 A 
ATOM     97  C   UNL A   1      40.257  36.099  38.206  1.00  0.00     0.059 A 
ATOM     98  F   UNL A   1      41.277  35.513  36.179  1.00  0.00    -0.206 F 
ATOM     99  C   UNL A   1      39.365  35.791  39.232  1.00  0.00     0.060 A 
BRANCH  99 100
ATOM    100  S   UNL A   1      39.117  36.940  40.601  1.00  0.00     0.124 S 
ATOM    101  O   UNL A   1      38.209  37.915  40.006  1.00  0.00    -0.237 OA
ATOM    102  O   UNL A   1      38.539  36.080  41.630  1.00  0.00    -0.237 OA
ATOM    103  O   UNL A   1      40.463  37.427  40.885  1.00  0.00    -0.744 OA
ENDBRANCH  99 100
ENDBRANCH  67  92
ENDBRANCH  41  42
ENDBRANCH  33  36
ENDBRANCH  31  32
ENDBRANCH  30  31
ENDBRANCH  29  30
ENDBRANCH  28  29
ENDBRANCH   1  28
TORSDOF 22
ENDMDL
