MODEL 1
REMARK VINA RESULT:     -12.0      0.000      0.000
REMARK SMILES O=C(NCCCCCCNC(=O)c1ccc(-c2c3nc(c(-c4c(F)cc(S(=O)(=O)[O-])cc4F)c4ccc([nH]4)c(-c4c(F)cc(S(=O)(=O)[O-])cc4F)c4nc(c(-c5c(F)cc(S(=O)(=O)[O-])cc5F)c5ccc2[nH]5)C=C4)C=C3)cc1)C1=Cc2cc(Cl)cc(Cl)c2O[C@@H]1C(F)(F)F
REMARK SMILES IDX 7 1 6 2 5 3 4 4 3 5 1 6 2 7 79 9 80 10 90 11 81 12 89 13
REMARK SMILES IDX 82 14 88 15 83 16 86 17 84 18 85 19 87 20 91 21 92 22 93 23
REMARK SMILES IDX 94 24 8 25 9 26 10 27 11 28 12 30 13 31 14 32 78 33 15 34
REMARK SMILES IDX 77 35 16 36 17 37 18 38 71 39 19 40 76 41 70 42 72 43 20 44
REMARK SMILES IDX 75 45 69 46 68 47 21 49 55 50 34 51 54 52 35 53 38 54 53 55
REMARK SMILES IDX 73 56 36 57 37 58 52 60 74 61 39 62 22 63 23 64 32 65 24 66
REMARK SMILES IDX 25 67 31 68 33 69 26 70 27 71 28 72 29 73 30 74 56 75 57 76
REMARK SMILES IDX 66 77 58 78 59 79 65 80 67 81 60 82 61 83 62 84 63 85 64 86
REMARK SMILES IDX 40 87 41 88 50 89 42 90 43 91 49 92 51 93 44 94 45 95 46 96
REMARK SMILES IDX 47 97 48 98
REMARK H PARENT 3 8 10 29 72 48 38 59
REMARK Flexibility Score: inf
ROOT
ATOM      1  C   UNL A   1      32.754  29.359  27.182  1.00  0.00     0.002 C 
ENDROOT
BRANCH   1   2
ATOM      2  C   UNL A   1      31.765  28.214  26.932  1.00  0.00     0.002 C 
BRANCH   2   3
ATOM      3  C   UNL A   1      32.334  26.931  26.328  1.00  0.00     0.021 C 
BRANCH   3   4
ATOM      4  C   UNL A   1      31.382  25.747  26.228  1.00  0.00     0.116 C 
BRANCH   4   5
ATOM      5  N   UNL A   1      31.812  24.536  26.902  1.00  0.00    -0.352 N 
ATOM      6  O   UNL A   1      33.066  22.724  27.321  1.00  0.00    -0.270 OA
ATOM      7  C   UNL A   1      32.764  23.625  26.538  1.00  0.00     0.251 C 
ATOM      8  H   UNL A   1      31.348  24.341  27.748  1.00  0.00     0.163 HD
BRANCH   7   9
ATOM      9  C   UNL A   1      33.530  23.721  25.256  1.00  0.00     0.067 C 
ATOM     10  C   UNL A   1      34.762  24.254  25.174  1.00  0.00     0.025 C 
ATOM     11  C   UNL A   1      33.167  22.616  24.288  1.00  0.00     0.314 C 
ATOM     12  C   UNL A   1      35.792  23.187  25.040  1.00  0.00     0.020 A 
ATOM     13  O   UNL A   1      34.134  21.534  24.353  1.00  0.00    -0.474 OA
ATOM     14  C   UNL A   1      37.092  23.469  25.478  1.00  0.00     0.032 A 
ATOM     15  C   UNL A   1      35.410  21.862  24.754  1.00  0.00     0.146 A 
ATOM     16  C   UNL A   1      37.971  22.420  25.733  1.00  0.00     0.043 A 
ATOM     17  C   UNL A   1      36.315  20.823  25.001  1.00  0.00     0.085 A 
ATOM     18  Cl  UNL A   1      39.493  22.754  26.458  1.00  0.00    -0.084 Cl
ATOM     19  C   UNL A   1      37.587  21.099  25.509  1.00  0.00     0.045 A 
ATOM     20  Cl  UNL A   1      35.845  19.173  24.820  1.00  0.00    -0.080 Cl
BRANCH  11  21
ATOM     21  C   UNL A   1      32.976  23.121  22.848  1.00  0.00     0.429 C 
ATOM     22  F   UNL A   1      32.194  22.282  22.128  1.00  0.00    -0.167 F 
ATOM     23  F   UNL A   1      32.378  24.336  22.821  1.00  0.00    -0.167 F 
ATOM     24  F   UNL A   1      34.151  23.244  22.183  1.00  0.00    -0.167 F 
ENDBRANCH  11  21
ENDBRANCH   7   9
ENDBRANCH   4   5
ENDBRANCH   3   4
ENDBRANCH   2   3
ENDBRANCH   1   2
BRANCH   1  25
ATOM     25  C   UNL A   1      34.219  28.976  27.423  1.00  0.00     0.021 C 
BRANCH  25  26
ATOM     26  C   UNL A   1      35.198  30.128  27.636  1.00  0.00     0.116 C 
BRANCH  26  27
ATOM     27  N   UNL A   1      35.210  30.619  29.002  1.00  0.00    -0.352 N 
ATOM     28  C   UNL A   1      36.205  30.578  29.948  1.00  0.00     0.251 C 
ATOM     29  H   UNL A   1      34.374  31.048  29.296  1.00  0.00     0.163 HD
ATOM     30  O   UNL A   1      35.956  30.934  31.097  1.00  0.00    -0.269 OA
BRANCH  28  31
ATOM     31  C   UNL A   1      37.562  30.091  29.606  1.00  0.00     0.039 A 
ATOM     32  C   UNL A   1      37.952  30.086  28.262  1.00  0.00     0.014 A 
ATOM     33  C   UNL A   1      38.438  29.612  30.584  1.00  0.00     0.014 A 
ATOM     34  C   UNL A   1      39.234  29.654  27.909  1.00  0.00     0.010 A 
ATOM     35  C   UNL A   1      39.740  29.248  30.237  1.00  0.00     0.010 A 
ATOM     36  C   UNL A   1      40.151  29.260  28.896  1.00  0.00    -0.014 A 
BRANCH  36  37
ATOM     37  C   UNL A   1      41.538  28.855  28.539  1.00  0.00     0.031 A 
ATOM     38  C   UNL A   1      42.645  29.878  28.513  1.00  0.00     0.074 A 
ATOM     39  C   UNL A   1      41.792  27.578  28.190  1.00  0.00     0.049 A 
ATOM     40  N   UNL A   1      43.901  29.726  28.179  1.00  0.00    -0.248 NA
ATOM     41  C   UNL A   1      42.288  31.256  28.886  1.00  0.00     0.031 C 
ATOM     42  C   UNL A   1      40.798  26.502  28.139  1.00  0.00     0.029 A 
ATOM     43  N   UNL A   1      42.959  26.965  27.806  1.00  0.00    -0.354 N 
ATOM     44  C   UNL A   1      44.478  30.988  28.282  1.00  0.00     0.074 A 
ATOM     45  C   UNL A   1      43.425  31.902  28.667  1.00  0.00     0.031 C 
ATOM     46  C   UNL A   1      41.403  25.359  27.774  1.00  0.00     0.029 A 
ATOM     47  C   UNL A   1      42.816  25.625  27.524  1.00  0.00     0.049 A 
ATOM     48  H   UNL A   1      43.818  27.440  27.739  1.00  0.00     0.167 HD
ATOM     49  C   UNL A   1      45.770  31.347  28.092  1.00  0.00     0.037 A 
ATOM     50  C   UNL A   1      43.718  24.717  27.105  1.00  0.00     0.037 A 
ATOM     51  C   UNL A   1      46.820  30.424  27.744  1.00  0.00     0.049 A 
ATOM     52  C   UNL A   1      45.147  25.145  26.897  1.00  0.00     0.074 A 
ATOM     53  C   UNL A   1      48.173  30.676  27.603  1.00  0.00     0.029 A 
ATOM     54  N   UNL A   1      46.636  29.075  27.475  1.00  0.00    -0.354 N 
ATOM     55  N   UNL A   1      45.688  26.327  27.072  1.00  0.00    -0.248 NA
ATOM     56  C   UNL A   1      46.089  24.115  26.436  1.00  0.00     0.031 C 
ATOM     57  C   UNL A   1      48.799  29.494  27.196  1.00  0.00     0.029 A 
ATOM     58  C   UNL A   1      47.845  28.490  27.140  1.00  0.00     0.049 A 
ATOM     59  H   UNL A   1      45.772  28.605  27.516  1.00  0.00     0.167 HD
ATOM     60  C   UNL A   1      47.039  26.173  26.778  1.00  0.00     0.074 A 
ATOM     61  C   UNL A   1      47.234  24.784  26.423  1.00  0.00     0.031 C 
ATOM     62  C   UNL A   1      48.028  27.101  26.802  1.00  0.00     0.037 A 
BRANCH  49  63
ATOM     63  C   UNL A   1      46.131  32.798  28.254  1.00  0.00     0.058 A 
ATOM     64  C   UNL A   1      46.574  33.321  29.479  1.00  0.00     0.135 A 
ATOM     65  C   UNL A   1      46.093  33.667  27.150  1.00  0.00     0.135 A 
ATOM     66  F   UNL A   1      46.619  32.541  30.571  1.00  0.00    -0.206 F 
ATOM     67  C   UNL A   1      46.945  34.656  29.610  1.00  0.00     0.059 A 
ATOM     68  C   UNL A   1      46.487  34.998  27.252  1.00  0.00     0.059 A 
ATOM     69  F   UNL A   1      45.677  33.222  25.954  1.00  0.00    -0.206 F 
ATOM     70  C   UNL A   1      46.902  35.486  28.490  1.00  0.00     0.060 A 
BRANCH  70  71
ATOM     71  S   UNL A   1      47.408  37.209  28.673  1.00  0.00     0.124 S 
ATOM     72  O   UNL A   1      46.262  37.911  28.105  1.00  0.00    -0.237 OA
ATOM     73  O   UNL A   1      47.573  37.332  30.118  1.00  0.00    -0.237 OA
ATOM     74  O   UNL A   1      48.640  37.288  27.895  1.00  0.00    -0.744 OA
ENDBRANCH  70  71
ENDBRANCH  49  63
BRANCH  50  75
ATOM     75  C   UNL A   1      43.309  23.304  26.874  1.00  0.00     0.058 A 
ATOM     76  C   UNL A   1      43.049  22.443  27.951  1.00  0.00     0.135 A 
ATOM     77  C   UNL A   1      43.182  22.782  25.577  1.00  0.00     0.135 A 
ATOM     78  F   UNL A   1      43.162  22.893  29.211  1.00  0.00    -0.206 F 
ATOM     79  C   UNL A   1      42.706  21.110  27.755  1.00  0.00     0.059 A 
ATOM     80  C   UNL A   1      42.811  21.459  25.354  1.00  0.00     0.059 A 
ATOM     81  F   UNL A   1      43.404  23.565  24.511  1.00  0.00    -0.206 F 
ATOM     82  C   UNL A   1      42.590  20.627  26.451  1.00  0.00     0.060 A 
BRANCH  82  83
ATOM     83  S   UNL A   1      42.118  18.901  26.206  1.00  0.00     0.124 S 
ATOM     84  O   UNL A   1      42.366  18.338  27.528  1.00  0.00    -0.237 OA
ATOM     85  O   UNL A   1      40.718  19.018  25.813  1.00  0.00    -0.237 OA
ATOM     86  O   UNL A   1      43.023  18.452  25.150  1.00  0.00    -0.744 OA
ENDBRANCH  82  83
ENDBRANCH  50  75
BRANCH  62  87
ATOM     87  C   UNL A   1      49.423  26.637  26.479  1.00  0.00     0.058 A 
ATOM     88  C   UNL A   1      50.247  26.035  27.443  1.00  0.00     0.135 A 
ATOM     89  C   UNL A   1      49.921  26.750  25.171  1.00  0.00     0.135 A 
ATOM     90  F   UNL A   1      49.822  25.909  28.711  1.00  0.00    -0.206 F 
ATOM     91  C   UNL A   1      51.524  25.584  27.128  1.00  0.00     0.059 A 
ATOM     92  C   UNL A   1      51.183  26.277  24.825  1.00  0.00     0.059 A 
ATOM     93  F   UNL A   1      49.170  27.307  24.207  1.00  0.00    -0.206 F 
ATOM     94  C   UNL A   1      51.982  25.707  25.814  1.00  0.00     0.060 A 
BRANCH  94  95
ATOM     95  S   UNL A   1      53.627  25.085  25.411  1.00  0.00     0.124 S 
ATOM     96  O   UNL A   1      53.891  25.749  24.139  1.00  0.00    -0.237 OA
ATOM     97  O   UNL A   1      54.423  25.547  26.544  1.00  0.00    -0.237 OA
ATOM     98  O   UNL A   1      53.437  23.639  25.336  1.00  0.00    -0.744 OA
ENDBRANCH  94  95
ENDBRANCH  62  87
ENDBRANCH  36  37
ENDBRANCH  28  31
ENDBRANCH  26  27
ENDBRANCH  25  26
ENDBRANCH   1  25
TORSDOF 17
ENDMDL
MODEL 2
REMARK VINA RESULT:     -12.0      2.625      3.427
REMARK SMILES O=C(NCCCCCCNC(=O)c1ccc(-c2c3nc(c(-c4c(F)cc(S(=O)(=O)[O-])cc4F)c4ccc([nH]4)c(-c4c(F)cc(S(=O)(=O)[O-])cc4F)c4nc(c(-c5c(F)cc(S(=O)(=O)[O-])cc5F)c5ccc2[nH]5)C=C4)C=C3)cc1)C1=Cc2cc(Cl)cc(Cl)c2O[C@@H]1C(F)(F)F
REMARK SMILES IDX 7 1 6 2 5 3 4 4 3 5 1 6 2 7 79 9 80 10 90 11 81 12 89 13
REMARK SMILES IDX 82 14 88 15 83 16 86 17 84 18 85 19 87 20 91 21 92 22 93 23
REMARK SMILES IDX 94 24 8 25 9 26 10 27 11 28 12 30 13 31 14 32 78 33 15 34
REMARK SMILES IDX 77 35 16 36 17 37 18 38 71 39 19 40 76 41 70 42 72 43 20 44
REMARK SMILES IDX 75 45 69 46 68 47 21 49 55 50 34 51 54 52 35 53 38 54 53 55
REMARK SMILES IDX 73 56 36 57 37 58 52 60 74 61 39 62 22 63 23 64 32 65 24 66
REMARK SMILES IDX 25 67 31 68 33 69 26 70 27 71 28 72 29 73 30 74 56 75 57 76
REMARK SMILES IDX 66 77 58 78 59 79 65 80 67 81 60 82 61 83 62 84 63 85 64 86
REMARK SMILES IDX 40 87 41 88 50 89 42 90 43 91 49 92 51 93 44 94 45 95 46 96
REMARK SMILES IDX 47 97 48 98
REMARK H PARENT 3 8 10 29 72 48 38 59
REMARK Flexibility Score: inf
ROOT
ATOM      1  C   UNL A   1      32.197  28.382  24.874  1.00  0.00     0.002 C 
ENDROOT
BRANCH   1   2
ATOM      2  C   UNL A   1      31.174  27.243  24.784  1.00  0.00     0.002 C 
BRANCH   2   3
ATOM      3  C   UNL A   1      30.712  26.625  26.103  1.00  0.00     0.021 C 
BRANCH   3   4
ATOM      4  C   UNL A   1      30.355  25.145  26.072  1.00  0.00     0.116 C 
BRANCH   4   5
ATOM      5  N   UNL A   1      31.156  24.287  26.925  1.00  0.00    -0.352 N 
ATOM      6  O   UNL A   1      32.950  23.128  27.611  1.00  0.00    -0.270 OA
ATOM      7  C   UNL A   1      32.383  23.729  26.698  1.00  0.00     0.251 C 
ATOM      8  H   UNL A   1      30.755  24.074  27.799  1.00  0.00     0.163 HD
BRANCH   7   9
ATOM      9  C   UNL A   1      33.120  23.889  25.406  1.00  0.00     0.067 C 
ATOM     10  C   UNL A   1      34.357  24.413  25.325  1.00  0.00     0.025 C 
ATOM     11  C   UNL A   1      32.721  22.846  24.386  1.00  0.00     0.314 C 
ATOM     12  C   UNL A   1      35.370  23.343  25.107  1.00  0.00     0.020 A 
ATOM     13  O   UNL A   1      33.676  21.752  24.366  1.00  0.00    -0.474 OA
ATOM     14  C   UNL A   1      36.683  23.586  25.529  1.00  0.00     0.032 A 
ATOM     15  C   UNL A   1      34.965  22.042  24.755  1.00  0.00     0.146 A 
ATOM     16  C   UNL A   1      37.554  22.514  25.703  1.00  0.00     0.043 A 
ATOM     17  C   UNL A   1      35.863  20.980  24.921  1.00  0.00     0.085 A 
ATOM     18  Cl  UNL A   1      39.097  22.789  26.410  1.00  0.00    -0.084 Cl
ATOM     19  C   UNL A   1      37.149  21.212  25.414  1.00  0.00     0.045 A 
ATOM     20  Cl  UNL A   1      35.367  19.348  24.657  1.00  0.00    -0.080 Cl
BRANCH  11  21
ATOM     21  C   UNL A   1      32.504  23.434  22.982  1.00  0.00     0.429 C 
ATOM     22  F   UNL A   1      32.884  22.565  22.016  1.00  0.00    -0.167 F 
ATOM     23  F   UNL A   1      31.200  23.723  22.759  1.00  0.00    -0.167 F 
ATOM     24  F   UNL A   1      33.201  24.580  22.788  1.00  0.00    -0.167 F 
ENDBRANCH  11  21
ENDBRANCH   7   9
ENDBRANCH   4   5
ENDBRANCH   3   4
ENDBRANCH   2   3
ENDBRANCH   1   2
BRANCH   1  25
ATOM     25  C   UNL A   1      33.569  28.043  25.468  1.00  0.00     0.021 C 
BRANCH  25  26
ATOM     26  C   UNL A   1      33.733  28.258  26.971  1.00  0.00     0.116 C 
BRANCH  26  27
ATOM     27  N   UNL A   1      33.567  29.644  27.368  1.00  0.00    -0.352 N 
ATOM     28  C   UNL A   1      34.435  30.489  28.016  1.00  0.00     0.251 C 
ATOM     29  H   UNL A   1      32.696  30.040  27.138  1.00  0.00     0.163 HD
ATOM     30  O   UNL A   1      34.039  31.593  28.380  1.00  0.00    -0.269 OA
BRANCH  28  31
ATOM     31  C   UNL A   1      35.830  30.076  28.300  1.00  0.00     0.039 A 
ATOM     32  C   UNL A   1      36.766  30.122  27.261  1.00  0.00     0.014 A 
ATOM     33  C   UNL A   1      36.218  29.616  29.561  1.00  0.00     0.014 A 
ATOM     34  C   UNL A   1      38.095  29.761  27.501  1.00  0.00     0.010 A 
ATOM     35  C   UNL A   1      37.558  29.325  29.817  1.00  0.00     0.010 A 
ATOM     36  C   UNL A   1      38.511  29.388  28.789  1.00  0.00    -0.014 A 
BRANCH  36  37
ATOM     37  C   UNL A   1      39.934  29.060  29.073  1.00  0.00     0.031 A 
ATOM     38  C   UNL A   1      40.845  30.094  29.683  1.00  0.00     0.074 A 
ATOM     39  C   UNL A   1      40.420  27.849  28.734  1.00  0.00     0.049 A 
ATOM     40  N   UNL A   1      42.122  30.011  29.955  1.00  0.00    -0.248 NA
ATOM     41  C   UNL A   1      40.250  31.400  30.006  1.00  0.00     0.031 C 
ATOM     42  C   UNL A   1      39.649  26.775  28.102  1.00  0.00     0.029 A 
ATOM     43  N   UNL A   1      41.678  27.315  28.868  1.00  0.00    -0.354 N 
ATOM     44  C   UNL A   1      42.486  31.255  30.461  1.00  0.00     0.074 A 
ATOM     45  C   UNL A   1      41.305  32.088  30.418  1.00  0.00     0.031 C 
ATOM     46  C   UNL A   1      40.442  25.705  27.928  1.00  0.00     0.029 A 
ATOM     47  C   UNL A   1      41.786  26.026  28.397  1.00  0.00     0.049 A 
ATOM     48  H   UNL A   1      42.432  27.808  29.263  1.00  0.00     0.167 HD
ATOM     49  C   UNL A   1      43.689  31.657  30.937  1.00  0.00     0.037 A 
ATOM     50  C   UNL A   1      42.849  25.200  28.341  1.00  0.00     0.037 A 
ATOM     51  C   UNL A   1      44.851  30.809  31.010  1.00  0.00     0.049 A 
ATOM     52  C   UNL A   1      44.176  25.675  28.872  1.00  0.00     0.074 A 
ATOM     53  C   UNL A   1      46.094  31.100  31.545  1.00  0.00     0.029 A 
ATOM     54  N   UNL A   1      44.918  29.509  30.531  1.00  0.00    -0.354 N 
ATOM     55  N   UNL A   1      44.481  26.830  29.415  1.00  0.00    -0.248 NA
ATOM     56  C   UNL A   1      45.302  24.736  28.784  1.00  0.00     0.031 C 
ATOM     57  C   UNL A   1      46.928  29.997  31.340  1.00  0.00     0.029 A 
ATOM     58  C   UNL A   1      46.189  28.996  30.730  1.00  0.00     0.049 A 
ATOM     59  H   UNL A   1      44.172  29.023  30.111  1.00  0.00     0.167 HD
ATOM     60  C   UNL A   1      45.824  26.741  29.767  1.00  0.00     0.074 A 
ATOM     61  C   UNL A   1      46.269  25.418  29.383  1.00  0.00     0.031 C 
ATOM     62  C   UNL A   1      46.615  27.671  30.355  1.00  0.00     0.037 A 
BRANCH  49  63
ATOM     63  C   UNL A   1      43.820  33.077  31.416  1.00  0.00     0.058 A 
ATOM     64  C   UNL A   1      44.320  34.096  30.591  1.00  0.00     0.135 A 
ATOM     65  C   UNL A   1      43.380  33.435  32.702  1.00  0.00     0.135 A 
ATOM     66  F   UNL A   1      44.768  33.810  29.358  1.00  0.00    -0.206 F 
ATOM     67  C   UNL A   1      44.400  35.415  31.029  1.00  0.00     0.059 A 
ATOM     68  C   UNL A   1      43.424  34.753  33.150  1.00  0.00     0.059 A 
ATOM     69  F   UNL A   1      42.893  32.502  33.535  1.00  0.00    -0.206 F 
ATOM     70  C   UNL A   1      43.946  35.734  32.309  1.00  0.00     0.060 A 
BRANCH  70  71
ATOM     71  S   UNL A   1      44.037  37.453  32.852  1.00  0.00     0.124 S 
ATOM     72  O   UNL A   1      45.424  37.546  33.294  1.00  0.00    -0.237 OA
ATOM     73  O   UNL A   1      43.710  38.183  31.632  1.00  0.00    -0.237 OA
ATOM     74  O   UNL A   1      43.035  37.530  33.912  1.00  0.00    -0.744 OA
ENDBRANCH  70  71
ENDBRANCH  49  63
BRANCH  50  75
ATOM     75  C   UNL A   1      42.705  23.827  27.783  1.00  0.00     0.058 A 
ATOM     76  C   UNL A   1      42.752  23.604  26.398  1.00  0.00     0.135 A 
ATOM     77  C   UNL A   1      42.505  22.715  28.615  1.00  0.00     0.135 A 
ATOM     78  F   UNL A   1      42.935  24.635  25.559  1.00  0.00    -0.206 F 
ATOM     79  C   UNL A   1      42.578  22.335  25.856  1.00  0.00     0.059 A 
ATOM     80  C   UNL A   1      42.358  21.431  28.099  1.00  0.00     0.059 A 
ATOM     81  F   UNL A   1      42.467  22.869  29.948  1.00  0.00    -0.206 F 
ATOM     82  C   UNL A   1      42.380  21.254  26.716  1.00  0.00     0.060 A 
BRANCH  82  83
ATOM     83  S   UNL A   1      42.182  19.606  26.004  1.00  0.00     0.124 S 
ATOM     84  O   UNL A   1      43.129  19.648  24.896  1.00  0.00    -0.237 OA
ATOM     85  O   UNL A   1      42.544  18.742  27.123  1.00  0.00    -0.237 OA
ATOM     86  O   UNL A   1      40.771  19.572  25.627  1.00  0.00    -0.744 OA
ENDBRANCH  82  83
ENDBRANCH  50  75
BRANCH  62  87
ATOM     87  C   UNL A   1      48.035  27.280  30.665  1.00  0.00     0.058 A 
ATOM     88  C   UNL A   1      48.374  26.581  31.834  1.00  0.00     0.135 A 
ATOM     89  C   UNL A   1      49.063  27.564  29.751  1.00  0.00     0.135 A 
ATOM     90  F   UNL A   1      47.431  26.290  32.745  1.00  0.00    -0.206 F 
ATOM     91  C   UNL A   1      49.685  26.198  32.098  1.00  0.00     0.059 A 
ATOM     92  C   UNL A   1      50.376  27.163  29.979  1.00  0.00     0.059 A 
ATOM     93  F   UNL A   1      48.793  28.220  28.611  1.00  0.00    -0.206 F 
ATOM     94  C   UNL A   1      50.680  26.492  31.162  1.00  0.00     0.060 A 
BRANCH  94  95
ATOM     95  S   UNL A   1      52.370  25.958  31.500  1.00  0.00     0.124 S 
ATOM     96  O   UNL A   1      52.825  26.990  32.425  1.00  0.00    -0.237 OA
ATOM     97  O   UNL A   1      52.169  24.633  32.077  1.00  0.00    -0.237 OA
ATOM     98  O   UNL A   1      53.001  25.972  30.184  1.00  0.00    -0.744 OA
ENDBRANCH  94  95
ENDBRANCH  62  87
ENDBRANCH  36  37
ENDBRANCH  28  31
ENDBRANCH  26  27
ENDBRANCH  25  26
ENDBRANCH   1  25
TORSDOF 17
ENDMDL
MODEL 3
REMARK VINA RESULT:     -11.9      4.576      7.219
REMARK SMILES O=C(NCCCCCCNC(=O)c1ccc(-c2c3nc(c(-c4c(F)cc(S(=O)(=O)[O-])cc4F)c4ccc([nH]4)c(-c4c(F)cc(S(=O)(=O)[O-])cc4F)c4nc(c(-c5c(F)cc(S(=O)(=O)[O-])cc5F)c5ccc2[nH]5)C=C4)C=C3)cc1)C1=Cc2cc(Cl)cc(Cl)c2O[C@@H]1C(F)(F)F
REMARK SMILES IDX 7 1 6 2 5 3 4 4 3 5 1 6 2 7 79 9 80 10 90 11 81 12 89 13
REMARK SMILES IDX 82 14 88 15 83 16 86 17 84 18 85 19 87 20 91 21 92 22 93 23
REMARK SMILES IDX 94 24 8 25 9 26 10 27 11 28 12 30 13 31 14 32 78 33 15 34
REMARK SMILES IDX 77 35 16 36 17 37 18 38 71 39 19 40 76 41 70 42 72 43 20 44
REMARK SMILES IDX 75 45 69 46 68 47 21 49 55 50 34 51 54 52 35 53 38 54 53 55
REMARK SMILES IDX 73 56 36 57 37 58 52 60 74 61 39 62 22 63 23 64 32 65 24 66
REMARK SMILES IDX 25 67 31 68 33 69 26 70 27 71 28 72 29 73 30 74 56 75 57 76
REMARK SMILES IDX 66 77 58 78 59 79 65 80 67 81 60 82 61 83 62 84 63 85 64 86
REMARK SMILES IDX 40 87 41 88 50 89 42 90 43 91 49 92 51 93 44 94 45 95 46 96
REMARK SMILES IDX 47 97 48 98
REMARK H PARENT 3 8 10 29 72 48 38 59
REMARK Flexibility Score: inf
ROOT
ATOM      1  C   UNL A   1      34.043  35.050  28.742  1.00  0.00     0.002 C 
ENDROOT
BRANCH   1   2
ATOM      2  C   UNL A   1      32.898  35.781  29.454  1.00  0.00     0.002 C 
BRANCH   2   3
ATOM      3  C   UNL A   1      33.290  36.804  30.518  1.00  0.00     0.021 C 
BRANCH   3   4
ATOM      4  C   UNL A   1      33.709  36.249  31.873  1.00  0.00     0.116 C 
BRANCH   4   5
ATOM      5  N   UNL A   1      33.503  34.825  32.060  1.00  0.00    -0.352 N 
ATOM      6  O   UNL A   1      34.037  32.679  32.432  1.00  0.00    -0.270 OA
ATOM      7  C   UNL A   1      34.418  33.813  32.143  1.00  0.00     0.251 C 
ATOM      8  H   UNL A   1      32.562  34.546  32.139  1.00  0.00     0.163 HD
BRANCH   7   9
ATOM      9  C   UNL A   1      35.889  34.036  31.984  1.00  0.00     0.067 C 
ATOM     10  C   UNL A   1      36.659  34.575  32.948  1.00  0.00     0.025 C 
ATOM     11  C   UNL A   1      36.522  33.034  31.045  1.00  0.00     0.314 C 
ATOM     12  C   UNL A   1      37.473  33.525  33.621  1.00  0.00     0.020 A 
ATOM     13  O   UNL A   1      37.143  31.951  31.787  1.00  0.00    -0.474 OA
ATOM     14  C   UNL A   1      37.893  33.762  34.936  1.00  0.00     0.032 A 
ATOM     15  C   UNL A   1      37.572  32.236  33.064  1.00  0.00     0.146 A 
ATOM     16  C   UNL A   1      38.306  32.692  35.725  1.00  0.00     0.043 A 
ATOM     17  C   UNL A   1      38.008  31.177  33.870  1.00  0.00     0.085 A 
ATOM     18  Cl  UNL A   1      38.629  32.952  37.394  1.00  0.00    -0.084 Cl
ATOM     19  C   UNL A   1      38.355  31.401  35.205  1.00  0.00     0.045 A 
ATOM     20  Cl  UNL A   1      37.997  29.553  33.286  1.00  0.00    -0.080 Cl
BRANCH  11  21
ATOM     21  C   UNL A   1      37.506  33.679  30.056  1.00  0.00     0.429 C 
ATOM     22  F   UNL A   1      38.674  34.005  30.659  1.00  0.00    -0.167 F 
ATOM     23  F   UNL A   1      37.811  32.841  29.037  1.00  0.00    -0.167 F 
ATOM     24  F   UNL A   1      37.012  34.812  29.500  1.00  0.00    -0.167 F 
ENDBRANCH  11  21
ENDBRANCH   7   9
ENDBRANCH   4   5
ENDBRANCH   3   4
ENDBRANCH   2   3
ENDBRANCH   1   2
BRANCH   1  25
ATOM     25  C   UNL A   1      33.698  33.736  28.033  1.00  0.00     0.021 C 
BRANCH  25  26
ATOM     26  C   UNL A   1      34.558  32.525  28.387  1.00  0.00     0.116 C 
BRANCH  26  27
ATOM     27  N   UNL A   1      33.925  31.261  28.057  1.00  0.00    -0.352 N 
ATOM     28  C   UNL A   1      34.474  30.013  27.888  1.00  0.00     0.251 C 
ATOM     29  H   UNL A   1      32.949  31.306  27.934  1.00  0.00     0.163 HD
ATOM     30  O   UNL A   1      33.769  29.098  27.473  1.00  0.00    -0.269 OA
BRANCH  28  31
ATOM     31  C   UNL A   1      35.907  29.766  28.178  1.00  0.00     0.039 A 
ATOM     32  C   UNL A   1      36.263  29.317  29.454  1.00  0.00     0.014 A 
ATOM     33  C   UNL A   1      36.900  30.000  27.223  1.00  0.00     0.014 A 
ATOM     34  C   UNL A   1      37.603  29.053  29.753  1.00  0.00     0.010 A 
ATOM     35  C   UNL A   1      38.227  29.668  27.500  1.00  0.00     0.010 A 
ATOM     36  C   UNL A   1      38.595  29.196  28.769  1.00  0.00    -0.014 A 
BRANCH  36  37
ATOM     37  C   UNL A   1      40.016  28.861  29.055  1.00  0.00     0.031 A 
ATOM     38  C   UNL A   1      40.917  29.872  29.715  1.00  0.00     0.074 A 
ATOM     39  C   UNL A   1      40.508  27.665  28.674  1.00  0.00     0.049 A 
ATOM     40  N   UNL A   1      42.191  29.782  29.997  1.00  0.00    -0.248 NA
ATOM     41  C   UNL A   1      40.315  31.164  30.083  1.00  0.00     0.031 C 
ATOM     42  C   UNL A   1      39.747  26.615  27.992  1.00  0.00     0.029 A 
ATOM     43  N   UNL A   1      41.766  27.129  28.800  1.00  0.00    -0.354 N 
ATOM     44  C   UNL A   1      42.546  31.005  30.556  1.00  0.00     0.074 A 
ATOM     45  C   UNL A   1      41.364  31.837  30.532  1.00  0.00     0.031 C 
ATOM     46  C   UNL A   1      40.545  25.554  27.786  1.00  0.00     0.029 A 
ATOM     47  C   UNL A   1      41.883  25.860  28.280  1.00  0.00     0.049 A 
ATOM     48  H   UNL A   1      42.515  27.608  29.223  1.00  0.00     0.167 HD
ATOM     49  C   UNL A   1      43.743  31.392  31.059  1.00  0.00     0.037 A 
ATOM     50  C   UNL A   1      42.949  25.039  28.204  1.00  0.00     0.037 A 
ATOM     51  C   UNL A   1      44.907  30.544  31.112  1.00  0.00     0.049 A 
ATOM     52  C   UNL A   1      44.268  25.497  28.767  1.00  0.00     0.074 A 
ATOM     53  C   UNL A   1      46.143  30.817  31.671  1.00  0.00     0.029 A 
ATOM     54  N   UNL A   1      44.982  29.264  30.583  1.00  0.00    -0.354 N 
ATOM     55  N   UNL A   1      44.564  26.630  29.359  1.00  0.00    -0.248 NA
ATOM     56  C   UNL A   1      45.399  24.564  28.655  1.00  0.00     0.031 C 
ATOM     57  C   UNL A   1      46.983  29.725  31.432  1.00  0.00     0.029 A 
ATOM     58  C   UNL A   1      46.252  28.747  30.776  1.00  0.00     0.049 A 
ATOM     59  H   UNL A   1      44.242  28.794  30.136  1.00  0.00     0.167 HD
ATOM     60  C   UNL A   1      45.904  26.530  29.720  1.00  0.00     0.074 A 
ATOM     61  C   UNL A   1      46.357  25.224  29.290  1.00  0.00     0.031 C 
ATOM     62  C   UNL A   1      46.687  27.438  30.354  1.00  0.00     0.037 A 
BRANCH  49  63
ATOM     63  C   UNL A   1      43.865  32.792  31.596  1.00  0.00     0.058 A 
ATOM     64  C   UNL A   1      44.329  33.853  30.802  1.00  0.00     0.135 A 
ATOM     65  C   UNL A   1      43.451  33.089  32.905  1.00  0.00     0.135 A 
ATOM     66  F   UNL A   1      44.750  33.626  29.547  1.00  0.00    -0.206 F 
ATOM     67  C   UNL A   1      44.400  35.153  31.294  1.00  0.00     0.059 A 
ATOM     68  C   UNL A   1      43.487  34.387  33.408  1.00  0.00     0.059 A 
ATOM     69  F   UNL A   1      42.999  32.114  33.709  1.00  0.00    -0.206 F 
ATOM     70  C   UNL A   1      43.973  35.411  32.597  1.00  0.00     0.060 A 
BRANCH  70  71
ATOM     71  S   UNL A   1      44.053  37.107  33.211  1.00  0.00     0.124 S 
ATOM     72  O   UNL A   1      45.336  37.106  33.906  1.00  0.00    -0.237 OA
ATOM     73  O   UNL A   1      44.001  37.886  31.978  1.00  0.00    -0.237 OA
ATOM     74  O   UNL A   1      42.875  37.215  34.067  1.00  0.00    -0.744 OA
ENDBRANCH  70  71
ENDBRANCH  49  63
BRANCH  50  75
ATOM     75  C   UNL A   1      42.814  23.689  27.591  1.00  0.00     0.058 A 
ATOM     76  C   UNL A   1      42.494  22.570  28.374  1.00  0.00     0.135 A 
ATOM     77  C   UNL A   1      43.015  23.486  26.217  1.00  0.00     0.135 A 
ATOM     78  F   UNL A   1      42.298  22.710  29.695  1.00  0.00    -0.206 F 
ATOM     79  C   UNL A   1      42.404  21.295  27.826  1.00  0.00     0.059 A 
ATOM     80  C   UNL A   1      42.902  22.225  25.639  1.00  0.00     0.059 A 
ATOM     81  F   UNL A   1      43.308  24.524  25.418  1.00  0.00    -0.206 F 
ATOM     82  C   UNL A   1      42.611  21.133  26.455  1.00  0.00     0.060 A 
BRANCH  82  83
ATOM     83  S   UNL A   1      42.467  19.477  25.748  1.00  0.00     0.124 S 
ATOM     84  O   UNL A   1      41.051  19.426  25.406  1.00  0.00    -0.237 OA
ATOM     85  O   UNL A   1      43.395  19.542  24.623  1.00  0.00    -0.237 OA
ATOM     86  O   UNL A   1      42.884  18.607  26.845  1.00  0.00    -0.744 OA
ENDBRANCH  82  83
ENDBRANCH  50  75
BRANCH  62  87
ATOM     87  C   UNL A   1      48.104  27.039  30.663  1.00  0.00     0.058 A 
ATOM     88  C   UNL A   1      49.179  27.428  29.848  1.00  0.00     0.135 A 
ATOM     89  C   UNL A   1      48.395  26.300  31.821  1.00  0.00     0.135 A 
ATOM     90  F   UNL A   1      48.956  28.129  28.725  1.00  0.00    -0.206 F 
ATOM     91  C   UNL A   1      50.489  27.078  30.157  1.00  0.00     0.059 A 
ATOM     92  C   UNL A   1      49.700  25.966  32.168  1.00  0.00     0.059 A 
ATOM     93  F   UNL A   1      47.406  25.912  32.642  1.00  0.00    -0.206 F 
ATOM     94  C   UNL A   1      50.740  26.349  31.322  1.00  0.00     0.060 A 
BRANCH  94  95
ATOM     95  S   UNL A   1      52.448  25.932  31.730  1.00  0.00     0.124 S 
ATOM     96  O   UNL A   1      53.084  25.976  30.418  1.00  0.00    -0.237 OA
ATOM     97  O   UNL A   1      52.819  27.003  32.651  1.00  0.00    -0.237 OA
ATOM     98  O   UNL A   1      52.341  24.607  32.332  1.00  0.00    -0.744 OA
ENDBRANCH  94  95
ENDBRANCH  62  87
ENDBRANCH  36  37
ENDBRANCH  28  31
ENDBRANCH  26  27
ENDBRANCH  25  26
ENDBRANCH   1  25
TORSDOF 17
ENDMDL
