MODEL 1
REMARK VINA RESULT:     -11.7      0.000      0.000
REMARK SMILES O=C(NCCCCCCNC(=O)[C@H]1CC=CC[C@@H]1C(=O)Nc1ccccc1C(=O)NCc1ccco1)c1ccc(-c2c3nc(c(-c4c(F)cc(S(=O)(=O)[O-])cc4F)c4ccc([nH]4)c(-c4c(F)cc(S(=O)(=O)[O-])cc4F)c4nc(c(-c5c(F)cc(S(=O)(=O)[O-])cc5F)c5ccc2[nH]5)C=C4)C=C3)cc1
REMARK SMILES IDX 7 1 6 2 5 3 4 4 3 5 1 6 2 7 37 9 38 10 102 11 39 12 101 13
REMARK SMILES IDX 40 14 41 15 42 16 95 17 43 18 100 19 94 20 96 21 44 22 99 23
REMARK SMILES IDX 93 24 92 25 45 27 79 28 58 29 78 30 59 31 62 32 77 33 97 34
REMARK SMILES IDX 60 35 61 36 76 38 98 39 63 40 46 41 47 42 56 43 48 44 49 45
REMARK SMILES IDX 55 46 57 47 50 48 51 49 52 50 53 51 54 52 80 53 81 54 90 55
REMARK SMILES IDX 82 56 83 57 89 58 91 59 84 60 85 61 86 62 87 63 88 64 64 65
REMARK SMILES IDX 65 66 74 67 66 68 67 69 73 70 75 71 68 72 69 73 70 74 71 75
REMARK SMILES IDX 72 76 8 77 9 78 10 79 11 80 12 82 13 83 14 84 18 85 15 86
REMARK SMILES IDX 17 87 16 88 19 89 20 90 21 91 22 93 23 94 27 95 24 96 26 97
REMARK SMILES IDX 25 98 28 99 29 100 30 101 31 103 32 104 33 105 36 106 34 107
REMARK SMILES IDX 35 108
REMARK H PARENT 3 8 96 26 62 37 10 81 21 92 30 102
REMARK Flexibility Score: inf
ROOT
ATOM      1  C   UNL A   1      35.364  30.825  27.434  1.00  0.00     0.002 C 
ENDROOT
BRANCH   1   2
ATOM      2  C   UNL A   1      34.657  31.646  28.518  1.00  0.00     0.002 C 
BRANCH   2   3
ATOM      3  C   UNL A   1      33.471  32.463  28.010  1.00  0.00     0.021 C 
BRANCH   3   4
ATOM      4  C   UNL A   1      33.819  33.907  27.678  1.00  0.00     0.116 C 
BRANCH   4   5
ATOM      5  N   UNL A   1      33.038  34.851  28.463  1.00  0.00    -0.352 N 
ATOM      6  O   UNL A   1      32.310  35.822  30.371  1.00  0.00    -0.269 OA
ATOM      7  C   UNL A   1      33.149  35.133  29.799  1.00  0.00     0.251 C 
ATOM      8  H   UNL A   1      32.345  35.349  27.973  1.00  0.00     0.163 HD
BRANCH   7   9
ATOM      9  C   UNL A   1      34.293  34.565  30.535  1.00  0.00     0.039 A 
ATOM     10  C   UNL A   1      35.593  34.879  30.133  1.00  0.00     0.014 A 
ATOM     11  C   UNL A   1      34.059  33.666  31.576  1.00  0.00     0.014 A 
ATOM     12  C   UNL A   1      36.661  34.188  30.684  1.00  0.00     0.010 A 
ATOM     13  C   UNL A   1      35.143  33.041  32.191  1.00  0.00     0.010 A 
ATOM     14  C   UNL A   1      36.449  33.275  31.729  1.00  0.00    -0.014 A 
BRANCH  14  15
ATOM     15  C   UNL A   1      37.618  32.619  32.360  1.00  0.00     0.031 A 
ATOM     16  C   UNL A   1      38.117  33.050  33.711  1.00  0.00     0.074 A 
ATOM     17  C   UNL A   1      38.212  31.606  31.701  1.00  0.00     0.049 A 
ATOM     18  N   UNL A   1      39.117  32.574  34.407  1.00  0.00    -0.248 NA
ATOM     19  C   UNL A   1      37.411  34.164  34.361  1.00  0.00     0.031 C 
ATOM     20  C   UNL A   1      37.811  31.110  30.380  1.00  0.00     0.029 A 
ATOM     21  N   UNL A   1      39.259  30.795  32.053  1.00  0.00    -0.354 N 
ATOM     22  C   UNL A   1      39.183  33.347  35.559  1.00  0.00     0.074 A 
ATOM     23  C   UNL A   1      38.131  34.337  35.461  1.00  0.00     0.031 C 
ATOM     24  C   UNL A   1      38.562  30.050  30.060  1.00  0.00     0.029 A 
ATOM     25  C   UNL A   1      39.542  29.831  31.115  1.00  0.00     0.049 A 
ATOM     26  H   UNL A   1      39.759  30.893  32.894  1.00  0.00     0.167 HD
ATOM     27  C   UNL A   1      40.044  33.238  36.600  1.00  0.00     0.037 A 
ATOM     28  C   UNL A   1      40.496  28.882  31.101  1.00  0.00     0.037 A 
ATOM     29  C   UNL A   1      41.074  32.234  36.690  1.00  0.00     0.049 A 
ATOM     30  C   UNL A   1      41.438  28.786  32.264  1.00  0.00     0.074 A 
ATOM     31  C   UNL A   1      41.973  32.010  37.718  1.00  0.00     0.029 A 
ATOM     32  N   UNL A   1      41.348  31.288  35.710  1.00  0.00    -0.354 N 
ATOM     33  N   UNL A   1      41.470  29.509  33.358  1.00  0.00    -0.248 NA
ATOM     34  C   UNL A   1      42.474  27.750  32.190  1.00  0.00     0.031 C 
ATOM     35  C   UNL A   1      42.817  30.959  37.341  1.00  0.00     0.029 A 
ATOM     36  C   UNL A   1      42.413  30.492  36.101  1.00  0.00     0.049 A 
ATOM     37  H   UNL A   1      40.858  31.197  34.861  1.00  0.00     0.167 HD
ATOM     38  C   UNL A   1      42.513  28.998  34.118  1.00  0.00     0.074 A 
ATOM     39  C   UNL A   1      43.079  27.899  33.361  1.00  0.00     0.031 C 
ATOM     40  C   UNL A   1      42.959  29.398  35.335  1.00  0.00     0.037 A 
BRANCH  27  41
ATOM     41  C   UNL A   1      39.929  34.248  37.711  1.00  0.00     0.058 A 
ATOM     42  C   UNL A   1      40.473  35.538  37.605  1.00  0.00     0.135 A 
ATOM     43  C   UNL A   1      39.247  33.923  38.895  1.00  0.00     0.135 A 
ATOM     44  F   UNL A   1      41.147  35.900  36.502  1.00  0.00    -0.206 F 
ATOM     45  C   UNL A   1      40.375  36.456  38.647  1.00  0.00     0.059 A 
ATOM     46  C   UNL A   1      39.114  34.835  39.939  1.00  0.00     0.059 A 
ATOM     47  F   UNL A   1      38.705  32.704  39.051  1.00  0.00    -0.206 F 
ATOM     48  C   UNL A   1      39.699  36.093  39.812  1.00  0.00     0.060 A 
BRANCH  48  49
ATOM     49  S   UNL A   1      39.600  37.286  41.165  1.00  0.00     0.124 S 
ATOM     50  O   UNL A   1      38.835  38.363  40.544  1.00  0.00    -0.237 OA
ATOM     51  O   UNL A   1      38.902  36.529  42.199  1.00  0.00    -0.237 OA
ATOM     52  O   UNL A   1      40.997  37.593  41.451  1.00  0.00    -0.744 OA
ENDBRANCH  48  49
ENDBRANCH  27  41
BRANCH  28  53
ATOM     53  C   UNL A   1      40.580  27.944  29.953  1.00  0.00     0.058 A 
ATOM     54  C   UNL A   1      39.654  26.901  29.808  1.00  0.00     0.135 A 
ATOM     55  C   UNL A   1      41.553  28.101  28.953  1.00  0.00     0.135 A 
ATOM     56  F   UNL A   1      38.706  26.712  30.738  1.00  0.00    -0.206 F 
ATOM     57  C   UNL A   1      39.693  26.040  28.717  1.00  0.00     0.059 A 
ATOM     58  C   UNL A   1      41.597  27.270  27.839  1.00  0.00     0.059 A 
ATOM     59  F   UNL A   1      42.447  29.098  29.036  1.00  0.00    -0.206 F 
ATOM     60  C   UNL A   1      40.667  26.236  27.735  1.00  0.00     0.060 A 
BRANCH  60  61
ATOM     61  S   UNL A   1      40.668  25.153  26.291  1.00  0.00     0.124 S 
ATOM     62  O   UNL A   1      41.154  26.051  25.251  1.00  0.00    -0.237 OA
ATOM     63  O   UNL A   1      41.587  24.095  26.702  1.00  0.00    -0.237 OA
ATOM     64  O   UNL A   1      39.271  24.747  26.175  1.00  0.00    -0.744 OA
ENDBRANCH  60  61
ENDBRANCH  28  53
BRANCH  40  65
ATOM     65  C   UNL A   1      44.084  28.610  35.941  1.00  0.00     0.058 A 
ATOM     66  C   UNL A   1      45.428  28.960  35.740  1.00  0.00     0.135 A 
ATOM     67  C   UNL A   1      43.810  27.499  36.756  1.00  0.00     0.135 A 
ATOM     68  F   UNL A   1      45.746  30.007  34.962  1.00  0.00    -0.206 F 
ATOM     69  C   UNL A   1      46.463  28.218  36.300  1.00  0.00     0.059 A 
ATOM     70  C   UNL A   1      44.827  26.760  37.349  1.00  0.00     0.059 A 
ATOM     71  F   UNL A   1      42.539  27.129  36.987  1.00  0.00    -0.206 F 
ATOM     72  C   UNL A   1      46.151  27.118  37.103  1.00  0.00     0.060 A 
BRANCH  72  73
ATOM     73  S   UNL A   1      47.500  26.170  37.838  1.00  0.00     0.124 S 
ATOM     74  O   UNL A   1      48.668  26.846  37.285  1.00  0.00    -0.237 OA
ATOM     75  O   UNL A   1      47.273  26.360  39.268  1.00  0.00    -0.237 OA
ATOM     76  O   UNL A   1      47.267  24.814  37.348  1.00  0.00    -0.744 OA
ENDBRANCH  72  73
ENDBRANCH  40  65
ENDBRANCH  14  15
ENDBRANCH   7   9
ENDBRANCH   4   5
ENDBRANCH   3   4
ENDBRANCH   2   3
ENDBRANCH   1   2
BRANCH   1  77
ATOM     77  C   UNL A   1      35.368  29.315  27.693  1.00  0.00     0.021 C 
BRANCH  77  78
ATOM     78  C   UNL A   1      34.282  28.562  26.934  1.00  0.00     0.116 C 
BRANCH  78  79
ATOM     79  N   UNL A   1      34.208  29.050  25.568  1.00  0.00    -0.356 N 
ATOM     80  C   UNL A   1      33.280  28.817  24.605  1.00  0.00     0.224 C 
ATOM     81  H   UNL A   1      34.945  29.643  25.298  1.00  0.00     0.163 HD
ATOM     82  O   UNL A   1      33.505  29.224  23.467  1.00  0.00    -0.275 OA
BRANCH  80  83
ATOM     83  C   UNL A   1      31.966  28.170  25.011  1.00  0.00     0.095 C 
ATOM     84  C   UNL A   1      30.881  29.114  24.470  1.00  0.00     0.041 C 
ATOM     85  C   UNL A   1      31.953  26.706  24.557  1.00  0.00     0.095 C 
ATOM     86  C   UNL A   1      30.116  28.620  23.289  1.00  0.00    -0.030 C 
ATOM     87  C   UNL A   1      31.265  26.404  23.217  1.00  0.00     0.041 C 
ATOM     88  C   UNL A   1      30.291  27.420  22.729  1.00  0.00    -0.030 C 
BRANCH  85  89
ATOM     89  C   UNL A   1      31.721  25.581  25.569  1.00  0.00     0.228 C 
ATOM     90  O   UNL A   1      30.769  25.698  26.361  1.00  0.00    -0.274 OA
ATOM     91  N   UNL A   1      32.362  24.391  25.656  1.00  0.00    -0.325 N 
ATOM     92  H   UNL A   1      31.864  23.743  26.206  1.00  0.00     0.169 HD
BRANCH  91  93
ATOM     93  C   UNL A   1      33.556  23.852  25.159  1.00  0.00     0.054 A 
ATOM     94  C   UNL A   1      34.696  24.606  25.519  1.00  0.00     0.027 A 
ATOM     95  C   UNL A   1      33.728  22.699  24.380  1.00  0.00     0.063 A 
ATOM     96  C   UNL A   1      35.987  24.141  25.281  1.00  0.00     0.002 A 
ATOM     97  C   UNL A   1      35.049  22.223  24.191  1.00  0.00     0.016 A 
ATOM     98  C   UNL A   1      36.165  22.920  24.655  1.00  0.00     0.001 A 
BRANCH  95  99
ATOM     99  C   UNL A   1      32.695  21.900  23.655  1.00  0.00     0.253 C 
ATOM    100  O   UNL A   1      32.141  22.407  22.675  1.00  0.00    -0.269 OA
ATOM    101  N   UNL A   1      32.254  20.664  24.029  1.00  0.00    -0.345 N 
ATOM    102  H   UNL A   1      31.677  20.227  23.362  1.00  0.00     0.164 HD
BRANCH 101 103
ATOM    103  C   UNL A   1      32.474  19.879  25.219  1.00  0.00     0.191 C 
BRANCH 103 104
ATOM    104  C   UNL A   1      32.946  18.529  24.835  1.00  0.00     0.122 A 
ATOM    105  C   UNL A   1      34.016  18.086  24.084  1.00  0.00     0.047 A 
ATOM    106  O   UNL A   1      32.220  17.468  25.286  1.00  0.00    -0.467 OA
ATOM    107  C   UNL A   1      33.943  16.674  24.086  1.00  0.00     0.042 A 
ATOM    108  C   UNL A   1      32.831  16.348  24.826  1.00  0.00     0.195 A 
ENDBRANCH 103 104
ENDBRANCH 101 103
ENDBRANCH  95  99
ENDBRANCH  91  93
ENDBRANCH  85  89
ENDBRANCH  80  83
ENDBRANCH  78  79
ENDBRANCH  77  78
ENDBRANCH   1  77
TORSDOF 21
ENDMDL
MODEL 2
REMARK VINA RESULT:     -11.6      6.507     11.485
REMARK SMILES O=C(NCCCCCCNC(=O)[C@H]1CC=CC[C@@H]1C(=O)Nc1ccccc1C(=O)NCc1ccco1)c1ccc(-c2c3nc(c(-c4c(F)cc(S(=O)(=O)[O-])cc4F)c4ccc([nH]4)c(-c4c(F)cc(S(=O)(=O)[O-])cc4F)c4nc(c(-c5c(F)cc(S(=O)(=O)[O-])cc5F)c5ccc2[nH]5)C=C4)C=C3)cc1
REMARK SMILES IDX 7 1 6 2 5 3 4 4 3 5 1 6 2 7 37 9 38 10 102 11 39 12 101 13
REMARK SMILES IDX 40 14 41 15 42 16 95 17 43 18 100 19 94 20 96 21 44 22 99 23
REMARK SMILES IDX 93 24 92 25 45 27 79 28 58 29 78 30 59 31 62 32 77 33 97 34
REMARK SMILES IDX 60 35 61 36 76 38 98 39 63 40 46 41 47 42 56 43 48 44 49 45
REMARK SMILES IDX 55 46 57 47 50 48 51 49 52 50 53 51 54 52 80 53 81 54 90 55
REMARK SMILES IDX 82 56 83 57 89 58 91 59 84 60 85 61 86 62 87 63 88 64 64 65
REMARK SMILES IDX 65 66 74 67 66 68 67 69 73 70 75 71 68 72 69 73 70 74 71 75
REMARK SMILES IDX 72 76 8 77 9 78 10 79 11 80 12 82 13 83 14 84 18 85 15 86
REMARK SMILES IDX 17 87 16 88 19 89 20 90 21 91 22 93 23 94 27 95 24 96 26 97
REMARK SMILES IDX 25 98 28 99 29 100 30 101 31 103 32 104 33 105 36 106 34 107
REMARK SMILES IDX 35 108
REMARK H PARENT 3 8 96 26 62 37 10 81 21 92 30 102
REMARK Flexibility Score: inf
ROOT
ATOM      1  C   UNL A   1      34.089  27.575  24.915  1.00  0.00     0.002 C 
ENDROOT
BRANCH   1   2
ATOM      2  C   UNL A   1      33.787  28.880  25.659  1.00  0.00     0.002 C 
BRANCH   2   3
ATOM      3  C   UNL A   1      34.011  28.805  27.169  1.00  0.00     0.021 C 
BRANCH   3   4
ATOM      4  C   UNL A   1      35.414  29.204  27.600  1.00  0.00     0.116 C 
BRANCH   4   5
ATOM      5  N   UNL A   1      35.412  29.933  28.860  1.00  0.00    -0.352 N 
ATOM      6  O   UNL A   1      36.257  30.581  30.854  1.00  0.00    -0.269 OA
ATOM      7  C   UNL A   1      36.445  30.091  29.745  1.00  0.00     0.251 C 
ATOM      8  H   UNL A   1      34.563  30.367  29.105  1.00  0.00     0.163 HD
BRANCH   7   9
ATOM      9  C   UNL A   1      37.785  29.633  29.337  1.00  0.00     0.039 A 
ATOM     10  C   UNL A   1      38.661  29.125  30.299  1.00  0.00     0.014 A 
ATOM     11  C   UNL A   1      38.183  29.780  28.008  1.00  0.00     0.014 A 
ATOM     12  C   UNL A   1      39.984  28.891  29.959  1.00  0.00     0.010 A 
ATOM     13  C   UNL A   1      39.491  29.454  27.650  1.00  0.00     0.010 A 
ATOM     14  C   UNL A   1      40.409  29.037  28.629  1.00  0.00    -0.014 A 
BRANCH  14  15
ATOM     15  C   UNL A   1      41.806  28.692  28.277  1.00  0.00     0.031 A 
ATOM     16  C   UNL A   1      42.179  27.299  27.852  1.00  0.00     0.074 A 
ATOM     17  C   UNL A   1      42.734  29.666  28.325  1.00  0.00     0.049 A 
ATOM     18  N   UNL A   1      43.351  26.835  27.500  1.00  0.00    -0.248 NA
ATOM     19  C   UNL A   1      41.105  26.296  27.827  1.00  0.00     0.031 C 
ATOM     20  C   UNL A   1      42.478  31.053  28.730  1.00  0.00     0.029 A 
ATOM     21  N   UNL A   1      44.067  29.655  28.013  1.00  0.00    -0.354 N 
ATOM     22  C   UNL A   1      43.165  25.482  27.244  1.00  0.00     0.074 A 
ATOM     23  C   UNL A   1      41.769  25.195  27.498  1.00  0.00     0.031 C 
ATOM     24  C   UNL A   1      43.601  31.767  28.588  1.00  0.00     0.029 A 
ATOM     25  C   UNL A   1      44.671  30.882  28.149  1.00  0.00     0.049 A 
ATOM     26  H   UNL A   1      44.546  28.847  27.719  1.00  0.00     0.167 HD
ATOM     27  C   UNL A   1      44.078  24.567  26.836  1.00  0.00     0.037 A 
ATOM     28  C   UNL A   1      45.951  31.250  27.956  1.00  0.00     0.037 A 
ATOM     29  C   UNL A   1      45.461  24.875  26.570  1.00  0.00     0.049 A 
ATOM     30  C   UNL A   1      46.941  30.217  27.508  1.00  0.00     0.074 A 
ATOM     31  C   UNL A   1      46.459  24.032  26.114  1.00  0.00     0.029 A 
ATOM     32  N   UNL A   1      46.043  26.124  26.742  1.00  0.00    -0.354 N 
ATOM     33  N   UNL A   1      46.742  28.947  27.245  1.00  0.00    -0.248 NA
ATOM     34  C   UNL A   1      48.327  30.664  27.333  1.00  0.00     0.031 C 
ATOM     35  C   UNL A   1      47.653  24.760  26.053  1.00  0.00     0.029 A 
ATOM     36  C   UNL A   1      47.390  26.070  26.420  1.00  0.00     0.049 A 
ATOM     37  H   UNL A   1      45.569  26.930  27.050  1.00  0.00     0.167 HD
ATOM     38  C   UNL A   1      47.975  28.447  26.846  1.00  0.00     0.074 A 
ATOM     39  C   UNL A   1      48.908  29.555  26.895  1.00  0.00     0.031 C 
ATOM     40  C   UNL A   1      48.303  27.186  26.470  1.00  0.00     0.037 A 
BRANCH  27  41
ATOM     41  C   UNL A   1      43.618  23.142  26.681  1.00  0.00     0.058 A 
ATOM     42  C   UNL A   1      43.320  22.330  27.787  1.00  0.00     0.135 A 
ATOM     43  C   UNL A   1      43.456  22.586  25.401  1.00  0.00     0.135 A 
ATOM     44  F   UNL A   1      43.470  22.804  29.034  1.00  0.00    -0.206 F 
ATOM     45  C   UNL A   1      42.914  21.008  27.631  1.00  0.00     0.059 A 
ATOM     46  C   UNL A   1      43.025  21.274  25.221  1.00  0.00     0.059 A 
ATOM     47  F   UNL A   1      43.724  23.317  24.307  1.00  0.00    -0.206 F 
ATOM     48  C   UNL A   1      42.775  20.488  26.344  1.00  0.00     0.060 A 
BRANCH  48  49
ATOM     49  S   UNL A   1      42.268  18.764  26.156  1.00  0.00     0.124 S 
ATOM     50  O   UNL A   1      40.874  18.915  25.752  1.00  0.00    -0.237 OA
ATOM     51  O   UNL A   1      43.177  18.282  25.121  1.00  0.00    -0.237 OA
ATOM     52  O   UNL A   1      42.481  18.200  27.485  1.00  0.00    -0.744 OA
ENDBRANCH  48  49
ENDBRANCH  27  41
BRANCH  28  53
ATOM     53  C   UNL A   1      46.346  32.666  28.168  1.00  0.00     0.058 A 
ATOM     54  C   UNL A   1      46.809  33.104  29.417  1.00  0.00     0.135 A 
ATOM     55  C   UNL A   1      46.315  33.597  27.117  1.00  0.00     0.135 A 
ATOM     56  F   UNL A   1      46.856  32.250  30.451  1.00  0.00    -0.206 F 
ATOM     57  C   UNL A   1      47.222  34.415  29.621  1.00  0.00     0.059 A 
ATOM     58  C   UNL A   1      46.748  34.907  27.289  1.00  0.00     0.059 A 
ATOM     59  F   UNL A   1      45.900  33.220  25.897  1.00  0.00    -0.206 F 
ATOM     60  C   UNL A   1      47.192  35.308  28.548  1.00  0.00     0.060 A 
BRANCH  60  61
ATOM     61  S   UNL A   1      47.791  36.992  28.807  1.00  0.00     0.124 S 
ATOM     62  O   UNL A   1      47.016  37.733  27.821  1.00  0.00    -0.237 OA
ATOM     63  O   UNL A   1      47.443  37.229  30.205  1.00  0.00    -0.237 OA
ATOM     64  O   UNL A   1      49.221  36.883  28.537  1.00  0.00    -0.744 OA
ENDBRANCH  60  61
ENDBRANCH  28  53
BRANCH  40  65
ATOM     65  C   UNL A   1      49.721  26.953  26.034  1.00  0.00     0.058 A 
ATOM     66  C   UNL A   1      50.103  27.016  24.685  1.00  0.00     0.135 A 
ATOM     67  C   UNL A   1      50.718  26.685  26.987  1.00  0.00     0.135 A 
ATOM     68  F   UNL A   1      49.188  27.259  23.733  1.00  0.00    -0.206 F 
ATOM     69  C   UNL A   1      51.419  26.790  24.292  1.00  0.00     0.059 A 
ATOM     70  C   UNL A   1      52.043  26.484  26.620  1.00  0.00     0.059 A 
ATOM     71  F   UNL A   1      50.405  26.622  28.292  1.00  0.00    -0.206 F 
ATOM     72  C   UNL A   1      52.381  26.524  25.268  1.00  0.00     0.060 A 
BRANCH  72  73
ATOM     73  S   UNL A   1      54.088  26.249  24.751  1.00  0.00     0.124 S 
ATOM     74  O   UNL A   1      54.023  26.585  23.333  1.00  0.00    -0.237 OA
ATOM     75  O   UNL A   1      54.827  27.186  25.593  1.00  0.00    -0.237 OA
ATOM     76  O   UNL A   1      54.310  24.837  25.052  1.00  0.00    -0.744 OA
ENDBRANCH  72  73
ENDBRANCH  40  65
ENDBRANCH  14  15
ENDBRANCH   7   9
ENDBRANCH   4   5
ENDBRANCH   3   4
ENDBRANCH   2   3
ENDBRANCH   1   2
BRANCH   1  77
ATOM     77  C   UNL A   1      33.890  26.311  25.759  1.00  0.00     0.021 C 
BRANCH  77  78
ATOM     78  C   UNL A   1      34.653  25.101  25.234  1.00  0.00     0.116 C 
BRANCH  78  79
ATOM     79  N   UNL A   1      34.651  24.046  26.233  1.00  0.00    -0.356 N 
ATOM     80  C   UNL A   1      34.394  22.720  26.104  1.00  0.00     0.224 C 
ATOM     81  H   UNL A   1      34.872  24.339  27.146  1.00  0.00     0.163 HD
ATOM     82  O   UNL A   1      34.307  22.040  27.125  1.00  0.00    -0.275 OA
BRANCH  80  83
ATOM     83  C   UNL A   1      34.341  22.128  24.705  1.00  0.00     0.095 C 
ATOM     84  C   UNL A   1      35.235  20.880  24.774  1.00  0.00     0.041 C 
ATOM     85  C   UNL A   1      32.880  21.957  24.274  1.00  0.00     0.095 C 
ATOM     86  C   UNL A   1      34.526  19.568  24.752  1.00  0.00    -0.030 C 
ATOM     87  C   UNL A   1      32.254  20.571  24.487  1.00  0.00     0.041 C 
ATOM     88  C   UNL A   1      33.203  19.431  24.631  1.00  0.00    -0.030 C 
BRANCH  85  89
ATOM     89  C   UNL A   1      32.368  22.608  22.986  1.00  0.00     0.228 C 
ATOM     90  O   UNL A   1      32.671  22.072  21.904  1.00  0.00    -0.274 OA
ATOM     91  N   UNL A   1      31.519  23.655  22.860  1.00  0.00    -0.325 N 
ATOM     92  H   UNL A   1      31.139  23.714  21.953  1.00  0.00     0.169 HD
BRANCH  91  93
ATOM     93  C   UNL A   1      31.046  24.674  23.697  1.00  0.00     0.054 A 
ATOM     94  C   UNL A   1      30.596  24.198  24.948  1.00  0.00     0.027 A 
ATOM     95  C   UNL A   1      30.976  26.049  23.432  1.00  0.00     0.063 A 
ATOM     96  C   UNL A   1      30.261  25.067  25.985  1.00  0.00     0.002 A 
ATOM     97  C   UNL A   1      30.677  26.914  24.514  1.00  0.00     0.016 A 
ATOM     98  C   UNL A   1      30.348  26.433  25.781  1.00  0.00     0.001 A 
BRANCH  95  99
ATOM     99  C   UNL A   1      31.125  26.758  22.125  1.00  0.00     0.253 C 
ATOM    100  O   UNL A   1      31.445  26.097  21.132  1.00  0.00    -0.269 OA
ATOM    101  N   UNL A   1      31.006  28.104  21.945  1.00  0.00    -0.345 N 
ATOM    102  H   UNL A   1      30.997  28.382  21.000  1.00  0.00     0.164 HD
BRANCH 101 103
ATOM    103  C   UNL A   1      30.892  29.198  22.879  1.00  0.00     0.191 C 
BRANCH 103 104
ATOM    104  C   UNL A   1      29.651  29.956  22.596  1.00  0.00     0.122 A 
ATOM    105  C   UNL A   1      28.791  30.681  23.396  1.00  0.00     0.047 A 
ATOM    106  O   UNL A   1      29.224  29.983  21.303  1.00  0.00    -0.467 OA
ATOM    107  C   UNL A   1      27.786  31.187  22.538  1.00  0.00     0.042 A 
ATOM    108  C   UNL A   1      28.092  30.730  21.278  1.00  0.00     0.195 A 
ENDBRANCH 103 104
ENDBRANCH 101 103
ENDBRANCH  95  99
ENDBRANCH  91  93
ENDBRANCH  85  89
ENDBRANCH  80  83
ENDBRANCH  78  79
ENDBRANCH  77  78
ENDBRANCH   1  77
TORSDOF 21
ENDMDL
MODEL 3
REMARK VINA RESULT:     -11.6      6.265      9.045
REMARK SMILES O=C(NCCCCCCNC(=O)[C@H]1CC=CC[C@@H]1C(=O)Nc1ccccc1C(=O)NCc1ccco1)c1ccc(-c2c3nc(c(-c4c(F)cc(S(=O)(=O)[O-])cc4F)c4ccc([nH]4)c(-c4c(F)cc(S(=O)(=O)[O-])cc4F)c4nc(c(-c5c(F)cc(S(=O)(=O)[O-])cc5F)c5ccc2[nH]5)C=C4)C=C3)cc1
REMARK SMILES IDX 7 1 6 2 5 3 4 4 3 5 1 6 2 7 37 9 38 10 102 11 39 12 101 13
REMARK SMILES IDX 40 14 41 15 42 16 95 17 43 18 100 19 94 20 96 21 44 22 99 23
REMARK SMILES IDX 93 24 92 25 45 27 79 28 58 29 78 30 59 31 62 32 77 33 97 34
REMARK SMILES IDX 60 35 61 36 76 38 98 39 63 40 46 41 47 42 56 43 48 44 49 45
REMARK SMILES IDX 55 46 57 47 50 48 51 49 52 50 53 51 54 52 80 53 81 54 90 55
REMARK SMILES IDX 82 56 83 57 89 58 91 59 84 60 85 61 86 62 87 63 88 64 64 65
REMARK SMILES IDX 65 66 74 67 66 68 67 69 73 70 75 71 68 72 69 73 70 74 71 75
REMARK SMILES IDX 72 76 8 77 9 78 10 79 11 80 12 82 13 83 14 84 18 85 15 86
REMARK SMILES IDX 17 87 16 88 19 89 20 90 21 91 22 93 23 94 27 95 24 96 26 97
REMARK SMILES IDX 25 98 28 99 29 100 30 101 31 103 32 104 33 105 36 106 34 107
REMARK SMILES IDX 35 108
REMARK H PARENT 3 8 96 26 62 37 10 81 21 92 30 102
REMARK Flexibility Score: inf
ROOT
ATOM      1  C   UNL A   1      34.218  27.493  24.994  1.00  0.00     0.002 C 
ENDROOT
BRANCH   1   2
ATOM      2  C   UNL A   1      33.980  28.793  25.768  1.00  0.00     0.002 C 
BRANCH   2   3
ATOM      3  C   UNL A   1      34.145  28.659  27.281  1.00  0.00     0.021 C 
BRANCH   3   4
ATOM      4  C   UNL A   1      35.439  29.259  27.811  1.00  0.00     0.116 C 
BRANCH   4   5
ATOM      5  N   UNL A   1      35.229  30.010  29.040  1.00  0.00    -0.352 N 
ATOM      6  O   UNL A   1      35.812  30.835  31.063  1.00  0.00    -0.269 OA
ATOM      7  C   UNL A   1      36.156  30.352  29.989  1.00  0.00     0.251 C 
ATOM      8  H   UNL A   1      34.307  30.311  29.209  1.00  0.00     0.163 HD
BRANCH   7   9
ATOM      9  C   UNL A   1      37.577  30.100  29.692  1.00  0.00     0.039 A 
ATOM     10  C   UNL A   1      38.086  30.431  28.433  1.00  0.00     0.014 A 
ATOM     11  C   UNL A   1      38.375  29.470  30.647  1.00  0.00     0.014 A 
ATOM     12  C   UNL A   1      39.358  30.007  28.081  1.00  0.00     0.010 A 
ATOM     13  C   UNL A   1      39.686  29.128  30.319  1.00  0.00     0.010 A 
ATOM     14  C   UNL A   1      40.177  29.366  29.024  1.00  0.00    -0.014 A 
BRANCH  14  15
ATOM     15  C   UNL A   1      41.564  29.006  28.647  1.00  0.00     0.031 A 
ATOM     16  C   UNL A   1      42.678  30.011  28.731  1.00  0.00     0.074 A 
ATOM     17  C   UNL A   1      41.807  27.744  28.246  1.00  0.00     0.049 A 
ATOM     18  N   UNL A   1      43.946  29.855  28.451  1.00  0.00    -0.248 NA
ATOM     19  C   UNL A   1      42.326  31.366  29.178  1.00  0.00     0.031 C 
ATOM     20  C   UNL A   1      40.794  26.690  28.123  1.00  0.00     0.029 A 
ATOM     21  N   UNL A   1      42.974  27.121  27.892  1.00  0.00    -0.354 N 
ATOM     22  C   UNL A   1      44.538  31.095  28.654  1.00  0.00     0.074 A 
ATOM     23  C   UNL A   1      43.485  32.000  29.066  1.00  0.00     0.031 C 
ATOM     24  C   UNL A   1      41.392  25.543  27.777  1.00  0.00     0.029 A 
ATOM     25  C   UNL A   1      42.814  25.792  27.586  1.00  0.00     0.049 A 
ATOM     26  H   UNL A   1      43.843  27.583  27.859  1.00  0.00     0.167 HD
ATOM     27  C   UNL A   1      45.840  31.443  28.509  1.00  0.00     0.037 A 
ATOM     28  C   UNL A   1      43.713  24.875  27.183  1.00  0.00     0.037 A 
ATOM     29  C   UNL A   1      46.878  30.524  28.115  1.00  0.00     0.049 A 
ATOM     30  C   UNL A   1      45.146  25.288  27.027  1.00  0.00     0.074 A 
ATOM     31  C   UNL A   1      48.235  30.764  27.978  1.00  0.00     0.029 A 
ATOM     32  N   UNL A   1      46.676  29.189  27.791  1.00  0.00    -0.354 N 
ATOM     33  N   UNL A   1      45.693  26.459  27.249  1.00  0.00    -0.248 NA
ATOM     34  C   UNL A   1      46.083  24.258  26.564  1.00  0.00     0.031 C 
ATOM     35  C   UNL A   1      48.844  29.587  27.528  1.00  0.00     0.029 A 
ATOM     36  C   UNL A   1      47.878  28.598  27.435  1.00  0.00     0.049 A 
ATOM     37  H   UNL A   1      45.806  28.730  27.809  1.00  0.00     0.167 HD
ATOM     38  C   UNL A   1      47.046  26.301  26.978  1.00  0.00     0.074 A 
ATOM     39  C   UNL A   1      47.233  24.919  26.585  1.00  0.00     0.031 C 
ATOM     40  C   UNL A   1      48.045  27.217  27.052  1.00  0.00     0.037 A 
BRANCH  27  41
ATOM     41  C   UNL A   1      46.209  32.884  28.746  1.00  0.00     0.058 A 
ATOM     42  C   UNL A   1      46.124  33.852  27.733  1.00  0.00     0.135 A 
ATOM     43  C   UNL A   1      46.639  33.304  30.016  1.00  0.00     0.135 A 
ATOM     44  F   UNL A   1      45.733  33.505  26.497  1.00  0.00    -0.206 F 
ATOM     45  C   UNL A   1      46.486  35.176  27.960  1.00  0.00     0.059 A 
ATOM     46  C   UNL A   1      46.980  34.629  30.273  1.00  0.00     0.059 A 
ATOM     47  F   UNL A   1      46.737  32.422  31.023  1.00  0.00    -0.206 F 
ATOM     48  C   UNL A   1      46.919  35.554  29.232  1.00  0.00     0.060 A 
BRANCH  48  49
ATOM     49  S   UNL A   1      47.407  37.271  29.507  1.00  0.00     0.124 S 
ATOM     50  O   UNL A   1      46.273  37.774  30.276  1.00  0.00    -0.237 OA
ATOM     51  O   UNL A   1      48.657  37.126  30.247  1.00  0.00    -0.237 OA
ATOM     52  O   UNL A   1      47.540  37.808  28.157  1.00  0.00    -0.744 OA
ENDBRANCH  48  49
ENDBRANCH  27  41
BRANCH  28  53
ATOM     53  C   UNL A   1      43.273  23.480  26.925  1.00  0.00     0.058 A 
ATOM     54  C   UNL A   1      43.111  23.008  25.615  1.00  0.00     0.135 A 
ATOM     55  C   UNL A   1      43.053  22.579  27.979  1.00  0.00     0.135 A 
ATOM     56  F   UNL A   1      43.310  23.833  24.576  1.00  0.00    -0.206 F 
ATOM     57  C   UNL A   1      42.740  21.694  25.356  1.00  0.00     0.059 A 
ATOM     58  C   UNL A   1      42.707  21.252  27.746  1.00  0.00     0.059 A 
ATOM     59  F   UNL A   1      43.217  22.978  29.250  1.00  0.00    -0.206 F 
ATOM     60  C   UNL A   1      42.545  20.822  26.430  1.00  0.00     0.060 A 
BRANCH  60  61
ATOM     61  S   UNL A   1      42.126  19.101  26.080  1.00  0.00     0.124 S 
ATOM     62  O   UNL A   1      43.028  18.799  24.975  1.00  0.00    -0.237 OA
ATOM     63  O   UNL A   1      42.429  18.447  27.350  1.00  0.00    -0.237 OA
ATOM     64  O   UNL A   1      40.708  19.164  25.741  1.00  0.00    -0.744 OA
ENDBRANCH  60  61
ENDBRANCH  28  53
BRANCH  40  65
ATOM     65  C   UNL A   1      49.434  26.736  26.748  1.00  0.00     0.058 A 
ATOM     66  C   UNL A   1      50.331  26.369  27.762  1.00  0.00     0.135 A 
ATOM     67  C   UNL A   1      49.865  26.619  25.416  1.00  0.00     0.135 A 
ATOM     68  F   UNL A   1      49.972  26.471  29.052  1.00  0.00    -0.206 F 
ATOM     69  C   UNL A   1      51.619  25.931  27.469  1.00  0.00     0.059 A 
ATOM     70  C   UNL A   1      51.137  26.158  25.098  1.00  0.00     0.059 A 
ATOM     71  F   UNL A   1      49.041  26.950  24.408  1.00  0.00    -0.206 F 
ATOM     72  C   UNL A   1      52.013  25.831  26.133  1.00  0.00     0.060 A 
BRANCH  72  73
ATOM     73  S   UNL A   1      53.679  25.247  25.761  1.00  0.00     0.124 S 
ATOM     74  O   UNL A   1      54.222  26.371  25.006  1.00  0.00    -0.237 OA
ATOM     75  O   UNL A   1      54.245  25.042  27.091  1.00  0.00    -0.237 OA
ATOM     76  O   UNL A   1      53.447  24.027  24.992  1.00  0.00    -0.744 OA
ENDBRANCH  72  73
ENDBRANCH  40  65
ENDBRANCH  14  15
ENDBRANCH   7   9
ENDBRANCH   4   5
ENDBRANCH   3   4
ENDBRANCH   2   3
ENDBRANCH   1   2
BRANCH   1  77
ATOM     77  C   UNL A   1      33.983  26.221  25.816  1.00  0.00     0.021 C 
BRANCH  77  78
ATOM     78  C   UNL A   1      34.683  24.991  25.250  1.00  0.00     0.116 C 
BRANCH  78  79
ATOM     79  N   UNL A   1      34.719  23.941  26.252  1.00  0.00    -0.356 N 
ATOM     80  C   UNL A   1      34.477  22.610  26.133  1.00  0.00     0.224 C 
ATOM     81  H   UNL A   1      34.956  24.240  27.159  1.00  0.00     0.163 HD
ATOM     82  O   UNL A   1      34.424  21.933  27.159  1.00  0.00    -0.275 OA
BRANCH  80  83
ATOM     83  C   UNL A   1      34.401  22.012  24.739  1.00  0.00     0.095 C 
ATOM     84  C   UNL A   1      35.276  20.750  24.805  1.00  0.00     0.041 C 
ATOM     85  C   UNL A   1      32.933  21.862  24.324  1.00  0.00     0.095 C 
ATOM     86  C   UNL A   1      34.546  19.449  24.797  1.00  0.00    -0.030 C 
ATOM     87  C   UNL A   1      32.287  20.487  24.550  1.00  0.00     0.041 C 
ATOM     88  C   UNL A   1      33.220  19.333  24.690  1.00  0.00    -0.030 C 
BRANCH  85  89
ATOM     89  C   UNL A   1      32.418  22.515  23.037  1.00  0.00     0.228 C 
ATOM     90  O   UNL A   1      32.724  21.984  21.954  1.00  0.00    -0.274 OA
ATOM     91  N   UNL A   1      31.564  23.558  22.914  1.00  0.00    -0.325 N 
ATOM     92  H   UNL A   1      31.184  23.618  22.008  1.00  0.00     0.169 HD
BRANCH  91  93
ATOM     93  C   UNL A   1      31.086  24.573  23.754  1.00  0.00     0.054 A 
ATOM     94  C   UNL A   1      30.621  24.088  24.998  1.00  0.00     0.027 A 
ATOM     95  C   UNL A   1      31.024  25.950  23.499  1.00  0.00     0.063 A 
ATOM     96  C   UNL A   1      30.279  24.950  26.038  1.00  0.00     0.002 A 
ATOM     97  C   UNL A   1      30.717  26.807  24.585  1.00  0.00     0.016 A 
ATOM     98  C   UNL A   1      30.372  26.317  25.846  1.00  0.00     0.001 A 
BRANCH  95  99
ATOM     99  C   UNL A   1      31.189  26.668  22.200  1.00  0.00     0.253 C 
ATOM    100  O   UNL A   1      31.536  26.017  21.209  1.00  0.00    -0.269 OA
ATOM    101  N   UNL A   1      31.056  28.014  22.025  1.00  0.00    -0.345 N 
ATOM    102  H   UNL A   1      31.062  28.297  21.083  1.00  0.00     0.164 HD
BRANCH 101 103
ATOM    103  C   UNL A   1      30.911  29.101  22.964  1.00  0.00     0.191 C 
BRANCH 103 104
ATOM    104  C   UNL A   1      29.688  29.870  22.636  1.00  0.00     0.122 A 
ATOM    105  C   UNL A   1      28.813  30.613  23.402  1.00  0.00     0.047 A 
ATOM    106  O   UNL A   1      29.300  29.888  21.331  1.00  0.00    -0.467 OA
ATOM    107  C   UNL A   1      27.840  31.121  22.510  1.00  0.00     0.042 A 
ATOM    108  C   UNL A   1      28.179  30.648  21.264  1.00  0.00     0.195 A 
ENDBRANCH 103 104
ENDBRANCH 101 103
ENDBRANCH  95  99
ENDBRANCH  91  93
ENDBRANCH  85  89
ENDBRANCH  80  83
ENDBRANCH  78  79
ENDBRANCH  77  78
ENDBRANCH   1  77
TORSDOF 21
ENDMDL
