MODEL 1
REMARK VINA RESULT:     -11.8      0.000      0.000
REMARK SMILES C[C@@H](C(=O)NCCCCCCNC(=O)c1ccc(-c2c3nc(c(-c4c(F)cc(S(=O)(=O)[O-])cc4F)c4ccc([nH]4)c(-c4c(F)cc(S(=O)(=O)[O-])cc4F)c4nc(c(-c5c(F)cc(S(=O)(=O)[O-])cc5F)c5ccc2[nH]5)C=C4)C=C3)cc1)n1ccc(C(=O)N2CC[NH+](Cc3cccc(F)c3)CC2)n1
REMARK SMILES IDX 8 1 7 2 6 3 5 4 3 5 4 6 2 8 1 9 81 10 82 11 101 12 83 13
REMARK SMILES IDX 84 14 85 15 86 16 87 17 88 18 100 19 89 20 99 21 90 22 91 24
REMARK SMILES IDX 92 25 93 26 98 27 94 28 96 29 95 30 97 31 9 32 10 33 11 34
REMARK SMILES IDX 12 35 13 36 14 38 15 39 16 40 80 41 17 42 79 43 18 44 19 45
REMARK SMILES IDX 20 46 73 47 21 48 78 49 72 50 74 51 22 52 77 53 71 54 70 55
REMARK SMILES IDX 23 57 57 58 36 59 56 60 37 61 40 62 55 63 75 64 38 65 39 66
REMARK SMILES IDX 54 68 76 69 41 70 24 71 25 72 34 73 26 74 27 75 33 76 35 77
REMARK SMILES IDX 28 78 29 79 30 80 31 81 32 82 58 83 59 84 68 85 60 86 61 87
REMARK SMILES IDX 67 88 69 89 62 90 63 91 64 92 65 93 66 94 42 95 43 96 52 97
REMARK SMILES IDX 44 98 45 99 51 100 53 101 46 102 47 103 48 104 49 105 50 106
REMARK H PARENT 5 7 90 23 12 37 74 56 40 67
REMARK Flexibility Score: inf
ROOT
ATOM      1  C   UNL A   1      34.769  32.953  28.132  1.00  0.00     0.002 C 
ENDROOT
BRANCH   1   2
ATOM      2  C   UNL A   1      34.282  31.504  28.283  1.00  0.00     0.021 C 
BRANCH   2   3
ATOM      3  C   UNL A   1      33.300  31.051  27.198  1.00  0.00     0.116 C 
BRANCH   3   4
ATOM      4  N   UNL A   1      32.985  29.645  27.369  1.00  0.00    -0.354 N 
ATOM      5  C   UNL A   1      32.197  28.847  26.580  1.00  0.00     0.244 C 
ATOM      6  O   UNL A   1      31.623  27.908  27.139  1.00  0.00    -0.273 OA
ATOM      7  H   UNL A   1      33.390  29.206  28.152  1.00  0.00     0.163 HD
BRANCH   5   8
ATOM      8  C   UNL A   1      32.017  29.203  25.100  1.00  0.00     0.193 C 
ATOM      9  C   UNL A   1      30.972  30.315  25.001  1.00  0.00     0.044 C 
BRANCH   8  10
ATOM     10  N   UNL A   1      31.674  28.036  24.279  1.00  0.00    -0.260 N 
ATOM     11  C   UNL A   1      30.457  27.747  23.719  1.00  0.00     0.110 A 
ATOM     12  N   UNL A   1      32.631  27.187  23.870  1.00  0.00    -0.167 NA
ATOM     13  C   UNL A   1      30.613  26.545  23.068  1.00  0.00     0.056 A 
ATOM     14  C   UNL A   1      31.974  26.190  23.252  1.00  0.00     0.150 A 
BRANCH  14  15
ATOM     15  C   UNL A   1      32.650  24.975  22.767  1.00  0.00     0.274 C 
ATOM     16  O   UNL A   1      33.100  24.930  21.619  1.00  0.00    -0.267 OA
ATOM     17  N   UNL A   1      32.746  23.874  23.634  1.00  0.00    -0.326 N 
ATOM     18  C   UNL A   1      33.533  22.738  23.178  1.00  0.00     0.181 C 
ATOM     19  C   UNL A   1      31.744  23.592  24.670  1.00  0.00     0.181 C 
ATOM     20  C   UNL A   1      33.972  21.787  24.306  1.00  0.00     0.284 C 
ATOM     21  C   UNL A   1      32.230  22.623  25.763  1.00  0.00     0.284 C 
ATOM     22  N   UNL A   1      32.949  21.431  25.295  1.00  0.00    -0.328 N 
ATOM     23  H   UNL A   1      33.457  21.072  26.103  1.00  0.00     0.348 HD
BRANCH  22  24
ATOM     24  C   UNL A   1      32.139  20.248  25.009  1.00  0.00     0.299 C 
BRANCH  24  25
ATOM     25  C   UNL A   1      32.817  19.061  24.366  1.00  0.00     0.009 A 
ATOM     26  C   UNL A   1      32.517  18.692  23.043  1.00  0.00     0.010 A 
ATOM     27  C   UNL A   1      33.759  18.304  25.075  1.00  0.00     0.048 A 
ATOM     28  C   UNL A   1      33.184  17.629  22.427  1.00  0.00     0.004 A 
ATOM     29  C   UNL A   1      34.423  17.252  24.450  1.00  0.00     0.123 A 
ATOM     30  C   UNL A   1      34.150  16.914  23.131  1.00  0.00     0.039 A 
ATOM     31  F   UNL A   1      35.349  16.563  25.131  1.00  0.00    -0.207 F 
ENDBRANCH  24  25
ENDBRANCH  22  24
ENDBRANCH  14  15
ENDBRANCH   8  10
ENDBRANCH   5   8
ENDBRANCH   3   4
ENDBRANCH   2   3
ENDBRANCH   1   2
BRANCH   1  32
ATOM     32  C   UNL A   1      35.000  33.705  29.446  1.00  0.00     0.002 C 
BRANCH  32  33
ATOM     33  C   UNL A   1      36.443  34.144  29.703  1.00  0.00     0.021 C 
BRANCH  33  34
ATOM     34  C   UNL A   1      37.285  33.166  30.519  1.00  0.00     0.116 C 
BRANCH  34  35
ATOM     35  N   UNL A   1      36.494  32.088  31.085  1.00  0.00    -0.352 N 
ATOM     36  C   UNL A   1      36.749  30.739  31.079  1.00  0.00     0.251 C 
ATOM     37  H   UNL A   1      35.660  32.360  31.532  1.00  0.00     0.163 HD
ATOM     38  O   UNL A   1      35.895  29.950  31.475  1.00  0.00    -0.269 OA
BRANCH  36  39
ATOM     39  C   UNL A   1      38.045  30.235  30.573  1.00  0.00     0.039 A 
ATOM     40  C   UNL A   1      38.251  30.175  29.191  1.00  0.00     0.014 A 
ATOM     41  C   UNL A   1      39.049  29.814  31.451  1.00  0.00     0.014 A 
ATOM     42  C   UNL A   1      39.483  29.749  28.690  1.00  0.00     0.010 A 
ATOM     43  C   UNL A   1      40.292  29.432  30.952  1.00  0.00     0.010 A 
ATOM     44  C   UNL A   1      40.522  29.399  29.568  1.00  0.00    -0.014 A 
BRANCH  44  45
ATOM     45  C   UNL A   1      41.857  28.999  29.055  1.00  0.00     0.031 A 
ATOM     46  C   UNL A   1      42.955  30.018  28.929  1.00  0.00     0.074 A 
ATOM     47  C   UNL A   1      42.060  27.733  28.643  1.00  0.00     0.049 A 
ATOM     48  N   UNL A   1      44.153  29.880  28.424  1.00  0.00    -0.248 NA
ATOM     49  C   UNL A   1      42.657  31.375  29.412  1.00  0.00     0.031 C 
ATOM     50  C   UNL A   1      41.061  26.662  28.675  1.00  0.00     0.029 A 
ATOM     51  N   UNL A   1      43.169  27.137  28.101  1.00  0.00    -0.354 N 
ATOM     52  C   UNL A   1      44.745  31.133  28.506  1.00  0.00     0.074 A 
ATOM     53  C   UNL A   1      43.764  32.027  29.085  1.00  0.00     0.031 C 
ATOM     54  C   UNL A   1      41.609  25.537  28.184  1.00  0.00     0.029 A 
ATOM     55  C   UNL A   1      42.984  25.814  27.781  1.00  0.00     0.049 A 
ATOM     56  H   UNL A   1      44.020  27.612  27.956  1.00  0.00     0.167 HD
ATOM     57  C   UNL A   1      45.997  31.504  28.143  1.00  0.00     0.037 A 
ATOM     58  C   UNL A   1      43.825  24.924  27.220  1.00  0.00     0.037 A 
ATOM     59  C   UNL A   1      46.985  30.611  27.601  1.00  0.00     0.049 A 
ATOM     60  C   UNL A   1      45.222  25.348  26.865  1.00  0.00     0.074 A 
ATOM     61  C   UNL A   1      48.296  30.883  27.251  1.00  0.00     0.029 A 
ATOM     62  N   UNL A   1      46.773  29.266  27.336  1.00  0.00    -0.354 N 
ATOM     63  N   UNL A   1      45.778  26.530  26.986  1.00  0.00    -0.248 NA
ATOM     64  C   UNL A   1      46.108  24.319  26.303  1.00  0.00     0.031 C 
ATOM     65  C   UNL A   1      48.873  29.706  26.758  1.00  0.00     0.029 A 
ATOM     66  C   UNL A   1      47.926  28.696  26.823  1.00  0.00     0.049 A 
ATOM     67  H   UNL A   1      45.926  28.787  27.489  1.00  0.00     0.167 HD
ATOM     68  C   UNL A   1      47.083  26.382  26.531  1.00  0.00     0.074 A 
ATOM     69  C   UNL A   1      47.237  24.997  26.140  1.00  0.00     0.031 C 
ATOM     70  C   UNL A   1      48.064  27.314  26.445  1.00  0.00     0.037 A 
BRANCH  57  71
ATOM     71  C   UNL A   1      46.364  32.949  28.326  1.00  0.00     0.058 A 
ATOM     72  C   UNL A   1      46.925  33.415  29.526  1.00  0.00     0.135 A 
ATOM     73  C   UNL A   1      46.166  33.873  27.290  1.00  0.00     0.135 A 
ATOM     74  F   UNL A   1      47.118  32.571  30.553  1.00  0.00    -0.206 F 
ATOM     75  C   UNL A   1      47.247  34.755  29.703  1.00  0.00     0.059 A 
ATOM     76  C   UNL A   1      46.500  35.216  27.438  1.00  0.00     0.059 A 
ATOM     77  F   UNL A   1      45.631  33.478  26.123  1.00  0.00    -0.206 F 
ATOM     78  C   UNL A   1      47.024  35.651  28.656  1.00  0.00     0.060 A 
BRANCH  78  79
ATOM     79  S   UNL A   1      47.430  37.393  28.897  1.00  0.00     0.124 S 
ATOM     80  O   UNL A   1      47.221  37.926  27.554  1.00  0.00    -0.237 OA
ATOM     81  O   UNL A   1      46.458  37.810  29.902  1.00  0.00    -0.237 OA
ATOM     82  O   UNL A   1      48.816  37.355  29.350  1.00  0.00    -0.744 OA
ENDBRANCH  78  79
ENDBRANCH  57  71
BRANCH  58  83
ATOM     83  C   UNL A   1      43.372  23.531  26.986  1.00  0.00     0.058 A 
ATOM     84  C   UNL A   1      42.925  23.125  25.720  1.00  0.00     0.135 A 
ATOM     85  C   UNL A   1      43.403  22.574  28.011  1.00  0.00     0.135 A 
ATOM     86  F   UNL A   1      42.876  24.010  24.713  1.00  0.00    -0.206 F 
ATOM     87  C   UNL A   1      42.516  21.819  25.478  1.00  0.00     0.059 A 
ATOM     88  C   UNL A   1      43.013  21.257  27.790  1.00  0.00     0.059 A 
ATOM     89  F   UNL A   1      43.839  22.913  29.235  1.00  0.00    -0.206 F 
ATOM     90  C   UNL A   1      42.565  20.890  26.520  1.00  0.00     0.060 A 
BRANCH  90  91
ATOM     91  S   UNL A   1      42.099  19.178  26.186  1.00  0.00     0.124 S 
ATOM     92  O   UNL A   1      42.301  18.561  27.491  1.00  0.00    -0.237 OA
ATOM     93  O   UNL A   1      40.713  19.310  25.749  1.00  0.00    -0.237 OA
ATOM     94  O   UNL A   1      43.039  18.779  25.143  1.00  0.00    -0.744 OA
ENDBRANCH  90  91
ENDBRANCH  58  83
BRANCH  70  95
ATOM     95  C   UNL A   1      49.398  26.858  25.931  1.00  0.00     0.058 A 
ATOM     96  C   UNL A   1      49.779  27.076  24.599  1.00  0.00     0.135 A 
ATOM     97  C   UNL A   1      50.319  26.241  26.791  1.00  0.00     0.135 A 
ATOM     98  F   UNL A   1      48.928  27.657  23.739  1.00  0.00    -0.206 F 
ATOM     99  C   UNL A   1      51.028  26.683  24.130  1.00  0.00     0.059 A 
ATOM    100  C   UNL A   1      51.579  25.853  26.347  1.00  0.00     0.059 A 
ATOM    101  F   UNL A   1      50.001  26.017  28.075  1.00  0.00    -0.206 F 
ATOM    102  C   UNL A   1      51.921  26.070  25.011  1.00  0.00     0.060 A 
BRANCH 102 103
ATOM    103  S   UNL A   1      53.556  25.595  24.409  1.00  0.00     0.124 S 
ATOM    104  O   UNL A   1      54.427  26.378  25.279  1.00  0.00    -0.237 OA
ATOM    105  O   UNL A   1      53.570  24.152  24.631  1.00  0.00    -0.237 OA
ATOM    106  O   UNL A   1      53.530  26.005  23.008  1.00  0.00    -0.744 OA
ENDBRANCH 102 103
ENDBRANCH  70  95
ENDBRANCH  44  45
ENDBRANCH  36  39
ENDBRANCH  34  35
ENDBRANCH  33  34
ENDBRANCH  32  33
ENDBRANCH   1  32
TORSDOF 20
ENDMDL
MODEL 2
REMARK VINA RESULT:     -11.7      1.034      7.953
REMARK SMILES C[C@@H](C(=O)NCCCCCCNC(=O)c1ccc(-c2c3nc(c(-c4c(F)cc(S(=O)(=O)[O-])cc4F)c4ccc([nH]4)c(-c4c(F)cc(S(=O)(=O)[O-])cc4F)c4nc(c(-c5c(F)cc(S(=O)(=O)[O-])cc5F)c5ccc2[nH]5)C=C4)C=C3)cc1)n1ccc(C(=O)N2CC[NH+](Cc3cccc(F)c3)CC2)n1
REMARK SMILES IDX 8 1 7 2 6 3 5 4 3 5 4 6 2 8 1 9 81 10 82 11 101 12 83 13
REMARK SMILES IDX 84 14 85 15 86 16 87 17 88 18 100 19 89 20 99 21 90 22 91 24
REMARK SMILES IDX 92 25 93 26 98 27 94 28 96 29 95 30 97 31 9 32 10 33 11 34
REMARK SMILES IDX 12 35 13 36 14 38 15 39 16 40 80 41 17 42 79 43 18 44 19 45
REMARK SMILES IDX 20 46 73 47 21 48 78 49 72 50 74 51 22 52 77 53 71 54 70 55
REMARK SMILES IDX 23 57 57 58 36 59 56 60 37 61 40 62 55 63 75 64 38 65 39 66
REMARK SMILES IDX 54 68 76 69 41 70 24 71 25 72 34 73 26 74 27 75 33 76 35 77
REMARK SMILES IDX 28 78 29 79 30 80 31 81 32 82 58 83 59 84 68 85 60 86 61 87
REMARK SMILES IDX 67 88 69 89 62 90 63 91 64 92 65 93 66 94 42 95 43 96 52 97
REMARK SMILES IDX 44 98 45 99 51 100 53 101 46 102 47 103 48 104 49 105 50 106
REMARK H PARENT 5 7 90 23 12 37 74 56 40 67
REMARK Flexibility Score: inf
ROOT
ATOM      1  C   UNL A   1      35.090  32.752  28.016  1.00  0.00     0.002 C 
ENDROOT
BRANCH   1   2
ATOM      2  C   UNL A   1      34.700  31.287  28.256  1.00  0.00     0.021 C 
BRANCH   2   3
ATOM      3  C   UNL A   1      33.623  30.754  27.306  1.00  0.00     0.116 C 
BRANCH   3   4
ATOM      4  N   UNL A   1      33.298  29.380  27.641  1.00  0.00    -0.354 N 
ATOM      5  C   UNL A   1      32.577  28.473  26.911  1.00  0.00     0.244 C 
ATOM      6  O   UNL A   1      31.964  27.611  27.546  1.00  0.00    -0.273 OA
ATOM      7  H   UNL A   1      33.643  29.057  28.506  1.00  0.00     0.163 HD
BRANCH   5   8
ATOM      8  C   UNL A   1      32.512  28.624  25.386  1.00  0.00     0.193 C 
ATOM      9  C   UNL A   1      31.069  28.952  25.001  1.00  0.00     0.044 C 
BRANCH   8  10
ATOM     10  N   UNL A   1      33.027  27.443  24.683  1.00  0.00    -0.260 N 
ATOM     11  C   UNL A   1      32.970  27.191  23.337  1.00  0.00     0.110 A 
ATOM     12  N   UNL A   1      33.771  26.533  25.334  1.00  0.00    -0.167 NA
ATOM     13  C   UNL A   1      33.553  25.959  23.155  1.00  0.00     0.056 A 
ATOM     14  C   UNL A   1      33.974  25.546  24.445  1.00  0.00     0.150 A 
BRANCH  14  15
ATOM     15  C   UNL A   1      34.639  24.281  24.802  1.00  0.00     0.274 C 
ATOM     16  O   UNL A   1      35.865  24.241  24.941  1.00  0.00    -0.267 OA
ATOM     17  N   UNL A   1      33.848  23.131  24.957  1.00  0.00    -0.326 N 
ATOM     18  C   UNL A   1      34.512  21.929  25.438  1.00  0.00     0.181 C 
ATOM     19  C   UNL A   1      32.596  22.925  24.216  1.00  0.00     0.181 C 
ATOM     20  C   UNL A   1      33.552  20.869  26.007  1.00  0.00     0.284 C 
ATOM     21  C   UNL A   1      31.683  21.843  24.819  1.00  0.00     0.284 C 
ATOM     22  N   UNL A   1      32.343  20.596  25.224  1.00  0.00    -0.328 N 
ATOM     23  H   UNL A   1      31.698  20.129  25.863  1.00  0.00     0.348 HD
BRANCH  22  24
ATOM     24  C   UNL A   1      32.437  19.545  24.212  1.00  0.00     0.299 C 
BRANCH  24  25
ATOM     25  C   UNL A   1      33.077  18.235  24.604  1.00  0.00     0.009 A 
ATOM     26  C   UNL A   1      34.421  17.969  24.287  1.00  0.00     0.010 A 
ATOM     27  C   UNL A   1      32.346  17.258  25.293  1.00  0.00     0.048 A 
ATOM     28  C   UNL A   1      35.031  16.781  24.699  1.00  0.00     0.004 A 
ATOM     29  C   UNL A   1      32.965  16.081  25.704  1.00  0.00     0.123 A 
ATOM     30  C   UNL A   1      34.303  15.838  25.421  1.00  0.00     0.039 A 
ATOM     31  F   UNL A   1      32.260  15.174  26.395  1.00  0.00    -0.207 F 
ENDBRANCH  24  25
ENDBRANCH  22  24
ENDBRANCH  14  15
ENDBRANCH   8  10
ENDBRANCH   5   8
ENDBRANCH   3   4
ENDBRANCH   2   3
ENDBRANCH   1   2
BRANCH   1  32
ATOM     32  C   UNL A   1      35.373  33.570  29.280  1.00  0.00     0.002 C 
BRANCH  32  33
ATOM     33  C   UNL A   1      36.854  33.792  29.596  1.00  0.00     0.021 C 
BRANCH  33  34
ATOM     34  C   UNL A   1      37.332  33.204  30.922  1.00  0.00     0.116 C 
BRANCH  34  35
ATOM     35  N   UNL A   1      36.550  32.051  31.333  1.00  0.00    -0.352 N 
ATOM     36  C   UNL A   1      36.826  30.717  31.156  1.00  0.00     0.251 C 
ATOM     37  H   UNL A   1      35.708  32.252  31.803  1.00  0.00     0.163 HD
ATOM     38  O   UNL A   1      35.979  29.873  31.436  1.00  0.00    -0.269 OA
BRANCH  36  39
ATOM     39  C   UNL A   1      38.133  30.300  30.604  1.00  0.00     0.039 A 
ATOM     40  C   UNL A   1      38.315  30.319  29.217  1.00  0.00     0.014 A 
ATOM     41  C   UNL A   1      39.172  29.885  31.443  1.00  0.00     0.014 A 
ATOM     42  C   UNL A   1      39.556  29.975  28.676  1.00  0.00     0.010 A 
ATOM     43  C   UNL A   1      40.422  29.586  30.905  1.00  0.00     0.010 A 
ATOM     44  C   UNL A   1      40.627  29.632  29.517  1.00  0.00    -0.014 A 
BRANCH  44  45
ATOM     45  C   UNL A   1      41.968  29.321  28.964  1.00  0.00     0.031 A 
ATOM     46  C   UNL A   1      42.275  27.939  28.457  1.00  0.00     0.074 A 
ATOM     47  C   UNL A   1      42.930  30.263  28.979  1.00  0.00     0.049 A 
ATOM     48  N   UNL A   1      43.408  27.454  28.020  1.00  0.00    -0.248 NA
ATOM     49  C   UNL A   1      41.168  26.971  28.464  1.00  0.00     0.031 C 
ATOM     50  C   UNL A   1      42.769  31.629  29.483  1.00  0.00     0.029 A 
ATOM     51  N   UNL A   1      44.238  30.212  28.571  1.00  0.00    -0.354 N 
ATOM     52  C   UNL A   1      43.160  26.121  27.722  1.00  0.00     0.074 A 
ATOM     53  C   UNL A   1      41.774  25.866  28.053  1.00  0.00     0.031 C 
ATOM     54  C   UNL A   1      43.933  32.287  29.345  1.00  0.00     0.029 A 
ATOM     55  C   UNL A   1      44.924  31.386  28.767  1.00  0.00     0.049 A 
ATOM     56  H   UNL A   1      44.648  29.409  28.174  1.00  0.00     0.167 HD
ATOM     57  C   UNL A   1      44.006  25.196  27.208  1.00  0.00     0.037 A 
ATOM     58  C   UNL A   1      46.210  31.700  28.515  1.00  0.00     0.037 A 
ATOM     59  C   UNL A   1      45.373  25.457  26.845  1.00  0.00     0.049 A 
ATOM     60  C   UNL A   1      47.118  30.670  27.906  1.00  0.00     0.074 A 
ATOM     61  C   UNL A   1      46.293  24.597  26.269  1.00  0.00     0.029 A 
ATOM     62  N   UNL A   1      46.017  26.673  27.015  1.00  0.00    -0.354 N 
ATOM     63  N   UNL A   1      46.854  29.423  27.594  1.00  0.00    -0.248 NA
ATOM     64  C   UNL A   1      48.494  31.088  27.608  1.00  0.00     0.031 C 
ATOM     65  C   UNL A   1      47.499  25.290  26.106  1.00  0.00     0.029 A 
ATOM     66  C   UNL A   1      47.322  26.587  26.561  1.00  0.00     0.049 A 
ATOM     67  H   UNL A   1      45.607  27.480  27.403  1.00  0.00     0.167 HD
ATOM     68  C   UNL A   1      48.027  28.914  27.049  1.00  0.00     0.074 A 
ATOM     69  C   UNL A   1      48.998  29.987  27.065  1.00  0.00     0.031 C 
ATOM     70  C   UNL A   1      48.274  27.667  26.578  1.00  0.00     0.037 A 
BRANCH  57  71
ATOM     71  C   UNL A   1      43.466  23.809  27.007  1.00  0.00     0.058 A 
ATOM     72  C   UNL A   1      43.306  22.924  28.085  1.00  0.00     0.135 A 
ATOM     73  C   UNL A   1      43.095  23.365  25.730  1.00  0.00     0.135 A 
ATOM     74  F   UNL A   1      43.664  23.297  29.324  1.00  0.00    -0.206 F 
ATOM     75  C   UNL A   1      42.824  21.633  27.898  1.00  0.00     0.059 A 
ATOM     76  C   UNL A   1      42.591  22.084  25.521  1.00  0.00     0.059 A 
ATOM     77  F   UNL A   1      43.230  24.173  24.666  1.00  0.00    -0.206 F 
ATOM     78  C   UNL A   1      42.477  21.219  26.610  1.00  0.00     0.060 A 
BRANCH  78  79
ATOM     79  S   UNL A   1      41.866  19.537  26.370  1.00  0.00     0.124 S 
ATOM     80  O   UNL A   1      40.426  19.763  26.287  1.00  0.00    -0.237 OA
ATOM     81  O   UNL A   1      42.518  19.137  25.127  1.00  0.00    -0.237 OA
ATOM     82  O   UNL A   1      42.325  18.839  27.567  1.00  0.00    -0.744 OA
ENDBRANCH  78  79
ENDBRANCH  57  71
BRANCH  58  83
ATOM     83  C   UNL A   1      46.705  33.066  28.816  1.00  0.00     0.058 A 
ATOM     84  C   UNL A   1      47.154  33.398  30.102  1.00  0.00     0.135 A 
ATOM     85  C   UNL A   1      46.764  34.053  27.822  1.00  0.00     0.135 A 
ATOM     86  F   UNL A   1      47.111  32.484  31.084  1.00  0.00    -0.206 F 
ATOM     87  C   UNL A   1      47.641  34.667  30.397  1.00  0.00     0.059 A 
ATOM     88  C   UNL A   1      47.261  35.325  28.088  1.00  0.00     0.059 A 
ATOM     89  F   UNL A   1      46.360  33.775  26.572  1.00  0.00    -0.206 F 
ATOM     90  C   UNL A   1      47.691  35.624  29.381  1.00  0.00     0.060 A 
BRANCH  90  91
ATOM     91  S   UNL A   1      48.387  37.250  29.748  1.00  0.00     0.124 S 
ATOM     92  O   UNL A   1      49.389  36.918  30.754  1.00  0.00    -0.237 OA
ATOM     93  O   UNL A   1      48.901  37.671  28.449  1.00  0.00    -0.237 OA
ATOM     94  O   UNL A   1      47.231  38.002  30.228  1.00  0.00    -0.744 OA
ENDBRANCH  90  91
ENDBRANCH  58  83
BRANCH  70  95
ATOM     95  C   UNL A   1      49.641  27.405  26.019  1.00  0.00     0.058 A 
ATOM     96  C   UNL A   1      50.719  27.076  26.854  1.00  0.00     0.135 A 
ATOM     97  C   UNL A   1      49.862  27.436  24.634  1.00  0.00     0.135 A 
ATOM     98  F   UNL A   1      50.556  27.040  28.186  1.00  0.00    -0.206 F 
ATOM     99  C   UNL A   1      51.980  26.801  26.334  1.00  0.00     0.059 A 
ATOM    100  C   UNL A   1      51.111  27.150  24.091  1.00  0.00     0.059 A 
ATOM    101  F   UNL A   1      48.859  27.740  23.795  1.00  0.00    -0.206 F 
ATOM    102  C   UNL A   1      52.166  26.842  24.950  1.00  0.00     0.060 A 
BRANCH 102 103
ATOM    103  S   UNL A   1      53.794  26.448  24.277  1.00  0.00     0.124 S 
ATOM    104  O   UNL A   1      54.036  27.594  23.407  1.00  0.00    -0.237 OA
ATOM    105  O   UNL A   1      54.625  26.375  25.474  1.00  0.00    -0.237 OA
ATOM    106  O   UNL A   1      53.576  25.174  23.596  1.00  0.00    -0.744 OA
ENDBRANCH 102 103
ENDBRANCH  70  95
ENDBRANCH  44  45
ENDBRANCH  36  39
ENDBRANCH  34  35
ENDBRANCH  33  34
ENDBRANCH  32  33
ENDBRANCH   1  32
TORSDOF 20
ENDMDL
MODEL 3
REMARK VINA RESULT:     -11.4      6.148     12.232
REMARK SMILES C[C@@H](C(=O)NCCCCCCNC(=O)c1ccc(-c2c3nc(c(-c4c(F)cc(S(=O)(=O)[O-])cc4F)c4ccc([nH]4)c(-c4c(F)cc(S(=O)(=O)[O-])cc4F)c4nc(c(-c5c(F)cc(S(=O)(=O)[O-])cc5F)c5ccc2[nH]5)C=C4)C=C3)cc1)n1ccc(C(=O)N2CC[NH+](Cc3cccc(F)c3)CC2)n1
REMARK SMILES IDX 8 1 7 2 6 3 5 4 3 5 4 6 2 8 1 9 81 10 82 11 101 12 83 13
REMARK SMILES IDX 84 14 85 15 86 16 87 17 88 18 100 19 89 20 99 21 90 22 91 24
REMARK SMILES IDX 92 25 93 26 98 27 94 28 96 29 95 30 97 31 9 32 10 33 11 34
REMARK SMILES IDX 12 35 13 36 14 38 15 39 16 40 80 41 17 42 79 43 18 44 19 45
REMARK SMILES IDX 20 46 73 47 21 48 78 49 72 50 74 51 22 52 77 53 71 54 70 55
REMARK SMILES IDX 23 57 57 58 36 59 56 60 37 61 40 62 55 63 75 64 38 65 39 66
REMARK SMILES IDX 54 68 76 69 41 70 24 71 25 72 34 73 26 74 27 75 33 76 35 77
REMARK SMILES IDX 28 78 29 79 30 80 31 81 32 82 58 83 59 84 68 85 60 86 61 87
REMARK SMILES IDX 67 88 69 89 62 90 63 91 64 92 65 93 66 94 42 95 43 96 52 97
REMARK SMILES IDX 44 98 45 99 51 100 53 101 46 102 47 103 48 104 49 105 50 106
REMARK H PARENT 5 7 90 23 12 37 74 56 40 67
REMARK Flexibility Score: inf
ROOT
ATOM      1  C   UNL A   1      47.017  25.604  26.514  1.00  0.00     0.002 C 
ENDROOT
BRANCH   1   2
ATOM      2  C   UNL A   1      46.611  24.132  26.671  1.00  0.00     0.021 C 
BRANCH   2   3
ATOM      3  C   UNL A   1      45.098  23.890  26.681  1.00  0.00     0.116 C 
BRANCH   3   4
ATOM      4  N   UNL A   1      44.655  23.453  25.370  1.00  0.00    -0.354 N 
ATOM      5  C   UNL A   1      44.238  22.206  24.985  1.00  0.00     0.244 C 
ATOM      6  O   UNL A   1      44.428  21.897  23.805  1.00  0.00    -0.273 OA
ATOM      7  H   UNL A   1      44.652  24.142  24.667  1.00  0.00     0.163 HD
BRANCH   5   8
ATOM      8  C   UNL A   1      43.643  21.259  26.034  1.00  0.00     0.193 C 
ATOM      9  C   UNL A   1      43.266  19.951  25.336  1.00  0.00     0.044 C 
BRANCH   8  10
ATOM     10  N   UNL A   1      42.512  21.857  26.753  1.00  0.00    -0.260 N 
ATOM     11  C   UNL A   1      42.324  21.901  28.110  1.00  0.00     0.110 A 
ATOM     12  N   UNL A   1      41.593  22.583  26.094  1.00  0.00    -0.167 NA
ATOM     13  C   UNL A   1      41.119  22.533  28.307  1.00  0.00     0.056 A 
ATOM     14  C   UNL A   1      40.656  22.877  27.012  1.00  0.00     0.150 A 
BRANCH  14  15
ATOM     15  C   UNL A   1      39.395  23.555  26.668  1.00  0.00     0.274 C 
ATOM     16  O   UNL A   1      39.192  24.716  27.036  1.00  0.00    -0.267 OA
ATOM     17  N   UNL A   1      38.431  22.842  25.937  1.00  0.00    -0.326 N 
ATOM     18  C   UNL A   1      37.254  23.576  25.498  1.00  0.00     0.181 C 
ATOM     19  C   UNL A   1      38.284  21.383  26.032  1.00  0.00     0.181 C 
ATOM     20  C   UNL A   1      36.482  22.895  24.354  1.00  0.00     0.284 C 
ATOM     21  C   UNL A   1      37.490  20.757  24.872  1.00  0.00     0.284 C 
ATOM     22  N   UNL A   1      36.255  21.452  24.487  1.00  0.00    -0.328 N 
ATOM     23  H   UNL A   1      36.023  21.120  23.551  1.00  0.00     0.348 HD
BRANCH  22  24
ATOM     24  C   UNL A   1      35.031  21.038  25.170  1.00  0.00     0.299 C 
BRANCH  24  25
ATOM     25  C   UNL A   1      34.185  19.966  24.524  1.00  0.00     0.009 A 
ATOM     26  C   UNL A   1      32.955  20.287  23.922  1.00  0.00     0.010 A 
ATOM     27  C   UNL A   1      34.608  18.630  24.510  1.00  0.00     0.048 A 
ATOM     28  C   UNL A   1      32.198  19.307  23.275  1.00  0.00     0.004 A 
ATOM     29  C   UNL A   1      33.850  17.663  23.856  1.00  0.00     0.123 A 
ATOM     30  C   UNL A   1      32.654  17.991  23.231  1.00  0.00     0.039 A 
ATOM     31  F   UNL A   1      34.290  16.398  23.820  1.00  0.00    -0.207 F 
ENDBRANCH  24  25
ENDBRANCH  22  24
ENDBRANCH  14  15
ENDBRANCH   8  10
ENDBRANCH   5   8
ENDBRANCH   3   4
ENDBRANCH   2   3
ENDBRANCH   1   2
BRANCH   1  32
ATOM     32  C   UNL A   1      47.373  26.036  25.089  1.00  0.00     0.002 C 
BRANCH  32  33
ATOM     33  C   UNL A   1      46.666  27.300  24.594  1.00  0.00     0.021 C 
BRANCH  33  34
ATOM     34  C   UNL A   1      45.381  27.659  25.335  1.00  0.00     0.116 C 
BRANCH  34  35
ATOM     35  N   UNL A   1      44.239  26.886  24.877  1.00  0.00    -0.352 N 
ATOM     36  C   UNL A   1      43.070  26.604  25.538  1.00  0.00     0.251 C 
ATOM     37  H   UNL A   1      44.315  26.512  23.969  1.00  0.00     0.163 HD
ATOM     38  O   UNL A   1      42.269  25.807  25.057  1.00  0.00    -0.269 OA
BRANCH  36  39
ATOM     39  C   UNL A   1      42.787  27.242  26.843  1.00  0.00     0.039 A 
ATOM     40  C   UNL A   1      43.130  28.585  27.025  1.00  0.00     0.014 A 
ATOM     41  C   UNL A   1      42.197  26.520  27.886  1.00  0.00     0.014 A 
ATOM     42  C   UNL A   1      42.828  29.222  28.231  1.00  0.00     0.010 A 
ATOM     43  C   UNL A   1      41.856  27.168  29.072  1.00  0.00     0.010 A 
ATOM     44  C   UNL A   1      42.165  28.525  29.254  1.00  0.00    -0.014 A 
BRANCH  44  45
ATOM     45  C   UNL A   1      41.785  29.199  30.520  1.00  0.00     0.031 A 
ATOM     46  C   UNL A   1      40.551  30.056  30.580  1.00  0.00     0.074 A 
ATOM     47  C   UNL A   1      42.587  29.095  31.597  1.00  0.00     0.049 A 
ATOM     48  N   UNL A   1      40.106  30.792  31.564  1.00  0.00    -0.248 NA
ATOM     49  C   UNL A   1      39.724  30.110  29.365  1.00  0.00     0.031 C 
ATOM     50  C   UNL A   1      43.833  28.328  31.653  1.00  0.00     0.029 A 
ATOM     51  N   UNL A   1      42.480  29.646  32.848  1.00  0.00    -0.354 N 
ATOM     52  C   UNL A   1      38.961  31.414  31.085  1.00  0.00     0.074 A 
ATOM     53  C   UNL A   1      38.795  30.990  29.710  1.00  0.00     0.031 C 
ATOM     54  C   UNL A   1      44.369  28.451  32.880  1.00  0.00     0.029 A 
ATOM     55  C   UNL A   1      43.519  29.322  33.685  1.00  0.00     0.049 A 
ATOM     56  H   UNL A   1      41.728  30.221  33.121  1.00  0.00     0.167 HD
ATOM     57  C   UNL A   1      38.117  32.253  31.733  1.00  0.00     0.037 A 
ATOM     58  C   UNL A   1      43.765  29.690  34.958  1.00  0.00     0.037 A 
ATOM     59  C   UNL A   1      38.260  32.647  33.109  1.00  0.00     0.049 A 
ATOM     60  C   UNL A   1      42.793  30.587  35.669  1.00  0.00     0.074 A 
ATOM     61  C   UNL A   1      37.428  33.452  33.867  1.00  0.00     0.029 A 
ATOM     62  N   UNL A   1      39.302  32.258  33.937  1.00  0.00    -0.354 N 
ATOM     63  N   UNL A   1      41.693  31.135  35.210  1.00  0.00    -0.248 NA
ATOM     64  C   UNL A   1      43.090  30.912  37.071  1.00  0.00     0.031 C 
ATOM     65  C   UNL A   1      37.976  33.563  35.151  1.00  0.00     0.029 A 
ATOM     66  C   UNL A   1      39.137  32.809  35.197  1.00  0.00     0.049 A 
ATOM     67  H   UNL A   1      40.050  31.676  33.669  1.00  0.00     0.167 HD
ATOM     68  C   UNL A   1      41.159  31.856  36.272  1.00  0.00     0.074 A 
ATOM     69  C   UNL A   1      42.050  31.669  37.398  1.00  0.00     0.031 C 
ATOM     70  C   UNL A   1      40.031  32.606  36.308  1.00  0.00     0.037 A 
BRANCH  57  71
ATOM     71  C   UNL A   1      36.957  32.799  30.950  1.00  0.00     0.058 A 
ATOM     72  C   UNL A   1      35.692  32.193  30.998  1.00  0.00     0.135 A 
ATOM     73  C   UNL A   1      37.109  33.945  30.156  1.00  0.00     0.135 A 
ATOM     74  F   UNL A   1      35.502  31.085  31.732  1.00  0.00    -0.206 F 
ATOM     75  C   UNL A   1      34.623  32.688  30.259  1.00  0.00     0.059 A 
ATOM     76  C   UNL A   1      36.048  34.469  29.422  1.00  0.00     0.059 A 
ATOM     77  F   UNL A   1      38.300  34.560  30.074  1.00  0.00    -0.206 F 
ATOM     78  C   UNL A   1      34.813  33.822  29.467  1.00  0.00     0.060 A 
BRANCH  78  79
ATOM     79  S   UNL A   1      33.426  34.450  28.498  1.00  0.00     0.124 S 
ATOM     80  O   UNL A   1      32.540  34.942  29.548  1.00  0.00    -0.237 OA
ATOM     81  O   UNL A   1      34.055  35.473  27.669  1.00  0.00    -0.237 OA
ATOM     82  O   UNL A   1      32.956  33.270  27.780  1.00  0.00    -0.744 OA
ENDBRANCH  78  79
ENDBRANCH  57  71
BRANCH  58  83
ATOM     83  C   UNL A   1      44.976  29.182  35.649  1.00  0.00     0.058 A 
ATOM     84  C   UNL A   1      46.184  29.893  35.593  1.00  0.00     0.135 A 
ATOM     85  C   UNL A   1      44.943  27.998  36.398  1.00  0.00     0.135 A 
ATOM     86  F   UNL A   1      46.260  31.029  34.883  1.00  0.00    -0.206 F 
ATOM     87  C   UNL A   1      47.323  29.443  36.251  1.00  0.00     0.059 A 
ATOM     88  C   UNL A   1      46.065  27.534  37.078  1.00  0.00     0.059 A 
ATOM     89  F   UNL A   1      43.804  27.293  36.493  1.00  0.00    -0.206 F 
ATOM     90  C   UNL A   1      47.253  28.262  36.993  1.00  0.00     0.060 A 
BRANCH  90  91
ATOM     91  S   UNL A   1      48.713  27.715  37.903  1.00  0.00     0.124 S 
ATOM     92  O   UNL A   1      49.340  26.818  36.940  1.00  0.00    -0.237 OA
ATOM     93  O   UNL A   1      49.413  28.971  38.156  1.00  0.00    -0.237 OA
ATOM     94  O   UNL A   1      48.144  27.077  39.087  1.00  0.00    -0.744 OA
ENDBRANCH  90  91
ENDBRANCH  58  83
BRANCH  70  95
ATOM     95  C   UNL A   1      39.684  33.260  37.613  1.00  0.00     0.058 A 
ATOM     96  C   UNL A   1      40.307  34.448  38.022  1.00  0.00     0.135 A 
ATOM     97  C   UNL A   1      38.686  32.718  38.438  1.00  0.00     0.135 A 
ATOM     98  F   UNL A   1      41.272  34.999  37.269  1.00  0.00    -0.206 F 
ATOM     99  C   UNL A   1      39.963  35.071  39.217  1.00  0.00     0.059 A 
ATOM    100  C   UNL A   1      38.316  33.333  39.630  1.00  0.00     0.059 A 
ATOM    101  F   UNL A   1      38.058  31.585  38.085  1.00  0.00    -0.206 F 
ATOM    102  C   UNL A   1      38.967  34.505  40.016  1.00  0.00     0.060 A 
BRANCH 102 103
ATOM    103  S   UNL A   1      38.496  35.337  41.547  1.00  0.00     0.124 S 
ATOM    104  O   UNL A   1      38.629  36.740  41.170  1.00  0.00    -0.237 OA
ATOM    105  O   UNL A   1      37.132  34.865  41.760  1.00  0.00    -0.237 OA
ATOM    106  O   UNL A   1      39.478  34.848  42.511  1.00  0.00    -0.744 OA
ENDBRANCH 102 103
ENDBRANCH  70  95
ENDBRANCH  44  45
ENDBRANCH  36  39
ENDBRANCH  34  35
ENDBRANCH  33  34
ENDBRANCH  32  33
ENDBRANCH   1  32
TORSDOF 20
ENDMDL
