MODEL 1
REMARK VINA RESULT:     -12.3      0.000      0.000
REMARK SMILES O=C(NCCCCCCNC(=O)c1cc(=O)[nH]c2ccc(C(F)(F)F)cc12)c1ccc(-c2c3nc(c(-c4c(F)cc(S(=O)(=O)[O-])cc4F)c4ccc([nH]4)c(-c4c(F)cc(S(=O)(=O)[O-])cc4F)c4nc(c(-c5c(F)cc(S(=O)(=O)[O-])cc5F)c5ccc2[nH]5)C=C4)C=C3)cc1
REMARK SMILES IDX 5 1 4 2 3 3 1 4 2 5 28 7 29 8 93 9 30 10 92 11 31 12 32 13
REMARK SMILES IDX 33 14 86 15 34 16 91 17 85 18 87 19 35 20 90 21 84 22 83 23
REMARK SMILES IDX 36 25 70 26 49 27 69 28 50 29 53 30 68 31 88 32 51 33 52 34
REMARK SMILES IDX 67 36 89 37 54 38 37 39 38 40 47 41 39 42 40 43 46 44 48 45
REMARK SMILES IDX 41 46 42 47 43 48 44 49 45 50 71 51 72 52 81 53 73 54 74 55
REMARK SMILES IDX 80 56 82 57 75 58 76 59 77 60 78 61 79 62 55 63 56 64 65 65
REMARK SMILES IDX 57 66 58 67 64 68 66 69 59 70 60 71 61 72 62 73 63 74 6 75
REMARK SMILES IDX 7 76 8 77 9 78 10 79 11 80 12 82 13 83 14 84 27 85 15 86
REMARK SMILES IDX 18 87 26 88 16 89 17 90 19 91 21 92 20 94 22 95 23 96 24 97
REMARK SMILES IDX 25 98
REMARK H PARENT 3 6 87 24 53 35 10 81 17 93
REMARK Flexibility Score: inf
ROOT
ATOM      1  C   UNL A   1      40.481  22.107  27.605  1.00  0.00     0.021 C 
ENDROOT
BRANCH   1   2
ATOM      2  C   UNL A   1      41.744  22.958  27.569  1.00  0.00     0.116 C 
BRANCH   2   3
ATOM      3  N   UNL A   1      41.853  23.749  26.354  1.00  0.00    -0.352 N 
ATOM      4  O   UNL A   1      41.666  25.574  25.046  1.00  0.00    -0.269 OA
ATOM      5  C   UNL A   1      41.684  25.101  26.179  1.00  0.00     0.251 C 
ATOM      6  H   UNL A   1      42.082  23.243  25.540  1.00  0.00     0.163 HD
BRANCH   5   7
ATOM      7  C   UNL A   1      41.497  25.982  27.355  1.00  0.00     0.039 A 
ATOM      8  C   UNL A   1      40.389  25.834  28.193  1.00  0.00     0.014 A 
ATOM      9  C   UNL A   1      42.454  26.963  27.626  1.00  0.00     0.014 A 
ATOM     10  C   UNL A   1      40.172  26.746  29.222  1.00  0.00     0.010 A 
ATOM     11  C   UNL A   1      42.272  27.832  28.707  1.00  0.00     0.010 A 
ATOM     12  C   UNL A   1      41.116  27.749  29.498  1.00  0.00    -0.014 A 
BRANCH  12  13
ATOM     13  C   UNL A   1      40.904  28.661  30.651  1.00  0.00     0.031 A 
ATOM     14  C   UNL A   1      41.752  28.559  31.888  1.00  0.00     0.074 A 
ATOM     15  C   UNL A   1      39.938  29.595  30.567  1.00  0.00     0.049 A 
ATOM     16  N   UNL A   1      41.693  29.269  32.986  1.00  0.00    -0.248 NA
ATOM     17  C   UNL A   1      42.796  27.523  31.900  1.00  0.00     0.031 C 
ATOM     18  C   UNL A   1      39.043  29.781  29.421  1.00  0.00     0.029 A 
ATOM     19  N   UNL A   1      39.549  30.569  31.451  1.00  0.00    -0.354 N 
ATOM     20  C   UNL A   1      42.677  28.758  33.826  1.00  0.00     0.074 A 
ATOM     21  C   UNL A   1      43.302  27.661  33.118  1.00  0.00     0.031 C 
ATOM     22  C   UNL A   1      38.234  30.824  29.658  1.00  0.00     0.029 A 
ATOM     23  C   UNL A   1      38.512  31.345  30.993  1.00  0.00     0.049 A 
ATOM     24  H   UNL A   1      39.972  30.699  32.331  1.00  0.00     0.167 HD
ATOM     25  C   UNL A   1      43.026  29.171  35.069  1.00  0.00     0.037 A 
ATOM     26  C   UNL A   1      37.843  32.353  31.583  1.00  0.00     0.037 A 
ATOM     27  C   UNL A   1      42.405  30.273  35.760  1.00  0.00     0.049 A 
ATOM     28  C   UNL A   1      38.239  32.781  32.966  1.00  0.00     0.074 A 
ATOM     29  C   UNL A   1      42.711  30.789  37.009  1.00  0.00     0.029 A 
ATOM     30  N   UNL A   1      41.347  31.024  35.268  1.00  0.00    -0.354 N 
ATOM     31  N   UNL A   1      39.191  32.304  33.733  1.00  0.00    -0.248 NA
ATOM     32  C   UNL A   1      37.472  33.880  33.566  1.00  0.00     0.031 C 
ATOM     33  C   UNL A   1      41.814  31.827  37.286  1.00  0.00     0.029 A 
ATOM     34  C   UNL A   1      40.977  31.987  36.194  1.00  0.00     0.049 A 
ATOM     35  H   UNL A   1      40.923  30.894  34.390  1.00  0.00     0.167 HD
ATOM     36  C   UNL A   1      39.147  33.055  34.901  1.00  0.00     0.074 A 
ATOM     37  C   UNL A   1      38.085  34.027  34.733  1.00  0.00     0.031 C 
ATOM     38  C   UNL A   1      39.917  32.948  36.012  1.00  0.00     0.037 A 
BRANCH  25  39
ATOM     39  C   UNL A   1      44.122  28.418  35.772  1.00  0.00     0.058 A 
ATOM     40  C   UNL A   1      45.475  28.750  35.601  1.00  0.00     0.135 A 
ATOM     41  C   UNL A   1      43.813  27.373  36.659  1.00  0.00     0.135 A 
ATOM     42  F   UNL A   1      45.829  29.731  34.757  1.00  0.00    -0.206 F 
ATOM     43  C   UNL A   1      46.485  28.054  36.261  1.00  0.00     0.059 A 
ATOM     44  C   UNL A   1      44.805  26.679  37.347  1.00  0.00     0.059 A 
ATOM     45  F   UNL A   1      42.535  27.015  36.863  1.00  0.00    -0.206 F 
ATOM     46  C   UNL A   1      46.139  27.016  37.128  1.00  0.00     0.060 A 
BRANCH  46  47
ATOM     47  S   UNL A   1      47.459  26.116  37.970  1.00  0.00     0.124 S 
ATOM     48  O   UNL A   1      48.351  27.206  38.356  1.00  0.00    -0.237 OA
ATOM     49  O   UNL A   1      46.747  25.465  39.065  1.00  0.00    -0.237 OA
ATOM     50  O   UNL A   1      47.973  25.221  36.939  1.00  0.00    -0.744 OA
ENDBRANCH  46  47
ENDBRANCH  25  39
BRANCH  26  51
ATOM     51  C   UNL A   1      36.730  33.017  30.857  1.00  0.00     0.058 A 
ATOM     52  C   UNL A   1      35.398  32.817  31.240  1.00  0.00     0.135 A 
ATOM     53  C   UNL A   1      36.983  33.901  29.796  1.00  0.00     0.135 A 
ATOM     54  F   UNL A   1      35.106  31.977  32.245  1.00  0.00    -0.206 F 
ATOM     55  C   UNL A   1      34.350  33.467  30.595  1.00  0.00     0.059 A 
ATOM     56  C   UNL A   1      35.956  34.582  29.152  1.00  0.00     0.059 A 
ATOM     57  F   UNL A   1      38.245  34.139  29.404  1.00  0.00    -0.206 F 
ATOM     58  C   UNL A   1      34.641  34.352  29.555  1.00  0.00     0.060 A 
BRANCH  58  59
ATOM     59  S   UNL A   1      33.282  35.246  28.771  1.00  0.00     0.124 S 
ATOM     60  O   UNL A   1      34.002  36.241  27.984  1.00  0.00    -0.237 OA
ATOM     61  O   UNL A   1      32.617  34.192  28.011  1.00  0.00    -0.237 OA
ATOM     62  O   UNL A   1      32.523  35.764  29.905  1.00  0.00    -0.744 OA
ENDBRANCH  58  59
ENDBRANCH  26  51
BRANCH  38  63
ATOM     63  C   UNL A   1      39.655  33.924  37.124  1.00  0.00     0.058 A 
ATOM     64  C   UNL A   1      38.840  33.593  38.217  1.00  0.00     0.135 A 
ATOM     65  C   UNL A   1      40.261  35.191  37.114  1.00  0.00     0.135 A 
ATOM     66  F   UNL A   1      38.231  32.399  38.269  1.00  0.00    -0.206 F 
ATOM     67  C   UNL A   1      38.617  34.494  39.254  1.00  0.00     0.059 A 
ATOM     68  C   UNL A   1      40.071  36.098  38.152  1.00  0.00     0.059 A 
ATOM     69  F   UNL A   1      41.055  35.553  36.094  1.00  0.00    -0.206 F 
ATOM     70  C   UNL A   1      39.238  35.744  39.212  1.00  0.00     0.060 A 
BRANCH  70  71
ATOM     71  S   UNL A   1      38.967  36.893  40.579  1.00  0.00     0.124 S 
ATOM     72  O   UNL A   1      40.336  37.220  40.963  1.00  0.00    -0.237 OA
ATOM     73  O   UNL A   1      38.213  37.968  39.939  1.00  0.00    -0.237 OA
ATOM     74  O   UNL A   1      38.214  36.098  41.544  1.00  0.00    -0.744 OA
ENDBRANCH  70  71
ENDBRANCH  38  63
ENDBRANCH  12  13
ENDBRANCH   5   7
ENDBRANCH   2   3
ENDBRANCH   1   2
BRANCH   1  75
ATOM     75  C   UNL A   1      39.626  22.151  26.338  1.00  0.00     0.002 C 
BRANCH  75  76
ATOM     76  C   UNL A   1      38.357  23.004  26.421  1.00  0.00     0.002 C 
BRANCH  76  77
ATOM     77  C   UNL A   1      37.336  22.801  25.295  1.00  0.00     0.021 C 
BRANCH  77  78
ATOM     78  C   UNL A   1      36.539  21.499  25.355  1.00  0.00     0.116 C 
BRANCH  78  79
ATOM     79  N   UNL A   1      35.636  21.457  26.495  1.00  0.00    -0.352 N 
ATOM     80  C   UNL A   1      34.279  21.572  26.541  1.00  0.00     0.252 C 
ATOM     81  H   UNL A   1      36.073  21.325  27.366  1.00  0.00     0.163 HD
ATOM     82  O   UNL A   1      33.704  21.603  27.627  1.00  0.00    -0.269 OA
BRANCH  80  83
ATOM     83  C   UNL A   1      33.516  21.690  25.273  1.00  0.00     0.054 A 
ATOM     84  C   UNL A   1      33.209  22.934  24.870  1.00  0.00     0.086 A 
ATOM     85  C   UNL A   1      33.197  20.535  24.415  1.00  0.00     0.012 A 
ATOM     86  C   UNL A   1      32.450  23.170  23.626  1.00  0.00     0.249 A 
ATOM     87  C   UNL A   1      32.483  20.766  23.229  1.00  0.00     0.049 A 
ATOM     88  C   UNL A   1      33.572  19.220  24.724  1.00  0.00     0.024 A 
ATOM     89  O   UNL A   1      32.134  24.306  23.292  1.00  0.00    -0.270 OA
ATOM     90  N   UNL A   1      32.119  22.073  22.885  1.00  0.00    -0.322 N 
ATOM     91  C   UNL A   1      32.140  19.717  22.376  1.00  0.00     0.027 A 
ATOM     92  C   UNL A   1      33.252  18.152  23.864  1.00  0.00     0.056 A 
ATOM     93  H   UNL A   1      31.596  22.208  22.062  1.00  0.00     0.170 HD
ATOM     94  C   UNL A   1      32.526  18.415  22.693  1.00  0.00     0.015 A 
BRANCH  92  95
ATOM     95  C   UNL A   1      33.697  16.750  24.209  1.00  0.00     0.416 C 
ATOM     96  F   UNL A   1      32.705  16.012  24.780  1.00  0.00    -0.166 F 
ATOM     97  F   UNL A   1      34.106  16.049  23.116  1.00  0.00    -0.166 F 
ATOM     98  F   UNL A   1      34.738  16.713  25.087  1.00  0.00    -0.166 F 
ENDBRANCH  92  95
ENDBRANCH  80  83
ENDBRANCH  78  79
ENDBRANCH  77  78
ENDBRANCH  76  77
ENDBRANCH  75  76
ENDBRANCH   1  75
TORSDOF 17
ENDMDL
MODEL 2
REMARK VINA RESULT:     -12.3      2.602      3.565
REMARK SMILES O=C(NCCCCCCNC(=O)c1cc(=O)[nH]c2ccc(C(F)(F)F)cc12)c1ccc(-c2c3nc(c(-c4c(F)cc(S(=O)(=O)[O-])cc4F)c4ccc([nH]4)c(-c4c(F)cc(S(=O)(=O)[O-])cc4F)c4nc(c(-c5c(F)cc(S(=O)(=O)[O-])cc5F)c5ccc2[nH]5)C=C4)C=C3)cc1
REMARK SMILES IDX 5 1 4 2 3 3 1 4 2 5 28 7 29 8 93 9 30 10 92 11 31 12 32 13
REMARK SMILES IDX 33 14 86 15 34 16 91 17 85 18 87 19 35 20 90 21 84 22 83 23
REMARK SMILES IDX 36 25 70 26 49 27 69 28 50 29 53 30 68 31 88 32 51 33 52 34
REMARK SMILES IDX 67 36 89 37 54 38 37 39 38 40 47 41 39 42 40 43 46 44 48 45
REMARK SMILES IDX 41 46 42 47 43 48 44 49 45 50 71 51 72 52 81 53 73 54 74 55
REMARK SMILES IDX 80 56 82 57 75 58 76 59 77 60 78 61 79 62 55 63 56 64 65 65
REMARK SMILES IDX 57 66 58 67 64 68 66 69 59 70 60 71 61 72 62 73 63 74 6 75
REMARK SMILES IDX 7 76 8 77 9 78 10 79 11 80 12 82 13 83 14 84 27 85 15 86
REMARK SMILES IDX 18 87 26 88 16 89 17 90 19 91 21 92 20 94 22 95 23 96 24 97
REMARK SMILES IDX 25 98
REMARK H PARENT 3 6 87 24 53 35 10 81 17 93
REMARK Flexibility Score: inf
ROOT
ATOM      1  C   UNL A   1      37.549  23.759  25.377  1.00  0.00     0.021 C 
ENDROOT
BRANCH   1   2
ATOM      2  C   UNL A   1      38.504  24.203  26.478  1.00  0.00     0.116 C 
BRANCH   2   3
ATOM      3  N   UNL A   1      39.900  24.046  26.107  1.00  0.00    -0.352 N 
ATOM      4  O   UNL A   1      42.083  24.590  25.978  1.00  0.00    -0.269 OA
ATOM      5  C   UNL A   1      40.994  24.769  26.518  1.00  0.00     0.251 C 
ATOM      6  H   UNL A   1      40.090  23.318  25.472  1.00  0.00     0.163 HD
BRANCH   5   7
ATOM      7  C   UNL A   1      40.854  25.780  27.590  1.00  0.00     0.039 A 
ATOM      8  C   UNL A   1      41.756  26.842  27.698  1.00  0.00     0.014 A 
ATOM      9  C   UNL A   1      39.795  25.667  28.495  1.00  0.00     0.014 A 
ATOM     10  C   UNL A   1      41.677  27.712  28.781  1.00  0.00     0.010 A 
ATOM     11  C   UNL A   1      39.672  26.588  29.541  1.00  0.00     0.010 A 
ATOM     12  C   UNL A   1      40.627  27.602  29.709  1.00  0.00    -0.014 A 
BRANCH  12  13
ATOM     13  C   UNL A   1      40.515  28.591  30.811  1.00  0.00     0.031 A 
ATOM     14  C   UNL A   1      41.414  28.519  32.014  1.00  0.00     0.074 A 
ATOM     15  C   UNL A   1      39.593  29.568  30.713  1.00  0.00     0.049 A 
ATOM     16  N   UNL A   1      41.443  29.295  33.067  1.00  0.00    -0.248 NA
ATOM     17  C   UNL A   1      42.406  27.433  32.044  1.00  0.00     0.031 C 
ATOM     18  C   UNL A   1      38.656  29.731  29.599  1.00  0.00     0.029 A 
ATOM     19  N   UNL A   1      39.295  30.611  31.552  1.00  0.00    -0.354 N 
ATOM     20  C   UNL A   1      42.439  28.785  33.894  1.00  0.00     0.074 A 
ATOM     21  C   UNL A   1      42.976  27.616  33.228  1.00  0.00     0.031 C 
ATOM     22  C   UNL A   1      37.911  30.827  29.806  1.00  0.00     0.029 A 
ATOM     23  C   UNL A   1      38.277  31.412  31.092  1.00  0.00     0.049 A 
ATOM     24  H   UNL A   1      39.765  30.771  32.402  1.00  0.00     0.167 HD
ATOM     25  C   UNL A   1      42.866  29.252  35.091  1.00  0.00     0.037 A 
ATOM     26  C   UNL A   1      37.687  32.486  31.648  1.00  0.00     0.037 A 
ATOM     27  C   UNL A   1      42.334  30.424  35.741  1.00  0.00     0.049 A 
ATOM     28  C   UNL A   1      38.168  32.974  32.984  1.00  0.00     0.074 A 
ATOM     29  C   UNL A   1      42.723  30.997  36.940  1.00  0.00     0.029 A 
ATOM     30  N   UNL A   1      41.292  31.199  35.250  1.00  0.00    -0.354 N 
ATOM     31  N   UNL A   1      39.131  32.495  33.735  1.00  0.00    -0.248 NA
ATOM     32  C   UNL A   1      37.486  34.146  33.548  1.00  0.00     0.031 C 
ATOM     33  C   UNL A   1      41.892  32.094  37.192  1.00  0.00     0.029 A 
ATOM     34  C   UNL A   1      41.013  32.233  36.130  1.00  0.00     0.049 A 
ATOM     35  H   UNL A   1      40.820  31.039  34.401  1.00  0.00     0.167 HD
ATOM     36  C   UNL A   1      39.179  33.315  34.856  1.00  0.00     0.074 A 
ATOM     37  C   UNL A   1      38.159  34.330  34.675  1.00  0.00     0.031 C 
ATOM     38  C   UNL A   1      39.994  33.234  35.937  1.00  0.00     0.037 A 
BRANCH  25  39
ATOM     39  C   UNL A   1      43.956  28.486  35.791  1.00  0.00     0.058 A 
ATOM     40  C   UNL A   1      45.314  28.771  35.578  1.00  0.00     0.135 A 
ATOM     41  C   UNL A   1      43.638  27.477  36.715  1.00  0.00     0.135 A 
ATOM     42  F   UNL A   1      45.676  29.717  34.698  1.00  0.00    -0.206 F 
ATOM     43  C   UNL A   1      46.318  28.064  36.235  1.00  0.00     0.059 A 
ATOM     44  C   UNL A   1      44.624  26.773  37.400  1.00  0.00     0.059 A 
ATOM     45  F   UNL A   1      42.355  27.164  36.959  1.00  0.00    -0.206 F 
ATOM     46  C   UNL A   1      45.962  27.063  37.140  1.00  0.00     0.060 A 
BRANCH  46  47
ATOM     47  S   UNL A   1      47.275  26.147  37.977  1.00  0.00     0.124 S 
ATOM     48  O   UNL A   1      47.333  24.928  37.176  1.00  0.00    -0.237 OA
ATOM     49  O   UNL A   1      48.418  27.045  37.845  1.00  0.00    -0.237 OA
ATOM     50  O   UNL A   1      46.764  25.982  39.334  1.00  0.00    -0.744 OA
ENDBRANCH  46  47
ENDBRANCH  25  39
BRANCH  26  51
ATOM     51  C   UNL A   1      36.575  33.163  30.932  1.00  0.00     0.058 A 
ATOM     52  C   UNL A   1      35.250  33.033  31.369  1.00  0.00     0.135 A 
ATOM     53  C   UNL A   1      36.824  33.991  29.826  1.00  0.00     0.135 A 
ATOM     54  F   UNL A   1      34.963  32.248  32.420  1.00  0.00    -0.206 F 
ATOM     55  C   UNL A   1      34.206  33.695  30.732  1.00  0.00     0.059 A 
ATOM     56  C   UNL A   1      35.801  34.684  29.188  1.00  0.00     0.059 A 
ATOM     57  F   UNL A   1      38.079  34.161  29.381  1.00  0.00    -0.206 F 
ATOM     58  C   UNL A   1      34.493  34.524  29.645  1.00  0.00     0.060 A 
BRANCH  58  59
ATOM     59  S   UNL A   1      33.142  35.437  28.870  1.00  0.00     0.124 S 
ATOM     60  O   UNL A   1      32.495  34.392  28.087  1.00  0.00    -0.237 OA
ATOM     61  O   UNL A   1      32.396  35.923  30.026  1.00  0.00    -0.237 OA
ATOM     62  O   UNL A   1      33.833  36.468  28.101  1.00  0.00    -0.744 OA
ENDBRANCH  58  59
ENDBRANCH  26  51
BRANCH  38  63
ATOM     63  C   UNL A   1      39.834  34.288  36.996  1.00  0.00     0.058 A 
ATOM     64  C   UNL A   1      40.425  35.554  36.868  1.00  0.00     0.135 A 
ATOM     65  C   UNL A   1      39.045  34.040  38.131  1.00  0.00     0.135 A 
ATOM     66  F   UNL A   1      41.195  35.837  35.807  1.00  0.00    -0.206 F 
ATOM     67  C   UNL A   1      40.257  36.533  37.843  1.00  0.00     0.059 A 
ATOM     68  C   UNL A   1      38.845  35.013  39.105  1.00  0.00     0.059 A 
ATOM     69  F   UNL A   1      38.453  32.847  38.296  1.00  0.00    -0.206 F 
ATOM     70  C   UNL A   1      39.464  36.253  38.957  1.00  0.00     0.060 A 
BRANCH  70  71
ATOM     71  S   UNL A   1      39.228  37.542  40.200  1.00  0.00     0.124 S 
ATOM     72  O   UNL A   1      38.192  38.361  39.579  1.00  0.00    -0.237 OA
ATOM     73  O   UNL A   1      38.814  36.775  41.371  1.00  0.00    -0.237 OA
ATOM     74  O   UNL A   1      40.545  38.162  40.299  1.00  0.00    -0.744 OA
ENDBRANCH  70  71
ENDBRANCH  38  63
ENDBRANCH  12  13
ENDBRANCH   5   7
ENDBRANCH   2   3
ENDBRANCH   1   2
BRANCH   1  75
ATOM     75  C   UNL A   1      36.063  23.839  25.728  1.00  0.00     0.002 C 
BRANCH  75  76
ATOM     76  C   UNL A   1      35.421  22.537  26.214  1.00  0.00     0.002 C 
BRANCH  76  77
ATOM     77  C   UNL A   1      34.560  22.642  27.478  1.00  0.00     0.021 C 
BRANCH  77  78
ATOM     78  C   UNL A   1      33.361  21.697  27.540  1.00  0.00     0.116 C 
BRANCH  78  79
ATOM     79  N   UNL A   1      32.103  22.412  27.693  1.00  0.00    -0.352 N 
ATOM     80  C   UNL A   1      31.420  23.182  26.800  1.00  0.00     0.252 C 
ATOM     81  H   UNL A   1      31.681  22.326  28.578  1.00  0.00     0.163 HD
ATOM     82  O   UNL A   1      30.408  23.782  27.157  1.00  0.00    -0.269 OA
BRANCH  80  83
ATOM     83  C   UNL A   1      31.928  23.307  25.411  1.00  0.00     0.054 A 
ATOM     84  C   UNL A   1      31.696  22.269  24.590  1.00  0.00     0.086 A 
ATOM     85  C   UNL A   1      32.555  24.535  24.891  1.00  0.00     0.012 A 
ATOM     86  C   UNL A   1      32.159  22.284  23.189  1.00  0.00     0.249 A 
ATOM     87  C   UNL A   1      32.986  24.547  23.555  1.00  0.00     0.049 A 
ATOM     88  C   UNL A   1      32.741  25.691  25.663  1.00  0.00     0.024 A 
ATOM     89  O   UNL A   1      31.983  21.313  22.461  1.00  0.00    -0.270 OA
ATOM     90  N   UNL A   1      32.789  23.415  22.756  1.00  0.00    -0.322 N 
ATOM     91  C   UNL A   1      33.596  25.672  23.003  1.00  0.00     0.027 A 
ATOM     92  C   UNL A   1      33.337  26.843  25.115  1.00  0.00     0.056 A 
ATOM     93  H   UNL A   1      33.123  23.436  21.830  1.00  0.00     0.170 HD
ATOM     94  C   UNL A   1      33.769  26.817  23.781  1.00  0.00     0.015 A 
BRANCH  92  95
ATOM     95  C   UNL A   1      33.496  28.083  25.963  1.00  0.00     0.416 C 
ATOM     96  F   UNL A   1      33.740  29.198  25.220  1.00  0.00    -0.166 F 
ATOM     97  F   UNL A   1      32.384  28.357  26.700  1.00  0.00    -0.166 F 
ATOM     98  F   UNL A   1      34.523  28.001  26.855  1.00  0.00    -0.166 F 
ENDBRANCH  92  95
ENDBRANCH  80  83
ENDBRANCH  78  79
ENDBRANCH  77  78
ENDBRANCH  76  77
ENDBRANCH  75  76
ENDBRANCH   1  75
TORSDOF 17
ENDMDL
MODEL 3
REMARK VINA RESULT:     -12.2      6.955     12.513
REMARK SMILES O=C(NCCCCCCNC(=O)c1cc(=O)[nH]c2ccc(C(F)(F)F)cc12)c1ccc(-c2c3nc(c(-c4c(F)cc(S(=O)(=O)[O-])cc4F)c4ccc([nH]4)c(-c4c(F)cc(S(=O)(=O)[O-])cc4F)c4nc(c(-c5c(F)cc(S(=O)(=O)[O-])cc5F)c5ccc2[nH]5)C=C4)C=C3)cc1
REMARK SMILES IDX 5 1 4 2 3 3 1 4 2 5 28 7 29 8 93 9 30 10 92 11 31 12 32 13
REMARK SMILES IDX 33 14 86 15 34 16 91 17 85 18 87 19 35 20 90 21 84 22 83 23
REMARK SMILES IDX 36 25 70 26 49 27 69 28 50 29 53 30 68 31 88 32 51 33 52 34
REMARK SMILES IDX 67 36 89 37 54 38 37 39 38 40 47 41 39 42 40 43 46 44 48 45
REMARK SMILES IDX 41 46 42 47 43 48 44 49 45 50 71 51 72 52 81 53 73 54 74 55
REMARK SMILES IDX 80 56 82 57 75 58 76 59 77 60 78 61 79 62 55 63 56 64 65 65
REMARK SMILES IDX 57 66 58 67 64 68 66 69 59 70 60 71 61 72 62 73 63 74 6 75
REMARK SMILES IDX 7 76 8 77 9 78 10 79 11 80 12 82 13 83 14 84 27 85 15 86
REMARK SMILES IDX 18 87 26 88 16 89 17 90 19 91 21 92 20 94 22 95 23 96 24 97
REMARK SMILES IDX 25 98
REMARK H PARENT 3 6 87 24 53 35 10 81 17 93
REMARK Flexibility Score: inf
ROOT
ATOM      1  C   UNL A   1      36.273  33.204  28.407  1.00  0.00     0.021 C 
ENDROOT
BRANCH   1   2
ATOM      2  C   UNL A   1      36.712  33.214  29.866  1.00  0.00     0.116 C 
BRANCH   2   3
ATOM      3  N   UNL A   1      36.129  32.127  30.635  1.00  0.00    -0.352 N 
ATOM      4  O   UNL A   1      35.899  30.019  31.398  1.00  0.00    -0.269 OA
ATOM      5  C   UNL A   1      36.606  30.855  30.841  1.00  0.00     0.251 C 
ATOM      6  H   UNL A   1      35.271  32.333  31.072  1.00  0.00     0.163 HD
BRANCH   5   7
ATOM      7  C   UNL A   1      37.959  30.486  30.368  1.00  0.00     0.039 A 
ATOM      8  C   UNL A   1      38.208  30.254  29.013  1.00  0.00     0.014 A 
ATOM      9  C   UNL A   1      38.998  30.382  31.297  1.00  0.00     0.014 A 
ATOM     10  C   UNL A   1      39.457  29.794  28.605  1.00  0.00     0.010 A 
ATOM     11  C   UNL A   1      40.273  29.993  30.875  1.00  0.00     0.010 A 
ATOM     12  C   UNL A   1      40.507  29.669  29.530  1.00  0.00    -0.014 A 
BRANCH  12  13
ATOM     13  C   UNL A   1      41.853  29.254  29.060  1.00  0.00     0.031 A 
ATOM     14  C   UNL A   1      43.004  30.223  29.044  1.00  0.00     0.074 A 
ATOM     15  C   UNL A   1      42.034  27.983  28.653  1.00  0.00     0.049 A 
ATOM     16  N   UNL A   1      44.238  30.028  28.658  1.00  0.00    -0.248 NA
ATOM     17  C   UNL A   1      42.733  31.590  29.517  1.00  0.00     0.031 C 
ATOM     18  C   UNL A   1      40.989  26.956  28.612  1.00  0.00     0.029 A 
ATOM     19  N   UNL A   1      43.155  27.332  28.206  1.00  0.00    -0.354 N 
ATOM     20  C   UNL A   1      44.889  31.246  28.821  1.00  0.00     0.074 A 
ATOM     21  C   UNL A   1      43.904  32.182  29.322  1.00  0.00     0.031 C 
ATOM     22  C   UNL A   1      41.525  25.799  28.197  1.00  0.00     0.029 A 
ATOM     23  C   UNL A   1      42.935  26.014  27.888  1.00  0.00     0.049 A 
ATOM     24  H   UNL A   1      44.034  27.768  28.120  1.00  0.00     0.167 HD
ATOM     25  C   UNL A   1      46.187  31.551  28.581  1.00  0.00     0.037 A 
ATOM     26  C   UNL A   1      43.766  25.082  27.386  1.00  0.00     0.037 A 
ATOM     27  C   UNL A   1      47.164  30.608  28.094  1.00  0.00     0.049 A 
ATOM     28  C   UNL A   1      45.196  25.449  27.113  1.00  0.00     0.074 A 
ATOM     29  C   UNL A   1      48.512  30.813  27.851  1.00  0.00     0.029 A 
ATOM     30  N   UNL A   1      46.897  29.286  27.769  1.00  0.00    -0.354 N 
ATOM     31  N   UNL A   1      45.799  26.599  27.302  1.00  0.00    -0.248 NA
ATOM     32  C   UNL A   1      46.058  24.397  26.559  1.00  0.00     0.031 C 
ATOM     33  C   UNL A   1      49.051  29.625  27.343  1.00  0.00     0.029 A 
ATOM     34  C   UNL A   1      48.050  28.668  27.311  1.00  0.00     0.049 A 
ATOM     35  H   UNL A   1      46.019  28.850  27.853  1.00  0.00     0.167 HD
ATOM     36  C   UNL A   1      47.116  26.405  26.903  1.00  0.00     0.074 A 
ATOM     37  C   UNL A   1      47.224  25.023  26.478  1.00  0.00     0.031 C 
ATOM     38  C   UNL A   1      48.142  27.291  26.890  1.00  0.00     0.037 A 
BRANCH  25  39
ATOM     39  C   UNL A   1      46.629  32.969  28.825  1.00  0.00     0.058 A 
ATOM     40  C   UNL A   1      46.629  33.929  27.802  1.00  0.00     0.135 A 
ATOM     41  C   UNL A   1      47.022  33.381  30.109  1.00  0.00     0.135 A 
ATOM     42  F   UNL A   1      46.275  33.587  26.553  1.00  0.00    -0.206 F 
ATOM     43  C   UNL A   1      47.031  35.242  28.036  1.00  0.00     0.059 A 
ATOM     44  C   UNL A   1      47.405  34.694  30.371  1.00  0.00     0.059 A 
ATOM     45  F   UNL A   1      47.038  32.505  31.126  1.00  0.00    -0.206 F 
ATOM     46  C   UNL A   1      47.423  35.613  29.323  1.00  0.00     0.060 A 
BRANCH  46  47
ATOM     47  S   UNL A   1      47.951  37.316  29.610  1.00  0.00     0.124 S 
ATOM     48  O   UNL A   1      48.374  37.716  28.271  1.00  0.00    -0.237 OA
ATOM     49  O   UNL A   1      46.729  37.945  30.101  1.00  0.00    -0.237 OA
ATOM     50  O   UNL A   1      49.021  37.180  30.591  1.00  0.00    -0.744 OA
ENDBRANCH  46  47
ENDBRANCH  25  39
BRANCH  26  51
ATOM     51  C   UNL A   1      43.253  23.715  27.111  1.00  0.00     0.058 A 
ATOM     52  C   UNL A   1      42.920  23.317  25.810  1.00  0.00     0.135 A 
ATOM     53  C   UNL A   1      43.131  22.767  28.139  1.00  0.00     0.135 A 
ATOM     54  F   UNL A   1      43.015  24.191  24.795  1.00  0.00    -0.206 F 
ATOM     55  C   UNL A   1      42.478  22.027  25.534  1.00  0.00     0.059 A 
ATOM     56  C   UNL A   1      42.717  21.464  27.886  1.00  0.00     0.059 A 
ATOM     57  F   UNL A   1      43.455  23.095  29.400  1.00  0.00    -0.206 F 
ATOM     58  C   UNL A   1      42.386  21.106  26.579  1.00  0.00     0.060 A 
BRANCH  58  59
ATOM     59  S   UNL A   1      41.882  19.413  26.202  1.00  0.00     0.124 S 
ATOM     60  O   UNL A   1      42.669  19.134  25.007  1.00  0.00    -0.237 OA
ATOM     61  O   UNL A   1      42.281  18.697  27.410  1.00  0.00    -0.237 OA
ATOM     62  O   UNL A   1      40.441  19.530  25.999  1.00  0.00    -0.744 OA
ENDBRANCH  58  59
ENDBRANCH  26  51
BRANCH  38  63
ATOM     63  C   UNL A   1      49.478  26.786  26.425  1.00  0.00     0.058 A 
ATOM     64  C   UNL A   1      50.365  26.141  27.300  1.00  0.00     0.135 A 
ATOM     65  C   UNL A   1      49.856  26.912  25.078  1.00  0.00     0.135 A 
ATOM     66  F   UNL A   1      50.054  26.003  28.599  1.00  0.00    -0.206 F 
ATOM     67  C   UNL A   1      51.593  25.657  26.861  1.00  0.00     0.059 A 
ATOM     68  C   UNL A   1      51.069  26.414  24.613  1.00  0.00     0.059 A 
ATOM     69  F   UNL A   1      49.039  27.515  24.200  1.00  0.00    -0.206 F 
ATOM     70  C   UNL A   1      51.936  25.797  25.514  1.00  0.00     0.060 A 
BRANCH  70  71
ATOM     71  S   UNL A   1      53.518  25.137  24.948  1.00  0.00     0.124 S 
ATOM     72  O   UNL A   1      53.333  23.706  25.163  1.00  0.00    -0.237 OA
ATOM     73  O   UNL A   1      53.557  25.569  23.554  1.00  0.00    -0.237 OA
ATOM     74  O   UNL A   1      54.488  25.786  25.825  1.00  0.00    -0.744 OA
ENDBRANCH  70  71
ENDBRANCH  38  63
ENDBRANCH  12  13
ENDBRANCH   5   7
ENDBRANCH   2   3
ENDBRANCH   1   2
BRANCH   1  75
ATOM     75  C   UNL A   1      34.771  33.377  28.175  1.00  0.00     0.002 C 
BRANCH  75  76
ATOM     76  C   UNL A   1      33.970  32.083  28.004  1.00  0.00     0.002 C 
BRANCH  76  77
ATOM     77  C   UNL A   1      34.779  30.836  27.627  1.00  0.00     0.021 C 
BRANCH  77  78
ATOM     78  C   UNL A   1      34.014  29.763  26.854  1.00  0.00     0.116 C 
BRANCH  78  79
ATOM     79  N   UNL A   1      32.883  29.244  27.606  1.00  0.00    -0.352 N 
ATOM     80  C   UNL A   1      31.983  28.275  27.275  1.00  0.00     0.252 C 
ATOM     81  H   UNL A   1      32.746  29.655  28.489  1.00  0.00     0.163 HD
ATOM     82  O   UNL A   1      31.032  28.043  28.019  1.00  0.00    -0.269 OA
BRANCH  80  83
ATOM     83  C   UNL A   1      32.150  27.534  26.000  1.00  0.00     0.054 A 
ATOM     84  C   UNL A   1      32.858  26.393  26.057  1.00  0.00     0.086 A 
ATOM     85  C   UNL A   1      31.492  27.934  24.743  1.00  0.00     0.012 A 
ATOM     86  C   UNL A   1      33.091  25.577  24.849  1.00  0.00     0.249 A 
ATOM     87  C   UNL A   1      31.710  27.149  23.601  1.00  0.00     0.049 A 
ATOM     88  C   UNL A   1      30.660  29.058  24.634  1.00  0.00     0.024 A 
ATOM     89  O   UNL A   1      33.777  24.562  24.903  1.00  0.00    -0.270 OA
ATOM     90  N   UNL A   1      32.515  26.008  23.689  1.00  0.00    -0.322 N 
ATOM     91  C   UNL A   1      31.126  27.477  22.378  1.00  0.00     0.027 A 
ATOM     92  C   UNL A   1      30.046  29.391  23.412  1.00  0.00     0.056 A 
ATOM     93  H   UNL A   1      32.675  25.487  22.869  1.00  0.00     0.170 HD
ATOM     94  C   UNL A   1      30.295  28.594  22.285  1.00  0.00     0.015 A 
BRANCH  92  95
ATOM     95  C   UNL A   1      29.131  30.590  23.333  1.00  0.00     0.416 C 
ATOM     96  F   UNL A   1      27.821  30.261  23.510  1.00  0.00    -0.166 F 
ATOM     97  F   UNL A   1      29.416  31.527  24.278  1.00  0.00    -0.166 F 
ATOM     98  F   UNL A   1      29.190  31.238  22.136  1.00  0.00    -0.166 F 
ENDBRANCH  92  95
ENDBRANCH  80  83
ENDBRANCH  78  79
ENDBRANCH  77  78
ENDBRANCH  76  77
ENDBRANCH  75  76
ENDBRANCH   1  75
TORSDOF 17
ENDMDL
