MODEL 1
REMARK VINA RESULT:     -12.6      0.000      0.000
REMARK SMILES CS(=O)(=O)c1ccc(-c2cc(Cl)cc3c2O[C@H](C(F)(F)F)C(C(=O)NCCCCCCNC(=O)c2ccc(-c4c5nc(c(-c6c(F)cc(S(=O)(=O)[O-])cc6F)c6ccc([nH]6)c(-c6c(F)cc(S(=O)(=O)[O-])cc6F)c6nc(c(-c7c(F)cc(S(=O)(=O)[O-])cc7F)c7ccc4[nH]7)C=C6)C=C5)cc2)=C3)cc1
REMARK SMILES IDX 29 1 28 2 27 3 26 4 25 5 23 6 24 7 22 9 9 10 10 11 15 12
REMARK SMILES IDX 11 13 14 14 16 15 12 16 13 17 101 18 17 19 8 20 5 21 6 22
REMARK SMILES IDX 103 23 7 24 102 25 2 26 1 27 3 28 4 29 18 30 19 31 20 32
REMARK SMILES IDX 21 33 30 34 31 35 32 36 33 37 34 39 35 40 36 41 100 42 37 43
REMARK SMILES IDX 99 44 38 45 39 46 40 47 93 48 41 49 98 50 92 51 94 52 42 53
REMARK SMILES IDX 97 54 91 55 90 56 43 58 77 59 56 60 76 61 57 62 60 63 75 64
REMARK SMILES IDX 95 65 58 66 59 67 74 69 96 70 61 71 44 72 45 73 54 74 46 75
REMARK SMILES IDX 47 76 53 77 55 78 48 79 49 80 50 81 51 82 52 83 78 84 79 85
REMARK SMILES IDX 88 86 80 87 81 88 87 89 89 90 82 91 83 92 84 93 85 94 86 95
REMARK SMILES IDX 62 96 63 97 72 98 64 99 65 100 71 101 73 102 66 103 67 104
REMARK SMILES IDX 68 105 69 106 70 107
REMARK H PARENT 25 8 32 38 94 57 60 68
REMARK Flexibility Score: inf
ROOT
ATOM      1  C   UNL A   1      33.503  30.853  27.109  1.00  0.00     0.002 C 
ENDROOT
BRANCH   1   2
ATOM      2  C   UNL A   1      32.294  29.926  26.961  1.00  0.00     0.002 C 
BRANCH   2   3
ATOM      3  C   UNL A   1      31.884  29.622  25.510  1.00  0.00     0.021 C 
BRANCH   3   4
ATOM      4  C   UNL A   1      33.035  29.179  24.595  1.00  0.00     0.116 C 
BRANCH   4   5
ATOM      5  N   UNL A   1      33.675  28.000  25.145  1.00  0.00    -0.352 N 
ATOM      6  C   UNL A   1      33.043  26.826  25.401  1.00  0.00     0.251 C 
ATOM      7  O   UNL A   1      33.143  26.298  26.502  1.00  0.00    -0.270 OA
ATOM      8  H   UNL A   1      34.636  28.055  25.347  1.00  0.00     0.163 HD
BRANCH   6   9
ATOM      9  C   UNL A   1      32.396  26.158  24.233  1.00  0.00     0.067 C 
ATOM     10  C   UNL A   1      33.479  22.319  25.002  1.00  0.00     0.026 A 
ATOM     11  C   UNL A   1      34.835  22.374  25.419  1.00  0.00     0.033 A 
ATOM     12  C   UNL A   1      32.966  23.485  24.408  1.00  0.00     0.135 A 
ATOM     13  C   UNL A   1      35.682  23.425  25.076  1.00  0.00     0.042 A 
ATOM     14  C   UNL A   1      33.868  24.482  23.959  1.00  0.00     0.019 A 
ATOM     15  O   UNL A   1      31.608  23.756  24.296  1.00  0.00    -0.475 OA
ATOM     16  Cl  UNL A   1      37.310  23.424  25.626  1.00  0.00    -0.084 Cl
ATOM     17  C   UNL A   1      35.224  24.446  24.268  1.00  0.00     0.032 A 
ATOM     18  C   UNL A   1      33.297  25.698  23.342  1.00  0.00     0.025 C 
ATOM     19  C   UNL A   1      31.273  25.191  24.583  1.00  0.00     0.314 C 
BRANCH  10  20
ATOM     20  C   UNL A   1      32.898  20.945  24.999  1.00  0.00    -0.015 A 
ATOM     21  C   UNL A   1      33.098  18.135  24.715  1.00  0.00     0.067 A 
ATOM     22  C   UNL A   1      33.169  18.718  25.983  1.00  0.00     0.021 A 
ATOM     23  C   UNL A   1      32.782  18.921  23.608  1.00  0.00     0.021 A 
ATOM     24  C   UNL A   1      33.045  20.108  26.125  1.00  0.00     0.010 A 
ATOM     25  C   UNL A   1      32.668  20.317  23.757  1.00  0.00     0.010 A 
BRANCH  21  26
ATOM     26  S   UNL A   1      33.554  16.418  24.581  1.00  0.00     0.175 S 
ATOM     27  C   UNL A   1      32.314  15.447  25.385  1.00  0.00     0.163 C 
ATOM     28  O   UNL A   1      34.781  16.253  25.337  1.00  0.00    -0.224 OA
ATOM     29  O   UNL A   1      33.502  16.090  23.167  1.00  0.00    -0.224 OA
ENDBRANCH  21  26
ENDBRANCH  10  20
BRANCH  19  30
ATOM     30  C   UNL A   1      30.001  25.658  23.840  1.00  0.00     0.429 C 
ATOM     31  F   UNL A   1      28.997  25.984  24.685  1.00  0.00    -0.167 F 
ATOM     32  F   UNL A   1      30.255  26.739  23.065  1.00  0.00    -0.167 F 
ATOM     33  F   UNL A   1      29.507  24.703  23.006  1.00  0.00    -0.167 F 
ENDBRANCH  19  30
ENDBRANCH   6   9
ENDBRANCH   4   5
ENDBRANCH   3   4
ENDBRANCH   2   3
ENDBRANCH   1   2
BRANCH   1  34
ATOM     34  C   UNL A   1      34.735  30.192  27.728  1.00  0.00     0.021 C 
BRANCH  34  35
ATOM     35  C   UNL A   1      35.584  31.117  28.592  1.00  0.00     0.116 C 
BRANCH  35  36
ATOM     36  N   UNL A   1      35.546  30.753  29.999  1.00  0.00    -0.352 N 
ATOM     37  C   UNL A   1      36.528  30.176  30.764  1.00  0.00     0.251 C 
ATOM     38  H   UNL A   1      34.701  30.948  30.467  1.00  0.00     0.163 HD
ATOM     39  O   UNL A   1      36.272  29.776  31.898  1.00  0.00    -0.269 OA
BRANCH  37  40
ATOM     40  C   UNL A   1      37.886  30.014  30.205  1.00  0.00     0.039 A 
ATOM     41  C   UNL A   1      38.989  30.177  31.044  1.00  0.00     0.014 A 
ATOM     42  C   UNL A   1      38.066  29.679  28.860  1.00  0.00     0.014 A 
ATOM     43  C   UNL A   1      40.273  29.945  30.548  1.00  0.00     0.010 A 
ATOM     44  C   UNL A   1      39.339  29.373  28.388  1.00  0.00     0.010 A 
ATOM     45  C   UNL A   1      40.456  29.507  29.225  1.00  0.00    -0.014 A 
BRANCH  45  46
ATOM     46  C   UNL A   1      41.809  29.182  28.703  1.00  0.00     0.031 A 
ATOM     47  C   UNL A   1      42.133  27.778  28.270  1.00  0.00     0.074 A 
ATOM     48  C   UNL A   1      42.760  30.137  28.675  1.00  0.00     0.049 A 
ATOM     49  N   UNL A   1      43.269  27.288  27.843  1.00  0.00    -0.248 NA
ATOM     50  C   UNL A   1      41.046  26.789  28.351  1.00  0.00     0.031 C 
ATOM     51  C   UNL A   1      42.580  31.523  29.114  1.00  0.00     0.029 A 
ATOM     52  N   UNL A   1      44.069  30.087  28.269  1.00  0.00    -0.354 N 
ATOM     53  C   UNL A   1      43.037  25.936  27.617  1.00  0.00     0.074 A 
ATOM     54  C   UNL A   1      41.669  25.671  28.007  1.00  0.00     0.031 C 
ATOM     55  C   UNL A   1      43.727  32.195  28.931  1.00  0.00     0.029 A 
ATOM     56  C   UNL A   1      44.736  31.283  28.402  1.00  0.00     0.049 A 
ATOM     57  H   UNL A   1      44.493  29.272  27.916  1.00  0.00     0.167 HD
ATOM     58  C   UNL A   1      43.880  25.006  27.106  1.00  0.00     0.037 A 
ATOM     59  C   UNL A   1      46.017  31.607  28.137  1.00  0.00     0.037 A 
ATOM     60  C   UNL A   1      45.234  25.283  26.702  1.00  0.00     0.049 A 
ATOM     61  C   UNL A   1      46.937  30.554  27.581  1.00  0.00     0.074 A 
ATOM     62  C   UNL A   1      46.150  24.424  26.123  1.00  0.00     0.029 A 
ATOM     63  N   UNL A   1      45.868  26.510  26.839  1.00  0.00    -0.354 N 
ATOM     64  N   UNL A   1      46.681  29.295  27.311  1.00  0.00    -0.248 NA
ATOM     65  C   UNL A   1      48.317  30.963  27.288  1.00  0.00     0.031 C 
ATOM     66  C   UNL A   1      47.354  25.116  25.958  1.00  0.00     0.029 A 
ATOM     67  C   UNL A   1      47.171  26.423  26.379  1.00  0.00     0.049 A 
ATOM     68  H   UNL A   1      45.452  27.322  27.210  1.00  0.00     0.167 HD
ATOM     69  C   UNL A   1      47.859  28.771  26.787  1.00  0.00     0.074 A 
ATOM     70  C   UNL A   1      48.823  29.853  26.769  1.00  0.00     0.031 C 
ATOM     71  C   UNL A   1      48.119  27.511  26.360  1.00  0.00     0.037 A 
BRANCH  58  72
ATOM     72  C   UNL A   1      43.362  23.600  26.955  1.00  0.00     0.058 A 
ATOM     73  C   UNL A   1      42.985  23.081  25.704  1.00  0.00     0.135 A 
ATOM     74  C   UNL A   1      43.276  22.747  28.066  1.00  0.00     0.135 A 
ATOM     75  F   UNL A   1      43.033  23.857  24.609  1.00  0.00    -0.206 F 
ATOM     76  C   UNL A   1      42.515  21.780  25.567  1.00  0.00     0.059 A 
ATOM     77  C   UNL A   1      42.838  21.431  27.948  1.00  0.00     0.059 A 
ATOM     78  F   UNL A   1      43.620  23.188  29.286  1.00  0.00    -0.206 F 
ATOM     79  C   UNL A   1      42.445  20.962  26.695  1.00  0.00     0.060 A 
BRANCH  79  80
ATOM     80  S   UNL A   1      41.840  19.273  26.497  1.00  0.00     0.124 S 
ATOM     81  O   UNL A   1      42.196  18.684  27.785  1.00  0.00    -0.237 OA
ATOM     82  O   UNL A   1      40.413  19.478  26.268  1.00  0.00    -0.237 OA
ATOM     83  O   UNL A   1      42.591  18.773  25.350  1.00  0.00    -0.744 OA
ENDBRANCH  79  80
ENDBRANCH  58  72
BRANCH  59  84
ATOM     84  C   UNL A   1      46.499  32.994  28.378  1.00  0.00     0.058 A 
ATOM     85  C   UNL A   1      47.090  33.351  29.600  1.00  0.00     0.135 A 
ATOM     86  C   UNL A   1      46.390  33.987  27.392  1.00  0.00     0.135 A 
ATOM     87  F   UNL A   1      47.212  32.440  30.578  1.00  0.00    -0.206 F 
ATOM     88  C   UNL A   1      47.538  34.646  29.842  1.00  0.00     0.059 A 
ATOM     89  C   UNL A   1      46.856  35.280  27.600  1.00  0.00     0.059 A 
ATOM     90  F   UNL A   1      45.849  33.693  26.198  1.00  0.00    -0.206 F 
ATOM     91  C   UNL A   1      47.419  35.604  28.834  1.00  0.00     0.060 A 
BRANCH  91  92
ATOM     92  S   UNL A   1      48.045  37.269  29.143  1.00  0.00     0.124 S 
ATOM     93  O   UNL A   1      49.046  37.019  30.175  1.00  0.00    -0.237 OA
ATOM     94  O   UNL A   1      48.559  37.652  27.832  1.00  0.00    -0.237 OA
ATOM     95  O   UNL A   1      46.857  37.998  29.580  1.00  0.00    -0.744 OA
ENDBRANCH  91  92
ENDBRANCH  59  84
BRANCH  71  96
ATOM     96  C   UNL A   1      49.487  27.235  25.799  1.00  0.00     0.058 A 
ATOM     97  C   UNL A   1      50.562  26.860  26.618  1.00  0.00     0.135 A 
ATOM     98  C   UNL A   1      49.710  27.296  24.413  1.00  0.00     0.135 A 
ATOM     99  F   UNL A   1      50.406  26.792  27.950  1.00  0.00    -0.206 F 
ATOM    100  C   UNL A   1      51.817  26.578  26.087  1.00  0.00     0.059 A 
ATOM    101  C   UNL A   1      50.948  26.988  23.857  1.00  0.00     0.059 A 
ATOM    102  F   UNL A   1      48.713  27.640  23.582  1.00  0.00    -0.206 F 
ATOM    103  C   UNL A   1      51.998  26.641  24.704  1.00  0.00     0.060 A 
BRANCH 103 104
ATOM    104  S   UNL A   1      53.622  26.238  24.026  1.00  0.00     0.124 S 
ATOM    105  O   UNL A   1      54.429  27.352  24.513  1.00  0.00    -0.237 OA
ATOM    106  O   UNL A   1      53.901  24.940  24.633  1.00  0.00    -0.237 OA
ATOM    107  O   UNL A   1      53.392  26.213  22.584  1.00  0.00    -0.744 OA
ENDBRANCH 103 104
ENDBRANCH  71  96
ENDBRANCH  45  46
ENDBRANCH  37  40
ENDBRANCH  35  36
ENDBRANCH  34  35
ENDBRANCH   1  34
TORSDOF 19
ENDMDL
MODEL 2
REMARK VINA RESULT:     -12.5      1.366      7.951
REMARK SMILES CS(=O)(=O)c1ccc(-c2cc(Cl)cc3c2O[C@H](C(F)(F)F)C(C(=O)NCCCCCCNC(=O)c2ccc(-c4c5nc(c(-c6c(F)cc(S(=O)(=O)[O-])cc6F)c6ccc([nH]6)c(-c6c(F)cc(S(=O)(=O)[O-])cc6F)c6nc(c(-c7c(F)cc(S(=O)(=O)[O-])cc7F)c7ccc4[nH]7)C=C6)C=C5)cc2)=C3)cc1
REMARK SMILES IDX 29 1 28 2 27 3 26 4 25 5 23 6 24 7 22 9 9 10 10 11 15 12
REMARK SMILES IDX 11 13 14 14 16 15 12 16 13 17 101 18 17 19 8 20 5 21 6 22
REMARK SMILES IDX 103 23 7 24 102 25 2 26 1 27 3 28 4 29 18 30 19 31 20 32
REMARK SMILES IDX 21 33 30 34 31 35 32 36 33 37 34 39 35 40 36 41 100 42 37 43
REMARK SMILES IDX 99 44 38 45 39 46 40 47 93 48 41 49 98 50 92 51 94 52 42 53
REMARK SMILES IDX 97 54 91 55 90 56 43 58 77 59 56 60 76 61 57 62 60 63 75 64
REMARK SMILES IDX 95 65 58 66 59 67 74 69 96 70 61 71 44 72 45 73 54 74 46 75
REMARK SMILES IDX 47 76 53 77 55 78 48 79 49 80 50 81 51 82 52 83 78 84 79 85
REMARK SMILES IDX 88 86 80 87 81 88 87 89 89 90 82 91 83 92 84 93 85 94 86 95
REMARK SMILES IDX 62 96 63 97 72 98 64 99 65 100 71 101 73 102 66 103 67 104
REMARK SMILES IDX 68 105 69 106 70 107
REMARK H PARENT 25 8 32 38 94 57 60 68
REMARK Flexibility Score: inf
ROOT
ATOM      1  C   UNL A   1      32.869  30.465  27.237  1.00  0.00     0.002 C 
ENDROOT
BRANCH   1   2
ATOM      2  C   UNL A   1      31.740  30.455  26.205  1.00  0.00     0.002 C 
BRANCH   2   3
ATOM      3  C   UNL A   1      32.052  29.689  24.908  1.00  0.00     0.021 C 
BRANCH   3   4
ATOM      4  C   UNL A   1      30.940  28.739  24.437  1.00  0.00     0.116 C 
BRANCH   4   5
ATOM      5  N   UNL A   1      31.021  27.488  25.165  1.00  0.00    -0.352 N 
ATOM      6  C   UNL A   1      31.147  26.266  24.589  1.00  0.00     0.251 C 
ATOM      7  O   UNL A   1      30.381  25.358  24.890  1.00  0.00    -0.270 OA
ATOM      8  H   UNL A   1      30.981  27.528  26.147  1.00  0.00     0.163 HD
BRANCH   6   9
ATOM      9  C   UNL A   1      32.356  26.062  23.736  1.00  0.00     0.067 C 
ATOM     10  C   UNL A   1      33.254  22.242  24.787  1.00  0.00     0.026 A 
ATOM     11  C   UNL A   1      33.077  22.175  26.194  1.00  0.00     0.033 A 
ATOM     12  C   UNL A   1      33.281  23.531  24.227  1.00  0.00     0.135 A 
ATOM     13  C   UNL A   1      33.141  23.300  27.012  1.00  0.00     0.042 A 
ATOM     14  C   UNL A   1      33.471  24.647  25.080  1.00  0.00     0.019 A 
ATOM     15  O   UNL A   1      33.058  23.788  22.880  1.00  0.00    -0.475 OA
ATOM     16  Cl  UNL A   1      32.909  23.139  28.706  1.00  0.00    -0.084 Cl
ATOM     17  C   UNL A   1      33.426  24.536  26.466  1.00  0.00     0.032 A 
ATOM     18  C   UNL A   1      33.490  25.990  24.460  1.00  0.00     0.025 C 
ATOM     19  C   UNL A   1      32.208  25.004  22.650  1.00  0.00     0.314 C 
BRANCH  10  20
ATOM     20  C   UNL A   1      33.669  20.953  24.163  1.00  0.00    -0.015 A 
ATOM     21  C   UNL A   1      33.939  18.134  24.166  1.00  0.00     0.067 A 
ATOM     22  C   UNL A   1      32.835  18.731  23.551  1.00  0.00     0.021 A 
ATOM     23  C   UNL A   1      34.978  18.928  24.647  1.00  0.00     0.021 A 
ATOM     24  C   UNL A   1      32.715  20.129  23.529  1.00  0.00     0.010 A 
ATOM     25  C   UNL A   1      34.846  20.330  24.629  1.00  0.00     0.010 A 
BRANCH  21  26
ATOM     26  S   UNL A   1      33.877  16.370  24.413  1.00  0.00     0.175 S 
ATOM     27  C   UNL A   1      35.281  15.892  25.375  1.00  0.00     0.163 C 
ATOM     28  O   UNL A   1      34.029  15.762  23.105  1.00  0.00    -0.224 OA
ATOM     29  O   UNL A   1      32.698  16.112  25.221  1.00  0.00    -0.224 OA
ENDBRANCH  21  26
ENDBRANCH  10  20
BRANCH  19  30
ATOM     30  C   UNL A   1      32.504  25.679  21.291  1.00  0.00     0.429 C 
ATOM     31  F   UNL A   1      32.900  24.795  20.349  1.00  0.00    -0.167 F 
ATOM     32  F   UNL A   1      31.412  26.325  20.817  1.00  0.00    -0.167 F 
ATOM     33  F   UNL A   1      33.487  26.615  21.379  1.00  0.00    -0.167 F 
ENDBRANCH  19  30
ENDBRANCH   6   9
ENDBRANCH   4   5
ENDBRANCH   3   4
ENDBRANCH   2   3
ENDBRANCH   1   2
BRANCH   1  34
ATOM     34  C   UNL A   1      33.720  29.195  27.257  1.00  0.00     0.021 C 
BRANCH  34  35
ATOM     35  C   UNL A   1      35.145  29.394  27.760  1.00  0.00     0.116 C 
BRANCH  35  36
ATOM     36  N   UNL A   1      35.211  30.306  28.892  1.00  0.00    -0.352 N 
ATOM     37  C   UNL A   1      36.272  30.571  29.720  1.00  0.00     0.251 C 
ATOM     38  H   UNL A   1      34.383  30.801  29.088  1.00  0.00     0.163 HD
ATOM     39  O   UNL A   1      36.109  31.243  30.737  1.00  0.00    -0.269 OA
BRANCH  37  40
ATOM     40  C   UNL A   1      37.604  30.018  29.398  1.00  0.00     0.039 A 
ATOM     41  C   UNL A   1      38.000  29.939  28.062  1.00  0.00     0.014 A 
ATOM     42  C   UNL A   1      38.467  29.601  30.416  1.00  0.00     0.014 A 
ATOM     43  C   UNL A   1      39.287  29.496  27.750  1.00  0.00     0.010 A 
ATOM     44  C   UNL A   1      39.774  29.235  30.107  1.00  0.00     0.010 A 
ATOM     45  C   UNL A   1      40.196  29.174  28.772  1.00  0.00    -0.014 A 
BRANCH  45  46
ATOM     46  C   UNL A   1      41.593  28.775  28.460  1.00  0.00     0.031 A 
ATOM     47  C   UNL A   1      42.685  29.809  28.433  1.00  0.00     0.074 A 
ATOM     48  C   UNL A   1      41.866  27.493  28.145  1.00  0.00     0.049 A 
ATOM     49  N   UNL A   1      43.950  29.667  28.126  1.00  0.00    -0.248 NA
ATOM     50  C   UNL A   1      42.302  31.191  28.767  1.00  0.00     0.031 C 
ATOM     51  C   UNL A   1      40.883  26.408  28.091  1.00  0.00     0.029 A 
ATOM     52  N   UNL A   1      43.047  26.885  27.802  1.00  0.00    -0.354 N 
ATOM     53  C   UNL A   1      44.508  30.937  28.220  1.00  0.00     0.074 A 
ATOM     54  C   UNL A   1      43.434  31.846  28.556  1.00  0.00     0.031 C 
ATOM     55  C   UNL A   1      41.505  25.266  27.760  1.00  0.00     0.029 A 
ATOM     56  C   UNL A   1      42.921  25.541  27.537  1.00  0.00     0.049 A 
ATOM     57  H   UNL A   1      43.904  27.365  27.750  1.00  0.00     0.167 HD
ATOM     58  C   UNL A   1      45.802  31.306  28.066  1.00  0.00     0.037 A 
ATOM     59  C   UNL A   1      43.840  24.634  27.151  1.00  0.00     0.037 A 
ATOM     60  C   UNL A   1      46.868  30.390  27.750  1.00  0.00     0.049 A 
ATOM     61  C   UNL A   1      45.269  25.071  26.974  1.00  0.00     0.074 A 
ATOM     62  C   UNL A   1      48.220  30.656  27.627  1.00  0.00     0.029 A 
ATOM     63  N   UNL A   1      46.703  29.035  27.504  1.00  0.00    -0.354 N 
ATOM     64  N   UNL A   1      45.792  26.264  27.132  1.00  0.00    -0.248 NA
ATOM     65  C   UNL A   1      46.236  24.040  26.573  1.00  0.00     0.031 C 
ATOM     66  C   UNL A   1      48.865  29.472  27.254  1.00  0.00     0.029 A 
ATOM     67  C   UNL A   1      47.925  28.456  27.204  1.00  0.00     0.049 A 
ATOM     68  H   UNL A   1      45.843  28.555  27.537  1.00  0.00     0.167 HD
ATOM     69  C   UNL A   1      47.153  26.120  26.881  1.00  0.00     0.074 A 
ATOM     70  C   UNL A   1      47.372  24.723  26.571  1.00  0.00     0.031 C 
ATOM     71  C   UNL A   1      48.130  27.059  26.905  1.00  0.00     0.037 A 
BRANCH  58  72
ATOM     72  C   UNL A   1      46.139  32.764  28.235  1.00  0.00     0.058 A 
ATOM     73  C   UNL A   1      46.484  33.302  29.487  1.00  0.00     0.135 A 
ATOM     74  C   UNL A   1      46.154  33.627  27.129  1.00  0.00     0.135 A 
ATOM     75  F   UNL A   1      46.472  32.526  30.583  1.00  0.00    -0.206 F 
ATOM     76  C   UNL A   1      46.802  34.647  29.639  1.00  0.00     0.059 A 
ATOM     77  C   UNL A   1      46.499  34.970  27.252  1.00  0.00     0.059 A 
ATOM     78  F   UNL A   1      45.831  33.169  25.909  1.00  0.00    -0.206 F 
ATOM     79  C   UNL A   1      46.808  35.473  28.515  1.00  0.00     0.060 A 
BRANCH  79  80
ATOM     80  S   UNL A   1      47.230  37.215  28.729  1.00  0.00     0.124 S 
ATOM     81  O   UNL A   1      46.605  37.813  27.553  1.00  0.00    -0.237 OA
ATOM     82  O   UNL A   1      46.604  37.533  30.008  1.00  0.00    -0.237 OA
ATOM     83  O   UNL A   1      48.690  37.215  28.730  1.00  0.00    -0.744 OA
ENDBRANCH  79  80
ENDBRANCH  58  72
BRANCH  59  84
ATOM     84  C   UNL A   1      43.439  23.220  26.920  1.00  0.00     0.058 A 
ATOM     85  C   UNL A   1      43.221  22.346  27.997  1.00  0.00     0.135 A 
ATOM     86  C   UNL A   1      43.254  22.715  25.624  1.00  0.00     0.135 A 
ATOM     87  F   UNL A   1      43.392  22.778  29.256  1.00  0.00    -0.206 F 
ATOM     88  C   UNL A   1      42.854  21.019  27.797  1.00  0.00     0.059 A 
ATOM     89  C   UNL A   1      42.859  21.401  25.399  1.00  0.00     0.059 A 
ATOM     90  F   UNL A   1      43.432  23.514  24.559  1.00  0.00    -0.206 F 
ATOM     91  C   UNL A   1      42.672  20.556  26.492  1.00  0.00     0.060 A 
BRANCH  91  92
ATOM     92  S   UNL A   1      42.150  18.845  26.246  1.00  0.00     0.124 S 
ATOM     93  O   UNL A   1      42.279  18.302  27.593  1.00  0.00    -0.237 OA
ATOM     94  O   UNL A   1      40.787  19.009  25.750  1.00  0.00    -0.237 OA
ATOM     95  O   UNL A   1      43.109  18.340  25.268  1.00  0.00    -0.744 OA
ENDBRANCH  91  92
ENDBRANCH  59  84
BRANCH  71  96
ATOM     96  C   UNL A   1      49.537  26.605  26.625  1.00  0.00     0.058 A 
ATOM     97  C   UNL A   1      50.397  26.181  27.650  1.00  0.00     0.135 A 
ATOM     98  C   UNL A   1      50.012  26.545  25.305  1.00  0.00     0.135 A 
ATOM     99  F   UNL A   1      49.995  26.224  28.930  1.00  0.00    -0.206 F 
ATOM    100  C   UNL A   1      51.686  25.735  27.378  1.00  0.00     0.059 A 
ATOM    101  C   UNL A   1      51.287  26.072  25.007  1.00  0.00     0.059 A 
ATOM    102  F   UNL A   1      49.229  26.929  24.285  1.00  0.00    -0.206 F 
ATOM    103  C   UNL A   1      52.121  25.681  26.052  1.00  0.00     0.060 A 
BRANCH 103 104
ATOM    104  S   UNL A   1      53.784  25.066  25.712  1.00  0.00     0.124 S 
ATOM    105  O   UNL A   1      54.248  26.014  24.704  1.00  0.00    -0.237 OA
ATOM    106  O   UNL A   1      54.427  25.166  27.019  1.00  0.00    -0.237 OA
ATOM    107  O   UNL A   1      53.553  23.706  25.235  1.00  0.00    -0.744 OA
ENDBRANCH 103 104
ENDBRANCH  71  96
ENDBRANCH  45  46
ENDBRANCH  37  40
ENDBRANCH  35  36
ENDBRANCH  34  35
ENDBRANCH   1  34
TORSDOF 19
ENDMDL
MODEL 3
REMARK VINA RESULT:     -12.4      1.520      2.003
REMARK SMILES CS(=O)(=O)c1ccc(-c2cc(Cl)cc3c2O[C@H](C(F)(F)F)C(C(=O)NCCCCCCNC(=O)c2ccc(-c4c5nc(c(-c6c(F)cc(S(=O)(=O)[O-])cc6F)c6ccc([nH]6)c(-c6c(F)cc(S(=O)(=O)[O-])cc6F)c6nc(c(-c7c(F)cc(S(=O)(=O)[O-])cc7F)c7ccc4[nH]7)C=C6)C=C5)cc2)=C3)cc1
REMARK SMILES IDX 29 1 28 2 27 3 26 4 25 5 23 6 24 7 22 9 9 10 10 11 15 12
REMARK SMILES IDX 11 13 14 14 16 15 12 16 13 17 101 18 17 19 8 20 5 21 6 22
REMARK SMILES IDX 103 23 7 24 102 25 2 26 1 27 3 28 4 29 18 30 19 31 20 32
REMARK SMILES IDX 21 33 30 34 31 35 32 36 33 37 34 39 35 40 36 41 100 42 37 43
REMARK SMILES IDX 99 44 38 45 39 46 40 47 93 48 41 49 98 50 92 51 94 52 42 53
REMARK SMILES IDX 97 54 91 55 90 56 43 58 77 59 56 60 76 61 57 62 60 63 75 64
REMARK SMILES IDX 95 65 58 66 59 67 74 69 96 70 61 71 44 72 45 73 54 74 46 75
REMARK SMILES IDX 47 76 53 77 55 78 48 79 49 80 50 81 51 82 52 83 78 84 79 85
REMARK SMILES IDX 88 86 80 87 81 88 87 89 89 90 82 91 83 92 84 93 85 94 86 95
REMARK SMILES IDX 62 96 63 97 72 98 64 99 65 100 71 101 73 102 66 103 67 104
REMARK SMILES IDX 68 105 69 106 70 107
REMARK H PARENT 25 8 32 38 94 57 60 68
REMARK Flexibility Score: inf
ROOT
ATOM      1  C   UNL A   1      32.914  30.338  27.245  1.00  0.00     0.002 C 
ENDROOT
BRANCH   1   2
ATOM      2  C   UNL A   1      31.687  30.321  26.330  1.00  0.00     0.002 C 
BRANCH   2   3
ATOM      3  C   UNL A   1      31.904  29.645  24.966  1.00  0.00     0.021 C 
BRANCH   3   4
ATOM      4  C   UNL A   1      30.618  29.184  24.263  1.00  0.00     0.116 C 
BRANCH   4   5
ATOM      5  N   UNL A   1      30.228  27.879  24.760  1.00  0.00    -0.352 N 
ATOM      6  C   UNL A   1      30.661  26.697  24.253  1.00  0.00     0.251 C 
ATOM      7  O   UNL A   1      29.857  25.827  23.939  1.00  0.00    -0.270 OA
ATOM      8  H   UNL A   1      29.603  27.849  25.519  1.00  0.00     0.163 HD
BRANCH   6   9
ATOM      9  C   UNL A   1      32.137  26.471  24.279  1.00  0.00     0.067 C 
ATOM     10  C   UNL A   1      32.166  22.424  24.633  1.00  0.00     0.026 A 
ATOM     11  C   UNL A   1      31.151  22.110  25.575  1.00  0.00     0.033 A 
ATOM     12  C   UNL A   1      32.541  23.776  24.556  1.00  0.00     0.135 A 
ATOM     13  C   UNL A   1      30.699  23.025  26.522  1.00  0.00     0.042 A 
ATOM     14  C   UNL A   1      32.166  24.655  25.603  1.00  0.00     0.019 A 
ATOM     15  O   UNL A   1      33.206  24.328  23.468  1.00  0.00    -0.475 OA
ATOM     16  Cl  UNL A   1      29.461  22.571  27.625  1.00  0.00    -0.084 Cl
ATOM     17  C   UNL A   1      31.268  24.280  26.598  1.00  0.00     0.032 A 
ATOM     18  C   UNL A   1      32.573  26.072  25.491  1.00  0.00     0.025 C 
ATOM     19  C   UNL A   1      32.690  25.688  23.097  1.00  0.00     0.314 C 
BRANCH  10  20
ATOM     20  C   UNL A   1      32.872  21.234  24.078  1.00  0.00    -0.015 A 
ATOM     21  C   UNL A   1      33.649  18.512  24.159  1.00  0.00     0.067 A 
ATOM     22  C   UNL A   1      32.525  18.898  23.423  1.00  0.00     0.021 A 
ATOM     23  C   UNL A   1      34.470  19.482  24.730  1.00  0.00     0.021 A 
ATOM     24  C   UNL A   1      32.156  20.250  23.364  1.00  0.00     0.010 A 
ATOM     25  C   UNL A   1      34.087  20.837  24.674  1.00  0.00     0.010 A 
BRANCH  21  26
ATOM     26  S   UNL A   1      33.885  16.767  24.430  1.00  0.00     0.175 S 
ATOM     27  C   UNL A   1      32.527  16.162  25.387  1.00  0.00     0.163 C 
ATOM     28  O   UNL A   1      35.077  16.630  25.245  1.00  0.00    -0.224 OA
ATOM     29  O   UNL A   1      33.801  16.136  23.124  1.00  0.00    -0.224 OA
ENDBRANCH  21  26
ENDBRANCH  10  20
BRANCH  19  30
ATOM     30  C   UNL A   1      33.771  26.561  22.418  1.00  0.00     0.429 C 
ATOM     31  F   UNL A   1      35.003  26.010  22.491  1.00  0.00    -0.167 F 
ATOM     32  F   UNL A   1      33.487  26.763  21.110  1.00  0.00    -0.167 F 
ATOM     33  F   UNL A   1      33.868  27.797  22.979  1.00  0.00    -0.167 F 
ENDBRANCH  19  30
ENDBRANCH   6   9
ENDBRANCH   4   5
ENDBRANCH   3   4
ENDBRANCH   2   3
ENDBRANCH   1   2
BRANCH   1  34
ATOM     34  C   UNL A   1      33.817  29.112  27.115  1.00  0.00     0.021 C 
BRANCH  34  35
ATOM     35  C   UNL A   1      35.236  29.312  27.636  1.00  0.00     0.116 C 
BRANCH  35  36
ATOM     36  N   UNL A   1      35.272  30.096  28.862  1.00  0.00    -0.352 N 
ATOM     37  C   UNL A   1      36.323  30.304  29.718  1.00  0.00     0.251 C 
ATOM     38  H   UNL A   1      34.427  30.537  29.109  1.00  0.00     0.163 HD
ATOM     39  O   UNL A   1      36.137  30.854  30.801  1.00  0.00    -0.269 OA
BRANCH  37  40
ATOM     40  C   UNL A   1      37.673  29.837  29.341  1.00  0.00     0.039 A 
ATOM     41  C   UNL A   1      38.034  29.823  27.992  1.00  0.00     0.014 A 
ATOM     42  C   UNL A   1      38.586  29.435  30.320  1.00  0.00     0.014 A 
ATOM     43  C   UNL A   1      39.333  29.462  27.631  1.00  0.00     0.010 A 
ATOM     44  C   UNL A   1      39.902  29.152  29.964  1.00  0.00     0.010 A 
ATOM     45  C   UNL A   1      40.288  29.158  28.616  1.00  0.00    -0.014 A 
BRANCH  45  46
ATOM     46  C   UNL A   1      41.695  28.846  28.253  1.00  0.00     0.031 A 
ATOM     47  C   UNL A   1      42.086  27.439  27.891  1.00  0.00     0.074 A 
ATOM     48  C   UNL A   1      42.628  29.816  28.307  1.00  0.00     0.049 A 
ATOM     49  N   UNL A   1      43.270  26.959  27.603  1.00  0.00    -0.248 NA
ATOM     50  C   UNL A   1      41.012  26.432  27.875  1.00  0.00     0.031 C 
ATOM     51  C   UNL A   1      42.379  31.208  28.691  1.00  0.00     0.029 A 
ATOM     52  N   UNL A   1      43.975  29.781  28.048  1.00  0.00    -0.354 N 
ATOM     53  C   UNL A   1      43.084  25.599  27.384  1.00  0.00     0.074 A 
ATOM     54  C   UNL A   1      41.686  25.319  27.628  1.00  0.00     0.031 C 
ATOM     55  C   UNL A   1      43.530  31.897  28.619  1.00  0.00     0.029 A 
ATOM     56  C   UNL A   1      44.604  30.992  28.226  1.00  0.00     0.049 A 
ATOM     57  H   UNL A   1      44.447  28.966  27.763  1.00  0.00     0.167 HD
ATOM     58  C   UNL A   1      43.993  24.674  26.991  1.00  0.00     0.037 A 
ATOM     59  C   UNL A   1      45.902  31.332  28.095  1.00  0.00     0.037 A 
ATOM     60  C   UNL A   1      45.378  24.966  26.732  1.00  0.00     0.049 A 
ATOM     61  C   UNL A   1      46.893  30.284  27.669  1.00  0.00     0.074 A 
ATOM     62  C   UNL A   1      46.366  24.111  26.276  1.00  0.00     0.029 A 
ATOM     63  N   UNL A   1      45.975  26.206  26.909  1.00  0.00    -0.354 N 
ATOM     64  N   UNL A   1      46.689  29.016  27.401  1.00  0.00    -0.248 NA
ATOM     65  C   UNL A   1      48.291  30.711  27.520  1.00  0.00     0.031 C 
ATOM     66  C   UNL A   1      47.570  24.821  26.229  1.00  0.00     0.029 A 
ATOM     67  C   UNL A   1      47.322  26.133  26.596  1.00  0.00     0.049 A 
ATOM     68  H   UNL A   1      45.508  27.020  27.212  1.00  0.00     0.167 HD
ATOM     69  C   UNL A   1      47.925  28.502  27.023  1.00  0.00     0.074 A 
ATOM     70  C   UNL A   1      48.868  29.599  27.086  1.00  0.00     0.031 C 
ATOM     71  C   UNL A   1      48.249  27.238  26.656  1.00  0.00     0.037 A 
BRANCH  58  72
ATOM     72  C   UNL A   1      43.516  23.256  26.817  1.00  0.00     0.058 A 
ATOM     73  C   UNL A   1      43.297  22.701  25.545  1.00  0.00     0.135 A 
ATOM     74  C   UNL A   1      43.312  22.429  27.932  1.00  0.00     0.135 A 
ATOM     75  F   UNL A   1      43.463  23.450  24.442  1.00  0.00    -0.206 F 
ATOM     76  C   UNL A   1      42.865  21.388  25.387  1.00  0.00     0.059 A 
ATOM     77  C   UNL A   1      42.909  21.103  27.798  1.00  0.00     0.059 A 
ATOM     78  F   UNL A   1      43.504  22.906  29.172  1.00  0.00    -0.206 F 
ATOM     79  C   UNL A   1      42.674  20.597  26.520  1.00  0.00     0.060 A 
BRANCH  79  80
ATOM     80  S   UNL A   1      42.120  18.894  26.296  1.00  0.00     0.124 S 
ATOM     81  O   UNL A   1      42.291  18.354  27.642  1.00  0.00    -0.237 OA
ATOM     82  O   UNL A   1      40.740  19.070  25.856  1.00  0.00    -0.237 OA
ATOM     83  O   UNL A   1      43.035  18.366  25.289  1.00  0.00    -0.744 OA
ENDBRANCH  79  80
ENDBRANCH  58  72
BRANCH  59  84
ATOM     84  C   UNL A   1      46.333  32.733  28.356  1.00  0.00     0.058 A 
ATOM     85  C   UNL A   1      46.749  33.135  29.634  1.00  0.00     0.135 A 
ATOM     86  C   UNL A   1      46.349  33.694  27.332  1.00  0.00     0.135 A 
ATOM     87  F   UNL A   1      46.745  32.256  30.648  1.00  0.00    -0.206 F 
ATOM     88  C   UNL A   1      47.147  34.443  29.894  1.00  0.00     0.059 A 
ATOM     89  C   UNL A   1      46.771  34.999  27.561  1.00  0.00     0.059 A 
ATOM     90  F   UNL A   1      45.979  33.356  26.087  1.00  0.00    -0.206 F 
ATOM     91  C   UNL A   1      47.157  35.368  28.848  1.00  0.00     0.060 A 
BRANCH  91  92
ATOM     92  S   UNL A   1      47.719  37.050  29.187  1.00  0.00     0.124 S 
ATOM     93  O   UNL A   1      46.494  37.679  29.665  1.00  0.00    -0.237 OA
ATOM     94  O   UNL A   1      48.759  36.830  30.188  1.00  0.00    -0.237 OA
ATOM     95  O   UNL A   1      48.199  37.510  27.887  1.00  0.00    -0.744 OA
ENDBRANCH  91  92
ENDBRANCH  59  84
BRANCH  71  96
ATOM     96  C   UNL A   1      49.675  26.974  26.255  1.00  0.00     0.058 A 
ATOM     97  C   UNL A   1      50.653  26.606  27.192  1.00  0.00     0.135 A 
ATOM     98  C   UNL A   1      50.054  27.039  24.904  1.00  0.00     0.135 A 
ATOM     99  F   UNL A   1      50.345  26.535  28.497  1.00  0.00    -0.206 F 
ATOM    100  C   UNL A   1      51.962  26.336  26.807  1.00  0.00     0.059 A 
ATOM    101  C   UNL A   1      51.351  26.742  24.493  1.00  0.00     0.059 A 
ATOM    102  F   UNL A   1      49.157  27.376  23.964  1.00  0.00    -0.206 F 
ATOM    103  C   UNL A   1      52.300  26.402  25.454  1.00  0.00     0.060 A 
BRANCH 103 104
ATOM    104  S   UNL A   1      53.994  26.014  24.967  1.00  0.00     0.124 S 
ATOM    105  O   UNL A   1      54.189  24.710  25.590  1.00  0.00    -0.237 OA
ATOM    106  O   UNL A   1      53.907  26.014  23.509  1.00  0.00    -0.237 OA
ATOM    107  O   UNL A   1      54.773  27.108  25.542  1.00  0.00    -0.744 OA
ENDBRANCH 103 104
ENDBRANCH  71  96
ENDBRANCH  45  46
ENDBRANCH  37  40
ENDBRANCH  35  36
ENDBRANCH  34  35
ENDBRANCH   1  34
TORSDOF 19
ENDMDL
