MODEL 1
REMARK VINA RESULT:     -11.7      0.000      0.000
REMARK SMILES CNC(=O)[C@H](C)S(=O)(=O)c1cc(C(=O)NCCCCCCNC(=O)c2ccc(-c3c4nc(c(-c5c(F)cc(S(=O)(=O)[O-])cc5F)c5ccc([nH]5)c(-c5c(F)cc(S(=O)(=O)[O-])cc5F)c5nc(c(-c6c(F)cc(S(=O)(=O)[O-])cc6F)c6ccc3[nH]6)C=C5)C=C4)cc2)c(C)cc1C
REMARK SMILES IDX 18 1 17 2 16 3 15 4 13 5 14 6 12 8 10 9 11 10 94 11 93 12
REMARK SMILES IDX 95 13 91 14 92 15 7 16 8 17 9 18 5 19 6 20 3 21 1 22 2 23
REMARK SMILES IDX 4 25 19 26 20 27 21 28 22 29 23 30 24 32 25 33 26 34 90 35
REMARK SMILES IDX 27 36 89 37 28 38 29 39 30 40 83 41 31 42 88 43 82 44 84 45
REMARK SMILES IDX 32 46 87 47 81 48 80 49 33 51 67 52 46 53 66 54 47 55 50 56
REMARK SMILES IDX 65 57 85 58 48 59 49 60 64 62 86 63 51 64 34 65 35 66 44 67
REMARK SMILES IDX 36 68 37 69 43 70 45 71 38 72 39 73 40 74 41 75 42 76 68 77
REMARK SMILES IDX 69 78 78 79 70 80 71 81 77 82 79 83 72 84 73 85 74 86 75 87
REMARK SMILES IDX 76 88 52 89 53 90 62 91 54 92 55 93 61 94 63 95 56 96 57 97
REMARK SMILES IDX 58 98 59 99 60 100
REMARK H PARENT 15 7 2 24 22 31 84 50 50 61
REMARK Flexibility Score: inf
ROOT
ATOM      1  C   UNL A   1      39.979  21.858  26.745  1.00  0.00     0.002 C 
ENDROOT
BRANCH   1   2
ATOM      2  C   UNL A   1      38.936  22.909  26.367  1.00  0.00     0.021 C 
BRANCH   2   3
ATOM      3  C   UNL A   1      37.614  22.331  25.848  1.00  0.00     0.116 C 
BRANCH   3   4
ATOM      4  N   UNL A   1      37.506  22.570  24.430  1.00  0.00    -0.352 N 
ATOM      5  C   UNL A   1      36.484  22.778  23.552  1.00  0.00     0.251 C 
ATOM      6  O   UNL A   1      36.845  22.854  22.371  1.00  0.00    -0.269 OA
ATOM      7  H   UNL A   1      38.385  22.589  23.988  1.00  0.00     0.163 HD
BRANCH   5   8
ATOM      8  C   UNL A   1      35.022  22.986  23.847  1.00  0.00     0.044 A 
ATOM      9  C   UNL A   1      33.163  24.546  23.254  1.00  0.00     0.071 A 
ATOM     10  C   UNL A   1      34.528  24.184  23.264  1.00  0.00     0.034 A 
ATOM     11  C   UNL A   1      32.227  23.664  23.794  1.00  0.00    -0.032 A 
ATOM     12  C   UNL A   1      32.718  22.528  24.458  1.00  0.00     0.009 A 
ATOM     13  C   UNL A   1      30.731  23.781  23.746  1.00  0.00     0.046 C 
ATOM     14  C   UNL A   1      34.082  22.151  24.474  1.00  0.00    -0.038 A 
ATOM     15  C   UNL A   1      34.331  20.823  25.116  1.00  0.00     0.045 C 
BRANCH   9  16
ATOM     16  S   UNL A   1      32.734  26.065  22.409  1.00  0.00     0.190 S 
ATOM     17  O   UNL A   1      31.465  25.815  21.748  1.00  0.00    -0.223 OA
ATOM     18  O   UNL A   1      33.876  26.425  21.584  1.00  0.00    -0.223 OA
BRANCH  16  19
ATOM     19  C   UNL A   1      32.497  27.376  23.559  1.00  0.00     0.199 C 
ATOM     20  C   UNL A   1      33.109  27.236  24.935  1.00  0.00     0.036 C 
BRANCH  19  21
ATOM     21  C   UNL A   1      32.623  28.757  22.968  1.00  0.00     0.238 C 
ATOM     22  C   UNL A   1      30.200  29.207  22.234  1.00  0.00     0.142 C 
ATOM     23  N   UNL A   1      31.615  29.445  22.377  1.00  0.00    -0.358 N 
ATOM     24  H   UNL A   1      31.914  30.283  21.956  1.00  0.00     0.163 HD
ATOM     25  O   UNL A   1      33.738  29.291  22.907  1.00  0.00    -0.274 OA
ENDBRANCH  19  21
ENDBRANCH  16  19
ENDBRANCH   9  16
ENDBRANCH   5   8
ENDBRANCH   3   4
ENDBRANCH   2   3
ENDBRANCH   1   2
BRANCH   1  26
ATOM     26  C   UNL A   1      40.792  22.202  27.995  1.00  0.00     0.002 C 
BRANCH  26  27
ATOM     27  C   UNL A   1      42.311  22.105  27.826  1.00  0.00     0.021 C 
BRANCH  27  28
ATOM     28  C   UNL A   1      43.023  23.450  27.724  1.00  0.00     0.116 C 
BRANCH  28  29
ATOM     29  N   UNL A   1      42.759  24.092  26.449  1.00  0.00    -0.352 N 
ATOM     30  C   UNL A   1      42.038  25.227  26.182  1.00  0.00     0.251 C 
ATOM     31  H   UNL A   1      43.153  23.649  25.663  1.00  0.00     0.163 HD
ATOM     32  O   UNL A   1      41.661  25.455  25.036  1.00  0.00    -0.269 OA
BRANCH  30  33
ATOM     33  C   UNL A   1      41.727  26.177  27.272  1.00  0.00     0.039 A 
ATOM     34  C   UNL A   1      42.537  27.303  27.444  1.00  0.00     0.014 A 
ATOM     35  C   UNL A   1      40.677  25.926  28.160  1.00  0.00     0.014 A 
ATOM     36  C   UNL A   1      42.280  28.183  28.497  1.00  0.00     0.010 A 
ATOM     37  C   UNL A   1      40.371  26.848  29.156  1.00  0.00     0.010 A 
ATOM     38  C   UNL A   1      41.191  27.967  29.356  1.00  0.00    -0.014 A 
BRANCH  38  39
ATOM     39  C   UNL A   1      40.937  28.865  30.511  1.00  0.00     0.031 A 
ATOM     40  C   UNL A   1      41.772  28.733  31.759  1.00  0.00     0.074 A 
ATOM     41  C   UNL A   1      39.940  29.769  30.452  1.00  0.00     0.049 A 
ATOM     42  N   UNL A   1      41.687  29.393  32.885  1.00  0.00    -0.248 NA
ATOM     43  C   UNL A   1      42.821  27.699  31.751  1.00  0.00     0.031 C 
ATOM     44  C   UNL A   1      39.035  29.958  29.317  1.00  0.00     0.029 A 
ATOM     45  N   UNL A   1      39.521  30.699  31.369  1.00  0.00    -0.354 N 
ATOM     46  C   UNL A   1      42.658  28.847  33.719  1.00  0.00     0.074 A 
ATOM     47  C   UNL A   1      43.274  27.758  32.994  1.00  0.00     0.031 C 
ATOM     48  C   UNL A   1      38.186  30.960  29.594  1.00  0.00     0.029 A 
ATOM     49  C   UNL A   1      38.464  31.463  30.936  1.00  0.00     0.049 A 
ATOM     50  H   UNL A   1      39.937  30.807  32.255  1.00  0.00     0.167 HD
ATOM     51  C   UNL A   1      43.024  29.237  34.963  1.00  0.00     0.037 A 
ATOM     52  C   UNL A   1      37.797  32.460  31.551  1.00  0.00     0.037 A 
ATOM     53  C   UNL A   1      42.425  30.342  35.665  1.00  0.00     0.049 A 
ATOM     54  C   UNL A   1      38.236  32.888  32.926  1.00  0.00     0.074 A 
ATOM     55  C   UNL A   1      42.750  30.851  36.910  1.00  0.00     0.029 A 
ATOM     56  N   UNL A   1      41.379  31.114  35.180  1.00  0.00    -0.354 N 
ATOM     57  N   UNL A   1      39.189  32.395  33.680  1.00  0.00    -0.248 NA
ATOM     58  C   UNL A   1      37.519  34.021  33.525  1.00  0.00     0.031 C 
ATOM     59  C   UNL A   1      41.872  31.902  37.195  1.00  0.00     0.029 A 
ATOM     60  C   UNL A   1      41.039  32.088  36.103  1.00  0.00     0.049 A 
ATOM     61  H   UNL A   1      40.943  30.988  34.306  1.00  0.00     0.167 HD
ATOM     62  C   UNL A   1      39.214  33.183  34.826  1.00  0.00     0.074 A 
ATOM     63  C   UNL A   1      38.186  34.190  34.659  1.00  0.00     0.031 C 
ATOM     64  C   UNL A   1      40.020  33.089  35.915  1.00  0.00     0.037 A 
BRANCH  51  65
ATOM     65  C   UNL A   1      44.127  28.466  35.640  1.00  0.00     0.058 A 
ATOM     66  C   UNL A   1      45.481  28.797  35.459  1.00  0.00     0.135 A 
ATOM     67  C   UNL A   1      43.828  27.395  36.497  1.00  0.00     0.135 A 
ATOM     68  F   UNL A   1      45.829  29.800  34.637  1.00  0.00    -0.206 F 
ATOM     69  C   UNL A   1      46.497  28.074  36.076  1.00  0.00     0.059 A 
ATOM     70  C   UNL A   1      44.827  26.678  37.151  1.00  0.00     0.059 A 
ATOM     71  F   UNL A   1      42.552  27.031  36.707  1.00  0.00    -0.206 F 
ATOM     72  C   UNL A   1      46.160  27.016  36.921  1.00  0.00     0.060 A 
BRANCH  72  73
ATOM     73  S   UNL A   1      47.491  26.090  37.715  1.00  0.00     0.124 S 
ATOM     74  O   UNL A   1      46.890  25.768  39.006  1.00  0.00    -0.237 OA
ATOM     75  O   UNL A   1      47.675  24.965  36.804  1.00  0.00    -0.237 OA
ATOM     76  O   UNL A   1      48.592  27.047  37.758  1.00  0.00    -0.744 OA
ENDBRANCH  72  73
ENDBRANCH  51  65
BRANCH  52  77
ATOM     77  C   UNL A   1      36.675  33.144  30.856  1.00  0.00     0.058 A 
ATOM     78  C   UNL A   1      36.917  34.150  29.906  1.00  0.00     0.135 A 
ATOM     79  C   UNL A   1      35.339  32.804  31.118  1.00  0.00     0.135 A 
ATOM     80  F   UNL A   1      38.176  34.513  29.622  1.00  0.00    -0.206 F 
ATOM     81  C   UNL A   1      35.876  34.809  29.260  1.00  0.00     0.059 A 
ATOM     82  C   UNL A   1      34.282  33.429  30.465  1.00  0.00     0.059 A 
ATOM     83  F   UNL A   1      35.053  31.835  32.002  1.00  0.00    -0.206 F 
ATOM     84  C   UNL A   1      34.561  34.440  29.546  1.00  0.00     0.060 A 
BRANCH  84  85
ATOM     85  S   UNL A   1      33.219  35.272  28.671  1.00  0.00     0.124 S 
ATOM     86  O   UNL A   1      33.955  36.161  27.780  1.00  0.00    -0.237 OA
ATOM     87  O   UNL A   1      32.530  34.154  28.034  1.00  0.00    -0.237 OA
ATOM     88  O   UNL A   1      32.474  35.927  29.743  1.00  0.00    -0.744 OA
ENDBRANCH  84  85
ENDBRANCH  52  77
BRANCH  64  89
ATOM     89  C   UNL A   1      39.861  34.138  36.981  1.00  0.00     0.058 A 
ATOM     90  C   UNL A   1      38.996  33.968  38.073  1.00  0.00     0.135 A 
ATOM     91  C   UNL A   1      40.607  35.327  36.915  1.00  0.00     0.135 A 
ATOM     92  F   UNL A   1      38.259  32.852  38.185  1.00  0.00    -0.206 F 
ATOM     93  C   UNL A   1      38.841  34.960  39.036  1.00  0.00     0.059 A 
ATOM     94  C   UNL A   1      40.492  36.317  37.884  1.00  0.00     0.059 A 
ATOM     95  F   UNL A   1      41.461  35.535  35.900  1.00  0.00    -0.206 F 
ATOM     96  C   UNL A   1      39.590  36.133  38.930  1.00  0.00     0.060 A 
BRANCH  96  97
ATOM     97  S   UNL A   1      39.376  37.415  40.183  1.00  0.00     0.124 S 
ATOM     98  O   UNL A   1      40.742  37.906  40.334  1.00  0.00    -0.237 OA
ATOM     99  O   UNL A   1      38.442  38.331  39.537  1.00  0.00    -0.237 OA
ATOM    100  O   UNL A   1      38.840  36.685  41.328  1.00  0.00    -0.744 OA
ENDBRANCH  96  97
ENDBRANCH  64  89
ENDBRANCH  38  39
ENDBRANCH  30  33
ENDBRANCH  28  29
ENDBRANCH  27  28
ENDBRANCH  26  27
ENDBRANCH   1  26
TORSDOF 19
ENDMDL
MODEL 2
REMARK VINA RESULT:     -11.4      1.865      3.562
REMARK SMILES CNC(=O)[C@H](C)S(=O)(=O)c1cc(C(=O)NCCCCCCNC(=O)c2ccc(-c3c4nc(c(-c5c(F)cc(S(=O)(=O)[O-])cc5F)c5ccc([nH]5)c(-c5c(F)cc(S(=O)(=O)[O-])cc5F)c5nc(c(-c6c(F)cc(S(=O)(=O)[O-])cc6F)c6ccc3[nH]6)C=C5)C=C4)cc2)c(C)cc1C
REMARK SMILES IDX 18 1 17 2 16 3 15 4 13 5 14 6 12 8 10 9 11 10 94 11 93 12
REMARK SMILES IDX 95 13 91 14 92 15 7 16 8 17 9 18 5 19 6 20 3 21 1 22 2 23
REMARK SMILES IDX 4 25 19 26 20 27 21 28 22 29 23 30 24 32 25 33 26 34 90 35
REMARK SMILES IDX 27 36 89 37 28 38 29 39 30 40 83 41 31 42 88 43 82 44 84 45
REMARK SMILES IDX 32 46 87 47 81 48 80 49 33 51 67 52 46 53 66 54 47 55 50 56
REMARK SMILES IDX 65 57 85 58 48 59 49 60 64 62 86 63 51 64 34 65 35 66 44 67
REMARK SMILES IDX 36 68 37 69 43 70 45 71 38 72 39 73 40 74 41 75 42 76 68 77
REMARK SMILES IDX 69 78 78 79 70 80 71 81 77 82 79 83 72 84 73 85 74 86 75 87
REMARK SMILES IDX 76 88 52 89 53 90 62 91 54 92 55 93 61 94 63 95 56 96 57 97
REMARK SMILES IDX 58 98 59 99 60 100
REMARK H PARENT 15 7 2 24 22 31 84 50 50 61
REMARK Flexibility Score: inf
ROOT
ATOM      1  C   UNL A   1      40.196  22.316  27.078  1.00  0.00     0.002 C 
ENDROOT
BRANCH   1   2
ATOM      2  C   UNL A   1      39.134  21.825  26.093  1.00  0.00     0.021 C 
BRANCH   2   3
ATOM      3  C   UNL A   1      37.907  22.737  25.979  1.00  0.00     0.116 C 
BRANCH   3   4
ATOM      4  N   UNL A   1      37.702  23.100  24.598  1.00  0.00    -0.352 N 
ATOM      5  C   UNL A   1      36.637  23.140  23.749  1.00  0.00     0.251 C 
ATOM      6  O   UNL A   1      36.934  23.438  22.585  1.00  0.00    -0.269 OA
ATOM      7  H   UNL A   1      38.535  23.391  24.163  1.00  0.00     0.163 HD
BRANCH   5   8
ATOM      8  C   UNL A   1      35.179  22.935  24.063  1.00  0.00     0.044 A 
ATOM      9  C   UNL A   1      33.619  21.111  24.760  1.00  0.00     0.071 A 
ATOM     10  C   UNL A   1      34.873  21.567  24.297  1.00  0.00     0.034 A 
ATOM     11  C   UNL A   1      32.630  22.048  25.060  1.00  0.00    -0.032 A 
ATOM     12  C   UNL A   1      32.891  23.390  24.738  1.00  0.00     0.009 A 
ATOM     13  C   UNL A   1      31.299  21.792  25.704  1.00  0.00     0.046 C 
ATOM     14  C   UNL A   1      34.143  23.861  24.277  1.00  0.00    -0.038 A 
ATOM     15  C   UNL A   1      34.216  25.349  24.150  1.00  0.00     0.045 C 
BRANCH   9  16
ATOM     16  S   UNL A   1      33.455  19.353  25.058  1.00  0.00     0.190 S 
ATOM     17  O   UNL A   1      32.667  19.221  26.270  1.00  0.00    -0.223 OA
ATOM     18  O   UNL A   1      34.799  18.798  25.052  1.00  0.00    -0.223 OA
BRANCH  16  19
ATOM     19  C   UNL A   1      32.572  18.576  23.749  1.00  0.00     0.199 C 
ATOM     20  C   UNL A   1      32.155  19.425  22.568  1.00  0.00     0.036 C 
BRANCH  19  21
ATOM     21  C   UNL A   1      33.084  17.210  23.374  1.00  0.00     0.238 C 
ATOM     22  C   UNL A   1      32.498  15.861  25.483  1.00  0.00     0.142 C 
ATOM     23  N   UNL A   1      33.065  16.122  24.184  1.00  0.00    -0.358 N 
ATOM     24  H   UNL A   1      33.541  15.349  23.804  1.00  0.00     0.163 HD
ATOM     25  O   UNL A   1      33.666  17.055  22.292  1.00  0.00    -0.274 OA
ENDBRANCH  19  21
ENDBRANCH  16  19
ENDBRANCH   9  16
ENDBRANCH   5   8
ENDBRANCH   3   4
ENDBRANCH   2   3
ENDBRANCH   1   2
BRANCH   1  26
ATOM     26  C   UNL A   1      41.636  22.114  26.600  1.00  0.00     0.002 C 
BRANCH  26  27
ATOM     27  C   UNL A   1      42.710  22.362  27.664  1.00  0.00     0.021 C 
BRANCH  27  28
ATOM     28  C   UNL A   1      43.583  23.586  27.406  1.00  0.00     0.116 C 
BRANCH  28  29
ATOM     29  N   UNL A   1      43.144  24.309  26.226  1.00  0.00    -0.352 N 
ATOM     30  C   UNL A   1      42.336  25.413  26.136  1.00  0.00     0.251 C 
ATOM     31  H   UNL A   1      43.473  23.956  25.367  1.00  0.00     0.163 HD
ATOM     32  O   UNL A   1      41.822  25.707  25.061  1.00  0.00    -0.269 OA
BRANCH  30  33
ATOM     33  C   UNL A   1      42.097  26.252  27.331  1.00  0.00     0.039 A 
ATOM     34  C   UNL A   1      41.046  25.924  28.191  1.00  0.00     0.014 A 
ATOM     35  C   UNL A   1      42.869  27.392  27.569  1.00  0.00     0.014 A 
ATOM     36  C   UNL A   1      40.782  26.733  29.298  1.00  0.00     0.010 A 
ATOM     37  C   UNL A   1      42.659  28.149  28.717  1.00  0.00     0.010 A 
ATOM     38  C   UNL A   1      41.591  27.847  29.574  1.00  0.00    -0.014 A 
BRANCH  38  39
ATOM     39  C   UNL A   1      41.292  28.747  30.717  1.00  0.00     0.031 A 
ATOM     40  C   UNL A   1      42.110  28.651  31.978  1.00  0.00     0.074 A 
ATOM     41  C   UNL A   1      40.269  29.620  30.634  1.00  0.00     0.049 A 
ATOM     42  N   UNL A   1      41.988  29.318  33.097  1.00  0.00    -0.248 NA
ATOM     43  C   UNL A   1      43.191  27.650  31.996  1.00  0.00     0.031 C 
ATOM     44  C   UNL A   1      39.376  29.770  29.484  1.00  0.00     0.029 A 
ATOM     45  N   UNL A   1      39.806  30.543  31.536  1.00  0.00    -0.354 N 
ATOM     46  C   UNL A   1      42.962  28.809  33.951  1.00  0.00     0.074 A 
ATOM     47  C   UNL A   1      43.622  27.734  33.245  1.00  0.00     0.031 C 
ATOM     48  C   UNL A   1      38.492  30.748  29.738  1.00  0.00     0.029 A 
ATOM     49  C   UNL A   1      38.734  31.271  31.080  1.00  0.00     0.049 A 
ATOM     50  H   UNL A   1      40.205  30.672  32.428  1.00  0.00     0.167 HD
ATOM     51  C   UNL A   1      43.297  29.221  35.197  1.00  0.00     0.037 A 
ATOM     52  C   UNL A   1      38.027  32.252  31.676  1.00  0.00     0.037 A 
ATOM     53  C   UNL A   1      42.654  30.313  35.879  1.00  0.00     0.049 A 
ATOM     54  C   UNL A   1      38.431  32.705  33.053  1.00  0.00     0.074 A 
ATOM     55  C   UNL A   1      42.943  30.842  37.125  1.00  0.00     0.029 A 
ATOM     56  N   UNL A   1      41.592  31.048  35.371  1.00  0.00    -0.354 N 
ATOM     57  N   UNL A   1      39.387  32.248  33.827  1.00  0.00    -0.248 NA
ATOM     58  C   UNL A   1      37.671  33.820  33.631  1.00  0.00     0.031 C 
ATOM     59  C   UNL A   1      42.029  31.868  37.386  1.00  0.00     0.029 A 
ATOM     60  C   UNL A   1      41.208  32.019  36.280  1.00  0.00     0.049 A 
ATOM     61  H   UNL A   1      41.173  30.901  34.492  1.00  0.00     0.167 HD
ATOM     62  C   UNL A   1      39.370  33.046  34.965  1.00  0.00     0.074 A 
ATOM     63  C   UNL A   1      38.314  34.020  34.774  1.00  0.00     0.031 C 
ATOM     64  C   UNL A   1      40.161  32.987  36.067  1.00  0.00     0.037 A 
BRANCH  51  65
ATOM     65  C   UNL A   1      44.413  28.490  35.897  1.00  0.00     0.058 A 
ATOM     66  C   UNL A   1      45.755  28.877  35.754  1.00  0.00     0.135 A 
ATOM     67  C   UNL A   1      44.135  27.402  36.739  1.00  0.00     0.135 A 
ATOM     68  F   UNL A   1      46.084  29.900  34.949  1.00  0.00    -0.206 F 
ATOM     69  C   UNL A   1      46.784  28.192  36.393  1.00  0.00     0.059 A 
ATOM     70  C   UNL A   1      45.145  26.721  37.414  1.00  0.00     0.059 A 
ATOM     71  F   UNL A   1      42.870  26.985  36.912  1.00  0.00    -0.206 F 
ATOM     72  C   UNL A   1      46.469  27.114  37.221  1.00  0.00     0.060 A 
BRANCH  72  73
ATOM     73  S   UNL A   1      47.815  26.237  38.044  1.00  0.00     0.124 S 
ATOM     74  O   UNL A   1      47.182  24.959  38.354  1.00  0.00    -0.237 OA
ATOM     75  O   UNL A   1      48.842  26.200  37.008  1.00  0.00    -0.237 OA
ATOM     76  O   UNL A   1      48.117  27.081  39.195  1.00  0.00    -0.744 OA
ENDBRANCH  72  73
ENDBRANCH  51  65
BRANCH  52  77
ATOM     77  C   UNL A   1      36.896  32.896  30.957  1.00  0.00     0.058 A 
ATOM     78  C   UNL A   1      35.565  32.596  31.286  1.00  0.00     0.135 A 
ATOM     79  C   UNL A   1      37.119  33.830  29.933  1.00  0.00     0.135 A 
ATOM     80  F   UNL A   1      35.298  31.708  32.256  1.00  0.00    -0.206 F 
ATOM     81  C   UNL A   1      34.497  33.179  30.613  1.00  0.00     0.059 A 
ATOM     82  C   UNL A   1      36.068  34.448  29.264  1.00  0.00     0.059 A 
ATOM     83  F   UNL A   1      38.373  34.168  29.594  1.00  0.00    -0.206 F 
ATOM     84  C   UNL A   1      34.759  34.106  29.603  1.00  0.00     0.060 A 
BRANCH  84  85
ATOM     85  S   UNL A   1      33.367  34.890  28.762  1.00  0.00     0.124 S 
ATOM     86  O   UNL A   1      32.435  35.093  29.865  1.00  0.00    -0.237 OA
ATOM     87  O   UNL A   1      33.980  36.095  28.213  1.00  0.00    -0.237 OA
ATOM     88  O   UNL A   1      32.968  33.893  27.773  1.00  0.00    -0.744 OA
ENDBRANCH  84  85
ENDBRANCH  52  77
BRANCH  64  89
ATOM     89  C   UNL A   1      39.954  34.039  37.122  1.00  0.00     0.058 A 
ATOM     90  C   UNL A   1      39.166  33.810  38.261  1.00  0.00     0.135 A 
ATOM     91  C   UNL A   1      40.573  35.294  36.995  1.00  0.00     0.135 A 
ATOM     92  F   UNL A   1      38.550  32.630  38.431  1.00  0.00    -0.206 F 
ATOM     93  C   UNL A   1      38.963  34.804  39.213  1.00  0.00     0.059 A 
ATOM     94  C   UNL A   1      40.411  36.289  37.951  1.00  0.00     0.059 A 
ATOM     95  F   UNL A   1      41.351  35.561  35.933  1.00  0.00    -0.206 F 
ATOM     96  C   UNL A   1      39.585  36.042  39.047  1.00  0.00     0.060 A 
BRANCH  96  97
ATOM     97  S   UNL A   1      39.310  37.325  40.286  1.00  0.00     0.124 S 
ATOM     98  O   UNL A   1      38.546  38.308  39.523  1.00  0.00    -0.237 OA
ATOM     99  O   UNL A   1      38.567  36.609  41.318  1.00  0.00    -0.237 OA
ATOM    100  O   UNL A   1      40.661  37.732  40.661  1.00  0.00    -0.744 OA
ENDBRANCH  96  97
ENDBRANCH  64  89
ENDBRANCH  38  39
ENDBRANCH  30  33
ENDBRANCH  28  29
ENDBRANCH  27  28
ENDBRANCH  26  27
ENDBRANCH   1  26
TORSDOF 19
ENDMDL
MODEL 3
REMARK VINA RESULT:     -11.3      1.141      2.077
REMARK SMILES CNC(=O)[C@H](C)S(=O)(=O)c1cc(C(=O)NCCCCCCNC(=O)c2ccc(-c3c4nc(c(-c5c(F)cc(S(=O)(=O)[O-])cc5F)c5ccc([nH]5)c(-c5c(F)cc(S(=O)(=O)[O-])cc5F)c5nc(c(-c6c(F)cc(S(=O)(=O)[O-])cc6F)c6ccc3[nH]6)C=C5)C=C4)cc2)c(C)cc1C
REMARK SMILES IDX 18 1 17 2 16 3 15 4 13 5 14 6 12 8 10 9 11 10 94 11 93 12
REMARK SMILES IDX 95 13 91 14 92 15 7 16 8 17 9 18 5 19 6 20 3 21 1 22 2 23
REMARK SMILES IDX 4 25 19 26 20 27 21 28 22 29 23 30 24 32 25 33 26 34 90 35
REMARK SMILES IDX 27 36 89 37 28 38 29 39 30 40 83 41 31 42 88 43 82 44 84 45
REMARK SMILES IDX 32 46 87 47 81 48 80 49 33 51 67 52 46 53 66 54 47 55 50 56
REMARK SMILES IDX 65 57 85 58 48 59 49 60 64 62 86 63 51 64 34 65 35 66 44 67
REMARK SMILES IDX 36 68 37 69 43 70 45 71 38 72 39 73 40 74 41 75 42 76 68 77
REMARK SMILES IDX 69 78 78 79 70 80 71 81 77 82 79 83 72 84 73 85 74 86 75 87
REMARK SMILES IDX 76 88 52 89 53 90 62 91 54 92 55 93 61 94 63 95 56 96 57 97
REMARK SMILES IDX 58 98 59 99 60 100
REMARK H PARENT 15 7 2 24 22 31 84 50 50 61
REMARK Flexibility Score: inf
ROOT
ATOM      1  C   UNL A   1      40.139  22.395  26.284  1.00  0.00     0.002 C 
ENDROOT
BRANCH   1   2
ATOM      2  C   UNL A   1      38.612  22.454  26.284  1.00  0.00     0.021 C 
BRANCH   2   3
ATOM      3  C   UNL A   1      37.941  21.490  25.297  1.00  0.00     0.116 C 
BRANCH   3   4
ATOM      4  N   UNL A   1      37.359  22.240  24.212  1.00  0.00    -0.352 N 
ATOM      5  C   UNL A   1      36.096  22.592  23.838  1.00  0.00     0.251 C 
ATOM      6  O   UNL A   1      36.040  23.182  22.752  1.00  0.00    -0.269 OA
ATOM      7  H   UNL A   1      38.039  22.582  23.589  1.00  0.00     0.163 HD
BRANCH   5   8
ATOM      8  C   UNL A   1      34.808  22.410  24.598  1.00  0.00     0.044 A 
ATOM      9  C   UNL A   1      32.863  23.759  25.397  1.00  0.00     0.071 A 
ATOM     10  C   UNL A   1      34.156  23.649  24.841  1.00  0.00     0.034 A 
ATOM     11  C   UNL A   1      32.149  22.593  25.678  1.00  0.00    -0.032 A 
ATOM     12  C   UNL A   1      32.824  21.371  25.533  1.00  0.00     0.009 A 
ATOM     13  C   UNL A   1      30.718  22.487  26.120  1.00  0.00     0.046 C 
ATOM     14  C   UNL A   1      34.118  21.246  24.976  1.00  0.00    -0.038 A 
ATOM     15  C   UNL A   1      34.558  19.828  24.787  1.00  0.00     0.045 C 
BRANCH   9  16
ATOM     16  S   UNL A   1      32.188  25.409  25.561  1.00  0.00     0.190 S 
ATOM     17  O   UNL A   1      33.297  26.322  25.344  1.00  0.00    -0.223 OA
ATOM     18  O   UNL A   1      31.504  25.458  26.844  1.00  0.00    -0.223 OA
BRANCH  16  19
ATOM     19  C   UNL A   1      30.979  25.718  24.321  1.00  0.00     0.199 C 
ATOM     20  C   UNL A   1      30.683  27.156  23.957  1.00  0.00     0.036 C 
BRANCH  19  21
ATOM     21  C   UNL A   1      31.042  24.786  23.139  1.00  0.00     0.238 C 
ATOM     22  C   UNL A   1      33.019  25.777  21.826  1.00  0.00     0.142 C 
ATOM     23  N   UNL A   1      31.900  24.909  22.095  1.00  0.00    -0.358 N 
ATOM     24  H   UNL A   1      31.718  24.271  21.368  1.00  0.00     0.163 HD
ATOM     25  O   UNL A   1      30.195  23.891  23.026  1.00  0.00    -0.274 OA
ENDBRANCH  19  21
ENDBRANCH  16  19
ENDBRANCH   9  16
ENDBRANCH   5   8
ENDBRANCH   3   4
ENDBRANCH   2   3
ENDBRANCH   1   2
BRANCH   1  26
ATOM     26  C   UNL A   1      40.753  22.036  27.639  1.00  0.00     0.002 C 
BRANCH  26  27
ATOM     27  C   UNL A   1      42.277  21.875  27.636  1.00  0.00     0.021 C 
BRANCH  27  28
ATOM     28  C   UNL A   1      43.050  23.186  27.744  1.00  0.00     0.116 C 
BRANCH  28  29
ATOM     29  N   UNL A   1      43.045  23.907  26.484  1.00  0.00    -0.352 N 
ATOM     30  C   UNL A   1      42.500  25.130  26.188  1.00  0.00     0.251 C 
ATOM     31  H   UNL A   1      43.495  23.454  25.735  1.00  0.00     0.163 HD
ATOM     32  O   UNL A   1      42.318  25.450  25.017  1.00  0.00    -0.269 OA
BRANCH  30  33
ATOM     33  C   UNL A   1      42.144  26.064  27.279  1.00  0.00     0.039 A 
ATOM     34  C   UNL A   1      42.945  27.186  27.500  1.00  0.00     0.014 A 
ATOM     35  C   UNL A   1      41.059  25.798  28.119  1.00  0.00     0.014 A 
ATOM     36  C   UNL A   1      42.645  28.051  28.555  1.00  0.00     0.010 A 
ATOM     37  C   UNL A   1      40.712  26.705  29.116  1.00  0.00     0.010 A 
ATOM     38  C   UNL A   1      41.522  27.821  29.367  1.00  0.00    -0.014 A 
BRANCH  38  39
ATOM     39  C   UNL A   1      41.220  28.701  30.523  1.00  0.00     0.031 A 
ATOM     40  C   UNL A   1      42.031  28.578  31.788  1.00  0.00     0.074 A 
ATOM     41  C   UNL A   1      40.202  29.581  30.451  1.00  0.00     0.049 A 
ATOM     42  N   UNL A   1      41.905  29.225  32.918  1.00  0.00    -0.248 NA
ATOM     43  C   UNL A   1      43.106  27.572  31.794  1.00  0.00     0.031 C 
ATOM     44  C   UNL A   1      39.317  29.757  29.298  1.00  0.00     0.029 A 
ATOM     45  N   UNL A   1      39.739  30.491  31.367  1.00  0.00    -0.354 N 
ATOM     46  C   UNL A   1      42.872  28.696  33.768  1.00  0.00     0.074 A 
ATOM     47  C   UNL A   1      43.530  27.631  33.047  1.00  0.00     0.031 C 
ATOM     48  C   UNL A   1      38.437  30.735  29.565  1.00  0.00     0.029 A 
ATOM     49  C   UNL A   1      38.673  31.232  30.917  1.00  0.00     0.049 A 
ATOM     50  H   UNL A   1      40.134  30.601  32.263  1.00  0.00     0.167 HD
ATOM     51  C   UNL A   1      43.201  29.084  35.023  1.00  0.00     0.037 A 
ATOM     52  C   UNL A   1      37.969  32.206  31.526  1.00  0.00     0.037 A 
ATOM     53  C   UNL A   1      42.559  30.167  35.721  1.00  0.00     0.049 A 
ATOM     54  C   UNL A   1      38.366  32.632  32.915  1.00  0.00     0.074 A 
ATOM     55  C   UNL A   1      42.844  30.672  36.978  1.00  0.00     0.029 A 
ATOM     56  N   UNL A   1      41.504  30.916  35.220  1.00  0.00    -0.354 N 
ATOM     57  N   UNL A   1      39.315  32.155  33.685  1.00  0.00    -0.248 NA
ATOM     58  C   UNL A   1      37.608  33.740  33.508  1.00  0.00     0.031 C 
ATOM     59  C   UNL A   1      41.934  31.697  37.253  1.00  0.00     0.029 A 
ATOM     60  C   UNL A   1      41.120  31.872  36.145  1.00  0.00     0.049 A 
ATOM     61  H   UNL A   1      41.090  30.788  34.336  1.00  0.00     0.167 HD
ATOM     62  C   UNL A   1      39.296  32.933  34.838  1.00  0.00     0.074 A 
ATOM     63  C   UNL A   1      38.246  33.916  34.658  1.00  0.00     0.031 C 
ATOM     64  C   UNL A   1      40.080  32.850  35.943  1.00  0.00     0.037 A 
BRANCH  51  65
ATOM     65  C   UNL A   1      44.308  28.334  35.717  1.00  0.00     0.058 A 
ATOM     66  C   UNL A   1      44.049  27.221  36.534  1.00  0.00     0.135 A 
ATOM     67  C   UNL A   1      45.648  28.718  35.544  1.00  0.00     0.135 A 
ATOM     68  F   UNL A   1      42.787  26.818  36.750  1.00  0.00    -0.206 F 
ATOM     69  C   UNL A   1      45.074  26.538  37.183  1.00  0.00     0.059 A 
ATOM     70  C   UNL A   1      46.692  28.029  36.157  1.00  0.00     0.059 A 
ATOM     71  F   UNL A   1      45.956  29.775  34.776  1.00  0.00    -0.206 F 
ATOM     72  C   UNL A   1      46.392  26.950  36.987  1.00  0.00     0.060 A 
BRANCH  72  73
ATOM     73  S   UNL A   1      47.710  26.052  37.834  1.00  0.00     0.124 S 
ATOM     74  O   UNL A   1      48.878  26.444  37.052  1.00  0.00    -0.237 OA
ATOM     75  O   UNL A   1      47.640  26.597  39.186  1.00  0.00    -0.237 OA
ATOM     76  O   UNL A   1      47.308  24.655  37.702  1.00  0.00    -0.744 OA
ENDBRANCH  72  73
ENDBRANCH  51  65
BRANCH  52  77
ATOM     77  C   UNL A   1      36.845  32.868  30.813  1.00  0.00     0.058 A 
ATOM     78  C   UNL A   1      35.513  32.493  31.052  1.00  0.00     0.135 A 
ATOM     79  C   UNL A   1      37.075  33.896  29.884  1.00  0.00     0.135 A 
ATOM     80  F   UNL A   1      35.241  31.515  31.929  1.00  0.00    -0.206 F 
ATOM     81  C   UNL A   1      34.453  33.094  30.381  1.00  0.00     0.059 A 
ATOM     82  C   UNL A   1      36.031  34.531  29.221  1.00  0.00     0.059 A 
ATOM     83  F   UNL A   1      38.328  34.307  29.634  1.00  0.00    -0.206 F 
ATOM     84  C   UNL A   1      34.723  34.114  29.468  1.00  0.00     0.060 A 
BRANCH  84  85
ATOM     85  S   UNL A   1      33.338  34.917  28.633  1.00  0.00     0.124 S 
ATOM     86  O   UNL A   1      32.755  33.804  27.894  1.00  0.00    -0.237 OA
ATOM     87  O   UNL A   1      32.554  35.420  29.756  1.00  0.00    -0.237 OA
ATOM     88  O   UNL A   1      33.985  35.945  27.822  1.00  0.00    -0.744 OA
ENDBRANCH  84  85
ENDBRANCH  52  77
BRANCH  64  89
ATOM     89  C   UNL A   1      39.871  33.884  37.016  1.00  0.00     0.058 A 
ATOM     90  C   UNL A   1      39.086  33.634  38.152  1.00  0.00     0.135 A 
ATOM     91  C   UNL A   1      40.487  35.142  36.908  1.00  0.00     0.135 A 
ATOM     92  F   UNL A   1      38.474  32.449  38.304  1.00  0.00    -0.206 F 
ATOM     93  C   UNL A   1      38.882  34.611  39.121  1.00  0.00     0.059 A 
ATOM     94  C   UNL A   1      40.324  36.121  37.881  1.00  0.00     0.059 A 
ATOM     95  F   UNL A   1      41.262  35.429  35.850  1.00  0.00    -0.206 F 
ATOM     96  C   UNL A   1      39.501  35.854  38.974  1.00  0.00     0.060 A 
BRANCH  96  97
ATOM     97  S   UNL A   1      39.224  37.115  40.235  1.00  0.00     0.124 S 
ATOM     98  O   UNL A   1      38.375  36.400  41.182  1.00  0.00    -0.237 OA
ATOM     99  O   UNL A   1      40.579  37.404  40.692  1.00  0.00    -0.237 OA
ATOM    100  O   UNL A   1      38.574  38.195  39.498  1.00  0.00    -0.744 OA
ENDBRANCH  96  97
ENDBRANCH  64  89
ENDBRANCH  38  39
ENDBRANCH  30  33
ENDBRANCH  28  29
ENDBRANCH  27  28
ENDBRANCH  26  27
ENDBRANCH   1  26
TORSDOF 19
ENDMDL
