MODEL 1
REMARK VINA RESULT:     -12.2      0.000      0.000
REMARK SMILES O=C(NCCCCCCNC(=O)c1ccnc(Sc2ccc3nnnn3n2)c1)c1ccc(-c2c3nc(c(-c4c(F)cc(S(=O)(=O)[O-])cc4F)c4ccc([nH]4)c(-c4c(F)cc(S(=O)(=O)[O-])cc4F)c4nc(c(-c5c(F)cc(S(=O)(=O)[O-])cc5F)c5ccc2[nH]5)C=C4)C=C3)cc1
REMARK SMILES IDX 6 1 5 2 4 3 3 4 1 5 2 6 29 8 30 9 94 10 31 11 93 12 32 13
REMARK SMILES IDX 33 14 34 15 87 16 35 17 92 18 86 19 88 20 36 21 91 22 85 23
REMARK SMILES IDX 84 24 37 26 71 27 50 28 70 29 51 30 54 31 69 32 89 33 52 34
REMARK SMILES IDX 53 35 68 37 90 38 55 39 38 40 39 41 48 42 40 43 41 44 47 45
REMARK SMILES IDX 49 46 42 47 43 48 44 49 45 50 46 51 72 52 73 53 82 54 74 55
REMARK SMILES IDX 75 56 81 57 83 58 76 59 77 60 78 61 79 62 80 63 56 64 57 65
REMARK SMILES IDX 66 66 58 67 59 68 65 69 67 70 60 71 61 72 62 73 63 74 64 75
REMARK SMILES IDX 7 76 8 77 9 78 10 79 11 80 12 82 13 83 14 84 28 85 15 86
REMARK SMILES IDX 17 87 16 88 18 89 19 90 20 91 27 92 21 93 26 94 22 95 25 96
REMARK SMILES IDX 23 97 24 98
REMARK H PARENT 3 7 88 25 54 36 10 81
REMARK Flexibility Score: inf
ROOT
ATOM      1  C   UNL A   1      35.938  22.088  26.078  1.00  0.00     0.002 C 
ENDROOT
BRANCH   1   2
ATOM      2  C   UNL A   1      36.619  23.343  25.530  1.00  0.00     0.021 C 
BRANCH   2   3
ATOM      3  C   UNL A   1      38.115  23.424  25.813  1.00  0.00     0.116 C 
BRANCH   3   4
ATOM      4  N   UNL A   1      38.743  22.115  25.917  1.00  0.00    -0.352 N 
ATOM      5  O   UNL A   1      40.434  20.682  26.424  1.00  0.00    -0.269 OA
ATOM      6  C   UNL A   1      39.994  21.819  26.414  1.00  0.00     0.251 C 
ATOM      7  H   UNL A   1      38.211  21.352  25.595  1.00  0.00     0.163 HD
BRANCH   6   8
ATOM      8  C   UNL A   1      40.795  22.948  26.917  1.00  0.00     0.039 A 
ATOM      9  C   UNL A   1      40.268  23.758  27.927  1.00  0.00     0.014 A 
ATOM     10  C   UNL A   1      41.954  23.301  26.226  1.00  0.00     0.014 A 
ATOM     11  C   UNL A   1      40.842  25.001  28.162  1.00  0.00     0.010 A 
ATOM     12  C   UNL A   1      42.547  24.531  26.491  1.00  0.00     0.010 A 
ATOM     13  C   UNL A   1      41.964  25.403  27.423  1.00  0.00    -0.014 A 
BRANCH  13  14
ATOM     14  C   UNL A   1      42.451  26.780  27.643  1.00  0.00     0.031 A 
ATOM     15  C   UNL A   1      41.352  27.801  27.725  1.00  0.00     0.074 A 
ATOM     16  C   UNL A   1      43.478  26.916  28.510  1.00  0.00     0.049 A 
ATOM     17  N   UNL A   1      40.662  28.130  28.776  1.00  0.00    -0.248 NA
ATOM     18  C   UNL A   1      40.846  28.372  26.473  1.00  0.00     0.031 C 
ATOM     19  C   UNL A   1      43.472  26.451  29.899  1.00  0.00     0.029 A 
ATOM     20  N   UNL A   1      44.581  27.741  28.418  1.00  0.00    -0.354 N 
ATOM     21  C   UNL A   1      39.621  28.933  28.331  1.00  0.00     0.074 A 
ATOM     22  C   UNL A   1      39.767  29.043  26.898  1.00  0.00     0.031 C 
ATOM     23  C   UNL A   1      44.438  27.099  30.575  1.00  0.00     0.029 A 
ATOM     24  C   UNL A   1      45.153  27.992  29.664  1.00  0.00     0.049 A 
ATOM     25  H   UNL A   1      44.922  28.109  27.572  1.00  0.00     0.167 HD
ATOM     26  C   UNL A   1      38.687  29.497  29.139  1.00  0.00     0.037 A 
ATOM     27  C   UNL A   1      45.750  29.168  30.009  1.00  0.00     0.037 A 
ATOM     28  C   UNL A   1      38.877  29.316  30.543  1.00  0.00     0.049 A 
ATOM     29  C   UNL A   1      44.574  29.921  30.587  1.00  0.00     0.074 A 
ATOM     30  C   UNL A   1      38.406  28.489  31.538  1.00  0.00     0.029 A 
ATOM     31  N   UNL A   1      39.763  30.159  31.171  1.00  0.00    -0.354 N 
ATOM     32  N   UNL A   1      44.077  29.796  31.789  1.00  0.00    -0.248 NA
ATOM     33  C   UNL A   1      43.677  30.566  29.623  1.00  0.00     0.031 C 
ATOM     34  C   UNL A   1      39.350  28.599  32.606  1.00  0.00     0.029 A 
ATOM     35  C   UNL A   1      40.369  29.446  32.172  1.00  0.00     0.049 A 
ATOM     36  H   UNL A   1      39.931  31.101  30.944  1.00  0.00     0.167 HD
ATOM     37  C   UNL A   1      42.708  30.055  31.645  1.00  0.00     0.074 A 
ATOM     38  C   UNL A   1      42.542  30.586  30.308  1.00  0.00     0.031 C 
ATOM     39  C   UNL A   1      41.761  29.617  32.526  1.00  0.00     0.037 A 
BRANCH  26  40
ATOM     40  C   UNL A   1      37.632  30.419  28.668  1.00  0.00     0.058 A 
ATOM     41  C   UNL A   1      37.776  31.790  28.928  1.00  0.00     0.135 A 
ATOM     42  C   UNL A   1      36.411  29.962  28.163  1.00  0.00     0.135 A 
ATOM     43  F   UNL A   1      38.941  32.265  29.401  1.00  0.00    -0.206 F 
ATOM     44  C   UNL A   1      36.720  32.673  28.765  1.00  0.00     0.059 A 
ATOM     45  C   UNL A   1      35.337  30.832  27.983  1.00  0.00     0.059 A 
ATOM     46  F   UNL A   1      36.234  28.660  27.892  1.00  0.00    -0.206 F 
ATOM     47  C   UNL A   1      35.494  32.179  28.322  1.00  0.00     0.060 A 
BRANCH  47  48
ATOM     48  S   UNL A   1      34.097  33.320  28.252  1.00  0.00     0.124 S 
ATOM     49  O   UNL A   1      34.646  34.410  27.451  1.00  0.00    -0.237 OA
ATOM     50  O   UNL A   1      33.073  32.508  27.603  1.00  0.00    -0.237 OA
ATOM     51  O   UNL A   1      33.846  33.635  29.654  1.00  0.00    -0.744 OA
ENDBRANCH  47  48
ENDBRANCH  26  40
BRANCH  27  52
ATOM     52  C   UNL A   1      46.715  29.719  29.006  1.00  0.00     0.058 A 
ATOM     53  C   UNL A   1      46.947  31.113  29.014  1.00  0.00     0.135 A 
ATOM     54  C   UNL A   1      47.467  28.973  28.089  1.00  0.00     0.135 A 
ATOM     55  F   UNL A   1      46.185  31.922  29.771  1.00  0.00    -0.206 F 
ATOM     56  C   UNL A   1      47.983  31.700  28.297  1.00  0.00     0.059 A 
ATOM     57  C   UNL A   1      48.526  29.535  27.373  1.00  0.00     0.059 A 
ATOM     58  F   UNL A   1      47.225  27.670  27.891  1.00  0.00    -0.206 F 
ATOM     59  C   UNL A   1      48.804  30.890  27.521  1.00  0.00     0.060 A 
BRANCH  59  60
ATOM     60  S   UNL A   1      50.282  31.623  26.791  1.00  0.00     0.124 S 
ATOM     61  O   UNL A   1      49.731  32.762  26.067  1.00  0.00    -0.237 OA
ATOM     62  O   UNL A   1      51.066  31.944  27.981  1.00  0.00    -0.237 OA
ATOM     63  O   UNL A   1      50.820  30.547  25.966  1.00  0.00    -0.744 OA
ENDBRANCH  59  60
ENDBRANCH  27  52
BRANCH  39  64
ATOM     64  C   UNL A   1      42.266  29.049  33.807  1.00  0.00     0.058 A 
ATOM     65  C   UNL A   1      42.535  27.677  33.912  1.00  0.00     0.135 A 
ATOM     66  C   UNL A   1      42.565  29.865  34.911  1.00  0.00     0.135 A 
ATOM     67  F   UNL A   1      42.275  26.855  32.882  1.00  0.00    -0.206 F 
ATOM     68  C   UNL A   1      43.118  27.140  35.054  1.00  0.00     0.059 A 
ATOM     69  C   UNL A   1      43.173  29.353  36.052  1.00  0.00     0.059 A 
ATOM     70  F   UNL A   1      42.305  31.183  34.880  1.00  0.00    -0.206 F 
ATOM     71  C   UNL A   1      43.449  27.989  36.113  1.00  0.00     0.060 A 
BRANCH  71  72
ATOM     72  S   UNL A   1      44.322  27.303  37.536  1.00  0.00     0.124 S 
ATOM     73  O   UNL A   1      45.443  26.620  36.900  1.00  0.00    -0.237 OA
ATOM     74  O   UNL A   1      44.659  28.498  38.304  1.00  0.00    -0.237 OA
ATOM     75  O   UNL A   1      43.327  26.432  38.156  1.00  0.00    -0.744 OA
ENDBRANCH  71  72
ENDBRANCH  39  64
ENDBRANCH  13  14
ENDBRANCH   6   8
ENDBRANCH   3   4
ENDBRANCH   2   3
ENDBRANCH   1   2
BRANCH   1  76
ATOM     76  C   UNL A   1      34.864  21.470  25.173  1.00  0.00     0.002 C 
BRANCH  76  77
ATOM     77  C   UNL A   1      33.568  21.031  25.868  1.00  0.00     0.021 C 
BRANCH  77  78
ATOM     78  C   UNL A   1      32.285  21.309  25.086  1.00  0.00     0.116 C 
BRANCH  78  79
ATOM     79  N   UNL A   1      31.297  21.992  25.907  1.00  0.00    -0.352 N 
ATOM     80  C   UNL A   1      31.234  23.302  26.298  1.00  0.00     0.251 C 
ATOM     81  H   UNL A   1      30.560  21.425  26.231  1.00  0.00     0.163 HD
ATOM     82  O   UNL A   1      30.475  23.645  27.201  1.00  0.00    -0.269 OA
BRANCH  80  83
ATOM     83  C   UNL A   1      32.107  24.315  25.673  1.00  0.00     0.044 A 
ATOM     84  C   UNL A   1      33.289  24.724  26.281  1.00  0.00     0.034 A 
ATOM     85  C   UNL A   1      31.738  24.823  24.424  1.00  0.00     0.049 A 
ATOM     86  C   UNL A   1      34.023  25.693  25.637  1.00  0.00     0.113 A 
ATOM     87  C   UNL A   1      32.526  25.806  23.852  1.00  0.00     0.103 A 
ATOM     88  N   UNL A   1      33.655  26.244  24.460  1.00  0.00    -0.249 NA
BRANCH  87  89
ATOM     89  S   UNL A   1      32.173  26.657  22.336  1.00  0.00    -0.048 SA
BRANCH  89  90
ATOM     90  C   UNL A   1      31.077  27.947  22.739  1.00  0.00     0.125 A 
ATOM     91  C   UNL A   1      31.423  28.709  23.976  1.00  0.00     0.042 A 
ATOM     92  N   UNL A   1      30.107  28.211  21.922  1.00  0.00    -0.140 NA
ATOM     93  C   UNL A   1      30.643  29.754  24.288  1.00  0.00     0.056 A 
ATOM     94  N   UNL A   1      29.394  29.292  22.311  1.00  0.00    -0.109 N 
ATOM     95  C   UNL A   1      29.584  30.090  23.421  1.00  0.00     0.200 A 
ATOM     96  N   UNL A   1      28.372  29.781  21.593  1.00  0.00    -0.022 NA
ATOM     97  N   UNL A   1      28.690  31.053  23.404  1.00  0.00    -0.107 NA
ATOM     98  N   UNL A   1      27.947  30.847  22.261  1.00  0.00    -0.022 NA
ENDBRANCH  89  90
ENDBRANCH  87  89
ENDBRANCH  80  83
ENDBRANCH  78  79
ENDBRANCH  77  78
ENDBRANCH  76  77
ENDBRANCH   1  76
TORSDOF 18
ENDMDL
MODEL 2
REMARK VINA RESULT:     -12.1      2.818      8.826
REMARK SMILES O=C(NCCCCCCNC(=O)c1ccnc(Sc2ccc3nnnn3n2)c1)c1ccc(-c2c3nc(c(-c4c(F)cc(S(=O)(=O)[O-])cc4F)c4ccc([nH]4)c(-c4c(F)cc(S(=O)(=O)[O-])cc4F)c4nc(c(-c5c(F)cc(S(=O)(=O)[O-])cc5F)c5ccc2[nH]5)C=C4)C=C3)cc1
REMARK SMILES IDX 6 1 5 2 4 3 3 4 1 5 2 6 29 8 30 9 94 10 31 11 93 12 32 13
REMARK SMILES IDX 33 14 34 15 87 16 35 17 92 18 86 19 88 20 36 21 91 22 85 23
REMARK SMILES IDX 84 24 37 26 71 27 50 28 70 29 51 30 54 31 69 32 89 33 52 34
REMARK SMILES IDX 53 35 68 37 90 38 55 39 38 40 39 41 48 42 40 43 41 44 47 45
REMARK SMILES IDX 49 46 42 47 43 48 44 49 45 50 46 51 72 52 73 53 82 54 74 55
REMARK SMILES IDX 75 56 81 57 83 58 76 59 77 60 78 61 79 62 80 63 56 64 57 65
REMARK SMILES IDX 66 66 58 67 59 68 65 69 67 70 60 71 61 72 62 73 63 74 64 75
REMARK SMILES IDX 7 76 8 77 9 78 10 79 11 80 12 82 13 83 14 84 28 85 15 86
REMARK SMILES IDX 17 87 16 88 18 89 19 90 20 91 27 92 21 93 26 94 22 95 25 96
REMARK SMILES IDX 23 97 24 98
REMARK H PARENT 3 7 88 25 54 36 10 81
REMARK Flexibility Score: inf
ROOT
ATOM      1  C   UNL A   1      34.008  28.779  26.306  1.00  0.00     0.002 C 
ENDROOT
BRANCH   1   2
ATOM      2  C   UNL A   1      33.186  30.069  26.299  1.00  0.00     0.021 C 
BRANCH   2   3
ATOM      3  C   UNL A   1      33.257  30.869  27.595  1.00  0.00     0.116 C 
BRANCH   3   4
ATOM      4  N   UNL A   1      33.769  32.218  27.399  1.00  0.00    -0.352 N 
ATOM      5  O   UNL A   1      35.267  33.907  27.673  1.00  0.00    -0.269 OA
ATOM      6  C   UNL A   1      34.951  32.746  27.872  1.00  0.00     0.251 C 
ATOM      7  H   UNL A   1      33.204  32.823  26.867  1.00  0.00     0.163 HD
BRANCH   6   8
ATOM      8  C   UNL A   1      35.816  31.847  28.656  1.00  0.00     0.039 A 
ATOM      9  C   UNL A   1      36.046  32.132  30.005  1.00  0.00     0.014 A 
ATOM     10  C   UNL A   1      36.544  30.869  27.979  1.00  0.00     0.014 A 
ATOM     11  C   UNL A   1      37.108  31.513  30.652  1.00  0.00     0.010 A 
ATOM     12  C   UNL A   1      37.584  30.224  28.643  1.00  0.00     0.010 A 
ATOM     13  C   UNL A   1      37.898  30.581  29.964  1.00  0.00    -0.014 A 
BRANCH  13  14
ATOM     14  C   UNL A   1      39.078  30.050  30.676  1.00  0.00     0.031 A 
ATOM     15  C   UNL A   1      39.468  28.665  30.245  1.00  0.00     0.074 A 
ATOM     16  C   UNL A   1      40.081  30.926  30.899  1.00  0.00     0.049 A 
ATOM     17  N   UNL A   1      40.223  28.338  29.239  1.00  0.00    -0.248 NA
ATOM     18  C   UNL A   1      38.796  27.529  30.882  1.00  0.00     0.031 C 
ATOM     19  C   UNL A   1      40.769  31.698  29.862  1.00  0.00     0.029 A 
ATOM     20  N   UNL A   1      40.867  31.069  32.025  1.00  0.00    -0.354 N 
ATOM     21  C   UNL A   1      40.116  26.962  29.092  1.00  0.00     0.074 A 
ATOM     22  C   UNL A   1      39.211  26.507  30.122  1.00  0.00     0.031 C 
ATOM     23  C   UNL A   1      41.947  32.126  30.352  1.00  0.00     0.029 A 
ATOM     24  C   UNL A   1      42.081  31.694  31.742  1.00  0.00     0.049 A 
ATOM     25  H   UNL A   1      40.602  30.764  32.922  1.00  0.00     0.167 HD
ATOM     26  C   UNL A   1      40.778  26.236  28.156  1.00  0.00     0.037 A 
ATOM     27  C   UNL A   1      43.253  31.412  32.379  1.00  0.00     0.037 A 
ATOM     28  C   UNL A   1      41.715  26.952  27.350  1.00  0.00     0.049 A 
ATOM     29  C   UNL A   1      43.801  30.322  31.488  1.00  0.00     0.074 A 
ATOM     30  C   UNL A   1      41.755  27.528  26.101  1.00  0.00     0.029 A 
ATOM     31  N   UNL A   1      42.960  27.179  27.886  1.00  0.00    -0.354 N 
ATOM     32  N   UNL A   1      44.430  30.479  30.352  1.00  0.00    -0.248 NA
ATOM     33  C   UNL A   1      43.266  28.974  31.704  1.00  0.00     0.031 C 
ATOM     34  C   UNL A   1      42.860  28.434  26.133  1.00  0.00     0.029 A 
ATOM     35  C   UNL A   1      43.392  28.393  27.421  1.00  0.00     0.049 A 
ATOM     36  H   UNL A   1      43.450  26.581  28.494  1.00  0.00     0.167 HD
ATOM     37  C   UNL A   1      44.092  29.352  29.590  1.00  0.00     0.074 A 
ATOM     38  C   UNL A   1      43.434  28.439  30.502  1.00  0.00     0.031 C 
ATOM     39  C   UNL A   1      44.161  29.316  28.228  1.00  0.00     0.037 A 
BRANCH  26  40
ATOM     40  C   UNL A   1      40.724  24.762  28.061  1.00  0.00     0.058 A 
ATOM     41  C   UNL A   1      41.823  24.021  28.520  1.00  0.00     0.135 A 
ATOM     42  C   UNL A   1      39.723  24.094  27.348  1.00  0.00     0.135 A 
ATOM     43  F   UNL A   1      42.796  24.628  29.221  1.00  0.00    -0.206 F 
ATOM     44  C   UNL A   1      41.965  22.675  28.222  1.00  0.00     0.059 A 
ATOM     45  C   UNL A   1      39.839  22.739  27.043  1.00  0.00     0.059 A 
ATOM     46  F   UNL A   1      38.650  24.763  26.898  1.00  0.00    -0.206 F 
ATOM     47  C   UNL A   1      40.983  22.050  27.454  1.00  0.00     0.060 A 
BRANCH  47  48
ATOM     48  S   UNL A   1      41.259  20.336  26.960  1.00  0.00     0.124 S 
ATOM     49  O   UNL A   1      42.654  20.372  26.536  1.00  0.00    -0.237 OA
ATOM     50  O   UNL A   1      40.990  19.615  28.200  1.00  0.00    -0.237 OA
ATOM     51  O   UNL A   1      40.283  20.129  25.895  1.00  0.00    -0.744 OA
ENDBRANCH  47  48
ENDBRANCH  26  40
BRANCH  27  52
ATOM     52  C   UNL A   1      43.175  31.344  33.872  1.00  0.00     0.058 A 
ATOM     53  C   UNL A   1      44.028  32.191  34.614  1.00  0.00     0.135 A 
ATOM     54  C   UNL A   1      42.285  30.558  34.616  1.00  0.00     0.135 A 
ATOM     55  F   UNL A   1      44.997  32.888  33.994  1.00  0.00    -0.206 F 
ATOM     56  C   UNL A   1      43.880  32.384  35.983  1.00  0.00     0.059 A 
ATOM     57  C   UNL A   1      42.103  30.747  35.987  1.00  0.00     0.059 A 
ATOM     58  F   UNL A   1      41.537  29.614  34.030  1.00  0.00    -0.206 F 
ATOM     59  C   UNL A   1      42.875  31.695  36.652  1.00  0.00     0.060 A 
BRANCH  59  60
ATOM     60  S   UNL A   1      42.539  32.132  38.369  1.00  0.00     0.124 S 
ATOM     61  O   UNL A   1      43.063  33.491  38.445  1.00  0.00    -0.237 OA
ATOM     62  O   UNL A   1      41.085  32.006  38.423  1.00  0.00    -0.237 OA
ATOM     63  O   UNL A   1      43.277  31.125  39.124  1.00  0.00    -0.744 OA
ENDBRANCH  59  60
ENDBRANCH  27  52
BRANCH  39  64
ATOM     64  C   UNL A   1      44.855  30.459  27.571  1.00  0.00     0.058 A 
ATOM     65  C   UNL A   1      44.128  31.585  27.165  1.00  0.00     0.135 A 
ATOM     66  C   UNL A   1      46.252  30.484  27.417  1.00  0.00     0.135 A 
ATOM     67  F   UNL A   1      42.792  31.613  27.299  1.00  0.00    -0.206 F 
ATOM     68  C   UNL A   1      44.765  32.714  26.660  1.00  0.00     0.059 A 
ATOM     69  C   UNL A   1      46.910  31.613  26.940  1.00  0.00     0.059 A 
ATOM     70  F   UNL A   1      47.000  29.424  27.764  1.00  0.00    -0.206 F 
ATOM     71  C   UNL A   1      46.158  32.724  26.567  1.00  0.00     0.060 A 
BRANCH  71  72
ATOM     72  S   UNL A   1      46.981  34.239  26.033  1.00  0.00     0.124 S 
ATOM     73  O   UNL A   1      46.192  34.615  24.866  1.00  0.00    -0.237 OA
ATOM     74  O   UNL A   1      46.840  35.103  27.201  1.00  0.00    -0.237 OA
ATOM     75  O   UNL A   1      48.346  33.801  25.752  1.00  0.00    -0.744 OA
ENDBRANCH  71  72
ENDBRANCH  39  64
ENDBRANCH  13  14
ENDBRANCH   6   8
ENDBRANCH   3   4
ENDBRANCH   2   3
ENDBRANCH   1   2
BRANCH   1  76
ATOM     76  C   UNL A   1      33.922  27.933  25.028  1.00  0.00     0.002 C 
BRANCH  76  77
ATOM     77  C   UNL A   1      34.118  28.687  23.706  1.00  0.00     0.021 C 
BRANCH  77  78
ATOM     78  C   UNL A   1      33.506  28.016  22.478  1.00  0.00     0.116 C 
BRANCH  78  79
ATOM     79  N   UNL A   1      32.127  28.430  22.274  1.00  0.00    -0.352 N 
ATOM     80  C   UNL A   1      30.962  27.755  22.521  1.00  0.00     0.251 C 
ATOM     81  H   UNL A   1      32.013  29.334  21.901  1.00  0.00     0.163 HD
ATOM     82  O   UNL A   1      29.901  28.153  22.047  1.00  0.00    -0.269 OA
BRANCH  80  83
ATOM     83  C   UNL A   1      30.967  26.515  23.323  1.00  0.00     0.044 A 
ATOM     84  C   UNL A   1      30.631  26.528  24.672  1.00  0.00     0.034 A 
ATOM     85  C   UNL A   1      31.274  25.314  22.678  1.00  0.00     0.049 A 
ATOM     86  C   UNL A   1      30.692  25.329  25.345  1.00  0.00     0.113 A 
ATOM     87  C   UNL A   1      31.327  24.155  23.431  1.00  0.00     0.103 A 
ATOM     88  N   UNL A   1      31.047  24.165  24.757  1.00  0.00    -0.249 NA
BRANCH  87  89
ATOM     89  S   UNL A   1      31.806  22.556  22.831  1.00  0.00    -0.048 SA
BRANCH  89  90
ATOM     90  C   UNL A   1      33.277  22.139  23.661  1.00  0.00     0.125 A 
ATOM     91  C   UNL A   1      33.179  20.954  24.566  1.00  0.00     0.042 A 
ATOM     92  N   UNL A   1      34.351  22.809  23.389  1.00  0.00    -0.140 NA
ATOM     93  C   UNL A   1      34.306  20.556  25.174  1.00  0.00     0.056 A 
ATOM     94  N   UNL A   1      35.434  22.319  24.033  1.00  0.00    -0.109 N 
ATOM     95  C   UNL A   1      35.504  21.245  24.898  1.00  0.00     0.200 A 
ATOM     96  N   UNL A   1      36.666  22.824  23.865  1.00  0.00    -0.022 NA
ATOM     97  N   UNL A   1      36.754  21.089  25.273  1.00  0.00    -0.107 NA
ATOM     98  N   UNL A   1      37.461  22.076  24.622  1.00  0.00    -0.022 NA
ENDBRANCH  89  90
ENDBRANCH  87  89
ENDBRANCH  80  83
ENDBRANCH  78  79
ENDBRANCH  77  78
ENDBRANCH  76  77
ENDBRANCH   1  76
TORSDOF 18
ENDMDL
MODEL 3
REMARK VINA RESULT:     -12.0      1.600      2.167
REMARK SMILES O=C(NCCCCCCNC(=O)c1ccnc(Sc2ccc3nnnn3n2)c1)c1ccc(-c2c3nc(c(-c4c(F)cc(S(=O)(=O)[O-])cc4F)c4ccc([nH]4)c(-c4c(F)cc(S(=O)(=O)[O-])cc4F)c4nc(c(-c5c(F)cc(S(=O)(=O)[O-])cc5F)c5ccc2[nH]5)C=C4)C=C3)cc1
REMARK SMILES IDX 6 1 5 2 4 3 3 4 1 5 2 6 29 8 30 9 94 10 31 11 93 12 32 13
REMARK SMILES IDX 33 14 34 15 87 16 35 17 92 18 86 19 88 20 36 21 91 22 85 23
REMARK SMILES IDX 84 24 37 26 71 27 50 28 70 29 51 30 54 31 69 32 89 33 52 34
REMARK SMILES IDX 53 35 68 37 90 38 55 39 38 40 39 41 48 42 40 43 41 44 47 45
REMARK SMILES IDX 49 46 42 47 43 48 44 49 45 50 46 51 72 52 73 53 82 54 74 55
REMARK SMILES IDX 75 56 81 57 83 58 76 59 77 60 78 61 79 62 80 63 56 64 57 65
REMARK SMILES IDX 66 66 58 67 59 68 65 69 67 70 60 71 61 72 62 73 63 74 64 75
REMARK SMILES IDX 7 76 8 77 9 78 10 79 11 80 12 82 13 83 14 84 28 85 15 86
REMARK SMILES IDX 17 87 16 88 18 89 19 90 20 91 27 92 21 93 26 94 22 95 25 96
REMARK SMILES IDX 23 97 24 98
REMARK H PARENT 3 7 88 25 54 36 10 81
REMARK Flexibility Score: inf
ROOT
ATOM      1  C   UNL A   1      35.948  23.472  25.043  1.00  0.00     0.002 C 
ENDROOT
BRANCH   1   2
ATOM      2  C   UNL A   1      37.438  23.788  24.904  1.00  0.00     0.021 C 
BRANCH   2   3
ATOM      3  C   UNL A   1      38.265  23.489  26.149  1.00  0.00     0.116 C 
BRANCH   3   4
ATOM      4  N   UNL A   1      38.940  22.201  26.084  1.00  0.00    -0.352 N 
ATOM      5  O   UNL A   1      40.729  20.807  26.256  1.00  0.00    -0.269 OA
ATOM      6  C   UNL A   1      40.259  21.925  26.377  1.00  0.00     0.251 C 
ATOM      7  H   UNL A   1      38.390  21.436  25.798  1.00  0.00     0.163 HD
BRANCH   6   8
ATOM      8  C   UNL A   1      41.091  23.056  26.823  1.00  0.00     0.039 A 
ATOM      9  C   UNL A   1      40.782  23.692  28.030  1.00  0.00     0.014 A 
ATOM     10  C   UNL A   1      42.022  23.589  25.932  1.00  0.00     0.014 A 
ATOM     11  C   UNL A   1      41.323  24.945  28.287  1.00  0.00     0.010 A 
ATOM     12  C   UNL A   1      42.589  24.828  26.212  1.00  0.00     0.010 A 
ATOM     13  C   UNL A   1      42.203  25.530  27.365  1.00  0.00    -0.014 A 
BRANCH  13  14
ATOM     14  C   UNL A   1      42.647  26.910  27.647  1.00  0.00     0.031 A 
ATOM     15  C   UNL A   1      41.521  27.899  27.734  1.00  0.00     0.074 A 
ATOM     16  C   UNL A   1      43.646  27.040  28.548  1.00  0.00     0.049 A 
ATOM     17  N   UNL A   1      40.794  28.173  28.776  1.00  0.00    -0.248 NA
ATOM     18  C   UNL A   1      41.035  28.502  26.490  1.00  0.00     0.031 C 
ATOM     19  C   UNL A   1      43.614  26.525  29.919  1.00  0.00     0.029 A 
ATOM     20  N   UNL A   1      44.730  27.895  28.517  1.00  0.00    -0.354 N 
ATOM     21  C   UNL A   1      39.744  28.965  28.331  1.00  0.00     0.074 A 
ATOM     22  C   UNL A   1      39.928  29.130  26.907  1.00  0.00     0.031 C 
ATOM     23  C   UNL A   1      44.544  27.172  30.644  1.00  0.00     0.029 A 
ATOM     24  C   UNL A   1      45.260  28.115  29.787  1.00  0.00     0.049 A 
ATOM     25  H   UNL A   1      45.085  28.302  27.695  1.00  0.00     0.167 HD
ATOM     26  C   UNL A   1      38.774  29.476  29.130  1.00  0.00     0.037 A 
ATOM     27  C   UNL A   1      45.817  29.293  30.190  1.00  0.00     0.037 A 
ATOM     28  C   UNL A   1      38.930  29.248  30.532  1.00  0.00     0.049 A 
ATOM     29  C   UNL A   1      44.606  29.995  30.760  1.00  0.00     0.074 A 
ATOM     30  C   UNL A   1      38.453  28.375  31.483  1.00  0.00     0.029 A 
ATOM     31  N   UNL A   1      39.776  30.090  31.215  1.00  0.00    -0.354 N 
ATOM     32  N   UNL A   1      44.079  29.813  31.943  1.00  0.00    -0.248 NA
ATOM     33  C   UNL A   1      43.720  30.651  29.794  1.00  0.00     0.031 C 
ATOM     34  C   UNL A   1      39.364  28.470  32.581  1.00  0.00     0.029 A 
ATOM     35  C   UNL A   1      40.372  29.357  32.207  1.00  0.00     0.049 A 
ATOM     36  H   UNL A   1      39.926  31.044  31.026  1.00  0.00     0.167 HD
ATOM     37  C   UNL A   1      42.708  30.043  31.769  1.00  0.00     0.074 A 
ATOM     38  C   UNL A   1      42.566  30.618  30.447  1.00  0.00     0.031 C 
ATOM     39  C   UNL A   1      41.750  29.550  32.606  1.00  0.00     0.037 A 
BRANCH  26  40
ATOM     40  C   UNL A   1      37.709  30.387  28.663  1.00  0.00     0.058 A 
ATOM     41  C   UNL A   1      37.835  31.758  28.932  1.00  0.00     0.135 A 
ATOM     42  C   UNL A   1      36.495  29.918  28.151  1.00  0.00     0.135 A 
ATOM     43  F   UNL A   1      38.992  32.245  29.410  1.00  0.00    -0.206 F 
ATOM     44  C   UNL A   1      36.769  32.629  28.771  1.00  0.00     0.059 A 
ATOM     45  C   UNL A   1      35.411  30.776  27.973  1.00  0.00     0.059 A 
ATOM     46  F   UNL A   1      36.335  28.616  27.871  1.00  0.00    -0.206 F 
ATOM     47  C   UNL A   1      35.550  32.122  28.321  1.00  0.00     0.060 A 
BRANCH  47  48
ATOM     48  S   UNL A   1      34.139  33.246  28.254  1.00  0.00     0.124 S 
ATOM     49  O   UNL A   1      33.901  33.505  29.670  1.00  0.00    -0.237 OA
ATOM     50  O   UNL A   1      34.678  34.363  27.486  1.00  0.00    -0.237 OA
ATOM     51  O   UNL A   1      33.112  32.461  27.577  1.00  0.00    -0.744 OA
ENDBRANCH  47  48
ENDBRANCH  26  40
BRANCH  27  52
ATOM     52  C   UNL A   1      46.794  29.903  29.235  1.00  0.00     0.058 A 
ATOM     53  C   UNL A   1      47.038  31.291  29.343  1.00  0.00     0.135 A 
ATOM     54  C   UNL A   1      47.547  29.217  28.274  1.00  0.00     0.135 A 
ATOM     55  F   UNL A   1      46.278  32.052  30.149  1.00  0.00    -0.206 F 
ATOM     56  C   UNL A   1      48.086  31.917  28.677  1.00  0.00     0.059 A 
ATOM     57  C   UNL A   1      48.617  29.817  27.607  1.00  0.00     0.059 A 
ATOM     58  F   UNL A   1      47.295  27.933  27.983  1.00  0.00    -0.206 F 
ATOM     59  C   UNL A   1      48.905  31.156  27.851  1.00  0.00     0.060 A 
BRANCH  59  60
ATOM     60  S   UNL A   1      50.396  31.924  27.186  1.00  0.00     0.124 S 
ATOM     61  O   UNL A   1      49.936  32.407  25.889  1.00  0.00    -0.237 OA
ATOM     62  O   UNL A   1      50.668  32.950  28.189  1.00  0.00    -0.237 OA
ATOM     63  O   UNL A   1      51.354  30.824  27.148  1.00  0.00    -0.744 OA
ENDBRANCH  59  60
ENDBRANCH  27  52
BRANCH  39  64
ATOM     64  C   UNL A   1      42.233  28.949  33.881  1.00  0.00     0.058 A 
ATOM     65  C   UNL A   1      42.543  27.584  33.942  1.00  0.00     0.135 A 
ATOM     66  C   UNL A   1      42.472  29.731  35.023  1.00  0.00     0.135 A 
ATOM     67  F   UNL A   1      42.341  26.794  32.874  1.00  0.00    -0.206 F 
ATOM     68  C   UNL A   1      43.108  27.021  35.081  1.00  0.00     0.059 A 
ATOM     69  C   UNL A   1      43.061  29.194  36.163  1.00  0.00     0.059 A 
ATOM     70  F   UNL A   1      42.170  31.040  35.033  1.00  0.00    -0.206 F 
ATOM     71  C   UNL A   1      43.379  27.838  36.181  1.00  0.00     0.060 A 
BRANCH  71  72
ATOM     72  S   UNL A   1      44.230  27.126  37.604  1.00  0.00     0.124 S 
ATOM     73  O   UNL A   1      44.597  28.317  38.362  1.00  0.00    -0.237 OA
ATOM     74  O   UNL A   1      43.197  26.285  38.201  1.00  0.00    -0.237 OA
ATOM     75  O   UNL A   1      45.345  26.398  37.003  1.00  0.00    -0.744 OA
ENDBRANCH  71  72
ENDBRANCH  39  64
ENDBRANCH  13  14
ENDBRANCH   6   8
ENDBRANCH   3   4
ENDBRANCH   2   3
ENDBRANCH   1   2
BRANCH   1  76
ATOM     76  C   UNL A   1      35.500  22.990  26.428  1.00  0.00     0.002 C 
BRANCH  76  77
ATOM     77  C   UNL A   1      35.112  21.509  26.534  1.00  0.00     0.021 C 
BRANCH  77  78
ATOM     78  C   UNL A   1      35.236  20.711  25.236  1.00  0.00     0.116 C 
BRANCH  78  79
ATOM     79  N   UNL A   1      34.214  19.680  25.143  1.00  0.00    -0.352 N 
ATOM     80  C   UNL A   1      32.865  19.797  24.939  1.00  0.00     0.251 C 
ATOM     81  H   UNL A   1      34.542  18.757  25.242  1.00  0.00     0.163 HD
ATOM     82  O   UNL A   1      32.121  18.844  25.148  1.00  0.00    -0.269 OA
BRANCH  80  83
ATOM     83  C   UNL A   1      32.280  21.082  24.506  1.00  0.00     0.044 A 
ATOM     84  C   UNL A   1      32.273  21.457  23.168  1.00  0.00     0.034 A 
ATOM     85  C   UNL A   1      31.686  21.895  25.476  1.00  0.00     0.049 A 
ATOM     86  C   UNL A   1      31.731  22.685  22.863  1.00  0.00     0.113 A 
ATOM     87  C   UNL A   1      31.176  23.120  25.086  1.00  0.00     0.103 A 
ATOM     88  N   UNL A   1      31.208  23.516  23.791  1.00  0.00    -0.249 NA
BRANCH  87  89
ATOM     89  S   UNL A   1      30.489  24.343  26.173  1.00  0.00    -0.048 SA
BRANCH  89  90
ATOM     90  C   UNL A   1      31.494  25.755  26.025  1.00  0.00     0.125 A 
ATOM     91  C   UNL A   1      32.964  25.495  26.085  1.00  0.00     0.042 A 
ATOM     92  N   UNL A   1      30.926  26.896  25.796  1.00  0.00    -0.140 NA
ATOM     93  C   UNL A   1      33.777  26.547  25.907  1.00  0.00     0.056 A 
ATOM     94  N   UNL A   1      31.828  27.886  25.611  1.00  0.00    -0.109 N 
ATOM     95  C   UNL A   1      33.206  27.807  25.641  1.00  0.00     0.200 A 
ATOM     96  N   UNL A   1      31.471  29.144  25.312  1.00  0.00    -0.022 NA
ATOM     97  N   UNL A   1      33.701  28.995  25.377  1.00  0.00    -0.107 NA
ATOM     98  N   UNL A   1      32.610  29.813  25.174  1.00  0.00    -0.022 NA
ENDBRANCH  89  90
ENDBRANCH  87  89
ENDBRANCH  80  83
ENDBRANCH  78  79
ENDBRANCH  77  78
ENDBRANCH  76  77
ENDBRANCH   1  76
TORSDOF 18
ENDMDL
