MODEL 1
REMARK VINA RESULT:     -12.1      0.000      0.000
REMARK SMILES NC(=O)c1c(-c2ccc(Cl)cc2)csc1NC(=O)[C@H]1[C@@H](C(=O)NCCCCCCNC(=O)c2ccc(-c3c4nc(c(-c5c(F)cc(S(=O)(=O)[O-])cc5F)c5ccc([nH]5)c(-c5c(F)cc(S(=O)(=O)[O-])cc5F)c5nc(c(-c6c(F)cc(S(=O)(=O)[O-])cc6F)c6ccc3[nH]6)C=C5)C=C4)cc2)[C@@H]2CC[C@H]1O2
REMARK SMILES IDX 26 1 25 2 24 3 23 4 21 5 22 6 20 8 19 9 102 10 99 11 101 12
REMARK SMILES IDX 103 13 100 14 17 15 16 16 18 18 15 19 4 20 5 21 13 22 14 23
REMARK SMILES IDX 2 24 1 25 3 28 6 29 7 30 12 31 8 32 11 33 9 34 10 35 27 36
REMARK SMILES IDX 28 37 29 38 30 39 31 40 32 42 33 43 34 44 98 45 35 46 97 47
REMARK SMILES IDX 36 48 37 49 38 50 91 51 39 52 96 53 90 54 92 55 40 56 95 57
REMARK SMILES IDX 89 58 88 59 41 61 75 62 54 63 74 64 55 65 58 66 73 67 93 68
REMARK SMILES IDX 56 69 57 70 72 72 94 73 59 74 42 75 43 76 52 77 44 78 45 79
REMARK SMILES IDX 51 80 53 81 46 82 47 83 48 84 49 85 50 86 76 87 77 88 86 89
REMARK SMILES IDX 78 90 79 91 85 92 87 93 80 94 81 95 82 96 83 97 84 98 60 99
REMARK SMILES IDX 61 100 70 101 62 102 63 103 69 104 71 105 64 106 65 107
REMARK SMILES IDX 66 108 67 109 68 110
REMARK H PARENT 23 7 16 17 1 26 1 27 30 41 92 60 58 71
REMARK Flexibility Score: inf
ROOT
ATOM      1  C   UNL A   1      35.150  29.620  27.683  1.00  0.00     0.002 C 
ENDROOT
BRANCH   1   2
ATOM      2  C   UNL A   1      34.268  28.766  26.759  1.00  0.00     0.021 C 
BRANCH   2   3
ATOM      3  C   UNL A   1      32.876  29.330  26.474  1.00  0.00     0.116 C 
BRANCH   3   4
ATOM      4  N   UNL A   1      32.685  29.609  25.065  1.00  0.00    -0.356 N 
ATOM      5  C   UNL A   1      31.937  28.967  24.127  1.00  0.00     0.226 C 
ATOM      6  O   UNL A   1      31.804  29.528  23.039  1.00  0.00    -0.275 OA
ATOM      7  H   UNL A   1      33.178  30.392  24.731  1.00  0.00     0.163 HD
BRANCH   5   8
ATOM      8  C   UNL A   1      31.247  27.662  24.486  1.00  0.00     0.122 C 
ATOM      9  C   UNL A   1      32.008  26.327  24.291  1.00  0.00     0.123 C 
ATOM     10  C   UNL A   1      31.223  25.690  23.122  1.00  0.00     0.132 C 
ATOM     11  C   UNL A   1      30.059  27.474  23.534  1.00  0.00     0.132 C 
ATOM     12  C   UNL A   1      29.898  25.102  23.608  1.00  0.00     0.035 C 
ATOM     13  O   UNL A   1      30.693  26.828  22.408  1.00  0.00    -0.373 OA
ATOM     14  C   UNL A   1      29.137  26.359  24.037  1.00  0.00     0.035 C 
BRANCH   9  15
ATOM     15  C   UNL A   1      33.504  26.345  24.005  1.00  0.00     0.231 C 
ATOM     16  N   UNL A   1      34.350  25.320  24.338  1.00  0.00    -0.317 N 
ATOM     17  H   UNL A   1      35.284  25.521  24.100  1.00  0.00     0.170 HD
ATOM     18  O   UNL A   1      34.049  27.321  23.483  1.00  0.00    -0.274 OA
BRANCH  16  19
ATOM     19  C   UNL A   1      34.224  24.069  24.926  1.00  0.00     0.108 A 
ATOM     20  C   UNL A   1      33.887  22.882  24.266  1.00  0.00     0.082 A 
ATOM     21  C   UNL A   1      33.903  21.756  25.185  1.00  0.00     0.007 A 
ATOM     22  C   UNL A   1      34.175  22.156  26.476  1.00  0.00     0.076 A 
ATOM     23  S   UNL A   1      34.416  23.827  26.586  1.00  0.00    -0.125 S 
BRANCH  20  24
ATOM     24  C   UNL A   1      33.602  22.856  22.832  1.00  0.00     0.252 C 
ATOM     25  N   UNL A   1      32.429  22.285  22.442  1.00  0.00    -0.365 N 
ATOM     26  H   UNL A   1      32.195  22.245  21.486  1.00  0.00     0.159 HD
ATOM     27  H   UNL A   1      31.814  21.912  23.115  1.00  0.00     0.159 HD
ATOM     28  O   UNL A   1      34.341  23.375  21.994  1.00  0.00    -0.269 OA
ENDBRANCH  20  24
BRANCH  21  29
ATOM     29  C   UNL A   1      33.742  20.332  24.917  1.00  0.00    -0.017 A 
ATOM     30  C   UNL A   1      32.468  19.746  24.959  1.00  0.00     0.010 A 
ATOM     31  C   UNL A   1      34.861  19.532  24.651  1.00  0.00     0.010 A 
ATOM     32  C   UNL A   1      32.317  18.376  24.739  1.00  0.00     0.021 A 
ATOM     33  C   UNL A   1      34.707  18.160  24.431  1.00  0.00     0.021 A 
ATOM     34  C   UNL A   1      33.437  17.588  24.477  1.00  0.00     0.041 A 
ATOM     35  Cl  UNL A   1      33.245  15.899  24.213  1.00  0.00    -0.084 Cl
ENDBRANCH  21  29
ENDBRANCH  16  19
ENDBRANCH   9  15
ENDBRANCH   5   8
ENDBRANCH   3   4
ENDBRANCH   2   3
ENDBRANCH   1   2
BRANCH   1  36
ATOM     36  C   UNL A   1      34.931  31.132  27.591  1.00  0.00     0.002 C 
BRANCH  36  37
ATOM     37  C   UNL A   1      34.900  31.861  28.934  1.00  0.00     0.021 C 
BRANCH  37  38
ATOM     38  C   UNL A   1      36.197  31.784  29.730  1.00  0.00     0.116 C 
BRANCH  38  39
ATOM     39  N   UNL A   1      36.088  30.925  30.902  1.00  0.00    -0.352 N 
ATOM     40  C   UNL A   1      36.997  30.005  31.370  1.00  0.00     0.251 C 
ATOM     41  H   UNL A   1      35.260  31.016  31.426  1.00  0.00     0.163 HD
ATOM     42  O   UNL A   1      36.706  29.243  32.286  1.00  0.00    -0.269 OA
BRANCH  40  43
ATOM     43  C   UNL A   1      38.326  29.932  30.728  1.00  0.00     0.039 A 
ATOM     44  C   UNL A   1      39.463  29.751  31.520  1.00  0.00     0.014 A 
ATOM     45  C   UNL A   1      38.430  29.974  29.336  1.00  0.00     0.014 A 
ATOM     46  C   UNL A   1      40.700  29.537  30.908  1.00  0.00     0.010 A 
ATOM     47  C   UNL A   1      39.646  29.686  28.731  1.00  0.00     0.010 A 
ATOM     48  C   UNL A   1      40.794  29.462  29.509  1.00  0.00    -0.014 A 
BRANCH  48  49
ATOM     49  C   UNL A   1      42.074  29.171  28.814  1.00  0.00     0.031 A 
ATOM     50  C   UNL A   1      42.343  27.773  28.327  1.00  0.00     0.074 A 
ATOM     51  C   UNL A   1      43.028  30.118  28.722  1.00  0.00     0.049 A 
ATOM     52  N   UNL A   1      43.454  27.253  27.877  1.00  0.00    -0.248 NA
ATOM     53  C   UNL A   1      41.217  26.827  28.389  1.00  0.00     0.031 C 
ATOM     54  C   UNL A   1      42.896  31.503  29.176  1.00  0.00     0.029 A 
ATOM     55  N   UNL A   1      44.313  30.050  28.237  1.00  0.00    -0.354 N 
ATOM     56  C   UNL A   1      43.170  25.915  27.630  1.00  0.00     0.074 A 
ATOM     57  C   UNL A   1      41.797  25.693  28.026  1.00  0.00     0.031 C 
ATOM     58  C   UNL A   1      44.049  32.154  28.947  1.00  0.00     0.029 A 
ATOM     59  C   UNL A   1      45.019  31.223  28.377  1.00  0.00     0.049 A 
ATOM     60  H   UNL A   1      44.691  29.239  27.829  1.00  0.00     0.167 HD
ATOM     61  C   UNL A   1      43.977  24.962  27.106  1.00  0.00     0.037 A 
ATOM     62  C   UNL A   1      46.309  31.508  28.103  1.00  0.00     0.037 A 
ATOM     63  C   UNL A   1      45.333  25.202  26.689  1.00  0.00     0.049 A 
ATOM     64  C   UNL A   1      47.194  30.427  27.539  1.00  0.00     0.074 A 
ATOM     65  C   UNL A   1      46.219  24.318  26.099  1.00  0.00     0.029 A 
ATOM     66  N   UNL A   1      45.998  26.413  26.814  1.00  0.00    -0.354 N 
ATOM     67  N   UNL A   1      46.901  29.177  27.275  1.00  0.00    -0.248 NA
ATOM     68  C   UNL A   1      48.586  30.793  27.235  1.00  0.00     0.031 C 
ATOM     69  C   UNL A   1      47.435  24.980  25.914  1.00  0.00     0.029 A 
ATOM     70  C   UNL A   1      47.289  26.294  26.331  1.00  0.00     0.049 A 
ATOM     71  H   UNL A   1      45.609  27.236  27.193  1.00  0.00     0.167 HD
ATOM     72  C   UNL A   1      48.055  28.619  26.734  1.00  0.00     0.074 A 
ATOM     73  C   UNL A   1      49.055  29.666  26.716  1.00  0.00     0.031 C 
ATOM     74  C   UNL A   1      48.263  27.357  26.287  1.00  0.00     0.037 A 
BRANCH  61  75
ATOM     75  C   UNL A   1      43.417  23.574  26.959  1.00  0.00     0.058 A 
ATOM     76  C   UNL A   1      43.260  22.720  28.061  1.00  0.00     0.135 A 
ATOM     77  C   UNL A   1      42.999  23.105  25.703  1.00  0.00     0.135 A 
ATOM     78  F   UNL A   1      43.657  23.111  29.283  1.00  0.00    -0.206 F 
ATOM     79  C   UNL A   1      42.738  21.438  27.921  1.00  0.00     0.059 A 
ATOM     80  C   UNL A   1      42.445  21.839  25.543  1.00  0.00     0.059 A 
ATOM     81  F   UNL A   1      43.127  23.880  24.614  1.00  0.00    -0.206 F 
ATOM     82  C   UNL A   1      42.332  21.007  26.656  1.00  0.00     0.060 A 
BRANCH  82  83
ATOM     83  S   UNL A   1      41.654  19.343  26.491  1.00  0.00     0.124 S 
ATOM     84  O   UNL A   1      41.908  18.793  27.819  1.00  0.00    -0.237 OA
ATOM     85  O   UNL A   1      40.255  19.606  26.171  1.00  0.00    -0.237 OA
ATOM     86  O   UNL A   1      42.444  18.759  25.410  1.00  0.00    -0.744 OA
ENDBRANCH  82  83
ENDBRANCH  61  75
BRANCH  62  87
ATOM     87  C   UNL A   1      46.839  32.876  28.352  1.00  0.00     0.058 A 
ATOM     88  C   UNL A   1      46.798  33.858  27.350  1.00  0.00     0.135 A 
ATOM     89  C   UNL A   1      47.387  33.235  29.593  1.00  0.00     0.135 A 
ATOM     90  F   UNL A   1      46.290  33.562  26.143  1.00  0.00    -0.206 F 
ATOM     91  C   UNL A   1      47.297  35.139  27.562  1.00  0.00     0.059 A 
ATOM     92  C   UNL A   1      47.869  34.517  29.838  1.00  0.00     0.059 A 
ATOM     93  F   UNL A   1      47.438  32.339  30.591  1.00  0.00    -0.206 F 
ATOM     94  C   UNL A   1      47.829  35.461  28.812  1.00  0.00     0.060 A 
BRANCH  94  95
ATOM     95  S   UNL A   1      48.435  37.139  29.088  1.00  0.00     0.124 S 
ATOM     96  O   UNL A   1      47.543  37.604  30.144  1.00  0.00    -0.237 OA
ATOM     97  O   UNL A   1      49.821  36.903  29.479  1.00  0.00    -0.237 OA
ATOM     98  O   UNL A   1      48.259  37.777  27.786  1.00  0.00    -0.744 OA
ENDBRANCH  94  95
ENDBRANCH  62  87
BRANCH  74  99
ATOM     99  C   UNL A   1      49.597  27.033  25.674  1.00  0.00     0.058 A 
ATOM    100  C   UNL A   1      49.855  27.229  24.310  1.00  0.00     0.135 A 
ATOM    101  C   UNL A   1      50.665  26.634  26.496  1.00  0.00     0.135 A 
ATOM    102  F   UNL A   1      48.867  27.601  23.481  1.00  0.00    -0.206 F 
ATOM    103  C   UNL A   1      51.129  27.047  23.781  1.00  0.00     0.059 A 
ATOM    104  C   UNL A   1      51.951  26.472  25.993  1.00  0.00     0.059 A 
ATOM    105  F   UNL A   1      50.471  26.439  27.809  1.00  0.00    -0.206 F 
ATOM    106  C   UNL A   1      52.174  26.682  24.633  1.00  0.00     0.060 A 
BRANCH 106 107
ATOM    107  S   UNL A   1      53.839  26.541  23.949  1.00  0.00     0.124 S 
ATOM    108  O   UNL A   1      54.402  27.848  24.270  1.00  0.00    -0.237 OA
ATOM    109  O   UNL A   1      54.387  25.413  24.695  1.00  0.00    -0.237 OA
ATOM    110  O   UNL A   1      53.604  26.291  22.530  1.00  0.00    -0.744 OA
ENDBRANCH 106 107
ENDBRANCH  74  99
ENDBRANCH  48  49
ENDBRANCH  40  43
ENDBRANCH  38  39
ENDBRANCH  37  38
ENDBRANCH  36  37
ENDBRANCH   1  36
TORSDOF 20
ENDMDL
MODEL 2
REMARK VINA RESULT:     -11.8      6.625     12.062
REMARK SMILES NC(=O)c1c(-c2ccc(Cl)cc2)csc1NC(=O)[C@H]1[C@@H](C(=O)NCCCCCCNC(=O)c2ccc(-c3c4nc(c(-c5c(F)cc(S(=O)(=O)[O-])cc5F)c5ccc([nH]5)c(-c5c(F)cc(S(=O)(=O)[O-])cc5F)c5nc(c(-c6c(F)cc(S(=O)(=O)[O-])cc6F)c6ccc3[nH]6)C=C5)C=C4)cc2)[C@@H]2CC[C@H]1O2
REMARK SMILES IDX 26 1 25 2 24 3 23 4 21 5 22 6 20 8 19 9 102 10 99 11 101 12
REMARK SMILES IDX 103 13 100 14 17 15 16 16 18 18 15 19 4 20 5 21 13 22 14 23
REMARK SMILES IDX 2 24 1 25 3 28 6 29 7 30 12 31 8 32 11 33 9 34 10 35 27 36
REMARK SMILES IDX 28 37 29 38 30 39 31 40 32 42 33 43 34 44 98 45 35 46 97 47
REMARK SMILES IDX 36 48 37 49 38 50 91 51 39 52 96 53 90 54 92 55 40 56 95 57
REMARK SMILES IDX 89 58 88 59 41 61 75 62 54 63 74 64 55 65 58 66 73 67 93 68
REMARK SMILES IDX 56 69 57 70 72 72 94 73 59 74 42 75 43 76 52 77 44 78 45 79
REMARK SMILES IDX 51 80 53 81 46 82 47 83 48 84 49 85 50 86 76 87 77 88 86 89
REMARK SMILES IDX 78 90 79 91 85 92 87 93 80 94 81 95 82 96 83 97 84 98 60 99
REMARK SMILES IDX 61 100 70 101 62 102 63 103 69 104 71 105 64 106 65 107
REMARK SMILES IDX 66 108 67 109 68 110
REMARK H PARENT 23 7 16 17 1 26 1 27 30 41 92 60 58 71
REMARK Flexibility Score: inf
ROOT
ATOM      1  C   UNL A   1      38.038  20.596  25.147  1.00  0.00     0.002 C 
ENDROOT
BRANCH   1   2
ATOM      2  C   UNL A   1      36.798  21.367  24.670  1.00  0.00     0.021 C 
BRANCH   2   3
ATOM      3  C   UNL A   1      35.471  20.923  25.286  1.00  0.00     0.116 C 
BRANCH   3   4
ATOM      4  N   UNL A   1      35.240  21.544  26.574  1.00  0.00    -0.356 N 
ATOM      5  C   UNL A   1      34.196  22.292  27.024  1.00  0.00     0.226 C 
ATOM      6  O   UNL A   1      34.166  22.541  28.229  1.00  0.00    -0.275 OA
ATOM      7  H   UNL A   1      35.957  21.404  27.232  1.00  0.00     0.163 HD
BRANCH   5   8
ATOM      8  C   UNL A   1      33.098  22.701  26.057  1.00  0.00     0.122 C 
ATOM      9  C   UNL A   1      33.127  24.120  25.437  1.00  0.00     0.123 C 
ATOM     10  C   UNL A   1      31.906  24.780  26.117  1.00  0.00     0.132 C 
ATOM     11  C   UNL A   1      31.772  22.735  26.829  1.00  0.00     0.132 C 
ATOM     12  C   UNL A   1      30.600  24.305  25.479  1.00  0.00     0.035 C 
ATOM     13  O   UNL A   1      31.791  24.074  27.372  1.00  0.00    -0.373 OA
ATOM     14  C   UNL A   1      30.588  22.822  25.861  1.00  0.00     0.035 C 
BRANCH   9  15
ATOM     15  C   UNL A   1      34.373  24.983  25.585  1.00  0.00     0.231 C 
ATOM     16  N   UNL A   1      34.345  26.353  25.622  1.00  0.00    -0.317 N 
ATOM     17  H   UNL A   1      35.248  26.738  25.694  1.00  0.00     0.170 HD
ATOM     18  O   UNL A   1      35.501  24.485  25.639  1.00  0.00    -0.274 OA
BRANCH  16  19
ATOM     19  C   UNL A   1      33.364  27.335  25.585  1.00  0.00     0.108 A 
ATOM     20  C   UNL A   1      32.778  27.866  24.431  1.00  0.00     0.082 A 
ATOM     21  C   UNL A   1      31.748  28.834  24.771  1.00  0.00     0.007 A 
ATOM     22  C   UNL A   1      31.665  29.030  26.134  1.00  0.00     0.076 A 
ATOM     23  S   UNL A   1      32.776  28.078  26.983  1.00  0.00    -0.125 S 
BRANCH  20  24
ATOM     24  C   UNL A   1      33.180  27.428  23.095  1.00  0.00     0.252 C 
ATOM     25  N   UNL A   1      34.044  28.230  22.413  1.00  0.00    -0.365 N 
ATOM     26  H   UNL A   1      34.342  27.975  21.509  1.00  0.00     0.159 HD
ATOM     27  H   UNL A   1      34.370  29.064  22.822  1.00  0.00     0.159 HD
ATOM     28  O   UNL A   1      32.821  26.356  22.607  1.00  0.00    -0.269 OA
ENDBRANCH  20  24
BRANCH  21  29
ATOM     29  C   UNL A   1      30.804  29.532  23.908  1.00  0.00    -0.017 A 
ATOM     30  C   UNL A   1      30.604  29.103  22.588  1.00  0.00     0.010 A 
ATOM     31  C   UNL A   1      30.115  30.657  24.380  1.00  0.00     0.010 A 
ATOM     32  C   UNL A   1      29.727  29.794  21.749  1.00  0.00     0.021 A 
ATOM     33  C   UNL A   1      29.237  31.348  23.538  1.00  0.00     0.021 A 
ATOM     34  C   UNL A   1      29.049  30.914  22.227  1.00  0.00     0.041 A 
ATOM     35  Cl  UNL A   1      27.975  31.765  21.188  1.00  0.00    -0.084 Cl
ENDBRANCH  21  29
ENDBRANCH  16  19
ENDBRANCH   9  15
ENDBRANCH   5   8
ENDBRANCH   3   4
ENDBRANCH   2   3
ENDBRANCH   1   2
BRANCH   1  36
ATOM     36  C   UNL A   1      39.095  21.431  25.875  1.00  0.00     0.002 C 
BRANCH  36  37
ATOM     37  C   UNL A   1      38.610  22.795  26.366  1.00  0.00     0.021 C 
BRANCH  37  38
ATOM     38  C   UNL A   1      39.690  23.663  27.001  1.00  0.00     0.116 C 
BRANCH  38  39
ATOM     39  N   UNL A   1      40.461  24.411  26.018  1.00  0.00    -0.352 N 
ATOM     40  C   UNL A   1      41.022  25.661  26.148  1.00  0.00     0.251 C 
ATOM     41  H   UNL A   1      40.600  23.967  25.151  1.00  0.00     0.163 HD
ATOM     42  O   UNL A   1      41.517  26.232  25.182  1.00  0.00    -0.269 OA
BRANCH  40  43
ATOM     43  C   UNL A   1      40.991  26.317  27.472  1.00  0.00     0.039 A 
ATOM     44  C   UNL A   1      42.064  27.120  27.866  1.00  0.00     0.014 A 
ATOM     45  C   UNL A   1      39.864  26.187  28.287  1.00  0.00     0.014 A 
ATOM     46  C   UNL A   1      41.974  27.855  29.051  1.00  0.00     0.010 A 
ATOM     47  C   UNL A   1      39.746  26.976  29.423  1.00  0.00     0.010 A 
ATOM     48  C   UNL A   1      40.797  27.820  29.817  1.00  0.00    -0.014 A 
BRANCH  48  49
ATOM     49  C   UNL A   1      40.628  28.634  31.048  1.00  0.00     0.031 A 
ATOM     50  C   UNL A   1      39.585  29.719  31.073  1.00  0.00     0.074 A 
ATOM     51  C   UNL A   1      41.473  28.481  32.087  1.00  0.00     0.049 A 
ATOM     52  N   UNL A   1      39.396  30.666  31.953  1.00  0.00    -0.248 NA
ATOM     53  C   UNL A   1      38.652  29.760  29.934  1.00  0.00     0.031 C 
ATOM     54  C   UNL A   1      42.539  27.481  32.173  1.00  0.00     0.029 A 
ATOM     55  N   UNL A   1      41.585  29.185  33.261  1.00  0.00    -0.354 N 
ATOM     56  C   UNL A   1      38.345  31.432  31.462  1.00  0.00     0.074 A 
ATOM     57  C   UNL A   1      37.970  30.867  30.185  1.00  0.00     0.031 C 
ATOM     58  C   UNL A   1      43.193  27.633  33.336  1.00  0.00     0.029 A 
ATOM     59  C   UNL A   1      42.629  28.772  34.056  1.00  0.00     0.049 A 
ATOM     60  H   UNL A   1      40.975  29.916  33.510  1.00  0.00     0.167 HD
ATOM     61  C   UNL A   1      37.739  32.499  32.033  1.00  0.00     0.037 A 
ATOM     62  C   UNL A   1      43.096  29.271  35.220  1.00  0.00     0.037 A 
ATOM     63  C   UNL A   1      38.102  33.034  33.318  1.00  0.00     0.049 A 
ATOM     64  C   UNL A   1      42.418  30.471  35.828  1.00  0.00     0.074 A 
ATOM     65  C   UNL A   1      37.518  34.080  34.009  1.00  0.00     0.029 A 
ATOM     66  N   UNL A   1      39.142  32.563  34.107  1.00  0.00    -0.354 N 
ATOM     67  N   UNL A   1      41.400  31.161  35.371  1.00  0.00    -0.248 NA
ATOM     68  C   UNL A   1      42.949  30.963  37.108  1.00  0.00     0.031 C 
ATOM     69  C   UNL A   1      38.235  34.275  35.192  1.00  0.00     0.029 A 
ATOM     70  C   UNL A   1      39.228  33.310  35.268  1.00  0.00     0.049 A 
ATOM     71  H   UNL A   1      39.732  31.809  33.874  1.00  0.00     0.167 HD
ATOM     72  C   UNL A   1      41.142  32.138  36.326  1.00  0.00     0.074 A 
ATOM     73  C   UNL A   1      42.114  31.957  37.383  1.00  0.00     0.031 C 
ATOM     74  C   UNL A   1      40.181  33.094  36.329  1.00  0.00     0.037 A 
BRANCH  61  75
ATOM     75  C   UNL A   1      36.623  33.161  31.271  1.00  0.00     0.058 A 
ATOM     76  C   UNL A   1      36.864  33.900  30.102  1.00  0.00     0.135 A 
ATOM     77  C   UNL A   1      35.292  33.023  31.695  1.00  0.00     0.135 A 
ATOM     78  F   UNL A   1      38.119  34.077  29.659  1.00  0.00    -0.206 F 
ATOM     79  C   UNL A   1      35.829  34.508  29.399  1.00  0.00     0.059 A 
ATOM     80  C   UNL A   1      34.237  33.594  30.990  1.00  0.00     0.059 A 
ATOM     81  F   UNL A   1      35.004  32.327  32.806  1.00  0.00    -0.206 F 
ATOM     82  C   UNL A   1      34.517  34.347  29.852  1.00  0.00     0.060 A 
BRANCH  82  83
ATOM     83  S   UNL A   1      33.186  35.139  28.925  1.00  0.00     0.124 S 
ATOM     84  O   UNL A   1      32.852  34.103  27.953  1.00  0.00    -0.237 OA
ATOM     85  O   UNL A   1      32.187  35.382  29.961  1.00  0.00    -0.237 OA
ATOM     86  O   UNL A   1      33.819  36.334  28.375  1.00  0.00    -0.744 OA
ENDBRANCH  82  83
ENDBRANCH  61  75
BRANCH  62  87
ATOM     87  C   UNL A   1      44.261  28.632  35.889  1.00  0.00     0.058 A 
ATOM     88  C   UNL A   1      44.082  27.575  36.795  1.00  0.00     0.135 A 
ATOM     89  C   UNL A   1      45.575  29.055  35.635  1.00  0.00     0.135 A 
ATOM     90  F   UNL A   1      42.845  27.139  37.078  1.00  0.00    -0.206 F 
ATOM     91  C   UNL A   1      45.159  26.973  37.437  1.00  0.00     0.059 A 
ATOM     92  C   UNL A   1      46.671  28.452  36.245  1.00  0.00     0.059 A 
ATOM     93  F   UNL A   1      45.805  30.053  34.767  1.00  0.00    -0.206 F 
ATOM     94  C   UNL A   1      46.452  27.416  37.153  1.00  0.00     0.060 A 
BRANCH  94  95
ATOM     95  S   UNL A   1      47.844  26.599  37.961  1.00  0.00     0.124 S 
ATOM     96  O   UNL A   1      48.923  27.551  37.722  1.00  0.00    -0.237 OA
ATOM     97  O   UNL A   1      47.379  26.493  39.340  1.00  0.00    -0.237 OA
ATOM     98  O   UNL A   1      47.951  25.331  37.244  1.00  0.00    -0.744 OA
ENDBRANCH  94  95
ENDBRANCH  62  87
BRANCH  74  99
ATOM     99  C   UNL A   1      40.073  33.987  37.534  1.00  0.00     0.058 A 
ATOM    100  C   UNL A   1      40.700  35.240  37.590  1.00  0.00     0.135 A 
ATOM    101  C   UNL A   1      39.227  33.626  38.597  1.00  0.00     0.135 A 
ATOM    102  F   UNL A   1      41.524  35.628  36.604  1.00  0.00    -0.206 F 
ATOM    103  C   UNL A   1      40.487  36.108  38.655  1.00  0.00     0.059 A 
ATOM    104  C   UNL A   1      38.980  34.489  39.658  1.00  0.00     0.059 A 
ATOM    105  F   UNL A   1      38.598  32.440  38.588  1.00  0.00    -0.206 F 
ATOM    106  C   UNL A   1      39.615  35.730  39.678  1.00  0.00     0.060 A 
BRANCH 106 107
ATOM    107  S   UNL A   1      39.277  36.906  41.006  1.00  0.00     0.124 S 
ATOM    108  O   UNL A   1      38.468  37.905  40.317  1.00  0.00    -0.237 OA
ATOM    109  O   UNL A   1      38.572  36.081  41.980  1.00  0.00    -0.237 OA
ATOM    110  O   UNL A   1      40.607  37.350  41.414  1.00  0.00    -0.744 OA
ENDBRANCH 106 107
ENDBRANCH  74  99
ENDBRANCH  48  49
ENDBRANCH  40  43
ENDBRANCH  38  39
ENDBRANCH  37  38
ENDBRANCH  36  37
ENDBRANCH   1  36
TORSDOF 20
ENDMDL
MODEL 3
REMARK VINA RESULT:     -11.7      1.304      2.060
REMARK SMILES NC(=O)c1c(-c2ccc(Cl)cc2)csc1NC(=O)[C@H]1[C@@H](C(=O)NCCCCCCNC(=O)c2ccc(-c3c4nc(c(-c5c(F)cc(S(=O)(=O)[O-])cc5F)c5ccc([nH]5)c(-c5c(F)cc(S(=O)(=O)[O-])cc5F)c5nc(c(-c6c(F)cc(S(=O)(=O)[O-])cc6F)c6ccc3[nH]6)C=C5)C=C4)cc2)[C@@H]2CC[C@H]1O2
REMARK SMILES IDX 26 1 25 2 24 3 23 4 21 5 22 6 20 8 19 9 102 10 99 11 101 12
REMARK SMILES IDX 103 13 100 14 17 15 16 16 18 18 15 19 4 20 5 21 13 22 14 23
REMARK SMILES IDX 2 24 1 25 3 28 6 29 7 30 12 31 8 32 11 33 9 34 10 35 27 36
REMARK SMILES IDX 28 37 29 38 30 39 31 40 32 42 33 43 34 44 98 45 35 46 97 47
REMARK SMILES IDX 36 48 37 49 38 50 91 51 39 52 96 53 90 54 92 55 40 56 95 57
REMARK SMILES IDX 89 58 88 59 41 61 75 62 54 63 74 64 55 65 58 66 73 67 93 68
REMARK SMILES IDX 56 69 57 70 72 72 94 73 59 74 42 75 43 76 52 77 44 78 45 79
REMARK SMILES IDX 51 80 53 81 46 82 47 83 48 84 49 85 50 86 76 87 77 88 86 89
REMARK SMILES IDX 78 90 79 91 85 92 87 93 80 94 81 95 82 96 83 97 84 98 60 99
REMARK SMILES IDX 61 100 70 101 62 102 63 103 69 104 71 105 64 106 65 107
REMARK SMILES IDX 66 108 67 109 68 110
REMARK H PARENT 23 7 16 17 1 26 1 27 30 41 92 60 58 71
REMARK Flexibility Score: inf
ROOT
ATOM      1  C   UNL A   1      34.038  30.831  27.896  1.00  0.00     0.002 C 
ENDROOT
BRANCH   1   2
ATOM      2  C   UNL A   1      33.052  30.328  26.831  1.00  0.00     0.021 C 
BRANCH   2   3
ATOM      3  C   UNL A   1      32.904  28.809  26.739  1.00  0.00     0.116 C 
BRANCH   3   4
ATOM      4  N   UNL A   1      32.430  28.391  25.436  1.00  0.00    -0.356 N 
ATOM      5  C   UNL A   1      31.742  27.281  25.055  1.00  0.00     0.226 C 
ATOM      6  O   UNL A   1      31.299  27.264  23.906  1.00  0.00    -0.275 OA
ATOM      7  H   UNL A   1      32.641  29.013  24.703  1.00  0.00     0.163 HD
BRANCH   5   8
ATOM      8  C   UNL A   1      31.485  26.177  26.068  1.00  0.00     0.122 C 
ATOM      9  C   UNL A   1      32.424  24.946  26.097  1.00  0.00     0.123 C 
ATOM     10  C   UNL A   1      31.487  23.829  25.584  1.00  0.00     0.132 C 
ATOM     11  C   UNL A   1      30.139  25.524  25.727  1.00  0.00     0.132 C 
ATOM     12  C   UNL A   1      30.521  23.378  26.680  1.00  0.00     0.035 C 
ATOM     13  O   UNL A   1      30.539  24.535  24.753  1.00  0.00    -0.373 OA
ATOM     14  C   UNL A   1      29.667  24.632  26.881  1.00  0.00     0.035 C 
BRANCH   9  15
ATOM     15  C   UNL A   1      33.730  24.972  25.313  1.00  0.00     0.231 C 
ATOM     16  N   UNL A   1      34.153  23.944  24.513  1.00  0.00    -0.317 N 
ATOM     17  H   UNL A   1      35.032  24.128  24.110  1.00  0.00     0.170 HD
ATOM     18  O   UNL A   1      34.510  25.925  25.391  1.00  0.00    -0.274 OA
BRANCH  16  19
ATOM     19  C   UNL A   1      33.656  22.706  24.127  1.00  0.00     0.108 A 
ATOM     20  C   UNL A   1      33.999  21.472  24.689  1.00  0.00     0.082 A 
ATOM     21  C   UNL A   1      33.242  20.394  24.075  1.00  0.00     0.007 A 
ATOM     22  C   UNL A   1      32.437  20.855  23.054  1.00  0.00     0.076 A 
ATOM     23  S   UNL A   1      32.573  22.528  22.843  1.00  0.00    -0.125 S 
BRANCH  20  24
ATOM     24  C   UNL A   1      34.978  21.367  25.771  1.00  0.00     0.252 C 
ATOM     25  N   UNL A   1      34.497  21.370  27.045  1.00  0.00    -0.365 N 
ATOM     26  H   UNL A   1      35.119  21.302  27.806  1.00  0.00     0.159 HD
ATOM     27  H   UNL A   1      33.528  21.441  27.206  1.00  0.00     0.159 HD
ATOM     28  O   UNL A   1      36.183  21.218  25.569  1.00  0.00    -0.269 OA
ENDBRANCH  20  24
BRANCH  21  29
ATOM     29  C   UNL A   1      33.181  18.980  24.425  1.00  0.00    -0.017 A 
ATOM     30  C   UNL A   1      33.585  18.007  23.500  1.00  0.00     0.010 A 
ATOM     31  C   UNL A   1      32.686  18.582  25.674  1.00  0.00     0.010 A 
ATOM     32  C   UNL A   1      33.493  16.651  23.820  1.00  0.00     0.021 A 
ATOM     33  C   UNL A   1      32.594  17.224  25.992  1.00  0.00     0.021 A 
ATOM     34  C   UNL A   1      32.996  16.265  25.064  1.00  0.00     0.041 A 
ATOM     35  Cl  UNL A   1      32.879  14.594  25.452  1.00  0.00    -0.084 Cl
ENDBRANCH  21  29
ENDBRANCH  16  19
ENDBRANCH   9  15
ENDBRANCH   5   8
ENDBRANCH   3   4
ENDBRANCH   2   3
ENDBRANCH   1   2
BRANCH   1  36
ATOM     36  C   UNL A   1      34.272  32.344  27.916  1.00  0.00     0.002 C 
BRANCH  36  37
ATOM     37  C   UNL A   1      34.809  32.895  29.236  1.00  0.00     0.021 C 
BRANCH  37  38
ATOM     38  C   UNL A   1      36.114  32.264  29.706  1.00  0.00     0.116 C 
BRANCH  38  39
ATOM     39  N   UNL A   1      35.912  31.256  30.738  1.00  0.00    -0.352 N 
ATOM     40  C   UNL A   1      36.750  30.225  31.096  1.00  0.00     0.251 C 
ATOM     41  H   UNL A   1      35.070  31.321  31.244  1.00  0.00     0.163 HD
ATOM     42  O   UNL A   1      36.382  29.360  31.883  1.00  0.00    -0.269 OA
BRANCH  40  43
ATOM     43  C   UNL A   1      38.096  30.163  30.490  1.00  0.00     0.039 A 
ATOM     44  C   UNL A   1      39.222  30.174  31.317  1.00  0.00     0.014 A 
ATOM     45  C   UNL A   1      38.232  30.025  29.108  1.00  0.00     0.014 A 
ATOM     46  C   UNL A   1      40.487  29.971  30.759  1.00  0.00     0.010 A 
ATOM     47  C   UNL A   1      39.480  29.748  28.566  1.00  0.00     0.010 A 
ATOM     48  C   UNL A   1      40.621  29.715  29.385  1.00  0.00    -0.014 A 
BRANCH  48  49
ATOM     49  C   UNL A   1      41.935  29.428  28.755  1.00  0.00     0.031 A 
ATOM     50  C   UNL A   1      42.233  28.030  28.284  1.00  0.00     0.074 A 
ATOM     51  C   UNL A   1      42.891  30.378  28.711  1.00  0.00     0.049 A 
ATOM     52  N   UNL A   1      43.367  27.513  27.891  1.00  0.00    -0.248 NA
ATOM     53  C   UNL A   1      41.108  27.080  28.290  1.00  0.00     0.031 C 
ATOM     54  C   UNL A   1      42.731  31.763  29.158  1.00  0.00     0.029 A 
ATOM     55  N   UNL A   1      44.198  30.313  28.293  1.00  0.00    -0.354 N 
ATOM     56  C   UNL A   1      43.100  26.174  27.632  1.00  0.00     0.074 A 
ATOM     57  C   UNL A   1      41.710  25.948  27.957  1.00  0.00     0.031 C 
ATOM     58  C   UNL A   1      43.892  32.417  28.986  1.00  0.00     0.029 A 
ATOM     59  C   UNL A   1      44.893  31.488  28.467  1.00  0.00     0.049 A 
ATOM     60  H   UNL A   1      44.599  29.503  27.905  1.00  0.00     0.167 HD
ATOM     61  C   UNL A   1      43.936  25.224  27.150  1.00  0.00     0.037 A 
ATOM     62  C   UNL A   1      46.194  31.777  28.259  1.00  0.00     0.037 A 
ATOM     63  C   UNL A   1      45.310  25.467  26.802  1.00  0.00     0.049 A 
ATOM     64  C   UNL A   1      47.110  30.699  27.741  1.00  0.00     0.074 A 
ATOM     65  C   UNL A   1      46.227  24.586  26.258  1.00  0.00     0.029 A 
ATOM     66  N   UNL A   1      45.964  26.680  26.960  1.00  0.00    -0.354 N 
ATOM     67  N   UNL A   1      46.834  29.447  27.463  1.00  0.00    -0.248 NA
ATOM     68  C   UNL A   1      48.514  31.069  27.507  1.00  0.00     0.031 C 
ATOM     69  C   UNL A   1      47.450  25.251  26.135  1.00  0.00     0.029 A 
ATOM     70  C   UNL A   1      47.278  26.565  26.542  1.00  0.00     0.049 A 
ATOM     71  H   UNL A   1      45.554  27.502  27.317  1.00  0.00     0.167 HD
ATOM     72  C   UNL A   1      48.016  28.893  26.982  1.00  0.00     0.074 A 
ATOM     73  C   UNL A   1      49.012  29.943  27.013  1.00  0.00     0.031 C 
ATOM     74  C   UNL A   1      48.250  27.631  26.547  1.00  0.00     0.037 A 
BRANCH  61  75
ATOM     75  C   UNL A   1      43.388  23.834  26.975  1.00  0.00     0.058 A 
ATOM     76  C   UNL A   1      43.075  23.317  25.708  1.00  0.00     0.135 A 
ATOM     77  C   UNL A   1      43.207  22.995  28.087  1.00  0.00     0.135 A 
ATOM     78  F   UNL A   1      43.213  24.080  24.612  1.00  0.00    -0.206 F 
ATOM     79  C   UNL A   1      42.572  22.029  25.551  1.00  0.00     0.059 A 
ATOM     80  C   UNL A   1      42.736  21.693  27.951  1.00  0.00     0.059 A 
ATOM     81  F   UNL A   1      43.490  23.438  29.322  1.00  0.00    -0.206 F 
ATOM     82  C   UNL A   1      42.407  21.224  26.681  1.00  0.00     0.060 A 
BRANCH  82  83
ATOM     83  S   UNL A   1      41.756  19.556  26.459  1.00  0.00     0.124 S 
ATOM     84  O   UNL A   1      40.318  19.801  26.460  1.00  0.00    -0.237 OA
ATOM     85  O   UNL A   1      42.332  19.165  25.175  1.00  0.00    -0.237 OA
ATOM     86  O   UNL A   1      42.270  18.834  27.619  1.00  0.00    -0.744 OA
ENDBRANCH  82  83
ENDBRANCH  61  75
BRANCH  62  87
ATOM     87  C   UNL A   1      46.706  33.147  28.533  1.00  0.00     0.058 A 
ATOM     88  C   UNL A   1      46.712  34.128  27.529  1.00  0.00     0.135 A 
ATOM     89  C   UNL A   1      47.192  33.508  29.799  1.00  0.00     0.135 A 
ATOM     90  F   UNL A   1      46.266  33.830  26.299  1.00  0.00    -0.206 F 
ATOM     91  C   UNL A   1      47.196  35.411  27.765  1.00  0.00     0.059 A 
ATOM     92  C   UNL A   1      47.656  34.792  30.068  1.00  0.00     0.059 A 
ATOM     93  F   UNL A   1      47.195  32.613  30.799  1.00  0.00    -0.206 F 
ATOM     94  C   UNL A   1      47.664  35.735  29.040  1.00  0.00     0.060 A 
BRANCH  94  95
ATOM     95  S   UNL A   1      48.251  37.415  29.345  1.00  0.00     0.124 S 
ATOM     96  O   UNL A   1      49.351  37.519  28.394  1.00  0.00    -0.237 OA
ATOM     97  O   UNL A   1      47.066  38.213  29.044  1.00  0.00    -0.237 OA
ATOM     98  O   UNL A   1      48.635  37.385  30.754  1.00  0.00    -0.744 OA
ENDBRANCH  94  95
ENDBRANCH  62  87
BRANCH  74  99
ATOM     99  C   UNL A   1      49.614  27.311  26.002  1.00  0.00     0.058 A 
ATOM    100  C   UNL A   1      50.665  26.888  26.829  1.00  0.00     0.135 A 
ATOM    101  C   UNL A   1      49.830  27.314  24.613  1.00  0.00     0.135 A 
ATOM    102  F   UNL A   1      50.512  26.875  28.162  1.00  0.00    -0.206 F 
ATOM    103  C   UNL A   1      51.881  26.473  26.297  1.00  0.00     0.059 A 
ATOM    104  C   UNL A   1      51.029  26.878  24.060  1.00  0.00     0.059 A 
ATOM    105  F   UNL A   1      48.854  27.704  23.778  1.00  0.00    -0.206 F 
ATOM    106  C   UNL A   1      52.049  26.459  24.911  1.00  0.00     0.060 A 
BRANCH 106 107
ATOM    107  S   UNL A   1      53.601  25.829  24.234  1.00  0.00     0.124 S 
ATOM    108  O   UNL A   1      53.386  25.995  22.801  1.00  0.00    -0.237 OA
ATOM    109  O   UNL A   1      54.586  26.721  24.836  1.00  0.00    -0.237 OA
ATOM    110  O   UNL A   1      53.642  24.448  24.705  1.00  0.00    -0.744 OA
ENDBRANCH 106 107
ENDBRANCH  74  99
ENDBRANCH  48  49
ENDBRANCH  40  43
ENDBRANCH  38  39
ENDBRANCH  37  38
ENDBRANCH  36  37
ENDBRANCH   1  36
TORSDOF 20
ENDMDL
