MODEL 1
REMARK VINA RESULT:     -12.1      0.000      0.000
REMARK SMILES O=C(NCCCCCCNC(=O)c1nccnc1C(=O)N1CCC(Cc2ccccc2)CC1)c1ccc(-c2c3nc(c(-c4c(F)cc(S(=O)(=O)[O-])cc4F)c4ccc([nH]4)c(-c4c(F)cc(S(=O)(=O)[O-])cc4F)c4nc(c(-c5c(F)cc(S(=O)(=O)[O-])cc5F)c5ccc2[nH]5)C=C4)C=C3)cc1
REMARK SMILES IDX 6 1 5 2 4 3 3 4 1 5 2 6 34 8 35 9 99 10 36 11 98 12 37 13
REMARK SMILES IDX 38 14 39 15 92 16 40 17 97 18 91 19 93 20 41 21 96 22 90 23
REMARK SMILES IDX 89 24 42 26 76 27 55 28 75 29 56 30 59 31 74 32 94 33 57 34
REMARK SMILES IDX 58 35 73 37 95 38 60 39 43 40 44 41 53 42 45 43 46 44 52 45
REMARK SMILES IDX 54 46 47 47 48 48 49 49 50 50 51 51 77 52 78 53 87 54 79 55
REMARK SMILES IDX 80 56 86 57 88 58 81 59 82 60 83 61 84 62 85 63 61 64 62 65
REMARK SMILES IDX 71 66 63 67 64 68 70 69 72 70 65 71 66 72 67 73 68 74 69 75
REMARK SMILES IDX 7 76 8 77 9 78 10 79 11 80 12 82 13 83 14 84 18 85 15 86
REMARK SMILES IDX 17 87 16 88 19 89 20 90 21 91 22 92 33 93 23 94 32 95 24 96
REMARK SMILES IDX 25 97 26 98 27 99 31 100 28 101 30 102 29 103
REMARK H PARENT 3 7 93 25 59 36 10 81
REMARK Flexibility Score: inf
ROOT
ATOM      1  C   UNL A   1      38.550  24.110  26.482  1.00  0.00     0.002 C 
ENDROOT
BRANCH   1   2
ATOM      2  C   UNL A   1      39.553  22.983  26.728  1.00  0.00     0.021 C 
BRANCH   2   3
ATOM      3  C   UNL A   1      40.972  23.431  27.050  1.00  0.00     0.116 C 
BRANCH   3   4
ATOM      4  N   UNL A   1      41.563  24.228  25.988  1.00  0.00    -0.352 N 
ATOM      5  O   UNL A   1      42.188  26.109  24.913  1.00  0.00    -0.269 OA
ATOM      6  C   UNL A   1      41.826  25.578  25.960  1.00  0.00     0.251 C 
ATOM      7  H   UNL A   1      41.811  23.732  25.174  1.00  0.00     0.163 HD
BRANCH   6   8
ATOM      8  C   UNL A   1      41.646  26.393  27.184  1.00  0.00     0.039 A 
ATOM      9  C   UNL A   1      40.753  25.995  28.182  1.00  0.00     0.014 A 
ATOM     10  C   UNL A   1      42.386  27.571  27.339  1.00  0.00     0.014 A 
ATOM     11  C   UNL A   1      40.492  26.843  29.254  1.00  0.00     0.010 A 
ATOM     12  C   UNL A   1      42.185  28.379  28.464  1.00  0.00     0.010 A 
ATOM     13  C   UNL A   1      41.214  28.037  29.417  1.00  0.00    -0.014 A 
BRANCH  13  14
ATOM     14  C   UNL A   1      40.969  28.865  30.628  1.00  0.00     0.031 A 
ATOM     15  C   UNL A   1      41.840  28.750  31.850  1.00  0.00     0.074 A 
ATOM     16  C   UNL A   1      39.973  29.772  30.591  1.00  0.00     0.049 A 
ATOM     17  N   UNL A   1      41.792  29.444  32.959  1.00  0.00    -0.248 NA
ATOM     18  C   UNL A   1      42.895  27.726  31.830  1.00  0.00     0.031 C 
ATOM     19  C   UNL A   1      39.044  29.956  29.471  1.00  0.00     0.029 A 
ATOM     20  N   UNL A   1      39.588  30.725  31.498  1.00  0.00    -0.354 N 
ATOM     21  C   UNL A   1      42.802  28.940  33.772  1.00  0.00     0.074 A 
ATOM     22  C   UNL A   1      43.427  27.859  33.039  1.00  0.00     0.031 C 
ATOM     23  C   UNL A   1      38.232  30.989  29.736  1.00  0.00     0.029 A 
ATOM     24  C   UNL A   1      38.545  31.508  31.062  1.00  0.00     0.049 A 
ATOM     25  H   UNL A   1      40.018  30.839  32.376  1.00  0.00     0.167 HD
ATOM     26  C   UNL A   1      43.180  29.351  35.006  1.00  0.00     0.037 A 
ATOM     27  C   UNL A   1      37.900  32.525  31.665  1.00  0.00     0.037 A 
ATOM     28  C   UNL A   1      42.556  30.431  35.730  1.00  0.00     0.049 A 
ATOM     29  C   UNL A   1      38.344  32.962  33.031  1.00  0.00     0.074 A 
ATOM     30  C   UNL A   1      42.867  30.921  36.987  1.00  0.00     0.029 A 
ATOM     31  N   UNL A   1      41.497  31.193  35.259  1.00  0.00    -0.354 N 
ATOM     32  N   UNL A   1      39.312  32.481  33.773  1.00  0.00    -0.248 NA
ATOM     33  C   UNL A   1      37.611  34.079  33.639  1.00  0.00     0.031 C 
ATOM     34  C   UNL A   1      41.979  31.961  37.287  1.00  0.00     0.029 A 
ATOM     35  C   UNL A   1      41.139  32.144  36.202  1.00  0.00     0.049 A 
ATOM     36  H   UNL A   1      41.062  31.075  34.383  1.00  0.00     0.167 HD
ATOM     37  C   UNL A   1      39.306  33.238  34.937  1.00  0.00     0.074 A 
ATOM     38  C   UNL A   1      38.260  34.229  34.786  1.00  0.00     0.031 C 
ATOM     39  C   UNL A   1      40.091  33.119  36.036  1.00  0.00     0.037 A 
BRANCH  26  40
ATOM     40  C   UNL A   1      44.326  28.630  35.663  1.00  0.00     0.058 A 
ATOM     41  C   UNL A   1      44.114  27.521  36.496  1.00  0.00     0.135 A 
ATOM     42  C   UNL A   1      45.655  29.015  35.413  1.00  0.00     0.135 A 
ATOM     43  F   UNL A   1      42.865  27.119  36.780  1.00  0.00    -0.206 F 
ATOM     44  C   UNL A   1      45.174  26.829  37.073  1.00  0.00     0.059 A 
ATOM     45  C   UNL A   1      46.732  28.325  35.962  1.00  0.00     0.059 A 
ATOM     46  F   UNL A   1      45.916  30.069  34.623  1.00  0.00    -0.206 F 
ATOM     47  C   UNL A   1      46.481  27.239  36.800  1.00  0.00     0.060 A 
BRANCH  47  48
ATOM     48  S   UNL A   1      47.846  26.322  37.547  1.00  0.00     0.124 S 
ATOM     49  O   UNL A   1      47.889  26.905  38.884  1.00  0.00    -0.237 OA
ATOM     50  O   UNL A   1      47.374  24.942  37.473  1.00  0.00    -0.237 OA
ATOM     51  O   UNL A   1      48.981  26.641  36.686  1.00  0.00    -0.744 OA
ENDBRANCH  47  48
ENDBRANCH  26  40
BRANCH  27  52
ATOM     52  C   UNL A   1      36.762  33.187  30.976  1.00  0.00     0.058 A 
ATOM     53  C   UNL A   1      35.436  32.889  31.314  1.00  0.00     0.135 A 
ATOM     54  C   UNL A   1      36.987  34.150  29.980  1.00  0.00     0.135 A 
ATOM     55  F   UNL A   1      35.172  31.975  32.260  1.00  0.00    -0.206 F 
ATOM     56  C   UNL A   1      34.366  33.509  30.675  1.00  0.00     0.059 A 
ATOM     57  C   UNL A   1      35.936  34.803  29.346  1.00  0.00     0.059 A 
ATOM     58  F   UNL A   1      38.240  34.484  29.637  1.00  0.00    -0.206 F 
ATOM     59  C   UNL A   1      34.628  34.465  29.692  1.00  0.00     0.060 A 
BRANCH  59  60
ATOM     60  S   UNL A   1      33.239  35.303  28.897  1.00  0.00     0.124 S 
ATOM     61  O   UNL A   1      33.927  36.285  28.070  1.00  0.00    -0.237 OA
ATOM     62  O   UNL A   1      32.585  34.211  28.183  1.00  0.00    -0.237 OA
ATOM     63  O   UNL A   1      32.486  35.841  30.026  1.00  0.00    -0.744 OA
ENDBRANCH  59  60
ENDBRANCH  27  52
BRANCH  39  64
ATOM     64  C   UNL A   1      39.849  34.096  37.151  1.00  0.00     0.058 A 
ATOM     65  C   UNL A   1      40.431  35.374  37.144  1.00  0.00     0.135 A 
ATOM     66  C   UNL A   1      39.019  33.756  38.231  1.00  0.00     0.135 A 
ATOM     67  F   UNL A   1      41.238  35.743  36.138  1.00  0.00    -0.206 F 
ATOM     68  C   UNL A   1      40.225  36.269  38.188  1.00  0.00     0.059 A 
ATOM     69  C   UNL A   1      38.780  34.645  39.274  1.00  0.00     0.059 A 
ATOM     70  F   UNL A   1      38.432  32.549  38.279  1.00  0.00    -0.206 F 
ATOM     71  C   UNL A   1      39.403  35.893  39.252  1.00  0.00     0.060 A 
BRANCH  71  72
ATOM     72  S   UNL A   1      39.137  37.063  40.601  1.00  0.00     0.124 S 
ATOM     73  O   UNL A   1      38.263  38.044  39.968  1.00  0.00    -0.237 OA
ATOM     74  O   UNL A   1      38.517  36.228  41.625  1.00  0.00    -0.237 OA
ATOM     75  O   UNL A   1      40.485  37.529  40.913  1.00  0.00    -0.744 OA
ENDBRANCH  71  72
ENDBRANCH  39  64
ENDBRANCH  13  14
ENDBRANCH   6   8
ENDBRANCH   3   4
ENDBRANCH   2   3
ENDBRANCH   1   2
BRANCH   1  76
ATOM     76  C   UNL A   1      37.171  23.683  25.970  1.00  0.00     0.002 C 
BRANCH  76  77
ATOM     77  C   UNL A   1      37.163  22.633  24.856  1.00  0.00     0.021 C 
BRANCH  77  78
ATOM     78  C   UNL A   1      36.470  21.313  25.190  1.00  0.00     0.116 C 
BRANCH  78  79
ATOM     79  N   UNL A   1      35.620  21.393  26.367  1.00  0.00    -0.351 N 
ATOM     80  C   UNL A   1      34.284  21.067  26.492  1.00  0.00     0.272 C 
ATOM     81  H   UNL A   1      36.056  21.723  27.185  1.00  0.00     0.163 HD
ATOM     82  O   UNL A   1      33.724  21.171  27.579  1.00  0.00    -0.267 OA
BRANCH  80  83
ATOM     83  C   UNL A   1      33.548  20.612  25.293  1.00  0.00     0.159 A 
ATOM     84  N   UNL A   1      33.846  19.328  24.906  1.00  0.00    -0.247 NA
ATOM     85  C   UNL A   1      32.621  21.399  24.623  1.00  0.00     0.159 A 
ATOM     86  C   UNL A   1      33.178  18.864  23.830  1.00  0.00     0.132 A 
ATOM     87  N   UNL A   1      31.990  20.919  23.502  1.00  0.00    -0.247 NA
ATOM     88  C   UNL A   1      32.279  19.649  23.135  1.00  0.00     0.132 A 
BRANCH  85  89
ATOM     89  C   UNL A   1      32.023  22.648  25.179  1.00  0.00     0.274 C 
ATOM     90  O   UNL A   1      30.847  22.568  25.552  1.00  0.00    -0.267 OA
ATOM     91  N   UNL A   1      32.737  23.838  25.336  1.00  0.00    -0.337 N 
ATOM     92  C   UNL A   1      32.349  24.680  26.461  1.00  0.00     0.120 C 
ATOM     93  C   UNL A   1      33.913  24.276  24.586  1.00  0.00     0.120 C 
ATOM     94  C   UNL A   1      32.198  26.135  26.059  1.00  0.00     0.025 C 
ATOM     95  C   UNL A   1      33.826  25.760  24.198  1.00  0.00     0.025 C 
ATOM     96  C   UNL A   1      33.496  26.647  25.416  1.00  0.00    -0.003 C 
BRANCH  96  97
ATOM     97  C   UNL A   1      33.395  28.134  25.021  1.00  0.00     0.039 C 
BRANCH  97  98
ATOM     98  C   UNL A   1      33.824  29.080  26.121  1.00  0.00    -0.048 A 
ATOM     99  C   UNL A   1      35.012  28.846  26.831  1.00  0.00     0.004 A 
ATOM    100  C   UNL A   1      33.071  30.224  26.424  1.00  0.00     0.004 A 
ATOM    101  C   UNL A   1      35.444  29.743  27.810  1.00  0.00     0.000 A 
ATOM    102  C   UNL A   1      33.507  31.121  27.402  1.00  0.00     0.000 A 
ATOM    103  C   UNL A   1      34.693  30.883  28.093  1.00  0.00     0.000 A 
ENDBRANCH  97  98
ENDBRANCH  96  97
ENDBRANCH  85  89
ENDBRANCH  80  83
ENDBRANCH  78  79
ENDBRANCH  77  78
ENDBRANCH  76  77
ENDBRANCH   1  76
TORSDOF 19
ENDMDL
MODEL 2
REMARK VINA RESULT:     -11.8      6.330     12.027
REMARK SMILES O=C(NCCCCCCNC(=O)c1nccnc1C(=O)N1CCC(Cc2ccccc2)CC1)c1ccc(-c2c3nc(c(-c4c(F)cc(S(=O)(=O)[O-])cc4F)c4ccc([nH]4)c(-c4c(F)cc(S(=O)(=O)[O-])cc4F)c4nc(c(-c5c(F)cc(S(=O)(=O)[O-])cc5F)c5ccc2[nH]5)C=C4)C=C3)cc1
REMARK SMILES IDX 6 1 5 2 4 3 3 4 1 5 2 6 34 8 35 9 99 10 36 11 98 12 37 13
REMARK SMILES IDX 38 14 39 15 92 16 40 17 97 18 91 19 93 20 41 21 96 22 90 23
REMARK SMILES IDX 89 24 42 26 76 27 55 28 75 29 56 30 59 31 74 32 94 33 57 34
REMARK SMILES IDX 58 35 73 37 95 38 60 39 43 40 44 41 53 42 45 43 46 44 52 45
REMARK SMILES IDX 54 46 47 47 48 48 49 49 50 50 51 51 77 52 78 53 87 54 79 55
REMARK SMILES IDX 80 56 86 57 88 58 81 59 82 60 83 61 84 62 85 63 61 64 62 65
REMARK SMILES IDX 71 66 63 67 64 68 70 69 72 70 65 71 66 72 67 73 68 74 69 75
REMARK SMILES IDX 7 76 8 77 9 78 10 79 11 80 12 82 13 83 14 84 18 85 15 86
REMARK SMILES IDX 17 87 16 88 19 89 20 90 21 91 22 92 33 93 23 94 32 95 24 96
REMARK SMILES IDX 25 97 26 98 27 99 31 100 28 101 30 102 29 103
REMARK H PARENT 3 7 93 25 59 36 10 81
REMARK Flexibility Score: inf
ROOT
ATOM      1  C   UNL A   1      34.478  31.326  28.121  1.00  0.00     0.002 C 
ENDROOT
BRANCH   1   2
ATOM      2  C   UNL A   1      35.722  32.201  27.969  1.00  0.00     0.021 C 
BRANCH   2   3
ATOM      3  C   UNL A   1      36.481  32.487  29.258  1.00  0.00     0.116 C 
BRANCH   3   4
ATOM      4  N   UNL A   1      36.082  31.613  30.349  1.00  0.00    -0.352 N 
ATOM      5  O   UNL A   1      36.119  29.767  31.642  1.00  0.00    -0.269 OA
ATOM      6  C   UNL A   1      36.686  30.464  30.804  1.00  0.00     0.251 C 
ATOM      7  H   UNL A   1      35.266  31.882  30.830  1.00  0.00     0.163 HD
BRANCH   6   8
ATOM      8  C   UNL A   1      38.003  30.055  30.264  1.00  0.00     0.039 A 
ATOM      9  C   UNL A   1      39.109  29.920  31.106  1.00  0.00     0.014 A 
ATOM     10  C   UNL A   1      38.134  29.799  28.894  1.00  0.00     0.014 A 
ATOM     11  C   UNL A   1      40.366  29.677  30.564  1.00  0.00     0.010 A 
ATOM     12  C   UNL A   1      39.386  29.467  28.362  1.00  0.00     0.010 A 
ATOM     13  C   UNL A   1      40.519  29.432  29.188  1.00  0.00    -0.014 A 
BRANCH  13  14
ATOM     14  C   UNL A   1      41.867  29.082  28.666  1.00  0.00     0.031 A 
ATOM     15  C   UNL A   1      42.985  30.089  28.633  1.00  0.00     0.074 A 
ATOM     16  C   UNL A   1      42.088  27.813  28.268  1.00  0.00     0.049 A 
ATOM     17  N   UNL A   1      44.230  29.919  28.265  1.00  0.00    -0.248 NA
ATOM     18  C   UNL A   1      42.669  31.459  29.062  1.00  0.00     0.031 C 
ATOM     19  C   UNL A   1      41.073  26.755  28.228  1.00  0.00     0.029 A 
ATOM     20  N   UNL A   1      43.233  27.187  27.849  1.00  0.00    -0.354 N 
ATOM     21  C   UNL A   1      44.846  31.158  28.410  1.00  0.00     0.074 A 
ATOM     22  C   UNL A   1      43.828  32.079  28.870  1.00  0.00     0.031 C 
ATOM     23  C   UNL A   1      41.649  25.604  27.857  1.00  0.00     0.029 A 
ATOM     24  C   UNL A   1      43.060  25.849  27.581  1.00  0.00     0.049 A 
ATOM     25  H   UNL A   1      44.096  27.650  27.750  1.00  0.00     0.167 HD
ATOM     26  C   UNL A   1      46.141  31.491  28.192  1.00  0.00     0.037 A 
ATOM     27  C   UNL A   1      43.935  24.921  27.152  1.00  0.00     0.037 A 
ATOM     28  C   UNL A   1      47.152  30.568  27.737  1.00  0.00     0.049 A 
ATOM     29  C   UNL A   1      45.365  25.317  26.924  1.00  0.00     0.074 A 
ATOM     30  C   UNL A   1      48.492  30.811  27.486  1.00  0.00     0.029 A 
ATOM     31  N   UNL A   1      46.936  29.225  27.469  1.00  0.00    -0.354 N 
ATOM     32  N   UNL A   1      45.928  26.490  27.083  1.00  0.00    -0.248 NA
ATOM     33  C   UNL A   1      46.278  24.264  26.461  1.00  0.00     0.031 C 
ATOM     34  C   UNL A   1      49.079  29.621  27.040  1.00  0.00     0.029 A 
ATOM     35  C   UNL A   1      48.115  28.628  27.050  1.00  0.00     0.049 A 
ATOM     36  H   UNL A   1      46.071  28.762  27.561  1.00  0.00     0.167 HD
ATOM     37  C   UNL A   1      47.263  26.318  26.741  1.00  0.00     0.074 A 
ATOM     38  C   UNL A   1      47.429  24.920  26.398  1.00  0.00     0.031 C 
ATOM     39  C   UNL A   1      48.260  27.236  26.707  1.00  0.00     0.037 A 
BRANCH  26  40
ATOM     40  C   UNL A   1      46.549  32.917  28.444  1.00  0.00     0.058 A 
ATOM     41  C   UNL A   1      47.092  33.318  29.675  1.00  0.00     0.135 A 
ATOM     42  C   UNL A   1      46.451  33.883  27.427  1.00  0.00     0.135 A 
ATOM     43  F   UNL A   1      47.195  32.440  30.685  1.00  0.00    -0.206 F 
ATOM     44  C   UNL A   1      47.506  34.627  29.897  1.00  0.00     0.059 A 
ATOM     45  C   UNL A   1      46.879  35.194  27.620  1.00  0.00     0.059 A 
ATOM     46  F   UNL A   1      45.940  33.554  26.230  1.00  0.00    -0.206 F 
ATOM     47  C   UNL A   1      47.396  35.559  28.863  1.00  0.00     0.060 A 
BRANCH  47  48
ATOM     48  S   UNL A   1      47.950  37.251  29.163  1.00  0.00     0.124 S 
ATOM     49  O   UNL A   1      47.836  37.339  30.616  1.00  0.00    -0.237 OA
ATOM     50  O   UNL A   1      49.310  37.234  28.635  1.00  0.00    -0.237 OA
ATOM     51  O   UNL A   1      46.998  38.060  28.409  1.00  0.00    -0.744 OA
ENDBRANCH  47  48
ENDBRANCH  26  40
BRANCH  27  52
ATOM     52  C   UNL A   1      43.472  23.531  26.902  1.00  0.00     0.058 A 
ATOM     53  C   UNL A   1      43.238  23.066  25.601  1.00  0.00     0.135 A 
ATOM     54  C   UNL A   1      43.277  22.637  27.966  1.00  0.00     0.135 A 
ATOM     55  F   UNL A   1      43.410  23.885  24.553  1.00  0.00    -0.206 F 
ATOM     56  C   UNL A   1      42.807  21.764  25.362  1.00  0.00     0.059 A 
ATOM     57  C   UNL A   1      42.875  21.323  27.750  1.00  0.00     0.059 A 
ATOM     58  F   UNL A   1      43.510  23.030  29.227  1.00  0.00    -0.206 F 
ATOM     59  C   UNL A   1      42.629  20.901  26.444  1.00  0.00     0.060 A 
BRANCH  59  60
ATOM     60  S   UNL A   1      42.116  19.199  26.128  1.00  0.00     0.124 S 
ATOM     61  O   UNL A   1      42.942  18.855  24.978  1.00  0.00    -0.237 OA
ATOM     62  O   UNL A   1      42.456  18.533  27.381  1.00  0.00    -0.237 OA
ATOM     63  O   UNL A   1      40.685  19.327  25.866  1.00  0.00    -0.744 OA
ENDBRANCH  59  60
ENDBRANCH  27  52
BRANCH  39  64
ATOM     64  C   UNL A   1      49.618  26.745  26.294  1.00  0.00     0.058 A 
ATOM     65  C   UNL A   1      50.499  26.162  27.219  1.00  0.00     0.135 A 
ATOM     66  C   UNL A   1      50.040  26.850  24.959  1.00  0.00     0.135 A 
ATOM     67  F   UNL A   1      50.145  26.047  28.508  1.00  0.00    -0.206 F 
ATOM     68  C   UNL A   1      51.765  25.730  26.841  1.00  0.00     0.059 A 
ATOM     69  C   UNL A   1      51.294  26.402  24.554  1.00  0.00     0.059 A 
ATOM     70  F   UNL A   1      49.231  27.393  24.035  1.00  0.00    -0.206 F 
ATOM     71  C   UNL A   1      52.156  25.860  25.506  1.00  0.00     0.060 A 
BRANCH  71  72
ATOM     72  S   UNL A   1      53.799  25.292  25.023  1.00  0.00     0.124 S 
ATOM     73  O   UNL A   1      54.590  25.652  26.195  1.00  0.00    -0.237 OA
ATOM     74  O   UNL A   1      53.590  23.862  24.815  1.00  0.00    -0.237 OA
ATOM     75  O   UNL A   1      54.081  26.061  23.814  1.00  0.00    -0.744 OA
ENDBRANCH  71  72
ENDBRANCH  39  64
ENDBRANCH  13  14
ENDBRANCH   6   8
ENDBRANCH   3   4
ENDBRANCH   2   3
ENDBRANCH   1   2
BRANCH   1  76
ATOM     76  C   UNL A   1      34.431  30.066  27.251  1.00  0.00     0.002 C 
BRANCH  76  77
ATOM     77  C   UNL A   1      33.057  29.408  27.095  1.00  0.00     0.021 C 
BRANCH  77  78
ATOM     78  C   UNL A   1      32.243  29.845  25.878  1.00  0.00     0.116 C 
BRANCH  78  79
ATOM     79  N   UNL A   1      32.940  29.637  24.618  1.00  0.00    -0.351 N 
ATOM     80  C   UNL A   1      32.430  29.198  23.412  1.00  0.00     0.272 C 
ATOM     81  H   UNL A   1      33.903  29.837  24.627  1.00  0.00     0.163 HD
ATOM     82  O   UNL A   1      33.164  29.105  22.432  1.00  0.00    -0.267 OA
BRANCH  80  83
ATOM     83  C   UNL A   1      31.000  28.829  23.335  1.00  0.00     0.159 A 
ATOM     84  N   UNL A   1      30.150  29.902  23.223  1.00  0.00    -0.247 NA
ATOM     85  C   UNL A   1      30.550  27.516  23.355  1.00  0.00     0.159 A 
ATOM     86  C   UNL A   1      28.837  29.608  23.125  1.00  0.00     0.132 A 
ATOM     87  N   UNL A   1      29.205  27.247  23.302  1.00  0.00    -0.247 NA
ATOM     88  C   UNL A   1      28.374  28.309  23.178  1.00  0.00     0.132 A 
BRANCH  85  89
ATOM     89  C   UNL A   1      31.424  26.325  23.143  1.00  0.00     0.274 C 
ATOM     90  O   UNL A   1      31.346  25.784  22.034  1.00  0.00    -0.267 OA
ATOM     91  N   UNL A   1      32.331  25.858  24.097  1.00  0.00    -0.337 N 
ATOM     92  C   UNL A   1      33.546  25.238  23.584  1.00  0.00     0.120 C 
ATOM     93  C   UNL A   1      32.266  26.034  25.547  1.00  0.00     0.120 C 
ATOM     94  C   UNL A   1      33.857  23.927  24.282  1.00  0.00     0.025 C 
ATOM     95  C   UNL A   1      32.620  24.742  26.298  1.00  0.00     0.025 C 
ATOM     96  C   UNL A   1      33.952  24.143  25.800  1.00  0.00    -0.003 C 
BRANCH  96  97
ATOM     97  C   UNL A   1      34.299  22.838  26.546  1.00  0.00     0.039 C 
BRANCH  97  98
ATOM     98  C   UNL A   1      35.526  22.141  26.000  1.00  0.00    -0.048 A 
ATOM     99  C   UNL A   1      35.425  20.848  25.463  1.00  0.00     0.004 A 
ATOM    100  C   UNL A   1      36.773  22.782  25.982  1.00  0.00     0.004 A 
ATOM    101  C   UNL A   1      36.541  20.219  24.908  1.00  0.00     0.000 A 
ATOM    102  C   UNL A   1      37.887  22.153  25.424  1.00  0.00     0.000 A 
ATOM    103  C   UNL A   1      37.771  20.873  24.884  1.00  0.00     0.000 A 
ENDBRANCH  97  98
ENDBRANCH  96  97
ENDBRANCH  85  89
ENDBRANCH  80  83
ENDBRANCH  78  79
ENDBRANCH  77  78
ENDBRANCH  76  77
ENDBRANCH   1  76
TORSDOF 19
ENDMDL
MODEL 3
REMARK VINA RESULT:     -11.4      4.052      7.731
REMARK SMILES O=C(NCCCCCCNC(=O)c1nccnc1C(=O)N1CCC(Cc2ccccc2)CC1)c1ccc(-c2c3nc(c(-c4c(F)cc(S(=O)(=O)[O-])cc4F)c4ccc([nH]4)c(-c4c(F)cc(S(=O)(=O)[O-])cc4F)c4nc(c(-c5c(F)cc(S(=O)(=O)[O-])cc5F)c5ccc2[nH]5)C=C4)C=C3)cc1
REMARK SMILES IDX 6 1 5 2 4 3 3 4 1 5 2 6 34 8 35 9 99 10 36 11 98 12 37 13
REMARK SMILES IDX 38 14 39 15 92 16 40 17 97 18 91 19 93 20 41 21 96 22 90 23
REMARK SMILES IDX 89 24 42 26 76 27 55 28 75 29 56 30 59 31 74 32 94 33 57 34
REMARK SMILES IDX 58 35 73 37 95 38 60 39 43 40 44 41 53 42 45 43 46 44 52 45
REMARK SMILES IDX 54 46 47 47 48 48 49 49 50 50 51 51 77 52 78 53 87 54 79 55
REMARK SMILES IDX 80 56 86 57 88 58 81 59 82 60 83 61 84 62 85 63 61 64 62 65
REMARK SMILES IDX 71 66 63 67 64 68 70 69 72 70 65 71 66 72 67 73 68 74 69 75
REMARK SMILES IDX 7 76 8 77 9 78 10 79 11 80 12 82 13 83 14 84 18 85 15 86
REMARK SMILES IDX 17 87 16 88 19 89 20 90 21 91 22 92 33 93 23 94 32 95 24 96
REMARK SMILES IDX 25 97 26 98 27 99 31 100 28 101 30 102 29 103
REMARK H PARENT 3 7 93 25 59 36 10 81
REMARK Flexibility Score: inf
ROOT
ATOM      1  C   UNL A   1      43.350  23.010  29.461  1.00  0.00     0.002 C 
ENDROOT
BRANCH   1   2
ATOM      2  C   UNL A   1      42.929  22.651  28.036  1.00  0.00     0.021 C 
BRANCH   2   3
ATOM      3  C   UNL A   1      41.561  23.167  27.611  1.00  0.00     0.116 C 
BRANCH   3   4
ATOM      4  N   UNL A   1      41.607  23.923  26.370  1.00  0.00    -0.352 N 
ATOM      5  O   UNL A   1      41.282  25.690  25.009  1.00  0.00    -0.269 OA
ATOM      6  C   UNL A   1      41.342  25.255  26.157  1.00  0.00     0.251 C 
ATOM      7  H   UNL A   1      41.865  23.409  25.571  1.00  0.00     0.163 HD
BRANCH   6   8
ATOM      8  C   UNL A   1      41.106  26.157  27.308  1.00  0.00     0.039 A 
ATOM      9  C   UNL A   1      41.900  27.289  27.502  1.00  0.00     0.014 A 
ATOM     10  C   UNL A   1      40.070  25.869  28.204  1.00  0.00     0.014 A 
ATOM     11  C   UNL A   1      41.758  28.043  28.663  1.00  0.00     0.010 A 
ATOM     12  C   UNL A   1      39.871  26.682  29.327  1.00  0.00     0.010 A 
ATOM     13  C   UNL A   1      40.733  27.759  29.582  1.00  0.00    -0.014 A 
BRANCH  13  14
ATOM     14  C   UNL A   1      40.557  28.649  30.760  1.00  0.00     0.031 A 
ATOM     15  C   UNL A   1      41.443  28.536  31.972  1.00  0.00     0.074 A 
ATOM     16  C   UNL A   1      39.614  29.610  30.700  1.00  0.00     0.049 A 
ATOM     17  N   UNL A   1      41.454  29.277  33.051  1.00  0.00    -0.248 NA
ATOM     18  C   UNL A   1      42.437  27.452  31.980  1.00  0.00     0.031 C 
ATOM     19  C   UNL A   1      38.676  29.799  29.588  1.00  0.00     0.029 A 
ATOM     20  N   UNL A   1      39.300  30.620  31.571  1.00  0.00    -0.354 N 
ATOM     21  C   UNL A   1      42.448  28.750  33.869  1.00  0.00     0.074 A 
ATOM     22  C   UNL A   1      42.997  27.605  33.173  1.00  0.00     0.031 C 
ATOM     23  C   UNL A   1      37.929  30.887  29.822  1.00  0.00     0.029 A 
ATOM     24  C   UNL A   1      38.295  31.442  31.119  1.00  0.00     0.049 A 
ATOM     25  H   UNL A   1      39.751  30.746  32.437  1.00  0.00     0.167 HD
ATOM     26  C   UNL A   1      42.871  29.190  35.079  1.00  0.00     0.037 A 
ATOM     27  C   UNL A   1      37.720  32.519  31.687  1.00  0.00     0.037 A 
ATOM     28  C   UNL A   1      42.323  30.334  35.765  1.00  0.00     0.049 A 
ATOM     29  C   UNL A   1      38.212  32.986  33.026  1.00  0.00     0.074 A 
ATOM     30  C   UNL A   1      42.683  30.857  36.995  1.00  0.00     0.029 A 
ATOM     31  N   UNL A   1      41.300  31.135  35.279  1.00  0.00    -0.354 N 
ATOM     32  N   UNL A   1      39.165  32.482  33.773  1.00  0.00    -0.248 NA
ATOM     33  C   UNL A   1      37.555  34.169  33.598  1.00  0.00     0.031 C 
ATOM     34  C   UNL A   1      41.861  31.957  37.265  1.00  0.00     0.029 A 
ATOM     35  C   UNL A   1      41.014  32.143  36.185  1.00  0.00     0.049 A 
ATOM     36  H   UNL A   1      40.843  31.005  34.416  1.00  0.00     0.167 HD
ATOM     37  C   UNL A   1      39.223  33.287  34.904  1.00  0.00     0.074 A 
ATOM     38  C   UNL A   1      38.232  34.329  34.727  1.00  0.00     0.031 C 
ATOM     39  C   UNL A   1      40.020  33.168  35.995  1.00  0.00     0.037 A 
BRANCH  26  40
ATOM     40  C   UNL A   1      43.986  28.433  35.748  1.00  0.00     0.058 A 
ATOM     41  C   UNL A   1      45.332  28.767  35.528  1.00  0.00     0.135 A 
ATOM     42  C   UNL A   1      43.709  27.402  36.662  1.00  0.00     0.135 A 
ATOM     43  F   UNL A   1      45.654  29.734  34.655  1.00  0.00    -0.206 F 
ATOM     44  C   UNL A   1      46.364  28.095  36.176  1.00  0.00     0.059 A 
ATOM     45  C   UNL A   1      44.725  26.730  37.336  1.00  0.00     0.059 A 
ATOM     46  F   UNL A   1      42.440  27.042  36.909  1.00  0.00    -0.206 F 
ATOM     47  C   UNL A   1      46.051  27.077  37.079  1.00  0.00     0.060 A 
BRANCH  47  48
ATOM     48  S   UNL A   1      47.402  26.223  37.919  1.00  0.00     0.124 S 
ATOM     49  O   UNL A   1      46.670  25.276  38.755  1.00  0.00    -0.237 OA
ATOM     50  O   UNL A   1      48.146  25.642  36.806  1.00  0.00    -0.237 OA
ATOM     51  O   UNL A   1      48.087  27.294  38.636  1.00  0.00    -0.744 OA
ENDBRANCH  47  48
ENDBRANCH  26  40
BRANCH  27  52
ATOM     52  C   UNL A   1      36.609  33.216  30.989  1.00  0.00     0.058 A 
ATOM     53  C   UNL A   1      36.847  34.027  29.872  1.00  0.00     0.135 A 
ATOM     54  C   UNL A   1      35.282  33.062  31.420  1.00  0.00     0.135 A 
ATOM     55  F   UNL A   1      38.099  34.204  29.425  1.00  0.00    -0.206 F 
ATOM     56  C   UNL A   1      35.809  34.679  29.213  1.00  0.00     0.059 A 
ATOM     57  C   UNL A   1      34.225  33.680  30.761  1.00  0.00     0.059 A 
ATOM     58  F   UNL A   1      35.002  32.278  32.472  1.00  0.00    -0.206 F 
ATOM     59  C   UNL A   1      34.501  34.498  29.666  1.00  0.00     0.060 A 
BRANCH  59  60
ATOM     60  S   UNL A   1      33.151  35.307  28.781  1.00  0.00     0.124 S 
ATOM     61  O   UNL A   1      32.337  35.804  29.883  1.00  0.00    -0.237 OA
ATOM     62  O   UNL A   1      33.854  36.319  27.998  1.00  0.00    -0.237 OA
ATOM     63  O   UNL A   1      32.567  34.219  28.001  1.00  0.00    -0.744 OA
ENDBRANCH  59  60
ENDBRANCH  27  52
BRANCH  39  64
ATOM     64  C   UNL A   1      39.853  34.204  37.071  1.00  0.00     0.058 A 
ATOM     65  C   UNL A   1      39.074  33.955  38.212  1.00  0.00     0.135 A 
ATOM     66  C   UNL A   1      40.486  35.452  36.964  1.00  0.00     0.135 A 
ATOM     67  F   UNL A   1      38.443  32.779  38.356  1.00  0.00    -0.206 F 
ATOM     68  C   UNL A   1      38.901  34.922  39.196  1.00  0.00     0.059 A 
ATOM     69  C   UNL A   1      40.345  36.426  37.948  1.00  0.00     0.059 A 
ATOM     70  F   UNL A   1      41.248  35.735  35.895  1.00  0.00    -0.206 F 
ATOM     71  C   UNL A   1      39.536  36.157  39.052  1.00  0.00     0.060 A 
BRANCH  71  72
ATOM     72  S   UNL A   1      39.310  37.405  40.336  1.00  0.00     0.124 S 
ATOM     73  O   UNL A   1      38.548  38.424  39.622  1.00  0.00    -0.237 OA
ATOM     74  O   UNL A   1      38.578  36.671  41.364  1.00  0.00    -0.237 OA
ATOM     75  O   UNL A   1      40.676  37.775  40.692  1.00  0.00    -0.744 OA
ENDBRANCH  71  72
ENDBRANCH  39  64
ENDBRANCH  13  14
ENDBRANCH   6   8
ENDBRANCH   3   4
ENDBRANCH   2   3
ENDBRANCH   1   2
BRANCH   1  76
ATOM     76  C   UNL A   1      43.479  24.505  29.769  1.00  0.00     0.002 C 
BRANCH  76  77
ATOM     77  C   UNL A   1      44.876  25.108  29.597  1.00  0.00     0.021 C 
BRANCH  77  78
ATOM     78  C   UNL A   1      44.959  26.632  29.683  1.00  0.00     0.116 C 
BRANCH  78  79
ATOM     79  N   UNL A   1      46.325  27.131  29.695  1.00  0.00    -0.351 N 
ATOM     80  C   UNL A   1      46.837  28.261  29.086  1.00  0.00     0.272 C 
ATOM     81  H   UNL A   1      46.971  26.592  30.205  1.00  0.00     0.163 HD
ATOM     82  O   UNL A   1      48.022  28.550  29.225  1.00  0.00    -0.267 OA
BRANCH  80  83
ATOM     83  C   UNL A   1      45.937  29.093  28.259  1.00  0.00     0.159 A 
ATOM     84  N   UNL A   1      45.385  30.158  28.929  1.00  0.00    -0.247 NA
ATOM     85  C   UNL A   1      45.683  28.839  26.918  1.00  0.00     0.159 A 
ATOM     86  C   UNL A   1      44.577  30.958  28.204  1.00  0.00     0.132 A 
ATOM     87  N   UNL A   1      44.819  29.643  26.216  1.00  0.00    -0.247 NA
ATOM     88  C   UNL A   1      44.289  30.697  26.879  1.00  0.00     0.132 A 
BRANCH  85  89
ATOM     89  C   UNL A   1      46.494  27.918  26.070  1.00  0.00     0.274 C 
ATOM     90  O   UNL A   1      47.447  28.429  25.470  1.00  0.00    -0.267 OA
ATOM     91  N   UNL A   1      46.255  26.545  25.981  1.00  0.00    -0.337 N 
ATOM     92  C   UNL A   1      47.423  25.699  25.765  1.00  0.00     0.120 C 
ATOM     93  C   UNL A   1      44.992  25.845  26.208  1.00  0.00     0.120 C 
ATOM     94  C   UNL A   1      47.190  24.675  24.670  1.00  0.00     0.025 C 
ATOM     95  C   UNL A   1      44.737  24.763  25.148  1.00  0.00     0.025 C 
ATOM     96  C   UNL A   1      45.951  23.825  24.991  1.00  0.00    -0.003 C 
BRANCH  96  97
ATOM     97  C   UNL A   1      45.698  22.748  23.917  1.00  0.00     0.039 C 
BRANCH  97  98
ATOM     98  C   UNL A   1      45.395  21.382  24.493  1.00  0.00    -0.048 A 
ATOM     99  C   UNL A   1      44.090  21.054  24.890  1.00  0.00     0.004 A 
ATOM    100  C   UNL A   1      46.398  20.407  24.605  1.00  0.00     0.004 A 
ATOM    101  C   UNL A   1      43.791  19.779  25.371  1.00  0.00     0.000 A 
ATOM    102  C   UNL A   1      46.097  19.131  25.084  1.00  0.00     0.000 A 
ATOM    103  C   UNL A   1      44.794  18.815  25.464  1.00  0.00     0.000 A 
ENDBRANCH  97  98
ENDBRANCH  96  97
ENDBRANCH  85  89
ENDBRANCH  80  83
ENDBRANCH  78  79
ENDBRANCH  77  78
ENDBRANCH  76  77
ENDBRANCH   1  76
TORSDOF 19
ENDMDL
