MODEL 1
REMARK VINA RESULT:     -11.3      0.000      0.000
REMARK SMILES CCn1cc(CC(=O)NCCCCCCNC(=O)c2ccc(-c3c4nc(c(-c5c(F)cc(S(=O)(=O)[O-])cc5F)c5ccc([nH]5)c(-c5c(F)cc(S(=O)(=O)[O-])cc5F)c5nc(c(-c6c(F)cc(S(=O)(=O)[O-])cc6F)c6ccc3[nH]6)C=C5)C=C4)cc2)c2ccccc21
REMARK SMILES IDX 13 1 12 2 11 3 10 4 9 5 7 6 8 7 6 9 5 10 3 11 4 12 90 13
REMARK SMILES IDX 85 14 89 15 86 16 88 17 87 18 2 19 1 20 14 21 15 22 16 23
REMARK SMILES IDX 17 24 18 26 19 27 20 28 84 29 21 30 83 31 22 32 23 33 24 34
REMARK SMILES IDX 77 35 25 36 82 37 76 38 78 39 26 40 81 41 75 42 74 43 27 45
REMARK SMILES IDX 61 46 40 47 60 48 41 49 44 50 59 51 79 52 42 53 43 54 58 56
REMARK SMILES IDX 80 57 45 58 28 59 29 60 38 61 30 62 31 63 37 64 39 65 32 66
REMARK SMILES IDX 33 67 34 68 35 69 36 70 62 71 63 72 72 73 64 74 65 75 71 76
REMARK SMILES IDX 73 77 66 78 67 79 68 80 69 81 70 82 46 83 47 84 56 85 48 86
REMARK SMILES IDX 49 87 55 88 57 89 50 90 51 91 52 92 53 93 54 94
REMARK H PARENT 9 8 16 25 78 44 44 55
REMARK Flexibility Score: inf
ROOT
ATOM      1  C   UNL A   1      38.531  23.203  26.113  1.00  0.00     0.002 C 
ENDROOT
BRANCH   1   2
ATOM      2  C   UNL A   1      37.073  23.356  25.667  1.00  0.00     0.002 C 
BRANCH   2   3
ATOM      3  C   UNL A   1      36.556  22.263  24.722  1.00  0.00     0.021 C 
BRANCH   3   4
ATOM      4  C   UNL A   1      35.086  22.427  24.324  1.00  0.00     0.116 C 
BRANCH   4   5
ATOM      5  N   UNL A   1      34.919  23.472  23.330  1.00  0.00    -0.356 N 
ATOM      6  C   UNL A   1      34.039  24.518  23.320  1.00  0.00     0.224 C 
ATOM      7  O   UNL A   1      34.008  25.250  22.328  1.00  0.00    -0.275 OA
ATOM      8  H   UNL A   1      35.525  23.421  22.556  1.00  0.00     0.163 HD
BRANCH   6   9
ATOM      9  C   UNL A   1      33.167  24.802  24.535  1.00  0.00     0.137 C 
BRANCH   9  10
ATOM     10  C   UNL A   1      32.949  26.260  24.782  1.00  0.00    -0.013 A 
ATOM     11  N   UNL A   1      33.135  28.306  25.669  1.00  0.00    -0.347 N 
ATOM     12  C   UNL A   1      33.702  27.059  25.621  1.00  0.00     0.091 A 
ATOM     13  C   UNL A   1      32.052  28.360  24.811  1.00  0.00     0.048 A 
ATOM     14  C   UNL A   1      31.925  27.092  24.233  1.00  0.00     0.003 A 
ATOM     15  C   UNL A   1      31.154  29.398  24.509  1.00  0.00     0.027 A 
ATOM     16  C   UNL A   1      30.875  26.860  23.318  1.00  0.00     0.010 A 
ATOM     17  C   UNL A   1      30.125  29.143  23.599  1.00  0.00     0.002 A 
ATOM     18  C   UNL A   1      29.986  27.892  23.008  1.00  0.00     0.001 A 
BRANCH  11  19
ATOM     19  C   UNL A   1      33.545  29.358  26.586  1.00  0.00     0.119 C 
ATOM     20  C   UNL A   1      34.875  29.110  27.284  1.00  0.00     0.027 C 
ENDBRANCH  11  19
ENDBRANCH   9  10
ENDBRANCH   6   9
ENDBRANCH   4   5
ENDBRANCH   3   4
ENDBRANCH   2   3
ENDBRANCH   1   2
BRANCH   1  21
ATOM     21  C   UNL A   1      39.139  21.806  25.934  1.00  0.00     0.021 C 
BRANCH  21  22
ATOM     22  C   UNL A   1      40.561  21.656  26.476  1.00  0.00     0.116 C 
BRANCH  22  23
ATOM     23  N   UNL A   1      41.592  22.071  25.548  1.00  0.00    -0.352 N 
ATOM     24  C   UNL A   1      42.390  23.174  25.415  1.00  0.00     0.251 C 
ATOM     25  H   UNL A   1      41.757  21.402  24.845  1.00  0.00     0.163 HD
ATOM     26  O   UNL A   1      43.268  23.096  24.550  1.00  0.00    -0.269 OA
BRANCH  24  27
ATOM     27  C   UNL A   1      42.249  24.448  26.177  1.00  0.00     0.039 A 
ATOM     28  C   UNL A   1      42.843  24.737  27.406  1.00  0.00     0.014 A 
ATOM     29  C   UNL A   1      41.402  25.419  25.603  1.00  0.00     0.014 A 
ATOM     30  C   UNL A   1      42.532  25.919  28.077  1.00  0.00     0.010 A 
ATOM     31  C   UNL A   1      41.100  26.608  26.263  1.00  0.00     0.010 A 
ATOM     32  C   UNL A   1      41.638  26.843  27.521  1.00  0.00    -0.014 A 
BRANCH  32  33
ATOM     33  C   UNL A   1      41.433  28.107  28.232  1.00  0.00     0.031 A 
ATOM     34  C   UNL A   1      42.545  29.085  28.053  1.00  0.00     0.074 A 
ATOM     35  C   UNL A   1      40.321  28.446  28.916  1.00  0.00     0.049 A 
ATOM     36  N   UNL A   1      43.393  29.494  28.938  1.00  0.00    -0.248 NA
ATOM     37  C   UNL A   1      42.837  29.547  26.688  1.00  0.00     0.031 C 
ATOM     38  C   UNL A   1      39.038  27.741  28.960  1.00  0.00     0.029 A 
ATOM     39  N   UNL A   1      40.082  29.558  29.674  1.00  0.00    -0.354 N 
ATOM     40  C   UNL A   1      44.197  30.434  28.294  1.00  0.00     0.074 A 
ATOM     41  C   UNL A   1      43.922  30.298  26.888  1.00  0.00     0.031 C 
ATOM     42  C   UNL A   1      38.106  28.539  29.531  1.00  0.00     0.029 A 
ATOM     43  C   UNL A   1      38.746  29.749  30.020  1.00  0.00     0.049 A 
ATOM     44  H   UNL A   1      40.797  30.176  29.953  1.00  0.00     0.167 HD
ATOM     45  C   UNL A   1      44.861  31.397  28.993  1.00  0.00     0.037 A 
ATOM     46  C   UNL A   1      38.206  30.835  30.634  1.00  0.00     0.037 A 
ATOM     47  C   UNL A   1      44.961  31.044  30.387  1.00  0.00     0.049 A 
ATOM     48  C   UNL A   1      39.312  31.529  31.340  1.00  0.00     0.074 A 
ATOM     49  C   UNL A   1      45.544  30.016  31.099  1.00  0.00     0.029 A 
ATOM     50  N   UNL A   1      44.088  31.656  31.251  1.00  0.00    -0.354 N 
ATOM     51  N   UNL A   1      39.946  31.042  32.369  1.00  0.00    -0.248 NA
ATOM     52  C   UNL A   1      39.982  32.621  30.653  1.00  0.00     0.031 C 
ATOM     53  C   UNL A   1      44.668  29.781  32.200  1.00  0.00     0.029 A 
ATOM     54  C   UNL A   1      43.629  30.710  32.130  1.00  0.00     0.049 A 
ATOM     55  H   UNL A   1      43.837  32.608  31.243  1.00  0.00     0.167 HD
ATOM     56  C   UNL A   1      41.258  31.454  32.202  1.00  0.00     0.074 A 
ATOM     57  C   UNL A   1      41.195  32.514  31.200  1.00  0.00     0.031 C 
ATOM     58  C   UNL A   1      42.294  30.711  32.687  1.00  0.00     0.037 A 
BRANCH  45  59
ATOM     59  C   UNL A   1      45.078  32.819  28.511  1.00  0.00     0.058 A 
ATOM     60  C   UNL A   1      46.398  33.313  28.398  1.00  0.00     0.135 A 
ATOM     61  C   UNL A   1      44.063  33.801  28.444  1.00  0.00     0.135 A 
ATOM     62  F   UNL A   1      47.449  32.478  28.437  1.00  0.00    -0.206 F 
ATOM     63  C   UNL A   1      46.688  34.677  28.328  1.00  0.00     0.059 A 
ATOM     64  C   UNL A   1      44.329  35.161  28.322  1.00  0.00     0.059 A 
ATOM     65  F   UNL A   1      42.766  33.507  28.585  1.00  0.00    -0.206 F 
ATOM     66  C   UNL A   1      45.644  35.594  28.310  1.00  0.00     0.060 A 
BRANCH  66  67
ATOM     67  S   UNL A   1      46.014  37.356  28.331  1.00  0.00     0.124 S 
ATOM     68  O   UNL A   1      45.642  37.715  29.695  1.00  0.00    -0.237 OA
ATOM     69  O   UNL A   1      47.442  37.366  28.033  1.00  0.00    -0.237 OA
ATOM     70  O   UNL A   1      45.156  37.892  27.279  1.00  0.00    -0.744 OA
ENDBRANCH  66  67
ENDBRANCH  45  59
BRANCH  46  71
ATOM     71  C   UNL A   1      36.882  31.488  30.424  1.00  0.00     0.058 A 
ATOM     72  C   UNL A   1      36.142  31.998  31.511  1.00  0.00     0.135 A 
ATOM     73  C   UNL A   1      36.463  31.905  29.146  1.00  0.00     0.135 A 
ATOM     74  F   UNL A   1      36.469  31.664  32.769  1.00  0.00    -0.206 F 
ATOM     75  C   UNL A   1      35.105  32.925  31.345  1.00  0.00     0.059 A 
ATOM     76  C   UNL A   1      35.424  32.819  28.956  1.00  0.00     0.059 A 
ATOM     77  F   UNL A   1      37.114  31.512  28.043  1.00  0.00    -0.206 F 
ATOM     78  C   UNL A   1      34.773  33.353  30.062  1.00  0.00     0.060 A 
BRANCH  78  79
ATOM     79  S   UNL A   1      33.579  34.696  29.853  1.00  0.00     0.124 S 
ATOM     80  O   UNL A   1      34.409  35.757  29.294  1.00  0.00    -0.237 OA
ATOM     81  O   UNL A   1      32.604  34.102  28.943  1.00  0.00    -0.237 OA
ATOM     82  O   UNL A   1      33.094  34.933  31.211  1.00  0.00    -0.744 OA
ENDBRANCH  78  79
ENDBRANCH  46  71
BRANCH  58  83
ATOM     83  C   UNL A   1      41.996  29.654  33.720  1.00  0.00     0.058 A 
ATOM     84  C   UNL A   1      41.549  28.353  33.431  1.00  0.00     0.135 A 
ATOM     85  C   UNL A   1      42.335  29.935  35.053  1.00  0.00     0.135 A 
ATOM     86  F   UNL A   1      41.291  27.973  32.171  1.00  0.00    -0.206 F 
ATOM     87  C   UNL A   1      41.425  27.383  34.428  1.00  0.00     0.059 A 
ATOM     88  C   UNL A   1      42.252  28.974  36.055  1.00  0.00     0.059 A 
ATOM     89  F   UNL A   1      42.817  31.144  35.384  1.00  0.00    -0.206 F 
ATOM     90  C   UNL A   1      41.790  27.700  35.737  1.00  0.00     0.060 A 
BRANCH  90  91
ATOM     91  S   UNL A   1      41.738  26.412  37.001  1.00  0.00     0.124 S 
ATOM     92  O   UNL A   1      40.442  26.644  37.627  1.00  0.00    -0.237 OA
ATOM     93  O   UNL A   1      41.855  25.190  36.213  1.00  0.00    -0.237 OA
ATOM     94  O   UNL A   1      42.898  26.711  37.842  1.00  0.00    -0.744 OA
ENDBRANCH  90  91
ENDBRANCH  58  83
ENDBRANCH  32  33
ENDBRANCH  24  27
ENDBRANCH  22  23
ENDBRANCH  21  22
ENDBRANCH   1  21
TORSDOF 18
ENDMDL
MODEL 2
REMARK VINA RESULT:     -11.2      3.014      9.735
REMARK SMILES CCn1cc(CC(=O)NCCCCCCNC(=O)c2ccc(-c3c4nc(c(-c5c(F)cc(S(=O)(=O)[O-])cc5F)c5ccc([nH]5)c(-c5c(F)cc(S(=O)(=O)[O-])cc5F)c5nc(c(-c6c(F)cc(S(=O)(=O)[O-])cc6F)c6ccc3[nH]6)C=C5)C=C4)cc2)c2ccccc21
REMARK SMILES IDX 13 1 12 2 11 3 10 4 9 5 7 6 8 7 6 9 5 10 3 11 4 12 90 13
REMARK SMILES IDX 85 14 89 15 86 16 88 17 87 18 2 19 1 20 14 21 15 22 16 23
REMARK SMILES IDX 17 24 18 26 19 27 20 28 84 29 21 30 83 31 22 32 23 33 24 34
REMARK SMILES IDX 77 35 25 36 82 37 76 38 78 39 26 40 81 41 75 42 74 43 27 45
REMARK SMILES IDX 61 46 40 47 60 48 41 49 44 50 59 51 79 52 42 53 43 54 58 56
REMARK SMILES IDX 80 57 45 58 28 59 29 60 38 61 30 62 31 63 37 64 39 65 32 66
REMARK SMILES IDX 33 67 34 68 35 69 36 70 62 71 63 72 72 73 64 74 65 75 71 76
REMARK SMILES IDX 73 77 66 78 67 79 68 80 69 81 70 82 46 83 47 84 56 85 48 86
REMARK SMILES IDX 49 87 55 88 57 89 50 90 51 91 52 92 53 93 54 94
REMARK H PARENT 9 8 16 25 78 44 44 55
REMARK Flexibility Score: inf
ROOT
ATOM      1  C   UNL A   1      31.785  29.425  26.964  1.00  0.00     0.002 C 
ENDROOT
BRANCH   1   2
ATOM      2  C   UNL A   1      31.800  28.401  25.823  1.00  0.00     0.002 C 
BRANCH   2   3
ATOM      3  C   UNL A   1      32.080  26.952  26.243  1.00  0.00     0.021 C 
BRANCH   3   4
ATOM      4  C   UNL A   1      30.934  25.982  25.940  1.00  0.00     0.116 C 
BRANCH   4   5
ATOM      5  N   UNL A   1      30.919  24.871  26.874  1.00  0.00    -0.356 N 
ATOM      6  C   UNL A   1      30.923  23.528  26.615  1.00  0.00     0.224 C 
ATOM      7  O   UNL A   1      30.821  22.747  27.564  1.00  0.00    -0.275 OA
ATOM      8  H   UNL A   1      30.903  25.118  27.826  1.00  0.00     0.163 HD
BRANCH   6   9
ATOM      9  C   UNL A   1      31.115  23.019  25.194  1.00  0.00     0.137 C 
BRANCH   9  10
ATOM     10  C   UNL A   1      32.284  22.098  25.046  1.00  0.00    -0.013 A 
ATOM     11  N   UNL A   1      33.481  20.230  24.759  1.00  0.00    -0.347 N 
ATOM     12  C   UNL A   1      32.222  20.767  24.683  1.00  0.00     0.091 A 
ATOM     13  C   UNL A   1      34.389  21.215  25.101  1.00  0.00     0.048 A 
ATOM     14  C   UNL A   1      33.662  22.399  25.273  1.00  0.00     0.003 A 
ATOM     15  C   UNL A   1      35.778  21.170  25.303  1.00  0.00     0.027 A 
ATOM     16  C   UNL A   1      34.349  23.574  25.646  1.00  0.00     0.010 A 
ATOM     17  C   UNL A   1      36.435  22.349  25.671  1.00  0.00     0.002 A 
ATOM     18  C   UNL A   1      35.732  23.536  25.840  1.00  0.00     0.001 A 
BRANCH  11  19
ATOM     19  C   UNL A   1      33.777  18.812  24.624  1.00  0.00     0.119 C 
ATOM     20  C   UNL A   1      32.711  17.883  25.189  1.00  0.00     0.027 C 
ENDBRANCH  11  19
ENDBRANCH   9  10
ENDBRANCH   6   9
ENDBRANCH   4   5
ENDBRANCH   3   4
ENDBRANCH   2   3
ENDBRANCH   1   2
BRANCH   1  21
ATOM     21  C   UNL A   1      32.531  30.737  26.690  1.00  0.00     0.021 C 
BRANCH  21  22
ATOM     22  C   UNL A   1      33.919  30.826  27.325  1.00  0.00     0.116 C 
BRANCH  22  23
ATOM     23  N   UNL A   1      33.964  31.631  28.529  1.00  0.00    -0.352 N 
ATOM     24  C   UNL A   1      34.927  31.952  29.446  1.00  0.00     0.251 C 
ATOM     25  H   UNL A   1      33.095  32.045  28.737  1.00  0.00     0.163 HD
ATOM     26  O   UNL A   1      34.605  32.801  30.283  1.00  0.00    -0.269 OA
BRANCH  24  27
ATOM     27  C   UNL A   1      36.279  31.330  29.543  1.00  0.00     0.039 A 
ATOM     28  C   UNL A   1      37.492  32.014  29.601  1.00  0.00     0.014 A 
ATOM     29  C   UNL A   1      36.311  29.919  29.533  1.00  0.00     0.014 A 
ATOM     30  C   UNL A   1      38.698  31.315  29.563  1.00  0.00     0.010 A 
ATOM     31  C   UNL A   1      37.512  29.215  29.509  1.00  0.00     0.010 A 
ATOM     32  C   UNL A   1      38.711  29.916  29.488  1.00  0.00    -0.014 A 
BRANCH  32  33
ATOM     33  C   UNL A   1      40.009  29.241  29.552  1.00  0.00     0.031 A 
ATOM     34  C   UNL A   1      40.546  29.100  30.936  1.00  0.00     0.074 A 
ATOM     35  C   UNL A   1      40.655  28.692  28.503  1.00  0.00     0.049 A 
ATOM     36  N   UNL A   1      41.574  29.686  31.453  1.00  0.00    -0.248 NA
ATOM     37  C   UNL A   1      39.752  28.326  31.902  1.00  0.00     0.031 C 
ATOM     38  C   UNL A   1      40.156  28.486  27.141  1.00  0.00     0.029 A 
ATOM     39  N   UNL A   1      41.898  28.124  28.458  1.00  0.00    -0.354 N 
ATOM     40  C   UNL A   1      41.688  29.190  32.751  1.00  0.00     0.074 A 
ATOM     41  C   UNL A   1      40.456  28.498  33.023  1.00  0.00     0.031 C 
ATOM     42  C   UNL A   1      40.999  27.667  26.472  1.00  0.00     0.029 A 
ATOM     43  C   UNL A   1      42.165  27.401  27.298  1.00  0.00     0.049 A 
ATOM     44  H   UNL A   1      42.552  28.219  29.188  1.00  0.00     0.167 HD
ATOM     45  C   UNL A   1      42.879  29.204  33.414  1.00  0.00     0.037 A 
ATOM     46  C   UNL A   1      43.250  26.620  27.051  1.00  0.00     0.037 A 
ATOM     47  C   UNL A   1      43.797  30.133  32.804  1.00  0.00     0.049 A 
ATOM     48  C   UNL A   1      44.327  27.070  27.967  1.00  0.00     0.074 A 
ATOM     49  C   UNL A   1      43.812  31.496  32.586  1.00  0.00     0.029 A 
ATOM     50  N   UNL A   1      44.770  29.608  31.992  1.00  0.00    -0.354 N 
ATOM     51  N   UNL A   1      44.922  28.227  27.886  1.00  0.00    -0.248 NA
ATOM     52  C   UNL A   1      44.484  26.375  29.233  1.00  0.00     0.031 C 
ATOM     53  C   UNL A   1      44.475  31.666  31.335  1.00  0.00     0.029 A 
ATOM     54  C   UNL A   1      44.873  30.407  30.883  1.00  0.00     0.049 A 
ATOM     55  H   UNL A   1      45.303  28.801  32.174  1.00  0.00     0.167 HD
ATOM     56  C   UNL A   1      45.152  28.597  29.201  1.00  0.00     0.074 A 
ATOM     57  C   UNL A   1      44.970  27.373  29.975  1.00  0.00     0.031 C 
ATOM     58  C   UNL A   1      45.197  29.912  29.563  1.00  0.00     0.037 A 
BRANCH  45  59
ATOM     59  C   UNL A   1      43.353  28.117  34.360  1.00  0.00     0.058 A 
ATOM     60  C   UNL A   1      43.720  28.466  35.679  1.00  0.00     0.135 A 
ATOM     61  C   UNL A   1      43.745  26.822  33.952  1.00  0.00     0.135 A 
ATOM     62  F   UNL A   1      43.397  29.667  36.187  1.00  0.00    -0.206 F 
ATOM     63  C   UNL A   1      44.500  27.637  36.488  1.00  0.00     0.059 A 
ATOM     64  C   UNL A   1      44.477  25.959  34.761  1.00  0.00     0.059 A 
ATOM     65  F   UNL A   1      43.520  26.356  32.719  1.00  0.00    -0.206 F 
ATOM     66  C   UNL A   1      44.890  26.392  36.011  1.00  0.00     0.060 A 
BRANCH  66  67
ATOM     67  S   UNL A   1      45.985  25.366  37.004  1.00  0.00     0.124 S 
ATOM     68  O   UNL A   1      45.834  24.068  36.358  1.00  0.00    -0.237 OA
ATOM     69  O   UNL A   1      47.271  26.029  36.814  1.00  0.00    -0.237 OA
ATOM     70  O   UNL A   1      45.422  25.475  38.347  1.00  0.00    -0.744 OA
ENDBRANCH  66  67
ENDBRANCH  45  59
BRANCH  46  71
ATOM     71  C   UNL A   1      43.346  25.331  26.307  1.00  0.00     0.058 A 
ATOM     72  C   UNL A   1      44.316  25.142  25.301  1.00  0.00     0.135 A 
ATOM     73  C   UNL A   1      42.710  24.164  26.774  1.00  0.00     0.135 A 
ATOM     74  F   UNL A   1      44.981  26.193  24.797  1.00  0.00    -0.206 F 
ATOM     75  C   UNL A   1      44.688  23.872  24.845  1.00  0.00     0.059 A 
ATOM     76  C   UNL A   1      43.057  22.887  26.325  1.00  0.00     0.059 A 
ATOM     77  F   UNL A   1      41.798  24.218  27.754  1.00  0.00    -0.206 F 
ATOM     78  C   UNL A   1      44.072  22.746  25.386  1.00  0.00     0.060 A 
BRANCH  78  79
ATOM     79  S   UNL A   1      44.687  21.100  24.953  1.00  0.00     0.124 S 
ATOM     80  O   UNL A   1      44.611  21.120  23.497  1.00  0.00    -0.237 OA
ATOM     81  O   UNL A   1      46.032  21.116  25.521  1.00  0.00    -0.237 OA
ATOM     82  O   UNL A   1      43.746  20.200  25.615  1.00  0.00    -0.744 OA
ENDBRANCH  78  79
ENDBRANCH  46  71
BRANCH  58  83
ATOM     83  C   UNL A   1      45.372  30.947  28.481  1.00  0.00     0.058 A 
ATOM     84  C   UNL A   1      44.328  31.485  27.708  1.00  0.00     0.135 A 
ATOM     85  C   UNL A   1      46.641  31.530  28.339  1.00  0.00     0.135 A 
ATOM     86  F   UNL A   1      43.067  31.049  27.847  1.00  0.00    -0.206 F 
ATOM     87  C   UNL A   1      44.544  32.540  26.819  1.00  0.00     0.059 A 
ATOM     88  C   UNL A   1      46.871  32.603  27.485  1.00  0.00     0.059 A 
ATOM     89  F   UNL A   1      47.669  31.095  29.087  1.00  0.00    -0.206 F 
ATOM     90  C   UNL A   1      45.818  33.101  26.723  1.00  0.00     0.060 A 
BRANCH  90  91
ATOM     91  S   UNL A   1      46.069  34.538  25.658  1.00  0.00     0.124 S 
ATOM     92  O   UNL A   1      45.132  34.286  24.570  1.00  0.00    -0.237 OA
ATOM     93  O   UNL A   1      45.733  35.648  26.543  1.00  0.00    -0.237 OA
ATOM     94  O   UNL A   1      47.484  34.452  25.294  1.00  0.00    -0.744 OA
ENDBRANCH  90  91
ENDBRANCH  58  83
ENDBRANCH  32  33
ENDBRANCH  24  27
ENDBRANCH  22  23
ENDBRANCH  21  22
ENDBRANCH   1  21
TORSDOF 18
ENDMDL
MODEL 3
REMARK VINA RESULT:     -11.1      3.604      7.088
REMARK SMILES CCn1cc(CC(=O)NCCCCCCNC(=O)c2ccc(-c3c4nc(c(-c5c(F)cc(S(=O)(=O)[O-])cc5F)c5ccc([nH]5)c(-c5c(F)cc(S(=O)(=O)[O-])cc5F)c5nc(c(-c6c(F)cc(S(=O)(=O)[O-])cc6F)c6ccc3[nH]6)C=C5)C=C4)cc2)c2ccccc21
REMARK SMILES IDX 13 1 12 2 11 3 10 4 9 5 7 6 8 7 6 9 5 10 3 11 4 12 90 13
REMARK SMILES IDX 85 14 89 15 86 16 88 17 87 18 2 19 1 20 14 21 15 22 16 23
REMARK SMILES IDX 17 24 18 26 19 27 20 28 84 29 21 30 83 31 22 32 23 33 24 34
REMARK SMILES IDX 77 35 25 36 82 37 76 38 78 39 26 40 81 41 75 42 74 43 27 45
REMARK SMILES IDX 61 46 40 47 60 48 41 49 44 50 59 51 79 52 42 53 43 54 58 56
REMARK SMILES IDX 80 57 45 58 28 59 29 60 38 61 30 62 31 63 37 64 39 65 32 66
REMARK SMILES IDX 33 67 34 68 35 69 36 70 62 71 63 72 72 73 64 74 65 75 71 76
REMARK SMILES IDX 73 77 66 78 67 79 68 80 69 81 70 82 46 83 47 84 56 85 48 86
REMARK SMILES IDX 49 87 55 88 57 89 50 90 51 91 52 92 53 93 54 94
REMARK H PARENT 9 8 16 25 78 44 44 55
REMARK Flexibility Score: inf
ROOT
ATOM      1  C   UNL A   1      44.529  24.198  25.125  1.00  0.00     0.002 C 
ENDROOT
BRANCH   1   2
ATOM      2  C   UNL A   1      44.099  25.612  25.535  1.00  0.00     0.002 C 
BRANCH   2   3
ATOM      3  C   UNL A   1      45.226  26.518  26.050  1.00  0.00     0.021 C 
BRANCH   3   4
ATOM      4  C   UNL A   1      46.572  26.296  25.352  1.00  0.00     0.116 C 
BRANCH   4   5
ATOM      5  N   UNL A   1      47.348  25.263  26.015  1.00  0.00    -0.356 N 
ATOM      6  C   UNL A   1      48.121  25.355  27.138  1.00  0.00     0.224 C 
ATOM      7  O   UNL A   1      48.771  24.365  27.487  1.00  0.00    -0.275 OA
ATOM      8  H   UNL A   1      47.313  24.372  25.597  1.00  0.00     0.163 HD
BRANCH   6   9
ATOM      9  C   UNL A   1      48.125  26.630  27.968  1.00  0.00     0.137 C 
BRANCH   9  10
ATOM     10  C   UNL A   1      47.930  26.388  29.431  1.00  0.00    -0.013 A 
ATOM     11  N   UNL A   1      48.377  26.068  31.600  1.00  0.00    -0.347 N 
ATOM     12  C   UNL A   1      48.912  26.458  30.400  1.00  0.00     0.091 A 
ATOM     13  C   UNL A   1      47.028  25.809  31.447  1.00  0.00     0.048 A 
ATOM     14  C   UNL A   1      46.722  26.016  30.097  1.00  0.00     0.003 A 
ATOM     15  C   UNL A   1      46.052  25.384  32.365  1.00  0.00     0.027 A 
ATOM     16  C   UNL A   1      45.398  25.802  29.657  1.00  0.00     0.010 A 
ATOM     17  C   UNL A   1      44.748  25.181  31.903  1.00  0.00     0.002 A 
ATOM     18  C   UNL A   1      44.423  25.388  30.567  1.00  0.00     0.001 A 
BRANCH  11  19
ATOM     19  C   UNL A   1      49.154  25.844  32.809  1.00  0.00     0.119 C 
ATOM     20  C   UNL A   1      49.741  24.445  32.938  1.00  0.00     0.027 C 
ENDBRANCH  11  19
ENDBRANCH   9  10
ENDBRANCH   6   9
ENDBRANCH   4   5
ENDBRANCH   3   4
ENDBRANCH   2   3
ENDBRANCH   1   2
BRANCH   1  21
ATOM     21  C   UNL A   1      43.399  23.265  24.672  1.00  0.00     0.021 C 
BRANCH  21  22
ATOM     22  C   UNL A   1      43.174  22.051  25.575  1.00  0.00     0.116 C 
BRANCH  22  23
ATOM     23  N   UNL A   1      41.779  21.715  25.772  1.00  0.00    -0.352 N 
ATOM     24  C   UNL A   1      40.672  22.388  26.213  1.00  0.00     0.251 C 
ATOM     25  H   UNL A   1      41.580  20.781  25.533  1.00  0.00     0.163 HD
ATOM     26  O   UNL A   1      39.601  21.781  26.106  1.00  0.00    -0.269 OA
BRANCH  24  27
ATOM     27  C   UNL A   1      40.668  23.738  26.846  1.00  0.00     0.039 A 
ATOM     28  C   UNL A   1      40.044  24.878  26.339  1.00  0.00     0.014 A 
ATOM     29  C   UNL A   1      41.401  23.859  28.045  1.00  0.00     0.014 A 
ATOM     30  C   UNL A   1      40.219  26.112  26.963  1.00  0.00     0.010 A 
ATOM     31  C   UNL A   1      41.567  25.087  28.680  1.00  0.00     0.010 A 
ATOM     32  C   UNL A   1      41.004  26.225  28.118  1.00  0.00    -0.014 A 
BRANCH  32  33
ATOM     33  C   UNL A   1      41.065  27.531  28.776  1.00  0.00     0.031 A 
ATOM     34  C   UNL A   1      42.160  28.408  28.272  1.00  0.00     0.074 A 
ATOM     35  C   UNL A   1      40.181  27.988  29.687  1.00  0.00     0.049 A 
ATOM     36  N   UNL A   1      43.226  28.788  28.896  1.00  0.00    -0.248 NA
ATOM     37  C   UNL A   1      42.136  28.785  26.850  1.00  0.00     0.031 C 
ATOM     38  C   UNL A   1      38.904  27.390  30.086  1.00  0.00     0.029 A 
ATOM     39  N   UNL A   1      40.210  29.149  30.409  1.00  0.00    -0.354 N 
ATOM     40  C   UNL A   1      43.906  29.632  28.018  1.00  0.00     0.074 A 
ATOM     41  C   UNL A   1      43.284  29.455  26.733  1.00  0.00     0.031 C 
ATOM     42  C   UNL A   1      38.197  28.285  30.814  1.00  0.00     0.029 A 
ATOM     43  C   UNL A   1      39.017  29.461  31.056  1.00  0.00     0.049 A 
ATOM     44  H   UNL A   1      41.011  29.719  30.467  1.00  0.00     0.167 HD
ATOM     45  C   UNL A   1      44.784  30.569  28.473  1.00  0.00     0.037 A 
ATOM     46  C   UNL A   1      38.718  30.612  31.714  1.00  0.00     0.037 A 
ATOM     47  C   UNL A   1      45.202  30.272  29.821  1.00  0.00     0.049 A 
ATOM     48  C   UNL A   1      40.007  31.247  32.084  1.00  0.00     0.074 A 
ATOM     49  C   UNL A   1      45.873  29.233  30.433  1.00  0.00     0.029 A 
ATOM     50  N   UNL A   1      44.612  30.990  30.831  1.00  0.00    -0.354 N 
ATOM     51  N   UNL A   1      40.842  30.758  32.957  1.00  0.00    -0.248 NA
ATOM     52  C   UNL A   1      40.558  32.251  31.188  1.00  0.00     0.031 C 
ATOM     53  C   UNL A   1      45.282  29.119  31.726  1.00  0.00     0.029 A 
ATOM     54  C   UNL A   1      44.322  30.124  31.852  1.00  0.00     0.049 A 
ATOM     55  H   UNL A   1      44.429  31.957  30.823  1.00  0.00     0.167 HD
ATOM     56  C   UNL A   1      42.097  31.057  32.451  1.00  0.00     0.074 A 
ATOM     57  C   UNL A   1      41.859  32.072  31.429  1.00  0.00     0.031 C 
ATOM     58  C   UNL A   1      43.169  30.256  32.716  1.00  0.00     0.037 A 
BRANCH  45  59
ATOM     59  C   UNL A   1      44.969  31.946  27.864  1.00  0.00     0.058 A 
ATOM     60  C   UNL A   1      46.206  32.272  27.263  1.00  0.00     0.135 A 
ATOM     61  C   UNL A   1      44.112  33.044  28.104  1.00  0.00     0.135 A 
ATOM     62  F   UNL A   1      47.103  31.314  26.977  1.00  0.00    -0.206 F 
ATOM     63  C   UNL A   1      46.600  33.589  27.017  1.00  0.00     0.059 A 
ATOM     64  C   UNL A   1      44.464  34.360  27.817  1.00  0.00     0.059 A 
ATOM     65  F   UNL A   1      42.928  32.915  28.711  1.00  0.00    -0.206 F 
ATOM     66  C   UNL A   1      45.727  34.628  27.317  1.00  0.00     0.060 A 
BRANCH  66  67
ATOM     67  S   UNL A   1      46.271  36.330  27.104  1.00  0.00     0.124 S 
ATOM     68  O   UNL A   1      46.854  36.284  25.769  1.00  0.00    -0.237 OA
ATOM     69  O   UNL A   1      45.016  37.064  27.229  1.00  0.00    -0.237 OA
ATOM     70  O   UNL A   1      47.215  36.521  28.202  1.00  0.00    -0.744 OA
ENDBRANCH  66  67
ENDBRANCH  45  59
BRANCH  46  71
ATOM     71  C   UNL A   1      37.429  31.358  31.791  1.00  0.00     0.058 A 
ATOM     72  C   UNL A   1      36.879  31.734  33.034  1.00  0.00     0.135 A 
ATOM     73  C   UNL A   1      36.877  31.989  30.660  1.00  0.00     0.135 A 
ATOM     74  F   UNL A   1      37.344  31.193  34.171  1.00  0.00    -0.206 F 
ATOM     75  C   UNL A   1      35.901  32.728  33.153  1.00  0.00     0.059 A 
ATOM     76  C   UNL A   1      35.892  32.975  30.753  1.00  0.00     0.059 A 
ATOM     77  F   UNL A   1      37.345  31.738  29.430  1.00  0.00    -0.206 F 
ATOM     78  C   UNL A   1      35.433  33.365  32.006  1.00  0.00     0.060 A 
BRANCH  78  79
ATOM     79  S   UNL A   1      34.324  34.786  32.167  1.00  0.00     0.124 S 
ATOM     80  O   UNL A   1      33.193  34.209  32.885  1.00  0.00    -0.237 OA
ATOM     81  O   UNL A   1      35.142  35.731  32.921  1.00  0.00    -0.237 OA
ATOM     82  O   UNL A   1      34.056  35.166  30.782  1.00  0.00    -0.744 OA
ENDBRANCH  78  79
ENDBRANCH  46  71
BRANCH  58  83
ATOM     83  C   UNL A   1      43.065  29.273  33.854  1.00  0.00     0.058 A 
ATOM     84  C   UNL A   1      43.278  29.588  35.208  1.00  0.00     0.135 A 
ATOM     85  C   UNL A   1      42.570  27.992  33.564  1.00  0.00     0.135 A 
ATOM     86  F   UNL A   1      43.663  30.818  35.581  1.00  0.00    -0.206 F 
ATOM     87  C   UNL A   1      43.030  28.662  36.224  1.00  0.00     0.059 A 
ATOM     88  C   UNL A   1      42.284  27.066  34.561  1.00  0.00     0.059 A 
ATOM     89  F   UNL A   1      42.298  27.648  32.295  1.00  0.00    -0.206 F 
ATOM     90  C   UNL A   1      42.522  27.406  35.890  1.00  0.00     0.060 A 
BRANCH  90  91
ATOM     91  S   UNL A   1      42.095  26.251  37.212  1.00  0.00     0.124 S 
ATOM     92  O   UNL A   1      43.114  26.536  38.215  1.00  0.00    -0.237 OA
ATOM     93  O   UNL A   1      40.735  26.652  37.554  1.00  0.00    -0.237 OA
ATOM     94  O   UNL A   1      42.203  24.940  36.569  1.00  0.00    -0.744 OA
ENDBRANCH  90  91
ENDBRANCH  58  83
ENDBRANCH  32  33
ENDBRANCH  24  27
ENDBRANCH  22  23
ENDBRANCH  21  22
ENDBRANCH   1  21
TORSDOF 18
ENDMDL
