MODEL 1
REMARK VINA RESULT:     -11.6      0.000      0.000
REMARK SMILES C=C(C(=O)NCCCCCCNC(=O)c1ccc(-c2c3nc(c(-c4c(F)cc(S(=O)(=O)[O-])cc4F)c4ccc([nH]4)c(-c4c(F)cc(S(=O)(=O)[O-])cc4F)c4nc(c(-c5c(F)cc(S(=O)(=O)[O-])cc5F)c5ccc2[nH]5)C=C4)C=C3)cc1)[C@@H]1CC[C@]2(C)CCCC(=C)[C@H]2[C@H]1O
REMARK SMILES IDX 9 1 8 2 7 3 6 4 5 5 3 6 4 7 2 9 1 10 81 11 82 12 92 13 83 14
REMARK SMILES IDX 91 15 84 16 89 17 85 18 86 19 88 20 90 21 87 22 93 23 10 25
REMARK SMILES IDX 11 26 12 27 13 28 14 30 15 31 16 32 80 33 17 34 79 35 18 36
REMARK SMILES IDX 19 37 20 38 73 39 21 40 78 41 72 42 74 43 22 44 77 45 71 46
REMARK SMILES IDX 70 47 23 49 57 50 36 51 56 52 37 53 40 54 55 55 75 56 38 57
REMARK SMILES IDX 39 58 54 60 76 61 41 62 24 63 25 64 34 65 26 66 27 67 33 68
REMARK SMILES IDX 35 69 28 70 29 71 30 72 31 73 32 74 58 75 59 76 68 77 60 78
REMARK SMILES IDX 61 79 67 80 69 81 62 82 63 83 64 84 65 85 66 86 42 87 43 88
REMARK SMILES IDX 52 89 44 90 45 91 51 92 53 93 46 94 47 95 48 96 49 97 50 98
REMARK H PARENT 5 8 93 24 12 29 74 48 40 59
REMARK Flexibility Score: inf
ROOT
ATOM      1  C   UNL A   1      32.311  26.924  25.674  1.00  0.00     0.002 C 
ENDROOT
BRANCH   1   2
ATOM      2  C   UNL A   1      33.677  26.882  24.982  1.00  0.00     0.002 C 
BRANCH   2   3
ATOM      3  C   UNL A   1      33.859  27.794  23.766  1.00  0.00     0.021 C 
BRANCH   3   4
ATOM      4  C   UNL A   1      32.682  27.893  22.799  1.00  0.00     0.116 C 
BRANCH   4   5
ATOM      5  N   UNL A   1      32.900  27.177  21.556  1.00  0.00    -0.352 N 
ATOM      6  C   UNL A   1      32.774  25.869  21.210  1.00  0.00     0.246 C 
ATOM      7  O   UNL A   1      32.908  25.594  20.019  1.00  0.00    -0.270 OA
ATOM      8  H   UNL A   1      33.197  27.754  20.816  1.00  0.00     0.163 HD
BRANCH   6   9
ATOM      9  C   UNL A   1      32.513  24.792  22.213  1.00  0.00     0.015 C 
ATOM     10  C   UNL A   1      31.313  24.730  22.827  1.00  0.00     0.019 C 
BRANCH   9  11
ATOM     11  C   UNL A   1      33.486  23.618  22.392  1.00  0.00     0.053 C 
ATOM     12  C   UNL A   1      32.760  22.256  22.439  1.00  0.00     0.012 C 
ATOM     13  C   UNL A   1      34.620  23.703  23.467  1.00  0.00     0.129 C 
ATOM     14  C   UNL A   1      32.364  21.801  23.841  1.00  0.00     0.008 C 
ATOM     15  C   UNL A   1      34.161  23.222  24.882  1.00  0.00     0.050 C 
ATOM     16  C   UNL A   1      33.541  21.785  24.847  1.00  0.00    -0.024 C 
ATOM     17  C   UNL A   1      35.161  23.345  26.038  1.00  0.00    -0.071 C 
ATOM     18  C   UNL A   1      34.559  20.683  24.456  1.00  0.00     0.012 C 
ATOM     19  C   UNL A   1      32.967  21.423  26.248  1.00  0.00     0.008 C 
ATOM     20  C   UNL A   1      34.567  23.011  27.388  1.00  0.00     0.031 C 
ATOM     21  C   UNL A   1      36.447  23.720  25.936  1.00  0.00     0.008 C 
ATOM     22  C   UNL A   1      33.971  21.607  27.387  1.00  0.00     0.005 C 
BRANCH  13  23
ATOM     23  O   UNL A   1      35.740  22.904  23.030  1.00  0.00    -0.392 OA
ATOM     24  H   UNL A   1      36.140  23.310  22.245  1.00  0.00     0.211 HD
ENDBRANCH  13  23
ENDBRANCH   9  11
ENDBRANCH   6   9
ENDBRANCH   4   5
ENDBRANCH   3   4
ENDBRANCH   2   3
ENDBRANCH   1   2
BRANCH   1  25
ATOM     25  C   UNL A   1      32.198  27.853  26.881  1.00  0.00     0.021 C 
BRANCH  25  26
ATOM     26  C   UNL A   1      33.514  28.439  27.375  1.00  0.00     0.116 C 
BRANCH  26  27
ATOM     27  N   UNL A   1      33.458  29.883  27.527  1.00  0.00    -0.352 N 
ATOM     28  C   UNL A   1      34.413  30.726  28.042  1.00  0.00     0.251 C 
ATOM     29  H   UNL A   1      32.627  30.313  27.222  1.00  0.00     0.163 HD
ATOM     30  O   UNL A   1      34.142  31.903  28.270  1.00  0.00    -0.269 OA
BRANCH  28  31
ATOM     31  C   UNL A   1      35.762  30.200  28.340  1.00  0.00     0.039 A 
ATOM     32  C   UNL A   1      36.735  30.207  27.339  1.00  0.00     0.014 A 
ATOM     33  C   UNL A   1      36.069  29.725  29.618  1.00  0.00     0.014 A 
ATOM     34  C   UNL A   1      38.036  29.792  27.637  1.00  0.00     0.010 A 
ATOM     35  C   UNL A   1      37.382  29.384  29.932  1.00  0.00     0.010 A 
ATOM     36  C   UNL A   1      38.378  29.408  28.944  1.00  0.00    -0.014 A 
BRANCH  36  37
ATOM     37  C   UNL A   1      39.764  29.010  29.304  1.00  0.00     0.031 A 
ATOM     38  C   UNL A   1      40.673  30.002  29.979  1.00  0.00     0.074 A 
ATOM     39  C   UNL A   1      40.228  27.792  28.953  1.00  0.00     0.049 A 
ATOM     40  N   UNL A   1      41.944  29.897  30.265  1.00  0.00    -0.248 NA
ATOM     41  C   UNL A   1      40.080  31.298  30.359  1.00  0.00     0.031 C 
ATOM     42  C   UNL A   1      39.456  26.757  28.261  1.00  0.00     0.029 A 
ATOM     43  N   UNL A   1      41.469  27.225  29.110  1.00  0.00    -0.354 N 
ATOM     44  C   UNL A   1      42.309  31.115  30.829  1.00  0.00     0.074 A 
ATOM     45  C   UNL A   1      41.136  31.960  30.811  1.00  0.00     0.031 C 
ATOM     46  C   UNL A   1      40.235  25.680  28.067  1.00  0.00     0.029 A 
ATOM     47  C   UNL A   1      41.574  25.961  28.575  1.00  0.00     0.049 A 
ATOM     48  H   UNL A   1      42.215  27.680  29.564  1.00  0.00     0.167 HD
ATOM     49  C   UNL A   1      43.509  31.485  31.331  1.00  0.00     0.037 A 
ATOM     50  C   UNL A   1      42.633  25.133  28.486  1.00  0.00     0.037 A 
ATOM     51  C   UNL A   1      44.659  30.621  31.389  1.00  0.00     0.049 A 
ATOM     52  C   UNL A   1      43.959  25.577  29.053  1.00  0.00     0.074 A 
ATOM     53  C   UNL A   1      45.896  30.878  31.954  1.00  0.00     0.029 A 
ATOM     54  N   UNL A   1      44.714  29.338  30.867  1.00  0.00    -0.354 N 
ATOM     55  N   UNL A   1      44.264  26.705  29.649  1.00  0.00    -0.248 NA
ATOM     56  C   UNL A   1      45.083  24.636  28.939  1.00  0.00     0.031 C 
ATOM     57  C   UNL A   1      46.718  29.773  31.722  1.00  0.00     0.029 A 
ATOM     58  C   UNL A   1      45.973  28.802  31.072  1.00  0.00     0.049 A 
ATOM     59  H   UNL A   1      43.969  28.877  30.419  1.00  0.00     0.167 HD
ATOM     60  C   UNL A   1      45.600  26.590  30.020  1.00  0.00     0.074 A 
ATOM     61  C   UNL A   1      46.043  25.282  29.585  1.00  0.00     0.031 C 
ATOM     62  C   UNL A   1      46.389  27.484  30.663  1.00  0.00     0.037 A 
BRANCH  49  63
ATOM     63  C   UNL A   1      43.659  32.882  31.868  1.00  0.00     0.058 A 
ATOM     64  C   UNL A   1      43.975  33.965  31.032  1.00  0.00     0.135 A 
ATOM     65  C   UNL A   1      43.385  33.154  33.218  1.00  0.00     0.135 A 
ATOM     66  F   UNL A   1      44.264  33.760  29.738  1.00  0.00    -0.206 F 
ATOM     67  C   UNL A   1      44.017  35.268  31.519  1.00  0.00     0.059 A 
ATOM     68  C   UNL A   1      43.394  34.451  33.720  1.00  0.00     0.059 A 
ATOM     69  F   UNL A   1      43.083  32.153  34.061  1.00  0.00    -0.206 F 
ATOM     70  C   UNL A   1      43.714  35.503  32.861  1.00  0.00     0.060 A 
BRANCH  70  71
ATOM     71  S   UNL A   1      43.714  37.206  33.459  1.00  0.00     0.124 S 
ATOM     72  O   UNL A   1      42.499  37.232  34.266  1.00  0.00    -0.237 OA
ATOM     73  O   UNL A   1      44.969  37.274  34.200  1.00  0.00    -0.237 OA
ATOM     74  O   UNL A   1      43.670  37.997  32.233  1.00  0.00    -0.744 OA
ENDBRANCH  70  71
ENDBRANCH  49  63
BRANCH  50  75
ATOM     75  C   UNL A   1      42.504  23.799  27.835  1.00  0.00     0.058 A 
ATOM     76  C   UNL A   1      42.332  22.634  28.598  1.00  0.00     0.135 A 
ATOM     77  C   UNL A   1      42.596  23.655  26.442  1.00  0.00     0.135 A 
ATOM     78  F   UNL A   1      42.241  22.716  29.934  1.00  0.00    -0.206 F 
ATOM     79  C   UNL A   1      42.303  21.373  28.011  1.00  0.00     0.059 A 
ATOM     80  C   UNL A   1      42.537  22.407  25.828  1.00  0.00     0.059 A 
ATOM     81  F   UNL A   1      42.740  24.737  25.660  1.00  0.00    -0.206 F 
ATOM     82  C   UNL A   1      42.414  21.270  26.624  1.00  0.00     0.060 A 
BRANCH  82  83
ATOM     83  S   UNL A   1      42.387  19.629  25.870  1.00  0.00     0.124 S 
ATOM     84  O   UNL A   1      43.406  19.765  24.836  1.00  0.00    -0.237 OA
ATOM     85  O   UNL A   1      42.730  18.768  26.998  1.00  0.00    -0.237 OA
ATOM     86  O   UNL A   1      41.014  19.504  25.391  1.00  0.00    -0.744 OA
ENDBRANCH  82  83
ENDBRANCH  50  75
BRANCH  62  87
ATOM     87  C   UNL A   1      47.793  27.066  31.005  1.00  0.00     0.058 A 
ATOM     88  C   UNL A   1      48.093  26.357  32.177  1.00  0.00     0.135 A 
ATOM     89  C   UNL A   1      48.839  27.312  30.100  1.00  0.00     0.135 A 
ATOM     90  F   UNL A   1      47.132  26.102  33.078  1.00  0.00    -0.206 F 
ATOM     91  C   UNL A   1      49.384  25.919  32.448  1.00  0.00     0.059 A 
ATOM     92  C   UNL A   1      50.132  26.855  30.335  1.00  0.00     0.059 A 
ATOM     93  F   UNL A   1      48.603  27.978  28.958  1.00  0.00    -0.206 F 
ATOM     94  C   UNL A   1      50.396  26.166  31.517  1.00  0.00     0.060 A 
BRANCH  94  95
ATOM     95  S   UNL A   1      52.055  25.540  31.855  1.00  0.00     0.124 S 
ATOM     96  O   UNL A   1      51.798  24.118  32.051  1.00  0.00    -0.237 OA
ATOM     97  O   UNL A   1      52.775  25.892  30.635  1.00  0.00    -0.237 OA
ATOM     98  O   UNL A   1      52.460  26.275  33.049  1.00  0.00    -0.744 OA
ENDBRANCH  94  95
ENDBRANCH  62  87
ENDBRANCH  36  37
ENDBRANCH  28  31
ENDBRANCH  26  27
ENDBRANCH  25  26
ENDBRANCH   1  25
TORSDOF 18
ENDMDL
MODEL 2
REMARK VINA RESULT:     -11.5      1.013      2.063
REMARK SMILES C=C(C(=O)NCCCCCCNC(=O)c1ccc(-c2c3nc(c(-c4c(F)cc(S(=O)(=O)[O-])cc4F)c4ccc([nH]4)c(-c4c(F)cc(S(=O)(=O)[O-])cc4F)c4nc(c(-c5c(F)cc(S(=O)(=O)[O-])cc5F)c5ccc2[nH]5)C=C4)C=C3)cc1)[C@@H]1CC[C@]2(C)CCCC(=C)[C@H]2[C@H]1O
REMARK SMILES IDX 9 1 8 2 7 3 6 4 5 5 3 6 4 7 2 9 1 10 81 11 82 12 92 13 83 14
REMARK SMILES IDX 91 15 84 16 89 17 85 18 86 19 88 20 90 21 87 22 93 23 10 25
REMARK SMILES IDX 11 26 12 27 13 28 14 30 15 31 16 32 80 33 17 34 79 35 18 36
REMARK SMILES IDX 19 37 20 38 73 39 21 40 78 41 72 42 74 43 22 44 77 45 71 46
REMARK SMILES IDX 70 47 23 49 57 50 36 51 56 52 37 53 40 54 55 55 75 56 38 57
REMARK SMILES IDX 39 58 54 60 76 61 41 62 24 63 25 64 34 65 26 66 27 67 33 68
REMARK SMILES IDX 35 69 28 70 29 71 30 72 31 73 32 74 58 75 59 76 68 77 60 78
REMARK SMILES IDX 61 79 67 80 69 81 62 82 63 83 64 84 65 85 66 86 42 87 43 88
REMARK SMILES IDX 52 89 44 90 45 91 51 92 53 93 46 94 47 95 48 96 49 97 50 98
REMARK H PARENT 5 8 93 24 12 29 74 48 40 59
REMARK Flexibility Score: inf
ROOT
ATOM      1  C   UNL A   1      31.888  27.532  25.371  1.00  0.00     0.002 C 
ENDROOT
BRANCH   1   2
ATOM      2  C   UNL A   1      31.853  26.725  24.070  1.00  0.00     0.002 C 
BRANCH   2   3
ATOM      3  C   UNL A   1      30.554  25.974  23.762  1.00  0.00     0.021 C 
BRANCH   3   4
ATOM      4  C   UNL A   1      30.693  24.597  23.120  1.00  0.00     0.116 C 
BRANCH   4   5
ATOM      5  N   UNL A   1      31.996  24.370  22.525  1.00  0.00    -0.352 N 
ATOM      6  C   UNL A   1      32.738  23.249  22.326  1.00  0.00     0.246 C 
ATOM      7  O   UNL A   1      33.766  23.372  21.662  1.00  0.00    -0.270 OA
ATOM      8  H   UNL A   1      32.430  25.192  22.201  1.00  0.00     0.163 HD
BRANCH   6   9
ATOM      9  C   UNL A   1      32.359  21.921  22.899  1.00  0.00     0.015 C 
ATOM     10  C   UNL A   1      31.812  20.982  22.100  1.00  0.00     0.019 C 
BRANCH   9  11
ATOM     11  C   UNL A   1      32.790  21.512  24.315  1.00  0.00     0.053 C 
ATOM     12  C   UNL A   1      32.480  22.604  25.362  1.00  0.00     0.012 C 
ATOM     13  C   UNL A   1      34.201  20.877  24.548  1.00  0.00     0.129 C 
ATOM     14  C   UNL A   1      33.613  23.600  25.588  1.00  0.00     0.008 C 
ATOM     15  C   UNL A   1      35.322  21.941  24.776  1.00  0.00     0.050 C 
ATOM     16  C   UNL A   1      34.968  22.935  25.933  1.00  0.00    -0.024 C 
ATOM     17  C   UNL A   1      36.764  21.440  24.925  1.00  0.00    -0.071 C 
ATOM     18  C   UNL A   1      34.888  22.260  27.325  1.00  0.00     0.012 C 
ATOM     19  C   UNL A   1      36.045  24.058  26.012  1.00  0.00     0.008 C 
ATOM     20  C   UNL A   1      37.788  22.552  24.976  1.00  0.00     0.031 C 
ATOM     21  C   UNL A   1      37.153  20.156  24.996  1.00  0.00     0.008 C 
ATOM     22  C   UNL A   1      37.476  23.527  26.106  1.00  0.00     0.005 C 
BRANCH  13  23
ATOM     23  O   UNL A   1      34.136  19.996  25.690  1.00  0.00    -0.392 OA
ATOM     24  H   UNL A   1      35.014  19.620  25.858  1.00  0.00     0.211 HD
ENDBRANCH  13  23
ENDBRANCH   9  11
ENDBRANCH   6   9
ENDBRANCH   4   5
ENDBRANCH   3   4
ENDBRANCH   2   3
ENDBRANCH   1   2
BRANCH   1  25
ATOM     25  C   UNL A   1      32.915  27.085  26.411  1.00  0.00     0.021 C 
BRANCH  25  26
ATOM     26  C   UNL A   1      34.095  28.026  26.604  1.00  0.00     0.116 C 
BRANCH  26  27
ATOM     27  N   UNL A   1      33.682  29.362  26.999  1.00  0.00    -0.352 N 
ATOM     28  C   UNL A   1      34.368  30.280  27.759  1.00  0.00     0.251 C 
ATOM     29  H   UNL A   1      32.796  29.647  26.681  1.00  0.00     0.163 HD
ATOM     30  O   UNL A   1      33.805  31.297  28.158  1.00  0.00    -0.269 OA
BRANCH  28  31
ATOM     31  C   UNL A   1      35.780  30.020  28.112  1.00  0.00     0.039 A 
ATOM     32  C   UNL A   1      36.098  29.623  29.412  1.00  0.00     0.014 A 
ATOM     33  C   UNL A   1      36.785  30.147  27.148  1.00  0.00     0.014 A 
ATOM     34  C   UNL A   1      37.418  29.294  29.731  1.00  0.00     0.010 A 
ATOM     35  C   UNL A   1      38.083  29.745  27.447  1.00  0.00     0.010 A 
ATOM     36  C   UNL A   1      38.416  29.320  28.742  1.00  0.00    -0.014 A 
BRANCH  36  37
ATOM     37  C   UNL A   1      39.818  28.928  29.038  1.00  0.00     0.031 A 
ATOM     38  C   UNL A   1      40.772  29.944  29.608  1.00  0.00     0.074 A 
ATOM     39  C   UNL A   1      40.253  27.690  28.721  1.00  0.00     0.049 A 
ATOM     40  N   UNL A   1      42.058  29.841  29.822  1.00  0.00    -0.248 NA
ATOM     41  C   UNL A   1      40.211  31.262  29.957  1.00  0.00     0.031 C 
ATOM     42  C   UNL A   1      39.435  26.629  28.129  1.00  0.00     0.029 A 
ATOM     43  N   UNL A   1      41.498  27.120  28.832  1.00  0.00    -0.354 N 
ATOM     44  C   UNL A   1      42.463  31.082  30.302  1.00  0.00     0.074 A 
ATOM     45  C   UNL A   1      41.297  31.936  30.312  1.00  0.00     0.031 C 
ATOM     46  C   UNL A   1      40.194  25.537  27.942  1.00  0.00     0.029 A 
ATOM     47  C   UNL A   1      41.563  25.831  28.355  1.00  0.00     0.049 A 
ATOM     48  H   UNL A   1      42.272  27.591  29.217  1.00  0.00     0.167 HD
ATOM     49  C   UNL A   1      43.693  31.467  30.712  1.00  0.00     0.037 A 
ATOM     50  C   UNL A   1      42.610  24.990  28.244  1.00  0.00     0.037 A 
ATOM     51  C   UNL A   1      44.839  30.596  30.745  1.00  0.00     0.049 A 
ATOM     52  C   UNL A   1      43.970  25.449  28.708  1.00  0.00     0.074 A 
ATOM     53  C   UNL A   1      46.109  30.869  31.221  1.00  0.00     0.029 A 
ATOM     54  N   UNL A   1      44.856  29.289  30.285  1.00  0.00    -0.354 N 
ATOM     55  N   UNL A   1      44.318  26.602  29.228  1.00  0.00    -0.248 NA
ATOM     56  C   UNL A   1      45.080  24.494  28.574  1.00  0.00     0.031 C 
ATOM     57  C   UNL A   1      46.910  29.747  30.995  1.00  0.00     0.029 A 
ATOM     58  C   UNL A   1      46.122  28.752  30.440  1.00  0.00     0.049 A 
ATOM     59  H   UNL A   1      44.082  28.812  29.905  1.00  0.00     0.167 HD
ATOM     60  C   UNL A   1      45.673  26.494  29.524  1.00  0.00     0.074 A 
ATOM     61  C   UNL A   1      46.081  25.163  29.128  1.00  0.00     0.031 C 
ATOM     62  C   UNL A   1      46.504  27.412  30.073  1.00  0.00     0.037 A 
BRANCH  49  63
ATOM     63  C   UNL A   1      43.883  32.887  31.169  1.00  0.00     0.058 A 
ATOM     64  C   UNL A   1      44.173  33.921  30.265  1.00  0.00     0.135 A 
ATOM     65  C   UNL A   1      43.675  33.231  32.515  1.00  0.00     0.135 A 
ATOM     66  F   UNL A   1      44.400  33.647  28.971  1.00  0.00    -0.206 F 
ATOM     67  C   UNL A   1      44.252  35.246  30.681  1.00  0.00     0.059 A 
ATOM     68  C   UNL A   1      43.722  34.552  32.947  1.00  0.00     0.059 A 
ATOM     69  F   UNL A   1      43.401  32.278  33.421  1.00  0.00    -0.206 F 
ATOM     70  C   UNL A   1      44.014  35.554  32.022  1.00  0.00     0.060 A 
BRANCH  70  71
ATOM     71  S   UNL A   1      44.061  37.285  32.531  1.00  0.00     0.124 S 
ATOM     72  O   UNL A   1      45.418  37.398  33.053  1.00  0.00    -0.237 OA
ATOM     73  O   UNL A   1      43.805  37.983  31.275  1.00  0.00    -0.237 OA
ATOM     74  O   UNL A   1      42.996  37.377  33.525  1.00  0.00    -0.744 OA
ENDBRANCH  70  71
ENDBRANCH  49  63
BRANCH  50  75
ATOM     75  C   UNL A   1      42.434  23.627  27.669  1.00  0.00     0.058 A 
ATOM     76  C   UNL A   1      42.294  22.503  28.499  1.00  0.00     0.135 A 
ATOM     77  C   UNL A   1      42.448  23.413  26.282  1.00  0.00     0.135 A 
ATOM     78  F   UNL A   1      42.278  22.653  29.831  1.00  0.00    -0.206 F 
ATOM     79  C   UNL A   1      42.223  21.215  27.978  1.00  0.00     0.059 A 
ATOM     80  C   UNL A   1      42.345  22.137  25.735  1.00  0.00     0.059 A 
ATOM     81  F   UNL A   1      42.558  24.453  25.439  1.00  0.00    -0.206 F 
ATOM     82  C   UNL A   1      42.256  21.042  26.594  1.00  0.00     0.060 A 
BRANCH  82  83
ATOM     83  S   UNL A   1      42.174  19.365  25.926  1.00  0.00     0.124 S 
ATOM     84  O   UNL A   1      42.694  18.582  27.041  1.00  0.00    -0.237 OA
ATOM     85  O   UNL A   1      40.749  19.215  25.648  1.00  0.00    -0.237 OA
ATOM     86  O   UNL A   1      43.031  19.433  24.747  1.00  0.00    -0.744 OA
ENDBRANCH  82  83
ENDBRANCH  50  75
BRANCH  62  87
ATOM     87  C   UNL A   1      47.923  26.999  30.351  1.00  0.00     0.058 A 
ATOM     88  C   UNL A   1      48.961  27.249  29.441  1.00  0.00     0.135 A 
ATOM     89  C   UNL A   1      48.258  26.417  31.585  1.00  0.00     0.135 A 
ATOM     90  F   UNL A   1      48.695  27.797  28.245  1.00  0.00    -0.206 F 
ATOM     91  C   UNL A   1      50.280  26.923  29.738  1.00  0.00     0.059 A 
ATOM     92  C   UNL A   1      49.574  26.112  31.916  1.00  0.00     0.059 A 
ATOM     93  F   UNL A   1      47.303  26.166  32.495  1.00  0.00    -0.206 F 
ATOM     94  C   UNL A   1      50.577  26.361  30.982  1.00  0.00     0.060 A 
BRANCH  94  95
ATOM     95  S   UNL A   1      52.300  25.998  31.377  1.00  0.00     0.124 S 
ATOM     96  O   UNL A   1      52.909  25.981  30.052  1.00  0.00    -0.237 OA
ATOM     97  O   UNL A   1      52.669  27.124  32.230  1.00  0.00    -0.237 OA
ATOM     98  O   UNL A   1      52.230  24.705  32.052  1.00  0.00    -0.744 OA
ENDBRANCH  94  95
ENDBRANCH  62  87
ENDBRANCH  36  37
ENDBRANCH  28  31
ENDBRANCH  26  27
ENDBRANCH  25  26
ENDBRANCH   1  25
TORSDOF 18
ENDMDL
MODEL 3
REMARK VINA RESULT:     -11.3      4.422     10.115
REMARK SMILES C=C(C(=O)NCCCCCCNC(=O)c1ccc(-c2c3nc(c(-c4c(F)cc(S(=O)(=O)[O-])cc4F)c4ccc([nH]4)c(-c4c(F)cc(S(=O)(=O)[O-])cc4F)c4nc(c(-c5c(F)cc(S(=O)(=O)[O-])cc5F)c5ccc2[nH]5)C=C4)C=C3)cc1)[C@@H]1CC[C@]2(C)CCCC(=C)[C@H]2[C@H]1O
REMARK SMILES IDX 9 1 8 2 7 3 6 4 5 5 3 6 4 7 2 9 1 10 81 11 82 12 92 13 83 14
REMARK SMILES IDX 91 15 84 16 89 17 85 18 86 19 88 20 90 21 87 22 93 23 10 25
REMARK SMILES IDX 11 26 12 27 13 28 14 30 15 31 16 32 80 33 17 34 79 35 18 36
REMARK SMILES IDX 19 37 20 38 73 39 21 40 78 41 72 42 74 43 22 44 77 45 71 46
REMARK SMILES IDX 70 47 23 49 57 50 36 51 56 52 37 53 40 54 55 55 75 56 38 57
REMARK SMILES IDX 39 58 54 60 76 61 41 62 24 63 25 64 34 65 26 66 27 67 33 68
REMARK SMILES IDX 35 69 28 70 29 71 30 72 31 73 32 74 58 75 59 76 68 77 60 78
REMARK SMILES IDX 61 79 67 80 69 81 62 82 63 83 64 84 65 85 66 86 42 87 43 88
REMARK SMILES IDX 52 89 44 90 45 91 51 92 53 93 46 94 47 95 48 96 49 97 50 98
REMARK H PARENT 5 8 93 24 12 29 74 48 40 59
REMARK Flexibility Score: inf
ROOT
ATOM      1  C   UNL A   1      38.287  24.014  26.001  1.00  0.00     0.002 C 
ENDROOT
BRANCH   1   2
ATOM      2  C   UNL A   1      36.787  23.840  25.745  1.00  0.00     0.002 C 
BRANCH   2   3
ATOM      3  C   UNL A   1      36.388  23.198  24.413  1.00  0.00     0.021 C 
BRANCH   3   4
ATOM      4  C   UNL A   1      35.843  21.774  24.472  1.00  0.00     0.116 C 
BRANCH   4   5
ATOM      5  N   UNL A   1      35.121  21.487  25.697  1.00  0.00    -0.352 N 
ATOM      6  C   UNL A   1      33.911  20.923  25.944  1.00  0.00     0.246 C 
ATOM      7  O   UNL A   1      33.633  20.693  27.120  1.00  0.00    -0.270 OA
ATOM      8  H   UNL A   1      35.605  21.755  26.512  1.00  0.00     0.163 HD
BRANCH   6   9
ATOM      9  C   UNL A   1      32.932  20.608  24.859  1.00  0.00     0.015 C 
ATOM     10  C   UNL A   1      32.777  19.332  24.450  1.00  0.00     0.019 C 
BRANCH   9  11
ATOM     11  C   UNL A   1      31.932  21.661  24.359  1.00  0.00     0.053 C 
ATOM     12  C   UNL A   1      32.081  21.942  22.848  1.00  0.00     0.012 C 
ATOM     13  C   UNL A   1      31.718  22.980  25.172  1.00  0.00     0.129 C 
ATOM     14  C   UNL A   1      33.043  23.077  22.511  1.00  0.00     0.008 C 
ATOM     15  C   UNL A   1      32.728  24.109  24.784  1.00  0.00     0.050 C 
ATOM     16  C   UNL A   1      32.726  24.403  23.247  1.00  0.00    -0.024 C 
ATOM     17  C   UNL A   1      32.675  25.420  25.579  1.00  0.00    -0.071 C 
ATOM     18  C   UNL A   1      31.387  24.989  22.731  1.00  0.00     0.012 C 
ATOM     19  C   UNL A   1      33.853  25.421  22.902  1.00  0.00     0.008 C 
ATOM     20  C   UNL A   1      33.794  26.378  25.239  1.00  0.00     0.031 C 
ATOM     21  C   UNL A   1      31.761  25.746  26.508  1.00  0.00     0.008 C 
ATOM     22  C   UNL A   1      33.805  26.695  23.748  1.00  0.00     0.005 C 
BRANCH  13  23
ATOM     23  O   UNL A   1      30.370  23.450  24.958  1.00  0.00    -0.392 OA
ATOM     24  H   UNL A   1      30.248  23.667  24.021  1.00  0.00     0.211 HD
ENDBRANCH  13  23
ENDBRANCH   9  11
ENDBRANCH   6   9
ENDBRANCH   4   5
ENDBRANCH   3   4
ENDBRANCH   2   3
ENDBRANCH   1   2
BRANCH   1  25
ATOM     25  C   UNL A   1      39.023  22.786  26.535  1.00  0.00     0.021 C 
BRANCH  25  26
ATOM     26  C   UNL A   1      40.361  23.071  27.203  1.00  0.00     0.116 C 
BRANCH  26  27
ATOM     27  N   UNL A   1      41.371  23.518  26.258  1.00  0.00    -0.352 N 
ATOM     28  C   UNL A   1      41.932  24.766  26.133  1.00  0.00     0.251 C 
ATOM     29  H   UNL A   1      41.695  22.838  25.626  1.00  0.00     0.163 HD
ATOM     30  O   UNL A   1      42.641  25.032  25.164  1.00  0.00    -0.269 OA
BRANCH  28  31
ATOM     31  C   UNL A   1      41.655  25.793  27.159  1.00  0.00     0.039 A 
ATOM     32  C   UNL A   1      40.698  25.538  28.143  1.00  0.00     0.014 A 
ATOM     33  C   UNL A   1      42.364  26.999  27.162  1.00  0.00     0.014 A 
ATOM     34  C   UNL A   1      40.493  26.467  29.166  1.00  0.00     0.010 A 
ATOM     35  C   UNL A   1      42.212  27.887  28.223  1.00  0.00     0.010 A 
ATOM     36  C   UNL A   1      41.271  27.634  29.233  1.00  0.00    -0.014 A 
BRANCH  36  37
ATOM     37  C   UNL A   1      41.112  28.617  30.336  1.00  0.00     0.031 A 
ATOM     38  C   UNL A   1      41.977  28.506  31.563  1.00  0.00     0.074 A 
ATOM     39  C   UNL A   1      40.141  29.552  30.271  1.00  0.00     0.049 A 
ATOM     40  N   UNL A   1      41.915  29.182  32.681  1.00  0.00    -0.248 NA
ATOM     41  C   UNL A   1      43.035  27.479  31.543  1.00  0.00     0.031 C 
ATOM     42  C   UNL A   1      39.215  29.737  29.151  1.00  0.00     0.029 A 
ATOM     43  N   UNL A   1      39.758  30.513  31.174  1.00  0.00    -0.354 N 
ATOM     44  C   UNL A   1      42.901  28.646  33.503  1.00  0.00     0.074 A 
ATOM     45  C   UNL A   1      43.522  27.564  32.773  1.00  0.00     0.031 C 
ATOM     46  C   UNL A   1      38.381  30.753  29.429  1.00  0.00     0.029 A 
ATOM     47  C   UNL A   1      38.680  31.264  30.763  1.00  0.00     0.049 A 
ATOM     48  H   UNL A   1      40.212  30.652  32.037  1.00  0.00     0.167 HD
ATOM     49  C   UNL A   1      43.265  29.035  34.747  1.00  0.00     0.037 A 
ATOM     50  C   UNL A   1      37.998  32.238  31.398  1.00  0.00     0.037 A 
ATOM     51  C   UNL A   1      42.674  30.145  35.447  1.00  0.00     0.049 A 
ATOM     52  C   UNL A   1      38.427  32.647  32.785  1.00  0.00     0.074 A 
ATOM     53  C   UNL A   1      43.030  30.668  36.678  1.00  0.00     0.029 A 
ATOM     54  N   UNL A   1      41.609  30.900  34.984  1.00  0.00    -0.354 N 
ATOM     55  N   UNL A   1      39.409  32.178  33.516  1.00  0.00    -0.248 NA
ATOM     56  C   UNL A   1      37.657  33.719  33.433  1.00  0.00     0.031 C 
ATOM     57  C   UNL A   1      42.143  31.702  36.985  1.00  0.00     0.029 A 
ATOM     58  C   UNL A   1      41.277  31.867  35.916  1.00  0.00     0.049 A 
ATOM     59  H   UNL A   1      41.156  30.770  34.119  1.00  0.00     0.167 HD
ATOM     60  C   UNL A   1      39.404  32.927  34.688  1.00  0.00     0.074 A 
ATOM     61  C   UNL A   1      38.323  33.882  34.568  1.00  0.00     0.031 C 
ATOM     62  C   UNL A   1      40.219  32.834  35.766  1.00  0.00     0.037 A 
BRANCH  49  63
ATOM     63  C   UNL A   1      44.356  28.270  35.445  1.00  0.00     0.058 A 
ATOM     64  C   UNL A   1      44.076  27.161  36.258  1.00  0.00     0.135 A 
ATOM     65  C   UNL A   1      45.703  28.593  35.216  1.00  0.00     0.135 A 
ATOM     66  F   UNL A   1      42.806  26.819  36.525  1.00  0.00    -0.206 F 
ATOM     67  C   UNL A   1      45.095  26.400  36.822  1.00  0.00     0.059 A 
ATOM     68  C   UNL A   1      46.738  27.830  35.747  1.00  0.00     0.059 A 
ATOM     69  F   UNL A   1      46.025  29.649  34.451  1.00  0.00    -0.206 F 
ATOM     70  C   UNL A   1      46.423  26.736  36.552  1.00  0.00     0.060 A 
BRANCH  70  71
ATOM     71  S   UNL A   1      47.730  25.700  37.243  1.00  0.00     0.124 S 
ATOM     72  O   UNL A   1      48.730  26.699  37.608  1.00  0.00    -0.237 OA
ATOM     73  O   UNL A   1      47.051  25.047  38.358  1.00  0.00    -0.237 OA
ATOM     74  O   UNL A   1      48.094  24.825  36.134  1.00  0.00    -0.744 OA
ENDBRANCH  70  71
ENDBRANCH  49  63
BRANCH  50  75
ATOM     75  C   UNL A   1      36.835  32.902  30.744  1.00  0.00     0.058 A 
ATOM     76  C   UNL A   1      37.021  33.909  29.785  1.00  0.00     0.135 A 
ATOM     77  C   UNL A   1      35.516  32.578  31.099  1.00  0.00     0.135 A 
ATOM     78  F   UNL A   1      38.262  34.259  29.413  1.00  0.00    -0.206 F 
ATOM     79  C   UNL A   1      35.947  34.603  29.236  1.00  0.00     0.059 A 
ATOM     80  C   UNL A   1      34.424  33.234  30.539  1.00  0.00     0.059 A 
ATOM     81  F   UNL A   1      35.278  31.608  31.996  1.00  0.00    -0.206 F 
ATOM     82  C   UNL A   1      34.651  34.261  29.625  1.00  0.00     0.060 A 
BRANCH  82  83
ATOM     83  S   UNL A   1      33.263  35.174  28.915  1.00  0.00     0.124 S 
ATOM     84  O   UNL A   1      33.949  36.265  28.233  1.00  0.00    -0.237 OA
ATOM     85  O   UNL A   1      32.644  34.170  28.056  1.00  0.00    -0.237 OA
ATOM     86  O   UNL A   1      32.481  35.555  30.087  1.00  0.00    -0.744 OA
ENDBRANCH  82  83
ENDBRANCH  50  75
BRANCH  62  87
ATOM     87  C   UNL A   1      40.031  33.829  36.878  1.00  0.00     0.058 A 
ATOM     88  C   UNL A   1      40.653  35.087  36.864  1.00  0.00     0.135 A 
ATOM     89  C   UNL A   1      39.148  33.545  37.934  1.00  0.00     0.135 A 
ATOM     90  F   UNL A   1      41.511  35.406  35.882  1.00  0.00    -0.206 F 
ATOM     91  C   UNL A   1      40.418  36.023  37.864  1.00  0.00     0.059 A 
ATOM     92  C   UNL A   1      38.874  34.478  38.928  1.00  0.00     0.059 A 
ATOM     93  F   UNL A   1      38.519  32.360  37.989  1.00  0.00    -0.206 F 
ATOM     94  C   UNL A   1      39.520  35.712  38.889  1.00  0.00     0.060 A 
BRANCH  94  95
ATOM     95  S   UNL A   1      39.180  36.959  40.149  1.00  0.00     0.124 S 
ATOM     96  O   UNL A   1      40.521  37.248  40.646  1.00  0.00    -0.237 OA
ATOM     97  O   UNL A   1      38.550  38.023  39.372  1.00  0.00    -0.237 OA
ATOM     98  O   UNL A   1      38.298  36.268  41.084  1.00  0.00    -0.744 OA
ENDBRANCH  94  95
ENDBRANCH  62  87
ENDBRANCH  36  37
ENDBRANCH  28  31
ENDBRANCH  26  27
ENDBRANCH  25  26
ENDBRANCH   1  25
TORSDOF 18
ENDMDL
