MODEL 1
REMARK VINA RESULT:     -10.1      0.000      0.000
REMARK SMILES C[C@@H](CC(=O)NCCCCCCNC(=O)c1ccc(-c2c3nc(c(-c4c(F)cc(S(=O)(=O)[O-])cc4F)c4ccc([nH]4)c(-c4c(F)cc(S(=O)(=O)[O-])cc4F)c4nc(c(-c5c(F)cc(S(=O)(=O)[O-])cc5F)c5ccc2[nH]5)C=C4)C=C3)cc1)CC(=O)NC[C@@]1(C)CCCO1
REMARK SMILES IDX 8 1 7 2 6 3 4 4 5 5 3 7 2 8 1 9 82 10 83 11 84 12 85 13
REMARK SMILES IDX 86 15 87 16 88 17 89 18 92 19 90 20 91 21 9 22 10 23 11 24
REMARK SMILES IDX 12 25 13 26 14 27 15 29 16 30 17 31 81 32 18 33 80 34 19 35
REMARK SMILES IDX 20 36 21 37 74 38 22 39 79 40 73 41 75 42 23 43 78 44 72 45
REMARK SMILES IDX 71 46 24 48 58 49 37 50 57 51 38 52 41 53 56 54 76 55 39 56
REMARK SMILES IDX 40 57 55 59 77 60 42 61 25 62 26 63 35 64 27 65 28 66 34 67
REMARK SMILES IDX 36 68 29 69 30 70 31 71 32 72 33 73 59 74 60 75 69 76 61 77
REMARK SMILES IDX 62 78 68 79 70 80 63 81 64 82 65 83 66 84 67 85 43 86 44 87
REMARK SMILES IDX 53 88 45 89 46 90 52 91 54 92 47 93 48 94 49 95 50 96 51 97
REMARK H PARENT 6 6 85 14 13 28 75 47 41 58
REMARK Flexibility Score: inf
ROOT
ATOM      1  C   UNL A   1      31.681  28.780  23.231  1.00  0.00     0.021 C 
ENDROOT
BRANCH   1   2
ATOM      2  C   UNL A   1      30.782  27.797  22.474  1.00  0.00     0.116 C 
BRANCH   2   3
ATOM      3  N   UNL A   1      31.557  27.070  21.484  1.00  0.00    -0.356 N 
ATOM      4  C   UNL A   1      32.388  25.999  21.616  1.00  0.00     0.220 C 
ATOM      5  O   UNL A   1      33.058  25.658  20.640  1.00  0.00    -0.275 OA
ATOM      6  H   UNL A   1      31.465  27.406  20.563  1.00  0.00     0.163 HD
BRANCH   4   7
ATOM      7  C   UNL A   1      32.465  25.222  22.919  1.00  0.00     0.103 C 
BRANCH   7   8
ATOM      8  C   UNL A   1      33.786  24.500  23.275  1.00  0.00     0.004 C 
ATOM      9  C   UNL A   1      33.547  22.991  23.275  1.00  0.00     0.009 C 
BRANCH   8  10
ATOM     10  C   UNL A   1      34.478  25.010  24.551  1.00  0.00     0.103 C 
BRANCH  10  11
ATOM     11  C   UNL A   1      34.169  24.171  25.781  1.00  0.00     0.220 C 
ATOM     12  O   UNL A   1      33.036  24.141  26.261  1.00  0.00    -0.275 OA
ATOM     13  N   UNL A   1      35.160  23.465  26.399  1.00  0.00    -0.353 N 
ATOM     14  H   UNL A   1      34.893  23.033  27.243  1.00  0.00     0.163 HD
BRANCH  13  15
ATOM     15  C   UNL A   1      36.550  23.246  26.013  1.00  0.00     0.151 C 
BRANCH  15  16
ATOM     16  C   UNL A   1      36.827  22.047  25.056  1.00  0.00     0.083 C 
ATOM     17  C   UNL A   1      36.896  22.475  23.577  1.00  0.00     0.044 C 
ATOM     18  C   UNL A   1      38.036  21.194  25.433  1.00  0.00     0.039 C 
ATOM     19  O   UNL A   1      35.713  21.123  25.145  1.00  0.00    -0.373 OA
ATOM     20  C   UNL A   1      37.720  19.878  24.765  1.00  0.00     0.031 C 
ATOM     21  C   UNL A   1      36.213  19.787  24.928  1.00  0.00     0.161 C 
ENDBRANCH  15  16
ENDBRANCH  13  15
ENDBRANCH  10  11
ENDBRANCH   8  10
ENDBRANCH   7   8
ENDBRANCH   4   7
ENDBRANCH   2   3
ENDBRANCH   1   2
BRANCH   1  22
ATOM     22  C   UNL A   1      31.101  29.329  24.535  1.00  0.00     0.002 C 
BRANCH  22  23
ATOM     23  C   UNL A   1      31.480  28.545  25.797  1.00  0.00     0.002 C 
BRANCH  23  24
ATOM     24  C   UNL A   1      32.816  27.788  25.758  1.00  0.00     0.021 C 
BRANCH  24  25
ATOM     25  C   UNL A   1      33.846  28.191  26.815  1.00  0.00     0.116 C 
BRANCH  25  26
ATOM     26  N   UNL A   1      33.702  29.579  27.223  1.00  0.00    -0.352 N 
ATOM     27  C   UNL A   1      34.540  30.396  27.937  1.00  0.00     0.251 C 
ATOM     28  H   UNL A   1      32.860  30.003  26.938  1.00  0.00     0.163 HD
ATOM     29  O   UNL A   1      34.114  31.477  28.344  1.00  0.00    -0.269 OA
BRANCH  27  30
ATOM     30  C   UNL A   1      35.936  30.002  28.238  1.00  0.00     0.039 A 
ATOM     31  C   UNL A   1      36.892  30.100  27.221  1.00  0.00     0.014 A 
ATOM     32  C   UNL A   1      36.300  29.474  29.481  1.00  0.00     0.014 A 
ATOM     33  C   UNL A   1      38.217  29.725  27.465  1.00  0.00     0.010 A 
ATOM     34  C   UNL A   1      37.635  29.158  29.741  1.00  0.00     0.010 A 
ATOM     35  C   UNL A   1      38.607  29.277  28.737  1.00  0.00    -0.014 A 
BRANCH  35  36
ATOM     36  C   UNL A   1      40.027  28.941  29.030  1.00  0.00     0.031 A 
ATOM     37  C   UNL A   1      40.951  29.971  29.622  1.00  0.00     0.074 A 
ATOM     38  C   UNL A   1      40.502  27.721  28.706  1.00  0.00     0.049 A 
ATOM     39  N   UNL A   1      42.231  29.881  29.882  1.00  0.00    -0.248 NA
ATOM     40  C   UNL A   1      40.365  31.282  29.941  1.00  0.00     0.031 C 
ATOM     41  C   UNL A   1      39.721  26.648  28.087  1.00  0.00     0.029 A 
ATOM     42  N   UNL A   1      41.758  27.182  28.838  1.00  0.00    -0.354 N 
ATOM     43  C   UNL A   1      42.608  31.124  30.379  1.00  0.00     0.074 A 
ATOM     44  C   UNL A   1      41.429  31.964  30.341  1.00  0.00     0.031 C 
ATOM     45  C   UNL A   1      40.510  25.578  27.906  1.00  0.00     0.029 A 
ATOM     46  C   UNL A   1      41.860  25.896  28.362  1.00  0.00     0.049 A 
ATOM     47  H   UNL A   1      42.514  27.670  29.236  1.00  0.00     0.167 HD
ATOM     48  C   UNL A   1      43.819  31.523  30.839  1.00  0.00     0.037 A 
ATOM     49  C   UNL A   1      42.920  25.068  28.290  1.00  0.00     0.037 A 
ATOM     50  C   UNL A   1      44.982  30.674  30.897  1.00  0.00     0.049 A 
ATOM     51  C   UNL A   1      44.253  25.529  28.815  1.00  0.00     0.074 A 
ATOM     52  C   UNL A   1      46.236  30.968  31.407  1.00  0.00     0.029 A 
ATOM     53  N   UNL A   1      45.038  29.370  30.430  1.00  0.00    -0.354 N 
ATOM     54  N   UNL A   1      44.574  26.688  29.338  1.00  0.00    -0.248 NA
ATOM     55  C   UNL A   1      45.362  24.569  28.748  1.00  0.00     0.031 C 
ATOM     56  C   UNL A   1      47.062  29.856  31.208  1.00  0.00     0.029 A 
ATOM     57  C   UNL A   1      46.311  28.852  30.617  1.00  0.00     0.049 A 
ATOM     58  H   UNL A   1      44.285  28.883  30.024  1.00  0.00     0.167 HD
ATOM     59  C   UNL A   1      45.918  26.588  29.684  1.00  0.00     0.074 A 
ATOM     60  C   UNL A   1      46.344  25.252  29.322  1.00  0.00     0.031 C 
ATOM     61  C   UNL A   1      46.723  27.519  30.253  1.00  0.00     0.037 A 
BRANCH  48  62
ATOM     62  C   UNL A   1      43.949  32.945  31.314  1.00  0.00     0.058 A 
ATOM     63  C   UNL A   1      43.744  33.297  32.657  1.00  0.00     0.135 A 
ATOM     64  C   UNL A   1      44.315  33.966  30.421  1.00  0.00     0.135 A 
ATOM     65  F   UNL A   1      43.381  32.364  33.553  1.00  0.00    -0.206 F 
ATOM     66  C   UNL A   1      43.858  34.614  33.091  1.00  0.00     0.059 A 
ATOM     67  C   UNL A   1      44.463  35.285  30.838  1.00  0.00     0.059 A 
ATOM     68  F   UNL A   1      44.527  33.685  29.125  1.00  0.00    -0.206 F 
ATOM     69  C   UNL A   1      44.215  35.602  32.172  1.00  0.00     0.060 A 
BRANCH  69  70
ATOM     70  S   UNL A   1      44.351  37.309  32.746  1.00  0.00     0.124 S 
ATOM     71  O   UNL A   1      44.340  38.040  31.481  1.00  0.00    -0.237 OA
ATOM     72  O   UNL A   1      43.154  37.458  33.570  1.00  0.00    -0.237 OA
ATOM     73  O   UNL A   1      45.613  37.326  33.470  1.00  0.00    -0.744 OA
ENDBRANCH  69  70
ENDBRANCH  48  62
BRANCH  49  74
ATOM     74  C   UNL A   1      42.754  23.708  27.712  1.00  0.00     0.058 A 
ATOM     75  C   UNL A   1      42.907  23.486  26.336  1.00  0.00     0.135 A 
ATOM     76  C   UNL A   1      42.470  22.601  28.527  1.00  0.00     0.135 A 
ATOM     77  F   UNL A   1      43.172  24.514  25.516  1.00  0.00    -0.206 F 
ATOM     78  C   UNL A   1      42.777  22.215  25.784  1.00  0.00     0.059 A 
ATOM     79  C   UNL A   1      42.357  21.318  28.003  1.00  0.00     0.059 A 
ATOM     80  F   UNL A   1      42.330  22.759  29.852  1.00  0.00    -0.206 F 
ATOM     81  C   UNL A   1      42.507  21.136  26.628  1.00  0.00     0.060 A 
BRANCH  81  82
ATOM     82  S   UNL A   1      42.405  19.480  25.912  1.00  0.00     0.124 S 
ATOM     83  O   UNL A   1      42.924  18.659  26.999  1.00  0.00    -0.237 OA
ATOM     84  O   UNL A   1      40.977  19.353  25.639  1.00  0.00    -0.237 OA
ATOM     85  O   UNL A   1      43.255  19.575  24.729  1.00  0.00    -0.744 OA
ENDBRANCH  81  82
ENDBRANCH  49  74
BRANCH  61  86
ATOM     86  C   UNL A   1      48.144  27.120  30.544  1.00  0.00     0.058 A 
ATOM     87  C   UNL A   1      49.178  27.348  29.624  1.00  0.00     0.135 A 
ATOM     88  C   UNL A   1      48.481  26.545  31.781  1.00  0.00     0.135 A 
ATOM     89  F   UNL A   1      48.909  27.889  28.425  1.00  0.00    -0.206 F 
ATOM     90  C   UNL A   1      50.494  26.997  29.909  1.00  0.00     0.059 A 
ATOM     91  C   UNL A   1      49.794  26.210  32.097  1.00  0.00     0.059 A 
ATOM     92  F   UNL A   1      47.531  26.314  32.701  1.00  0.00    -0.206 F 
ATOM     93  C   UNL A   1      50.792  26.430  31.150  1.00  0.00     0.060 A 
BRANCH  93  94
ATOM     94  S   UNL A   1      52.509  26.009  31.520  1.00  0.00     0.124 S 
ATOM     95  O   UNL A   1      53.139  26.171  30.213  1.00  0.00    -0.237 OA
ATOM     96  O   UNL A   1      52.867  27.006  32.524  1.00  0.00    -0.237 OA
ATOM     97  O   UNL A   1      52.423  24.637  32.011  1.00  0.00    -0.744 OA
ENDBRANCH  93  94
ENDBRANCH  61  86
ENDBRANCH  35  36
ENDBRANCH  27  30
ENDBRANCH  25  26
ENDBRANCH  24  25
ENDBRANCH  23  24
ENDBRANCH  22  23
ENDBRANCH   1  22
TORSDOF 21
ENDMDL
MODEL 2
REMARK VINA RESULT:      -9.9      3.445      8.739
REMARK SMILES C[C@@H](CC(=O)NCCCCCCNC(=O)c1ccc(-c2c3nc(c(-c4c(F)cc(S(=O)(=O)[O-])cc4F)c4ccc([nH]4)c(-c4c(F)cc(S(=O)(=O)[O-])cc4F)c4nc(c(-c5c(F)cc(S(=O)(=O)[O-])cc5F)c5ccc2[nH]5)C=C4)C=C3)cc1)CC(=O)NC[C@@]1(C)CCCO1
REMARK SMILES IDX 8 1 7 2 6 3 4 4 5 5 3 7 2 8 1 9 82 10 83 11 84 12 85 13
REMARK SMILES IDX 86 15 87 16 88 17 89 18 92 19 90 20 91 21 9 22 10 23 11 24
REMARK SMILES IDX 12 25 13 26 14 27 15 29 16 30 17 31 81 32 18 33 80 34 19 35
REMARK SMILES IDX 20 36 21 37 74 38 22 39 79 40 73 41 75 42 23 43 78 44 72 45
REMARK SMILES IDX 71 46 24 48 58 49 37 50 57 51 38 52 41 53 56 54 76 55 39 56
REMARK SMILES IDX 40 57 55 59 77 60 42 61 25 62 26 63 35 64 27 65 28 66 34 67
REMARK SMILES IDX 36 68 29 69 30 70 31 71 32 72 33 73 59 74 60 75 69 76 61 77
REMARK SMILES IDX 62 78 68 79 70 80 63 81 64 82 65 83 66 84 67 85 43 86 44 87
REMARK SMILES IDX 53 88 45 89 46 90 52 91 54 92 47 93 48 94 49 95 50 96 51 97
REMARK H PARENT 6 6 85 14 13 28 75 47 41 58
REMARK Flexibility Score: inf
ROOT
ATOM      1  C   UNL A   1      36.350  22.819  25.858  1.00  0.00     0.021 C 
ENDROOT
BRANCH   1   2
ATOM      2  C   UNL A   1      35.765  24.107  25.268  1.00  0.00     0.116 C 
BRANCH   2   3
ATOM      3  N   UNL A   1      35.321  23.877  23.904  1.00  0.00    -0.356 N 
ATOM      4  C   UNL A   1      34.116  24.103  23.312  1.00  0.00     0.220 C 
ATOM      5  O   UNL A   1      33.938  23.674  22.171  1.00  0.00    -0.275 OA
ATOM      6  H   UNL A   1      36.005  23.495  23.308  1.00  0.00     0.163 HD
BRANCH   4   7
ATOM      7  C   UNL A   1      33.029  24.891  24.022  1.00  0.00     0.103 C 
BRANCH   7   8
ATOM      8  C   UNL A   1      33.096  26.437  23.997  1.00  0.00     0.004 C 
ATOM      9  C   UNL A   1      32.470  26.985  25.278  1.00  0.00     0.009 C 
BRANCH   8  10
ATOM     10  C   UNL A   1      32.543  27.089  22.718  1.00  0.00     0.103 C 
BRANCH  10  11
ATOM     11  C   UNL A   1      32.468  28.605  22.798  1.00  0.00     0.220 C 
ATOM     12  O   UNL A   1      33.486  29.286  22.922  1.00  0.00    -0.275 OA
ATOM     13  N   UNL A   1      31.258  29.236  22.773  1.00  0.00    -0.353 N 
ATOM     14  H   UNL A   1      31.297  30.207  22.931  1.00  0.00     0.163 HD
BRANCH  13  15
ATOM     15  C   UNL A   1      29.917  28.706  22.551  1.00  0.00     0.151 C 
BRANCH  15  16
ATOM     16  C   UNL A   1      28.750  29.738  22.551  1.00  0.00     0.083 C 
ATOM     17  C   UNL A   1      27.392  29.094  22.896  1.00  0.00     0.044 C 
ATOM     18  C   UNL A   1      28.995  30.981  23.403  1.00  0.00     0.039 C 
ATOM     19  O   UNL A   1      28.602  30.264  21.208  1.00  0.00    -0.373 OA
ATOM     20  C   UNL A   1      28.061  31.988  22.776  1.00  0.00     0.031 C 
ATOM     21  C   UNL A   1      28.140  31.628  21.303  1.00  0.00     0.161 C 
ENDBRANCH  15  16
ENDBRANCH  13  15
ENDBRANCH  10  11
ENDBRANCH   8  10
ENDBRANCH   7   8
ENDBRANCH   4   7
ENDBRANCH   2   3
ENDBRANCH   1   2
BRANCH   1  22
ATOM     22  C   UNL A   1      37.259  22.022  24.923  1.00  0.00     0.002 C 
BRANCH  22  23
ATOM     23  C   UNL A   1      37.030  20.506  24.928  1.00  0.00     0.002 C 
BRANCH  23  24
ATOM     24  C   UNL A   1      38.285  19.624  24.989  1.00  0.00     0.021 C 
BRANCH  24  25
ATOM     25  C   UNL A   1      39.397  20.103  25.923  1.00  0.00     0.116 C 
BRANCH  25  26
ATOM     26  N   UNL A   1      40.492  19.150  26.009  1.00  0.00    -0.352 N 
ATOM     27  C   UNL A   1      41.845  19.345  26.120  1.00  0.00     0.251 C 
ATOM     28  H   UNL A   1      40.215  18.206  25.983  1.00  0.00     0.163 HD
ATOM     29  O   UNL A   1      42.600  18.386  25.965  1.00  0.00    -0.269 OA
BRANCH  27  30
ATOM     30  C   UNL A   1      42.414  20.682  26.410  1.00  0.00     0.039 A 
ATOM     31  C   UNL A   1      42.924  21.436  25.347  1.00  0.00     0.014 A 
ATOM     32  C   UNL A   1      42.515  21.172  27.716  1.00  0.00     0.014 A 
ATOM     33  C   UNL A   1      43.481  22.697  25.585  1.00  0.00     0.010 A 
ATOM     34  C   UNL A   1      43.014  22.456  27.944  1.00  0.00     0.010 A 
ATOM     35  C   UNL A   1      43.504  23.231  26.882  1.00  0.00    -0.014 A 
BRANCH  35  36
ATOM     36  C   UNL A   1      44.029  24.600  27.140  1.00  0.00     0.031 A 
ATOM     37  C   UNL A   1      43.104  25.704  27.577  1.00  0.00     0.074 A 
ATOM     38  C   UNL A   1      45.333  24.865  26.919  1.00  0.00     0.049 A 
ATOM     39  N   UNL A   1      43.368  26.970  27.783  1.00  0.00    -0.248 NA
ATOM     40  C   UNL A   1      41.694  25.344  27.788  1.00  0.00     0.031 C 
ATOM     41  C   UNL A   1      46.324  23.893  26.451  1.00  0.00     0.029 A 
ATOM     42  N   UNL A   1      46.046  26.030  27.044  1.00  0.00    -0.354 N 
ATOM     43  C   UNL A   1      42.158  27.560  28.131  1.00  0.00     0.074 A 
ATOM     44  C   UNL A   1      41.152  26.522  28.065  1.00  0.00     0.031 C 
ATOM     45  C   UNL A   1      47.516  24.499  26.343  1.00  0.00     0.029 A 
ATOM     46  C   UNL A   1      47.371  25.908  26.698  1.00  0.00     0.049 A 
ATOM     47  H   UNL A   1      45.647  26.876  27.353  1.00  0.00     0.167 HD
ATOM     48  C   UNL A   1      41.912  28.845  28.489  1.00  0.00     0.037 A 
ATOM     49  C   UNL A   1      48.358  26.825  26.660  1.00  0.00     0.037 A 
ATOM     50  C   UNL A   1      42.923  29.868  28.577  1.00  0.00     0.049 A 
ATOM     51  C   UNL A   1      48.063  28.242  27.070  1.00  0.00     0.074 A 
ATOM     52  C   UNL A   1      42.782  31.182  28.992  1.00  0.00     0.029 A 
ATOM     53  N   UNL A   1      44.258  29.698  28.243  1.00  0.00    -0.354 N 
ATOM     54  N   UNL A   1      46.925  28.767  27.455  1.00  0.00    -0.248 NA
ATOM     55  C   UNL A   1      49.187  29.188  27.048  1.00  0.00     0.031 C 
ATOM     56  C   UNL A   1      44.022  31.816  28.868  1.00  0.00     0.029 A 
ATOM     57  C   UNL A   1      44.948  30.887  28.421  1.00  0.00     0.049 A 
ATOM     58  H   UNL A   1      44.657  28.856  27.926  1.00  0.00     0.167 HD
ATOM     59  C   UNL A   1      47.200  30.100  27.744  1.00  0.00     0.074 A 
ATOM     60  C   UNL A   1      48.614  30.295  27.500  1.00  0.00     0.031 C 
ATOM     61  C   UNL A   1      46.357  31.070  28.175  1.00  0.00     0.037 A 
BRANCH  48  62
ATOM     62  C   UNL A   1      40.490  29.217  28.809  1.00  0.00     0.058 A 
ATOM     63  C   UNL A   1      39.539  29.438  27.800  1.00  0.00     0.135 A 
ATOM     64  C   UNL A   1      40.062  29.324  30.142  1.00  0.00     0.135 A 
ATOM     65  F   UNL A   1      39.895  29.360  26.507  1.00  0.00    -0.206 F 
ATOM     66  C   UNL A   1      38.226  29.788  28.100  1.00  0.00     0.059 A 
ATOM     67  C   UNL A   1      38.747  29.646  30.467  1.00  0.00     0.059 A 
ATOM     68  F   UNL A   1      40.928  29.120  31.148  1.00  0.00    -0.206 F 
ATOM     69  C   UNL A   1      37.841  29.893  29.437  1.00  0.00     0.060 A 
BRANCH  69  70
ATOM     70  S   UNL A   1      36.137  30.359  29.813  1.00  0.00     0.124 S 
ATOM     71  O   UNL A   1      35.926  29.677  31.088  1.00  0.00    -0.237 OA
ATOM     72  O   UNL A   1      36.219  31.816  29.883  1.00  0.00    -0.237 OA
ATOM     73  O   UNL A   1      35.382  29.830  28.686  1.00  0.00    -0.744 OA
ENDBRANCH  69  70
ENDBRANCH  48  62
BRANCH  49  74
ATOM     74  C   UNL A   1      49.723  26.420  26.233  1.00  0.00     0.058 A 
ATOM     75  C   UNL A   1      50.198  26.727  24.950  1.00  0.00     0.135 A 
ATOM     76  C   UNL A   1      50.589  25.745  27.108  1.00  0.00     0.135 A 
ATOM     77  F   UNL A   1      49.404  27.364  24.076  1.00  0.00    -0.206 F 
ATOM     78  C   UNL A   1      51.481  26.373  24.544  1.00  0.00     0.059 A 
ATOM     79  C   UNL A   1      51.884  25.402  26.734  1.00  0.00     0.059 A 
ATOM     80  F   UNL A   1      50.187  25.442  28.352  1.00  0.00    -0.206 F 
ATOM     81  C   UNL A   1      52.319  25.715  25.446  1.00  0.00     0.060 A 
BRANCH  81  82
ATOM     82  S   UNL A   1      54.005  25.320  24.934  1.00  0.00     0.124 S 
ATOM     83  O   UNL A   1      54.079  25.979  23.635  1.00  0.00    -0.237 OA
ATOM     84  O   UNL A   1      54.798  25.919  26.002  1.00  0.00    -0.237 OA
ATOM     85  O   UNL A   1      54.012  23.860  24.904  1.00  0.00    -0.744 OA
ENDBRANCH  81  82
ENDBRANCH  49  74
BRANCH  61  86
ATOM     86  C   UNL A   1      46.944  32.430  28.437  1.00  0.00     0.058 A 
ATOM     87  C   UNL A   1      46.978  33.422  27.445  1.00  0.00     0.135 A 
ATOM     88  C   UNL A   1      47.435  32.759  29.711  1.00  0.00     0.135 A 
ATOM     89  F   UNL A   1      46.528  33.157  26.208  1.00  0.00    -0.206 F 
ATOM     90  C   UNL A   1      47.502  34.686  27.700  1.00  0.00     0.059 A 
ATOM     91  C   UNL A   1      47.939  34.025  29.995  1.00  0.00     0.059 A 
ATOM     92  F   UNL A   1      47.417  31.849  30.698  1.00  0.00    -0.206 F 
ATOM     93  C   UNL A   1      47.978  34.978  28.979  1.00  0.00     0.060 A 
BRANCH  93  94
ATOM     94  S   UNL A   1      48.625  36.632  29.307  1.00  0.00     0.124 S 
ATOM     95  O   UNL A   1      49.654  36.352  30.303  1.00  0.00    -0.237 OA
ATOM     96  O   UNL A   1      49.111  37.044  27.993  1.00  0.00    -0.237 OA
ATOM     97  O   UNL A   1      47.460  37.362  29.795  1.00  0.00    -0.744 OA
ENDBRANCH  93  94
ENDBRANCH  61  86
ENDBRANCH  35  36
ENDBRANCH  27  30
ENDBRANCH  25  26
ENDBRANCH  24  25
ENDBRANCH  23  24
ENDBRANCH  22  23
ENDBRANCH   1  22
TORSDOF 21
ENDMDL
MODEL 3
REMARK VINA RESULT:      -9.9      1.242      2.103
REMARK SMILES C[C@@H](CC(=O)NCCCCCCNC(=O)c1ccc(-c2c3nc(c(-c4c(F)cc(S(=O)(=O)[O-])cc4F)c4ccc([nH]4)c(-c4c(F)cc(S(=O)(=O)[O-])cc4F)c4nc(c(-c5c(F)cc(S(=O)(=O)[O-])cc5F)c5ccc2[nH]5)C=C4)C=C3)cc1)CC(=O)NC[C@@]1(C)CCCO1
REMARK SMILES IDX 8 1 7 2 6 3 4 4 5 5 3 7 2 8 1 9 82 10 83 11 84 12 85 13
REMARK SMILES IDX 86 15 87 16 88 17 89 18 92 19 90 20 91 21 9 22 10 23 11 24
REMARK SMILES IDX 12 25 13 26 14 27 15 29 16 30 17 31 81 32 18 33 80 34 19 35
REMARK SMILES IDX 20 36 21 37 74 38 22 39 79 40 73 41 75 42 23 43 78 44 72 45
REMARK SMILES IDX 71 46 24 48 58 49 37 50 57 51 38 52 41 53 56 54 76 55 39 56
REMARK SMILES IDX 40 57 55 59 77 60 42 61 25 62 26 63 35 64 27 65 28 66 34 67
REMARK SMILES IDX 36 68 29 69 30 70 31 71 32 72 33 73 59 74 60 75 69 76 61 77
REMARK SMILES IDX 62 78 68 79 70 80 63 81 64 82 65 83 66 84 67 85 43 86 44 87
REMARK SMILES IDX 53 88 45 89 46 90 52 91 54 92 47 93 48 94 49 95 50 96 51 97
REMARK H PARENT 6 6 85 14 13 28 75 47 41 58
REMARK Flexibility Score: inf
ROOT
ATOM      1  C   UNL A   1      31.692  28.557  23.181  1.00  0.00     0.021 C 
ENDROOT
BRANCH   1   2
ATOM      2  C   UNL A   1      30.931  27.321  22.689  1.00  0.00     0.116 C 
BRANCH   2   3
ATOM      3  N   UNL A   1      31.638  26.705  21.579  1.00  0.00    -0.356 N 
ATOM      4  C   UNL A   1      32.734  25.898  21.562  1.00  0.00     0.220 C 
ATOM      5  O   UNL A   1      33.243  25.630  20.472  1.00  0.00    -0.275 OA
ATOM      6  H   UNL A   1      31.261  26.904  20.691  1.00  0.00     0.163 HD
BRANCH   4   7
ATOM      7  C   UNL A   1      33.299  25.314  22.845  1.00  0.00     0.103 C 
BRANCH   7   8
ATOM      8  C   UNL A   1      32.859  23.893  23.271  1.00  0.00     0.004 C 
ATOM      9  C   UNL A   1      32.289  23.950  24.688  1.00  0.00     0.009 C 
BRANCH   8  10
ATOM     10  C   UNL A   1      33.925  22.802  23.083  1.00  0.00     0.103 C 
BRANCH  10  11
ATOM     11  C   UNL A   1      34.307  22.103  24.378  1.00  0.00     0.220 C 
ATOM     12  O   UNL A   1      35.112  22.609  25.160  1.00  0.00    -0.275 OA
ATOM     13  N   UNL A   1      33.790  20.876  24.677  1.00  0.00    -0.353 N 
ATOM     14  H   UNL A   1      34.167  20.454  25.482  1.00  0.00     0.163 HD
BRANCH  13  15
ATOM     15  C   UNL A   1      32.767  20.088  23.996  1.00  0.00     0.151 C 
BRANCH  15  16
ATOM     16  C   UNL A   1      32.967  18.542  23.988  1.00  0.00     0.083 C 
ATOM     17  C   UNL A   1      32.473  17.889  22.682  1.00  0.00     0.044 C 
ATOM     18  C   UNL A   1      34.381  18.078  24.327  1.00  0.00     0.039 C 
ATOM     19  O   UNL A   1      32.155  17.969  25.044  1.00  0.00    -0.373 OA
ATOM     20  C   UNL A   1      34.148  16.668  24.812  1.00  0.00     0.031 C 
ATOM     21  C   UNL A   1      32.824  16.793  25.545  1.00  0.00     0.161 C 
ENDBRANCH  15  16
ENDBRANCH  13  15
ENDBRANCH  10  11
ENDBRANCH   8  10
ENDBRANCH   7   8
ENDBRANCH   4   7
ENDBRANCH   2   3
ENDBRANCH   1   2
BRANCH   1  22
ATOM     22  C   UNL A   1      31.018  29.336  24.310  1.00  0.00     0.002 C 
BRANCH  22  23
ATOM     23  C   UNL A   1      31.682  29.196  25.684  1.00  0.00     0.002 C 
BRANCH  23  24
ATOM     24  C   UNL A   1      32.958  28.344  25.746  1.00  0.00     0.021 C 
BRANCH  24  25
ATOM     25  C   UNL A   1      33.870  28.587  26.949  1.00  0.00     0.116 C 
BRANCH  25  26
ATOM     26  N   UNL A   1      33.711  29.923  27.499  1.00  0.00    -0.352 N 
ATOM     27  C   UNL A   1      34.540  30.670  28.296  1.00  0.00     0.251 C 
ATOM     28  H   UNL A   1      32.866  30.366  27.258  1.00  0.00     0.163 HD
ATOM     29  O   UNL A   1      34.103  31.698  28.812  1.00  0.00    -0.269 OA
BRANCH  27  30
ATOM     30  C   UNL A   1      35.940  30.261  28.557  1.00  0.00     0.039 A 
ATOM     31  C   UNL A   1      36.862  30.322  27.506  1.00  0.00     0.014 A 
ATOM     32  C   UNL A   1      36.340  29.755  29.798  1.00  0.00     0.014 A 
ATOM     33  C   UNL A   1      38.188  29.931  27.712  1.00  0.00     0.010 A 
ATOM     34  C   UNL A   1      37.678  29.424  30.019  1.00  0.00     0.010 A 
ATOM     35  C   UNL A   1      38.616  29.505  28.979  1.00  0.00    -0.014 A 
BRANCH  35  36
ATOM     36  C   UNL A   1      40.041  29.154  29.231  1.00  0.00     0.031 A 
ATOM     37  C   UNL A   1      40.994  30.177  29.786  1.00  0.00     0.074 A 
ATOM     38  C   UNL A   1      40.490  27.926  28.899  1.00  0.00     0.049 A 
ATOM     39  N   UNL A   1      42.281  30.073  30.007  1.00  0.00    -0.248 NA
ATOM     40  C   UNL A   1      40.435  31.497  30.114  1.00  0.00     0.031 C 
ATOM     41  C   UNL A   1      39.677  26.859  28.312  1.00  0.00     0.029 A 
ATOM     42  N   UNL A   1      41.743  27.373  28.996  1.00  0.00    -0.354 N 
ATOM     43  C   UNL A   1      42.688  31.314  30.483  1.00  0.00     0.074 A 
ATOM     44  C   UNL A   1      41.519  32.168  30.477  1.00  0.00     0.031 C 
ATOM     45  C   UNL A   1      40.447  25.778  28.115  1.00  0.00     0.029 A 
ATOM     46  C   UNL A   1      41.815  26.083  28.526  1.00  0.00     0.049 A 
ATOM     47  H   UNL A   1      42.517  27.854  29.367  1.00  0.00     0.167 HD
ATOM     48  C   UNL A   1      43.918  31.701  30.903  1.00  0.00     0.037 A 
ATOM     49  C   UNL A   1      42.862  25.241  28.427  1.00  0.00     0.037 A 
ATOM     50  C   UNL A   1      45.072  30.838  30.931  1.00  0.00     0.049 A 
ATOM     51  C   UNL A   1      44.216  25.689  28.907  1.00  0.00     0.074 A 
ATOM     52  C   UNL A   1      46.345  31.120  31.399  1.00  0.00     0.029 A 
ATOM     53  N   UNL A   1      45.098  29.531  30.470  1.00  0.00    -0.354 N 
ATOM     54  N   UNL A   1      44.568  26.848  29.412  1.00  0.00    -0.248 NA
ATOM     55  C   UNL A   1      45.311  24.715  28.812  1.00  0.00     0.031 C 
ATOM     56  C   UNL A   1      47.150  29.997  31.182  1.00  0.00     0.029 A 
ATOM     57  C   UNL A   1      46.369  28.998  30.622  1.00  0.00     0.049 A 
ATOM     58  H   UNL A   1      44.327  29.050  30.091  1.00  0.00     0.167 HD
ATOM     59  C   UNL A   1      45.920  26.733  29.717  1.00  0.00     0.074 A 
ATOM     60  C   UNL A   1      46.318  25.390  29.350  1.00  0.00     0.031 C 
ATOM     61  C   UNL A   1      46.754  27.658  30.254  1.00  0.00     0.037 A 
BRANCH  48  62
ATOM     62  C   UNL A   1      44.080  33.124  31.364  1.00  0.00     0.058 A 
ATOM     63  C   UNL A   1      44.372  34.163  30.466  1.00  0.00     0.135 A 
ATOM     64  C   UNL A   1      43.908  33.461  32.717  1.00  0.00     0.135 A 
ATOM     65  F   UNL A   1      44.558  33.897  29.162  1.00  0.00    -0.206 F 
ATOM     66  C   UNL A   1      44.528  35.476  30.897  1.00  0.00     0.059 A 
ATOM     67  C   UNL A   1      44.031  34.772  33.166  1.00  0.00     0.059 A 
ATOM     68  F   UNL A   1      43.623  32.508  33.619  1.00  0.00    -0.206 F 
ATOM     69  C   UNL A   1      44.359  35.770  32.250  1.00  0.00     0.060 A 
BRANCH  69  70
ATOM     70  S   UNL A   1      44.572  37.478  32.799  1.00  0.00     0.124 S 
ATOM     71  O   UNL A   1      43.285  37.740  33.437  1.00  0.00    -0.237 OA
ATOM     72  O   UNL A   1      45.715  37.375  33.704  1.00  0.00    -0.237 OA
ATOM     73  O   UNL A   1      44.820  38.205  31.562  1.00  0.00    -0.744 OA
ENDBRANCH  69  70
ENDBRANCH  48  62
BRANCH  49  74
ATOM     74  C   UNL A   1      42.662  23.880  27.864  1.00  0.00     0.058 A 
ATOM     75  C   UNL A   1      42.532  22.764  28.704  1.00  0.00     0.135 A 
ATOM     76  C   UNL A   1      42.568  23.671  26.479  1.00  0.00     0.135 A 
ATOM     77  F   UNL A   1      42.623  22.913  30.034  1.00  0.00    -0.206 F 
ATOM     78  C   UNL A   1      42.322  21.488  28.192  1.00  0.00     0.059 A 
ATOM     79  C   UNL A   1      42.335  22.409  25.944  1.00  0.00     0.059 A 
ATOM     80  F   UNL A   1      42.670  24.709  25.634  1.00  0.00    -0.206 F 
ATOM     81  C   UNL A   1      42.220  21.321  26.810  1.00  0.00     0.060 A 
BRANCH  81  82
ATOM     82  S   UNL A   1      41.881  19.670  26.158  1.00  0.00     0.124 S 
ATOM     83  O   UNL A   1      42.251  18.827  27.289  1.00  0.00    -0.237 OA
ATOM     84  O   UNL A   1      40.456  19.747  25.857  1.00  0.00    -0.237 OA
ATOM     85  O   UNL A   1      42.756  19.586  24.993  1.00  0.00    -0.744 OA
ENDBRANCH  81  82
ENDBRANCH  49  74
BRANCH  61  86
ATOM     86  C   UNL A   1      48.178  27.244  30.504  1.00  0.00     0.058 A 
ATOM     87  C   UNL A   1      49.149  27.295  29.493  1.00  0.00     0.135 A 
ATOM     88  C   UNL A   1      48.584  26.834  31.784  1.00  0.00     0.135 A 
ATOM     89  F   UNL A   1      48.812  27.673  28.250  1.00  0.00    -0.206 F 
ATOM     90  C   UNL A   1      50.471  26.932  29.737  1.00  0.00     0.059 A 
ATOM     91  C   UNL A   1      49.905  26.491  32.056  1.00  0.00     0.059 A 
ATOM     92  F   UNL A   1      47.696  26.776  32.790  1.00  0.00    -0.206 F 
ATOM     93  C   UNL A   1      50.839  26.533  31.023  1.00  0.00     0.060 A 
BRANCH  93  94
ATOM     94  S   UNL A   1      52.563  26.095  31.334  1.00  0.00     0.124 S 
ATOM     95  O   UNL A   1      52.990  27.186  32.204  1.00  0.00    -0.237 OA
ATOM     96  O   UNL A   1      52.444  24.786  31.970  1.00  0.00    -0.237 OA
ATOM     97  O   UNL A   1      53.157  26.085  30.000  1.00  0.00    -0.744 OA
ENDBRANCH  93  94
ENDBRANCH  61  86
ENDBRANCH  35  36
ENDBRANCH  27  30
ENDBRANCH  25  26
ENDBRANCH  24  25
ENDBRANCH  23  24
ENDBRANCH  22  23
ENDBRANCH   1  22
TORSDOF 21
ENDMDL
