MODEL 1
REMARK VINA RESULT:     -11.3      0.000      0.000
REMARK SMILES CC1=C(C#N)C(=O)N(C)C(=O)/C1=C\Nc1ccc(C(=O)NCCCCCCNC(=O)c2ccc(-c3c4nc(c(-c5c(F)cc(S(=O)(=O)[O-])cc5F)c5ccc([nH]5)c(-c5c(F)cc(S(=O)(=O)[O-])cc5F)c5nc(c(-c6c(F)cc(S(=O)(=O)[O-])cc6F)c6ccc3[nH]6)C=C5)C=C4)cc2)c(O)c1
REMARK SMILES IDX 24 1 23 2 22 3 21 4 19 5 20 6 18 8 15 9 16 10 99 11 17 12
REMARK SMILES IDX 97 13 14 14 13 16 1 17 2 18 3 19 12 20 6 21 10 22 7 23 8 24
REMARK SMILES IDX 11 25 9 26 4 27 5 28 98 29 25 31 26 32 27 33 28 34 29 35
REMARK SMILES IDX 30 37 31 38 32 39 96 40 33 41 95 42 34 43 35 44 36 45 89 46
REMARK SMILES IDX 37 47 94 48 88 49 90 50 38 51 93 52 87 53 86 54 39 56 73 57
REMARK SMILES IDX 52 58 72 59 53 60 56 61 71 62 91 63 54 64 55 65 70 67 92 68
REMARK SMILES IDX 57 69 40 70 41 71 50 72 42 73 43 74 49 75 51 76 44 77 45 78
REMARK SMILES IDX 46 79 47 80 48 81 74 82 75 83 84 84 76 85 77 86 83 87 85 88
REMARK SMILES IDX 78 89 79 90 80 91 81 92 82 93 58 94 59 95 68 96 60 97 61 98
REMARK SMILES IDX 67 99 69 100 62 101 63 102 64 103 65 104 66 105
REMARK H PARENT 21 7 14 15 98 30 28 36 90 55 56 66
REMARK Flexibility Score: inf
ROOT
ATOM      1  C   UNL A   1      34.361  32.974  28.294  1.00  0.00     0.002 C 
ENDROOT
BRANCH   1   2
ATOM      2  C   UNL A   1      34.983  31.661  27.811  1.00  0.00     0.021 C 
BRANCH   2   3
ATOM      3  C   UNL A   1      34.036  30.472  27.697  1.00  0.00     0.116 C 
BRANCH   3   4
ATOM      4  N   UNL A   1      32.836  30.727  26.921  1.00  0.00    -0.352 N 
ATOM      5  C   UNL A   1      32.273  30.000  25.898  1.00  0.00     0.255 C 
ATOM      6  O   UNL A   1      31.244  30.424  25.372  1.00  0.00    -0.269 OA
ATOM      7  H   UNL A   1      32.349  31.547  27.165  1.00  0.00     0.163 HD
BRANCH   5   8
ATOM      8  C   UNL A   1      32.900  28.761  25.364  1.00  0.00     0.081 A 
ATOM      9  C   UNL A   1      33.874  26.243  24.508  1.00  0.00     0.042 A 
ATOM     10  C   UNL A   1      33.520  26.449  25.842  1.00  0.00     0.027 A 
ATOM     11  C   UNL A   1      33.782  27.325  23.625  1.00  0.00     0.073 A 
ATOM     12  C   UNL A   1      33.037  27.694  26.266  1.00  0.00     0.020 A 
ATOM     13  C   UNL A   1      33.358  28.581  24.060  1.00  0.00     0.130 A 
BRANCH   9  14
ATOM     14  N   UNL A   1      34.276  25.009  23.991  1.00  0.00    -0.361 N 
ATOM     15  H   UNL A   1      35.096  25.035  23.447  1.00  0.00     0.166 HD
BRANCH  14  16
ATOM     16  C   UNL A   1      33.709  23.765  24.118  1.00  0.00     0.097 C 
ATOM     17  C   UNL A   1      32.156  21.280  24.189  1.00  0.00     0.047 C 
ATOM     18  C   UNL A   1      33.656  21.293  24.402  1.00  0.00    -0.013 C 
ATOM     19  C   UNL A   1      34.363  20.166  24.640  1.00  0.00     0.121 C 
ATOM     20  C   UNL A   1      34.339  22.587  24.331  1.00  0.00     0.060 C 
ATOM     21  C   UNL A   1      35.835  20.206  24.856  1.00  0.00     0.271 C 
ATOM     22  C   UNL A   1      35.840  22.642  24.493  1.00  0.00     0.262 C 
ATOM     23  O   UNL A   1      36.445  19.167  25.108  1.00  0.00    -0.268 OA
ATOM     24  N   UNL A   1      36.465  21.438  24.769  1.00  0.00    -0.277 N 
ATOM     25  O   UNL A   1      36.458  23.702  24.385  1.00  0.00    -0.269 OA
ATOM     26  C   UNL A   1      37.906  21.449  24.973  1.00  0.00     0.157 C 
BRANCH  19  27
ATOM     27  C   UNL A   1      33.751  18.880  24.698  1.00  0.00     0.105 C 
ATOM     28  N   UNL A   1      33.274  17.824  24.804  1.00  0.00    -0.192 NA
ENDBRANCH  19  27
ENDBRANCH  14  16
ENDBRANCH   9  14
BRANCH  13  29
ATOM     29  O   UNL A   1      33.482  29.579  23.136  1.00  0.00    -0.507 OA
ATOM     30  H   UNL A   1      34.275  29.670  22.648  1.00  0.00     0.293 HD
ENDBRANCH  13  29
ENDBRANCH   5   8
ENDBRANCH   3   4
ENDBRANCH   2   3
ENDBRANCH   1   2
BRANCH   1  31
ATOM     31  C   UNL A   1      35.158  33.768  29.333  1.00  0.00     0.002 C 
BRANCH  31  32
ATOM     32  C   UNL A   1      36.680  33.660  29.241  1.00  0.00     0.021 C 
BRANCH  32  33
ATOM     33  C   UNL A   1      37.361  32.997  30.431  1.00  0.00     0.116 C 
BRANCH  33  34
ATOM     34  N   UNL A   1      36.576  31.909  30.993  1.00  0.00    -0.352 N 
ATOM     35  C   UNL A   1      36.799  30.555  30.912  1.00  0.00     0.251 C 
ATOM     36  H   UNL A   1      35.777  32.179  31.500  1.00  0.00     0.163 HD
ATOM     37  O   UNL A   1      35.955  29.759  31.308  1.00  0.00    -0.269 OA
BRANCH  35  38
ATOM     38  C   UNL A   1      38.062  30.071  30.314  1.00  0.00     0.039 A 
ATOM     39  C   UNL A   1      38.197  30.055  28.924  1.00  0.00     0.014 A 
ATOM     40  C   UNL A   1      39.125  29.688  31.134  1.00  0.00     0.014 A 
ATOM     41  C   UNL A   1      39.431  29.728  28.356  1.00  0.00     0.010 A 
ATOM     42  C   UNL A   1      40.373  29.443  30.570  1.00  0.00     0.010 A 
ATOM     43  C   UNL A   1      40.541  29.463  29.176  1.00  0.00    -0.014 A 
BRANCH  43  44
ATOM     44  C   UNL A   1      41.891  29.201  28.614  1.00  0.00     0.031 A 
ATOM     45  C   UNL A   1      42.250  27.809  28.167  1.00  0.00     0.074 A 
ATOM     46  C   UNL A   1      42.819  30.180  28.600  1.00  0.00     0.049 A 
ATOM     47  N   UNL A   1      43.411  27.333  27.802  1.00  0.00    -0.248 NA
ATOM     48  C   UNL A   1      41.163  26.815  28.160  1.00  0.00     0.031 C 
ATOM     49  C   UNL A   1      42.599  31.562  29.033  1.00  0.00     0.029 A 
ATOM     50  N   UNL A   1      44.142  30.157  28.231  1.00  0.00    -0.354 N 
ATOM     51  C   UNL A   1      43.201  25.984  27.545  1.00  0.00     0.074 A 
ATOM     52  C   UNL A   1      41.813  25.706  27.840  1.00  0.00     0.031 C 
ATOM     53  C   UNL A   1      43.744  32.252  28.901  1.00  0.00     0.029 A 
ATOM     54  C   UNL A   1      44.793  31.353  28.428  1.00  0.00     0.049 A 
ATOM     55  H   UNL A   1      44.584  29.358  27.860  1.00  0.00     0.167 HD
ATOM     56  C   UNL A   1      44.084  25.065  27.090  1.00  0.00     0.037 A 
ATOM     57  C   UNL A   1      46.093  31.681  28.278  1.00  0.00     0.037 A 
ATOM     58  C   UNL A   1      45.458  25.358  26.779  1.00  0.00     0.049 A 
ATOM     59  C   UNL A   1      47.063  30.632  27.801  1.00  0.00     0.074 A 
ATOM     60  C   UNL A   1      46.417  24.510  26.254  1.00  0.00     0.029 A 
ATOM     61  N   UNL A   1      46.072  26.587  26.970  1.00  0.00    -0.354 N 
ATOM     62  N   UNL A   1      46.835  29.374  27.504  1.00  0.00    -0.248 NA
ATOM     63  C   UNL A   1      48.466  31.041  27.634  1.00  0.00     0.031 C 
ATOM     64  C   UNL A   1      47.628  25.205  26.195  1.00  0.00     0.029 A 
ATOM     65  C   UNL A   1      47.405  26.509  26.605  1.00  0.00     0.049 A 
ATOM     66  H   UNL A   1      45.626  27.395  27.313  1.00  0.00     0.167 HD
ATOM     67  C   UNL A   1      48.055  28.856  27.079  1.00  0.00     0.074 A 
ATOM     68  C   UNL A   1      49.016  29.934  27.153  1.00  0.00     0.031 C 
ATOM     69  C   UNL A   1      48.348  27.600  26.660  1.00  0.00     0.037 A 
BRANCH  56  70
ATOM     70  C   UNL A   1      43.604  23.650  26.906  1.00  0.00     0.058 A 
ATOM     71  C   UNL A   1      43.396  22.789  27.996  1.00  0.00     0.135 A 
ATOM     72  C   UNL A   1      43.284  23.171  25.625  1.00  0.00     0.135 A 
ATOM     73  F   UNL A   1      43.700  23.188  29.242  1.00  0.00    -0.206 F 
ATOM     74  C   UNL A   1      42.908  21.499  27.821  1.00  0.00     0.059 A 
ATOM     75  C   UNL A   1      42.762  21.896  25.429  1.00  0.00     0.059 A 
ATOM     76  F   UNL A   1      43.467  23.949  24.547  1.00  0.00    -0.206 F 
ATOM     77  C   UNL A   1      42.587  21.064  26.533  1.00  0.00     0.060 A 
BRANCH  77  78
ATOM     78  S   UNL A   1      41.925  19.397  26.329  1.00  0.00     0.124 S 
ATOM     79  O   UNL A   1      42.270  18.788  27.610  1.00  0.00    -0.237 OA
ATOM     80  O   UNL A   1      40.505  19.654  26.111  1.00  0.00    -0.237 OA
ATOM     81  O   UNL A   1      42.652  18.881  25.174  1.00  0.00    -0.744 OA
ENDBRANCH  77  78
ENDBRANCH  56  70
BRANCH  57  82
ATOM     82  C   UNL A   1      46.559  33.061  28.596  1.00  0.00     0.058 A 
ATOM     83  C   UNL A   1      46.598  34.059  27.610  1.00  0.00     0.135 A 
ATOM     84  C   UNL A   1      46.988  33.407  29.888  1.00  0.00     0.135 A 
ATOM     85  F   UNL A   1      46.207  33.780  26.357  1.00  0.00    -0.206 F 
ATOM     86  C   UNL A   1      47.069  35.340  27.885  1.00  0.00     0.059 A 
ATOM     87  C   UNL A   1      47.430  34.690  30.196  1.00  0.00     0.059 A 
ATOM     88  F   UNL A   1      46.958  32.497  30.873  1.00  0.00    -0.206 F 
ATOM     89  C   UNL A   1      47.481  35.645  29.183  1.00  0.00     0.060 A 
BRANCH  89  90
ATOM     90  S   UNL A   1      48.061  37.320  29.535  1.00  0.00     0.124 S 
ATOM     91  O   UNL A   1      48.810  37.632  28.323  1.00  0.00    -0.237 OA
ATOM     92  O   UNL A   1      46.807  38.044  29.717  1.00  0.00    -0.237 OA
ATOM     93  O   UNL A   1      48.860  37.150  30.745  1.00  0.00    -0.744 OA
ENDBRANCH  89  90
ENDBRANCH  57  82
BRANCH  69  94
ATOM     94  C   UNL A   1      49.749  27.321  26.183  1.00  0.00     0.058 A 
ATOM     95  C   UNL A   1      50.123  27.472  24.841  1.00  0.00     0.135 A 
ATOM     96  C   UNL A   1      50.753  27.001  27.113  1.00  0.00     0.135 A 
ATOM     97  F   UNL A   1      49.202  27.766  23.910  1.00  0.00    -0.206 F 
ATOM     98  C   UNL A   1      51.444  27.309  24.434  1.00  0.00     0.059 A 
ATOM     99  C   UNL A   1      52.084  26.868  26.734  1.00  0.00     0.059 A 
ATOM    100  F   UNL A   1      50.450  26.853  28.413  1.00  0.00    -0.206 F 
ATOM    101  C   UNL A   1      52.419  27.022  25.391  1.00  0.00     0.060 A 
BRANCH 101 102
ATOM    102  S   UNL A   1      54.140  26.893  24.858  1.00  0.00     0.124 S 
ATOM    103  O   UNL A   1      54.849  26.930  26.134  1.00  0.00    -0.237 OA
ATOM    104  O   UNL A   1      54.153  25.610  24.163  1.00  0.00    -0.237 OA
ATOM    105  O   UNL A   1      54.322  28.064  24.006  1.00  0.00    -0.744 OA
ENDBRANCH 101 102
ENDBRANCH  69  94
ENDBRANCH  43  44
ENDBRANCH  35  38
ENDBRANCH  33  34
ENDBRANCH  32  33
ENDBRANCH  31  32
ENDBRANCH   1  31
TORSDOF 20
ENDMDL
MODEL 2
REMARK VINA RESULT:     -11.2      6.476     12.242
REMARK SMILES CC1=C(C#N)C(=O)N(C)C(=O)/C1=C\Nc1ccc(C(=O)NCCCCCCNC(=O)c2ccc(-c3c4nc(c(-c5c(F)cc(S(=O)(=O)[O-])cc5F)c5ccc([nH]5)c(-c5c(F)cc(S(=O)(=O)[O-])cc5F)c5nc(c(-c6c(F)cc(S(=O)(=O)[O-])cc6F)c6ccc3[nH]6)C=C5)C=C4)cc2)c(O)c1
REMARK SMILES IDX 24 1 23 2 22 3 21 4 19 5 20 6 18 8 15 9 16 10 99 11 17 12
REMARK SMILES IDX 97 13 14 14 13 16 1 17 2 18 3 19 12 20 6 21 10 22 7 23 8 24
REMARK SMILES IDX 11 25 9 26 4 27 5 28 98 29 25 31 26 32 27 33 28 34 29 35
REMARK SMILES IDX 30 37 31 38 32 39 96 40 33 41 95 42 34 43 35 44 36 45 89 46
REMARK SMILES IDX 37 47 94 48 88 49 90 50 38 51 93 52 87 53 86 54 39 56 73 57
REMARK SMILES IDX 52 58 72 59 53 60 56 61 71 62 91 63 54 64 55 65 70 67 92 68
REMARK SMILES IDX 57 69 40 70 41 71 50 72 42 73 43 74 49 75 51 76 44 77 45 78
REMARK SMILES IDX 46 79 47 80 48 81 74 82 75 83 84 84 76 85 77 86 83 87 85 88
REMARK SMILES IDX 78 89 79 90 80 91 81 92 82 93 58 94 59 95 68 96 60 97 61 98
REMARK SMILES IDX 67 99 69 100 62 101 63 102 64 103 65 104 66 105
REMARK H PARENT 21 7 14 15 98 30 28 36 90 55 56 66
REMARK Flexibility Score: inf
ROOT
ATOM      1  C   UNL A   1      36.397  22.611  23.955  1.00  0.00     0.002 C 
ENDROOT
BRANCH   1   2
ATOM      2  C   UNL A   1      36.941  21.207  24.235  1.00  0.00     0.021 C 
BRANCH   2   3
ATOM      3  C   UNL A   1      36.255  20.432  25.353  1.00  0.00     0.116 C 
BRANCH   3   4
ATOM      4  N   UNL A   1      35.384  19.362  24.900  1.00  0.00    -0.352 N 
ATOM      5  C   UNL A   1      34.060  19.396  24.530  1.00  0.00     0.255 C 
ATOM      6  O   UNL A   1      33.517  18.345  24.189  1.00  0.00    -0.269 OA
ATOM      7  H   UNL A   1      35.807  18.474  24.852  1.00  0.00     0.163 HD
BRANCH   5   8
ATOM      8  C   UNL A   1      33.249  20.641  24.591  1.00  0.00     0.081 A 
ATOM      9  C   UNL A   1      31.948  23.143  24.856  1.00  0.00     0.042 A 
ATOM     10  C   UNL A   1      32.656  22.596  25.927  1.00  0.00     0.027 A 
ATOM     11  C   UNL A   1      31.861  22.400  23.672  1.00  0.00     0.073 A 
ATOM     12  C   UNL A   1      33.299  21.358  25.797  1.00  0.00     0.020 A 
ATOM     13  C   UNL A   1      32.451  21.141  23.563  1.00  0.00     0.130 A 
BRANCH   9  14
ATOM     14  N   UNL A   1      31.359  24.410  24.878  1.00  0.00    -0.361 N 
ATOM     15  H   UNL A   1      30.551  24.500  24.322  1.00  0.00     0.166 HD
BRANCH  14  16
ATOM     16  C   UNL A   1      31.726  25.550  25.549  1.00  0.00     0.097 C 
ATOM     17  C   UNL A   1      32.821  27.740  27.159  1.00  0.00     0.047 C 
ATOM     18  C   UNL A   1      31.908  27.995  25.977  1.00  0.00    -0.013 C 
ATOM     19  C   UNL A   1      31.544  29.240  25.598  1.00  0.00     0.121 C 
ATOM     20  C   UNL A   1      31.428  26.830  25.229  1.00  0.00     0.060 C 
ATOM     21  C   UNL A   1      30.638  29.463  24.439  1.00  0.00     0.271 C 
ATOM     22  C   UNL A   1      30.553  27.038  24.016  1.00  0.00     0.262 C 
ATOM     23  O   UNL A   1      30.295  30.607  24.142  1.00  0.00    -0.268 OA
ATOM     24  N   UNL A   1      30.208  28.350  23.735  1.00  0.00    -0.277 N 
ATOM     25  O   UNL A   1      30.175  26.090  23.328  1.00  0.00    -0.269 OA
ATOM     26  C   UNL A   1      29.333  28.595  22.599  1.00  0.00     0.157 C 
BRANCH  19  27
ATOM     27  C   UNL A   1      32.000  30.407  26.278  1.00  0.00     0.105 C 
ATOM     28  N   UNL A   1      32.408  31.323  26.868  1.00  0.00    -0.192 NA
ENDBRANCH  19  27
ENDBRANCH  14  16
ENDBRANCH   9  14
BRANCH  13  29
ATOM     29  O   UNL A   1      32.140  20.459  22.421  1.00  0.00    -0.507 OA
ATOM     30  H   UNL A   1      32.808  19.998  21.955  1.00  0.00     0.293 HD
ENDBRANCH  13  29
ENDBRANCH   5   8
ENDBRANCH   3   4
ENDBRANCH   2   3
ENDBRANCH   1   2
BRANCH   1  31
ATOM     31  C   UNL A   1      36.691  23.682  25.009  1.00  0.00     0.002 C 
BRANCH  31  32
ATOM     32  C   UNL A   1      37.786  23.348  26.022  1.00  0.00     0.021 C 
BRANCH  32  33
ATOM     33  C   UNL A   1      38.583  24.539  26.539  1.00  0.00     0.116 C 
BRANCH  33  34
ATOM     34  N   UNL A   1      39.791  24.786  25.766  1.00  0.00    -0.352 N 
ATOM     35  C   UNL A   1      40.825  25.649  26.038  1.00  0.00     0.251 C 
ATOM     36  H   UNL A   1      39.879  24.264  24.936  1.00  0.00     0.163 HD
ATOM     37  O   UNL A   1      41.699  25.857  25.204  1.00  0.00    -0.269 OA
BRANCH  35  38
ATOM     38  C   UNL A   1      40.853  26.346  27.342  1.00  0.00     0.039 A 
ATOM     39  C   UNL A   1      41.695  27.447  27.510  1.00  0.00     0.014 A 
ATOM     40  C   UNL A   1      40.004  25.939  28.374  1.00  0.00     0.014 A 
ATOM     41  C   UNL A   1      41.629  28.192  28.691  1.00  0.00     0.010 A 
ATOM     42  C   UNL A   1      39.881  26.729  29.512  1.00  0.00     0.010 A 
ATOM     43  C   UNL A   1      40.689  27.864  29.682  1.00  0.00    -0.014 A 
BRANCH  43  44
ATOM     44  C   UNL A   1      40.522  28.684  30.911  1.00  0.00     0.031 A 
ATOM     45  C   UNL A   1      39.480  29.770  30.941  1.00  0.00     0.074 A 
ATOM     46  C   UNL A   1      41.366  28.523  31.951  1.00  0.00     0.049 A 
ATOM     47  N   UNL A   1      39.278  30.695  31.840  1.00  0.00    -0.248 NA
ATOM     48  C   UNL A   1      38.563  29.839  29.791  1.00  0.00     0.031 C 
ATOM     49  C   UNL A   1      42.434  27.524  32.028  1.00  0.00     0.029 A 
ATOM     50  N   UNL A   1      41.476  29.215  33.132  1.00  0.00    -0.354 N 
ATOM     51  C   UNL A   1      38.232  31.471  31.357  1.00  0.00     0.074 A 
ATOM     52  C   UNL A   1      37.870  30.935  30.063  1.00  0.00     0.031 C 
ATOM     53  C   UNL A   1      43.086  27.665  33.194  1.00  0.00     0.029 A 
ATOM     54  C   UNL A   1      42.522  28.798  33.923  1.00  0.00     0.049 A 
ATOM     55  H   UNL A   1      40.863  29.942  33.390  1.00  0.00     0.167 HD
ATOM     56  C   UNL A   1      37.619  32.523  31.946  1.00  0.00     0.037 A 
ATOM     57  C   UNL A   1      42.996  29.290  35.086  1.00  0.00     0.037 A 
ATOM     58  C   UNL A   1      37.974  33.034  33.244  1.00  0.00     0.049 A 
ATOM     59  C   UNL A   1      42.317  30.484  35.707  1.00  0.00     0.074 A 
ATOM     60  C   UNL A   1      37.373  34.058  33.954  1.00  0.00     0.029 A 
ATOM     61  N   UNL A   1      39.023  32.568  34.022  1.00  0.00    -0.354 N 
ATOM     62  N   UNL A   1      41.288  31.168  35.264  1.00  0.00    -0.248 NA
ATOM     63  C   UNL A   1      42.856  30.974  36.984  1.00  0.00     0.031 C 
ATOM     64  C   UNL A   1      38.103  34.260  35.128  1.00  0.00     0.029 A 
ATOM     65  C   UNL A   1      39.107  33.308  35.189  1.00  0.00     0.049 A 
ATOM     66  H   UNL A   1      39.619  31.822  33.780  1.00  0.00     0.167 HD
ATOM     67  C   UNL A   1      41.035  32.140  36.226  1.00  0.00     0.074 A 
ATOM     68  C   UNL A   1      42.013  31.955  37.276  1.00  0.00     0.031 C 
ATOM     69  C   UNL A   1      40.073  33.096  36.240  1.00  0.00     0.037 A 
BRANCH  56  70
ATOM     70  C   UNL A   1      36.507  33.207  31.196  1.00  0.00     0.058 A 
ATOM     71  C   UNL A   1      35.171  33.142  31.625  1.00  0.00     0.135 A 
ATOM     72  C   UNL A   1      36.793  33.994  30.068  1.00  0.00     0.135 A 
ATOM     73  F   UNL A   1      34.837  32.390  32.687  1.00  0.00    -0.206 F 
ATOM     74  C   UNL A   1      34.158  33.814  30.952  1.00  0.00     0.059 A 
ATOM     75  C   UNL A   1      35.801  34.704  29.400  1.00  0.00     0.059 A 
ATOM     76  F   UNL A   1      38.052  34.090  29.612  1.00  0.00    -0.206 F 
ATOM     77  C   UNL A   1      34.483  34.600  29.844  1.00  0.00     0.060 A 
BRANCH  77  78
ATOM     78  S   UNL A   1      33.159  35.491  29.003  1.00  0.00     0.124 S 
ATOM     79  O   UNL A   1      32.334  35.919  30.129  1.00  0.00    -0.237 OA
ATOM     80  O   UNL A   1      33.889  36.550  28.313  1.00  0.00    -0.237 OA
ATOM     81  O   UNL A   1      32.561  34.478  28.139  1.00  0.00    -0.744 OA
ENDBRANCH  77  78
ENDBRANCH  56  70
BRANCH  57  82
ATOM     82  C   UNL A   1      44.184  28.668  35.735  1.00  0.00     0.058 A 
ATOM     83  C   UNL A   1      45.483  29.125  35.464  1.00  0.00     0.135 A 
ATOM     84  C   UNL A   1      44.047  27.594  36.631  1.00  0.00     0.135 A 
ATOM     85  F   UNL A   1      45.671  30.143  34.610  1.00  0.00    -0.206 F 
ATOM     86  C   UNL A   1      46.603  28.526  36.034  1.00  0.00     0.059 A 
ATOM     87  C   UNL A   1      45.149  27.001  37.239  1.00  0.00     0.059 A 
ATOM     88  F   UNL A   1      42.828  27.125  36.938  1.00  0.00    -0.206 F 
ATOM     89  C   UNL A   1      46.424  27.464  36.923  1.00  0.00     0.060 A 
BRANCH  89  90
ATOM     90  S   UNL A   1      47.883  26.715  37.679  1.00  0.00     0.124 S 
ATOM     91  O   UNL A   1      48.785  27.857  37.773  1.00  0.00    -0.237 OA
ATOM     92  O   UNL A   1      47.349  26.217  38.942  1.00  0.00    -0.237 OA
ATOM     93  O   UNL A   1      48.267  25.684  36.719  1.00  0.00    -0.744 OA
ENDBRANCH  89  90
ENDBRANCH  57  82
BRANCH  69  94
ATOM     94  C   UNL A   1      39.976  33.986  37.450  1.00  0.00     0.058 A 
ATOM     95  C   UNL A   1      40.614  35.233  37.512  1.00  0.00     0.135 A 
ATOM     96  C   UNL A   1      39.141  33.623  38.521  1.00  0.00     0.135 A 
ATOM     97  F   UNL A   1      41.432  35.625  36.521  1.00  0.00    -0.206 F 
ATOM     98  C   UNL A   1      40.433  36.088  38.595  1.00  0.00     0.059 A 
ATOM     99  C   UNL A   1      38.918  34.476  39.596  1.00  0.00     0.059 A 
ATOM    100  F   UNL A   1      38.499  32.443  38.509  1.00  0.00    -0.206 F 
ATOM    101  C   UNL A   1      39.571  35.706  39.625  1.00  0.00     0.060 A 
BRANCH 101 102
ATOM    102  S   UNL A   1      39.285  36.860  40.984  1.00  0.00     0.124 S 
ATOM    103  O   UNL A   1      40.649  37.184  41.390  1.00  0.00    -0.237 OA
ATOM    104  O   UNL A   1      38.547  37.934  40.327  1.00  0.00    -0.237 OA
ATOM    105  O   UNL A   1      38.516  36.074  41.944  1.00  0.00    -0.744 OA
ENDBRANCH 101 102
ENDBRANCH  69  94
ENDBRANCH  43  44
ENDBRANCH  35  38
ENDBRANCH  33  34
ENDBRANCH  32  33
ENDBRANCH  31  32
ENDBRANCH   1  31
TORSDOF 20
ENDMDL
MODEL 3
REMARK VINA RESULT:     -11.2      1.073      2.087
REMARK SMILES CC1=C(C#N)C(=O)N(C)C(=O)/C1=C\Nc1ccc(C(=O)NCCCCCCNC(=O)c2ccc(-c3c4nc(c(-c5c(F)cc(S(=O)(=O)[O-])cc5F)c5ccc([nH]5)c(-c5c(F)cc(S(=O)(=O)[O-])cc5F)c5nc(c(-c6c(F)cc(S(=O)(=O)[O-])cc6F)c6ccc3[nH]6)C=C5)C=C4)cc2)c(O)c1
REMARK SMILES IDX 24 1 23 2 22 3 21 4 19 5 20 6 18 8 15 9 16 10 99 11 17 12
REMARK SMILES IDX 97 13 14 14 13 16 1 17 2 18 3 19 12 20 6 21 10 22 7 23 8 24
REMARK SMILES IDX 11 25 9 26 4 27 5 28 98 29 25 31 26 32 27 33 28 34 29 35
REMARK SMILES IDX 30 37 31 38 32 39 96 40 33 41 95 42 34 43 35 44 36 45 89 46
REMARK SMILES IDX 37 47 94 48 88 49 90 50 38 51 93 52 87 53 86 54 39 56 73 57
REMARK SMILES IDX 52 58 72 59 53 60 56 61 71 62 91 63 54 64 55 65 70 67 92 68
REMARK SMILES IDX 57 69 40 70 41 71 50 72 42 73 43 74 49 75 51 76 44 77 45 78
REMARK SMILES IDX 46 79 47 80 48 81 74 82 75 83 84 84 76 85 77 86 83 87 85 88
REMARK SMILES IDX 78 89 79 90 80 91 81 92 82 93 58 94 59 95 68 96 60 97 61 98
REMARK SMILES IDX 67 99 69 100 62 101 63 102 64 103 65 104 66 105
REMARK H PARENT 21 7 14 15 98 30 28 36 90 55 56 66
REMARK Flexibility Score: inf
ROOT
ATOM      1  C   UNL A   1      34.944  33.138  29.177  1.00  0.00     0.002 C 
ENDROOT
BRANCH   1   2
ATOM      2  C   UNL A   1      35.061  31.620  29.013  1.00  0.00     0.021 C 
BRANCH   2   3
ATOM      3  C   UNL A   1      34.514  31.041  27.714  1.00  0.00     0.116 C 
BRANCH   3   4
ATOM      4  N   UNL A   1      33.193  31.519  27.347  1.00  0.00    -0.352 N 
ATOM      5  C   UNL A   1      32.139  30.851  26.769  1.00  0.00     0.255 C 
ATOM      6  O   UNL A   1      31.105  31.475  26.534  1.00  0.00    -0.269 OA
ATOM      7  H   UNL A   1      33.026  32.470  27.541  1.00  0.00     0.163 HD
BRANCH   5   8
ATOM      8  C   UNL A   1      32.230  29.424  26.361  1.00  0.00     0.081 A 
ATOM      9  C   UNL A   1      32.691  26.774  25.472  1.00  0.00     0.042 A 
ATOM     10  C   UNL A   1      33.022  27.861  24.662  1.00  0.00     0.027 A 
ATOM     11  C   UNL A   1      32.083  27.031  26.707  1.00  0.00     0.073 A 
ATOM     12  C   UNL A   1      32.795  29.172  25.100  1.00  0.00     0.020 A 
ATOM     13  C   UNL A   1      31.802  28.333  27.118  1.00  0.00     0.130 A 
BRANCH   9  14
ATOM     14  N   UNL A   1      32.969  25.444  25.144  1.00  0.00    -0.361 N 
ATOM     15  H   UNL A   1      32.180  24.899  24.924  1.00  0.00     0.166 HD
BRANCH  14  16
ATOM     16  C   UNL A   1      34.167  24.776  25.080  1.00  0.00     0.097 C 
ATOM     17  C   UNL A   1      36.899  23.713  25.106  1.00  0.00     0.047 C 
ATOM     18  C   UNL A   1      35.688  22.808  24.995  1.00  0.00    -0.013 C 
ATOM     19  C   UNL A   1      35.795  21.465  24.900  1.00  0.00     0.121 C 
ATOM     20  C   UNL A   1      34.366  23.441  25.007  1.00  0.00     0.060 C 
ATOM     21  C   UNL A   1      34.591  20.598  24.783  1.00  0.00     0.271 C 
ATOM     22  C   UNL A   1      33.131  22.575  24.946  1.00  0.00     0.262 C 
ATOM     23  O   UNL A   1      34.722  19.381  24.659  1.00  0.00    -0.268 OA
ATOM     24  N   UNL A   1      33.350  21.214  24.812  1.00  0.00    -0.277 N 
ATOM     25  O   UNL A   1      32.001  23.063  25.009  1.00  0.00    -0.269 OA
ATOM     26  C   UNL A   1      32.188  20.344  24.707  1.00  0.00     0.157 C 
BRANCH  19  27
ATOM     27  C   UNL A   1      37.055  20.798  24.905  1.00  0.00     0.105 C 
ATOM     28  N   UNL A   1      38.092  20.276  24.968  1.00  0.00    -0.192 NA
ENDBRANCH  19  27
ENDBRANCH  14  16
ENDBRANCH   9  14
BRANCH  13  29
ATOM     29  O   UNL A   1      31.056  28.427  28.258  1.00  0.00    -0.507 OA
ATOM     30  H   UNL A   1      30.805  27.651  28.718  1.00  0.00     0.293 HD
ENDBRANCH  13  29
ENDBRANCH   5   8
ENDBRANCH   3   4
ENDBRANCH   2   3
ENDBRANCH   1   2
BRANCH   1  31
ATOM     31  C   UNL A   1      35.650  33.752  30.389  1.00  0.00     0.002 C 
BRANCH  31  32
ATOM     32  C   UNL A   1      37.178  33.701  30.376  1.00  0.00     0.021 C 
BRANCH  32  33
ATOM     33  C   UNL A   1      37.817  32.956  31.541  1.00  0.00     0.116 C 
BRANCH  33  34
ATOM     34  N   UNL A   1      37.006  31.844  32.011  1.00  0.00    -0.352 N 
ATOM     35  C   UNL A   1      37.152  30.503  31.749  1.00  0.00     0.251 C 
ATOM     36  H   UNL A   1      36.250  32.084  32.594  1.00  0.00     0.163 HD
ATOM     37  O   UNL A   1      36.288  29.703  32.094  1.00  0.00    -0.269 OA
BRANCH  35  38
ATOM     38  C   UNL A   1      38.353  30.040  31.022  1.00  0.00     0.039 A 
ATOM     39  C   UNL A   1      38.389  30.141  29.629  1.00  0.00     0.014 A 
ATOM     40  C   UNL A   1      39.459  29.560  31.726  1.00  0.00     0.014 A 
ATOM     41  C   UNL A   1      39.569  29.833  28.947  1.00  0.00     0.010 A 
ATOM     42  C   UNL A   1      40.655  29.333  31.054  1.00  0.00     0.010 A 
ATOM     43  C   UNL A   1      40.724  29.469  29.658  1.00  0.00    -0.014 A 
BRANCH  43  44
ATOM     44  C   UNL A   1      42.023  29.223  28.979  1.00  0.00     0.031 A 
ATOM     45  C   UNL A   1      42.343  27.841  28.473  1.00  0.00     0.074 A 
ATOM     46  C   UNL A   1      42.946  30.203  28.907  1.00  0.00     0.049 A 
ATOM     47  N   UNL A   1      43.469  27.376  28.001  1.00  0.00    -0.248 NA
ATOM     48  C   UNL A   1      41.260  26.845  28.536  1.00  0.00     0.031 C 
ATOM     49  C   UNL A   1      42.763  31.575  29.387  1.00  0.00     0.029 A 
ATOM     50  N   UNL A   1      44.233  30.191  28.428  1.00  0.00    -0.354 N 
ATOM     51  C   UNL A   1      43.239  26.032  27.734  1.00  0.00     0.074 A 
ATOM     52  C   UNL A   1      41.881  25.745  28.139  1.00  0.00     0.031 C 
ATOM     53  C   UNL A   1      43.892  32.270  29.174  1.00  0.00     0.029 A 
ATOM     54  C   UNL A   1      44.898  31.384  28.595  1.00  0.00     0.049 A 
ATOM     55  H   UNL A   1      44.642  29.402  28.003  1.00  0.00     0.167 HD
ATOM     56  C   UNL A   1      44.081  25.125  27.186  1.00  0.00     0.037 A 
ATOM     57  C   UNL A   1      46.180  31.719  28.343  1.00  0.00     0.037 A 
ATOM     58  C   UNL A   1      45.424  25.428  26.766  1.00  0.00     0.049 A 
ATOM     59  C   UNL A   1      47.107  30.682  27.763  1.00  0.00     0.074 A 
ATOM     60  C   UNL A   1      46.335  24.593  26.144  1.00  0.00     0.029 A 
ATOM     61  N   UNL A   1      46.051  26.654  26.932  1.00  0.00    -0.354 N 
ATOM     62  N   UNL A   1      46.856  29.430  27.460  1.00  0.00    -0.248 NA
ATOM     63  C   UNL A   1      48.490  31.098  27.487  1.00  0.00     0.031 C 
ATOM     64  C   UNL A   1      47.536  25.292  25.999  1.00  0.00     0.029 A 
ATOM     65  C   UNL A   1      47.349  26.587  26.454  1.00  0.00     0.049 A 
ATOM     66  H   UNL A   1      45.635  27.453  27.329  1.00  0.00     0.167 HD
ATOM     67  C   UNL A   1      48.035  28.924  26.922  1.00  0.00     0.074 A 
ATOM     68  C   UNL A   1      48.999  30.003  26.938  1.00  0.00     0.031 C 
ATOM     69  C   UNL A   1      48.292  27.678  26.453  1.00  0.00     0.037 A 
BRANCH  56  70
ATOM     70  C   UNL A   1      43.587  23.713  27.013  1.00  0.00     0.058 A 
ATOM     71  C   UNL A   1      43.501  22.819  28.092  1.00  0.00     0.135 A 
ATOM     72  C   UNL A   1      43.132  23.270  25.760  1.00  0.00     0.135 A 
ATOM     73  F   UNL A   1      43.938  23.183  29.309  1.00  0.00    -0.206 F 
ATOM     74  C   UNL A   1      43.001  21.532  27.932  1.00  0.00     0.059 A 
ATOM     75  C   UNL A   1      42.595  21.999  25.584  1.00  0.00     0.059 A 
ATOM     76  F   UNL A   1      43.195  24.081  24.692  1.00  0.00    -0.206 F 
ATOM     77  C   UNL A   1      42.543  21.133  26.675  1.00  0.00     0.060 A 
BRANCH  77  78
ATOM     78  S   UNL A   1      41.868  19.470  26.493  1.00  0.00     0.124 S 
ATOM     79  O   UNL A   1      42.467  18.785  27.635  1.00  0.00    -0.237 OA
ATOM     80  O   UNL A   1      40.430  19.709  26.581  1.00  0.00    -0.237 OA
ATOM     81  O   UNL A   1      42.353  19.045  25.184  1.00  0.00    -0.744 OA
ENDBRANCH  77  78
ENDBRANCH  56  70
BRANCH  57  82
ATOM     82  C   UNL A   1      46.671  33.092  28.650  1.00  0.00     0.058 A 
ATOM     83  C   UNL A   1      47.187  33.413  29.916  1.00  0.00     0.135 A 
ATOM     84  C   UNL A   1      46.622  34.116  27.690  1.00  0.00     0.135 A 
ATOM     85  F   UNL A   1      47.250  32.474  30.872  1.00  0.00    -0.206 F 
ATOM     86  C   UNL A   1      47.612  34.701  30.227  1.00  0.00     0.059 A 
ATOM     87  C   UNL A   1      47.072  35.404  27.967  1.00  0.00     0.059 A 
ATOM     88  F   UNL A   1      46.151  33.863  26.459  1.00  0.00    -0.206 F 
ATOM     89  C   UNL A   1      47.551  35.690  29.243  1.00  0.00     0.060 A 
BRANCH  89  90
ATOM     90  S   UNL A   1      48.134  37.351  29.649  1.00  0.00     0.124 S 
ATOM     91  O   UNL A   1      49.537  37.274  29.258  1.00  0.00    -0.237 OA
ATOM     92  O   UNL A   1      47.280  38.186  28.811  1.00  0.00    -0.237 OA
ATOM     93  O   UNL A   1      47.884  37.452  31.085  1.00  0.00    -0.744 OA
ENDBRANCH  89  90
ENDBRANCH  57  82
BRANCH  69  94
ATOM     94  C   UNL A   1      49.648  27.413  25.854  1.00  0.00     0.058 A 
ATOM     95  C   UNL A   1      50.736  26.991  26.631  1.00  0.00     0.135 A 
ATOM     96  C   UNL A   1      49.823  27.482  24.461  1.00  0.00     0.135 A 
ATOM     97  F   UNL A   1      50.626  26.917  27.967  1.00  0.00    -0.206 F 
ATOM     98  C   UNL A   1      51.954  26.652  26.049  1.00  0.00     0.059 A 
ATOM     99  C   UNL A   1      51.020  27.115  23.856  1.00  0.00     0.059 A 
ATOM    100  F   UNL A   1      48.811  27.872  23.670  1.00  0.00    -0.206 F 
ATOM    101  C   UNL A   1      52.081  26.704  24.659  1.00  0.00     0.060 A 
BRANCH 101 102
ATOM    102  S   UNL A   1      53.642  26.185  23.915  1.00  0.00     0.124 S 
ATOM    103  O   UNL A   1      53.259  26.004  22.518  1.00  0.00    -0.237 OA
ATOM    104  O   UNL A   1      54.511  27.325  24.191  1.00  0.00    -0.237 OA
ATOM    105  O   UNL A   1      53.974  24.960  24.637  1.00  0.00    -0.744 OA
ENDBRANCH 101 102
ENDBRANCH  69  94
ENDBRANCH  43  44
ENDBRANCH  35  38
ENDBRANCH  33  34
ENDBRANCH  32  33
ENDBRANCH  31  32
ENDBRANCH   1  31
TORSDOF 20
ENDMDL
