MODEL 1
REMARK VINA RESULT:     -12.0      0.000      0.000
REMARK SMILES CC(C)Cc1ccc(S(=O)(=O)Nc2cnc(N3CCCC3)c(C(=O)NCCCCCCNC(=O)c3ccc(-c4c5nc(c(-c6c(F)cc(S(=O)(=O)[O-])cc6F)c6ccc([nH]6)c(-c6c(F)cc(S(=O)(=O)[O-])cc6F)c6nc(c(-c7c(F)cc(S(=O)(=O)[O-])cc7F)c7ccc4[nH]7)C=C6)C=C5)cc3)c2)cc1
REMARK SMILES IDX 27 1 26 2 25 3 23 4 24 5 22 7 13 8 14 9 101 10 15 11 16 12
REMARK SMILES IDX 12 13 9 15 10 16 11 17 8 18 5 19 6 20 103 21 7 22 102 23
REMARK SMILES IDX 4 24 2 25 1 26 3 27 17 28 18 29 21 30 19 31 20 32 28 33
REMARK SMILES IDX 29 34 30 35 31 36 32 37 33 38 34 40 35 41 36 42 100 43 37 44
REMARK SMILES IDX 99 45 38 46 39 47 40 48 93 49 41 50 98 51 92 52 94 53 42 54
REMARK SMILES IDX 97 55 91 56 90 57 43 59 77 60 56 61 76 62 57 63 60 64 75 65
REMARK SMILES IDX 95 66 58 67 59 68 74 70 96 71 61 72 44 73 45 74 54 75 46 76
REMARK SMILES IDX 47 77 53 78 55 79 48 80 49 81 50 82 51 83 52 84 78 85 79 86
REMARK SMILES IDX 88 87 80 88 81 89 87 90 89 91 82 92 83 93 84 94 85 95 86 96
REMARK SMILES IDX 62 97 63 98 72 99 64 100 65 101 71 102 73 103 66 104 67 105
REMARK SMILES IDX 68 106 69 107 70 108
REMARK H PARENT 25 6 12 14 32 39 94 58 60 69
REMARK Flexibility Score: inf
ROOT
ATOM      1  C   UNL A   1      37.390  22.201  25.424  1.00  0.00     0.021 C 
ENDROOT
BRANCH   1   2
ATOM      2  C   UNL A   1      36.522  21.022  24.989  1.00  0.00     0.116 C 
BRANCH   2   3
ATOM      3  N   UNL A   1      35.486  20.792  25.973  1.00  0.00    -0.352 N 
ATOM      4  C   UNL A   1      34.123  20.934  26.011  1.00  0.00     0.255 C 
ATOM      5  O   UNL A   1      33.662  20.826  27.148  1.00  0.00    -0.269 OA
ATOM      6  H   UNL A   1      35.849  20.451  26.822  1.00  0.00     0.163 HD
BRANCH   4   7
ATOM      7  C   UNL A   1      33.253  21.120  24.796  1.00  0.00     0.084 A 
ATOM      8  C   UNL A   1      32.487  22.566  23.016  1.00  0.00     0.068 A 
ATOM      9  C   UNL A   1      32.152  21.426  22.304  1.00  0.00     0.140 A 
ATOM     10  C   UNL A   1      32.909  22.398  24.329  1.00  0.00     0.046 A 
ATOM     11  N   UNL A   1      32.343  20.175  22.762  1.00  0.00    -0.236 NA
ATOM     12  C   UNL A   1      32.913  20.010  23.987  1.00  0.00     0.141 A 
BRANCH   8  13
ATOM     13  N   UNL A   1      32.515  23.813  22.326  1.00  0.00    -0.278 N 
ATOM     14  H   UNL A   1      33.119  23.904  21.555  1.00  0.00     0.180 HD
BRANCH  13  15
ATOM     15  S   UNL A   1      31.569  25.142  22.761  1.00  0.00     0.261 S 
ATOM     16  O   UNL A   1      30.260  24.630  23.123  1.00  0.00    -0.201 OA
ATOM     17  O   UNL A   1      31.745  26.097  21.693  1.00  0.00    -0.201 OA
BRANCH  15  18
ATOM     18  C   UNL A   1      32.240  25.889  24.238  1.00  0.00     0.087 A 
ATOM     19  C   UNL A   1      32.981  27.565  26.386  1.00  0.00    -0.048 A 
ATOM     20  C   UNL A   1      33.620  27.666  25.138  1.00  0.00     0.005 A 
ATOM     21  C   UNL A   1      32.026  26.556  26.553  1.00  0.00     0.005 A 
ATOM     22  C   UNL A   1      33.241  26.852  24.066  1.00  0.00     0.022 A 
ATOM     23  C   UNL A   1      31.692  25.691  25.503  1.00  0.00     0.022 A 
BRANCH  19  24
ATOM     24  C   UNL A   1      33.345  28.578  27.456  1.00  0.00     0.038 C 
BRANCH  24  25
ATOM     25  C   UNL A   1      32.931  30.054  27.257  1.00  0.00    -0.013 C 
ATOM     26  C   UNL A   1      34.138  30.997  27.228  1.00  0.00     0.008 C 
ATOM     27  C   UNL A   1      32.160  30.208  25.939  1.00  0.00     0.008 C 
ENDBRANCH  24  25
ENDBRANCH  19  24
ENDBRANCH  15  18
ENDBRANCH  13  15
ENDBRANCH   8  13
BRANCH  12  28
ATOM     28  N   UNL A   1      33.174  18.714  24.313  1.00  0.00    -0.356 N 
ATOM     29  C   UNL A   1      34.358  17.998  23.881  1.00  0.00     0.118 C 
ATOM     30  C   UNL A   1      32.516  18.048  25.421  1.00  0.00     0.118 C 
ATOM     31  C   UNL A   1      33.945  16.557  24.157  1.00  0.00     0.023 C 
ATOM     32  C   UNL A   1      33.206  16.678  25.487  1.00  0.00     0.023 C 
ENDBRANCH  12  28
ENDBRANCH   4   7
ENDBRANCH   2   3
ENDBRANCH   1   2
BRANCH   1  33
ATOM     33  C   UNL A   1      38.809  21.781  25.834  1.00  0.00     0.002 C 
BRANCH  33  34
ATOM     34  C   UNL A   1      39.501  22.725  26.824  1.00  0.00     0.002 C 
BRANCH  34  35
ATOM     35  C   UNL A   1      40.664  22.104  27.603  1.00  0.00     0.021 C 
BRANCH  35  36
ATOM     36  C   UNL A   1      41.866  23.025  27.780  1.00  0.00     0.116 C 
BRANCH  36  37
ATOM     37  N   UNL A   1      42.254  23.661  26.532  1.00  0.00    -0.352 N 
ATOM     38  C   UNL A   1      42.237  24.995  26.212  1.00  0.00     0.251 C 
ATOM     39  H   UNL A   1      42.570  23.054  25.823  1.00  0.00     0.163 HD
ATOM     40  O   UNL A   1      42.430  25.357  25.056  1.00  0.00    -0.269 OA
BRANCH  38  41
ATOM     41  C   UNL A   1      41.960  25.990  27.269  1.00  0.00     0.039 A 
ATOM     42  C   UNL A   1      40.747  25.925  27.958  1.00  0.00     0.014 A 
ATOM     43  C   UNL A   1      42.899  26.980  27.576  1.00  0.00     0.014 A 
ATOM     44  C   UNL A   1      40.491  26.829  28.992  1.00  0.00     0.010 A 
ATOM     45  C   UNL A   1      42.663  27.846  28.639  1.00  0.00     0.010 A 
ATOM     46  C   UNL A   1      41.456  27.783  29.351  1.00  0.00    -0.014 A 
BRANCH  46  47
ATOM     47  C   UNL A   1      41.218  28.740  30.458  1.00  0.00     0.031 A 
ATOM     48  C   UNL A   1      42.015  28.628  31.726  1.00  0.00     0.074 A 
ATOM     49  C   UNL A   1      40.230  29.648  30.354  1.00  0.00     0.049 A 
ATOM     50  N   UNL A   1      41.888  29.295  32.843  1.00  0.00    -0.248 NA
ATOM     51  C   UNL A   1      43.075  27.608  31.748  1.00  0.00     0.031 C 
ATOM     52  C   UNL A   1      39.354  29.815  29.194  1.00  0.00     0.029 A 
ATOM     53  N   UNL A   1      39.781  30.584  31.251  1.00  0.00    -0.354 N 
ATOM     54  C   UNL A   1      42.830  28.757  33.711  1.00  0.00     0.074 A 
ATOM     55  C   UNL A   1      43.499  27.689  33.001  1.00  0.00     0.031 C 
ATOM     56  C   UNL A   1      38.470  30.793  29.451  1.00  0.00     0.029 A 
ATOM     57  C   UNL A   1      38.702  31.304  30.800  1.00  0.00     0.049 A 
ATOM     58  H   UNL A   1      40.193  30.726  32.133  1.00  0.00     0.167 HD
ATOM     59  C   UNL A   1      43.119  29.129  34.981  1.00  0.00     0.037 A 
ATOM     60  C   UNL A   1      37.975  32.261  31.407  1.00  0.00     0.037 A 
ATOM     61  C   UNL A   1      42.473  30.213  35.671  1.00  0.00     0.049 A 
ATOM     62  C   UNL A   1      38.343  32.695  32.796  1.00  0.00     0.074 A 
ATOM     63  C   UNL A   1      42.742  30.715  36.933  1.00  0.00     0.029 A 
ATOM     64  N   UNL A   1      41.427  30.964  35.156  1.00  0.00    -0.354 N 
ATOM     65  N   UNL A   1      39.280  32.223  33.583  1.00  0.00    -0.248 NA
ATOM     66  C   UNL A   1      37.566  33.797  33.379  1.00  0.00     0.031 C 
ATOM     67  C   UNL A   1      41.842  31.757  37.189  1.00  0.00     0.029 A 
ATOM     68  C   UNL A   1      41.031  31.921  36.075  1.00  0.00     0.049 A 
ATOM     69  H   UNL A   1      41.025  30.837  34.266  1.00  0.00     0.167 HD
ATOM     70  C   UNL A   1      39.217  32.977  34.748  1.00  0.00     0.074 A 
ATOM     71  C   UNL A   1      38.153  33.945  34.561  1.00  0.00     0.031 C 
ATOM     72  C   UNL A   1      39.972  32.878  35.870  1.00  0.00     0.037 A 
BRANCH  59  73
ATOM     73  C   UNL A   1      44.178  28.340  35.695  1.00  0.00     0.058 A 
ATOM     74  C   UNL A   1      45.542  28.637  35.546  1.00  0.00     0.135 A 
ATOM     75  C   UNL A   1      43.829  27.254  36.512  1.00  0.00     0.135 A 
ATOM     76  F   UNL A   1      45.930  29.657  34.763  1.00  0.00    -0.206 F 
ATOM     77  C   UNL A   1      46.527  27.854  36.140  1.00  0.00     0.059 A 
ATOM     78  C   UNL A   1      44.796  26.470  37.136  1.00  0.00     0.059 A 
ATOM     79  F   UNL A   1      42.539  26.927  36.690  1.00  0.00    -0.206 F 
ATOM     80  C   UNL A   1      46.144  26.763  36.921  1.00  0.00     0.060 A 
BRANCH  80  81
ATOM     81  S   UNL A   1      47.424  25.719  37.649  1.00  0.00     0.124 S 
ATOM     82  O   UNL A   1      46.915  25.543  39.006  1.00  0.00    -0.237 OA
ATOM     83  O   UNL A   1      47.387  24.532  36.801  1.00  0.00    -0.237 OA
ATOM     84  O   UNL A   1      48.630  26.533  37.529  1.00  0.00    -0.744 OA
ENDBRANCH  80  81
ENDBRANCH  59  73
BRANCH  60  85
ATOM     85  C   UNL A   1      36.842  32.882  30.676  1.00  0.00     0.058 A 
ATOM     86  C   UNL A   1      35.531  32.426  30.866  1.00  0.00     0.135 A 
ATOM     87  C   UNL A   1      37.038  33.992  29.841  1.00  0.00     0.135 A 
ATOM     88  F   UNL A   1      35.296  31.365  31.653  1.00  0.00    -0.206 F 
ATOM     89  C   UNL A   1      34.448  33.055  30.260  1.00  0.00     0.059 A 
ATOM     90  C   UNL A   1      35.971  34.648  29.237  1.00  0.00     0.059 A 
ATOM     91  F   UNL A   1      38.276  34.474  29.644  1.00  0.00    -0.206 F 
ATOM     92  C   UNL A   1      34.677  34.172  29.455  1.00  0.00     0.060 A 
BRANCH  92  93
ATOM     93  S   UNL A   1      33.259  35.050  28.761  1.00  0.00     0.124 S 
ATOM     94  O   UNL A   1      32.626  34.006  27.966  1.00  0.00    -0.237 OA
ATOM     95  O   UNL A   1      32.536  35.466  29.961  1.00  0.00    -0.237 OA
ATOM     96  O   UNL A   1      33.876  36.137  28.006  1.00  0.00    -0.744 OA
ENDBRANCH  92  93
ENDBRANCH  60  85
BRANCH  72  97
ATOM     97  C   UNL A   1      39.692  33.850  36.978  1.00  0.00     0.058 A 
ATOM     98  C   UNL A   1      38.756  33.564  37.982  1.00  0.00     0.135 A 
ATOM     99  C   UNL A   1      40.418  35.048  37.074  1.00  0.00     0.135 A 
ATOM    100  F   UNL A   1      38.032  32.434  37.929  1.00  0.00    -0.206 F 
ATOM    101  C   UNL A   1      38.543  34.437  39.044  1.00  0.00     0.059 A 
ATOM    102  C   UNL A   1      40.233  35.927  38.136  1.00  0.00     0.059 A 
ATOM    103  F   UNL A   1      41.329  35.362  36.140  1.00  0.00    -0.206 F 
ATOM    104  C   UNL A   1      39.288  35.616  39.113  1.00  0.00     0.060 A 
BRANCH 104 105
ATOM    105  S   UNL A   1      39.044  36.719  40.522  1.00  0.00     0.124 S 
ATOM    106  O   UNL A   1      40.412  36.905  40.991  1.00  0.00    -0.237 OA
ATOM    107  O   UNL A   1      38.420  37.886  39.907  1.00  0.00    -0.237 OA
ATOM    108  O   UNL A   1      38.175  35.947  41.407  1.00  0.00    -0.744 OA
ENDBRANCH 104 105
ENDBRANCH  72  97
ENDBRANCH  46  47
ENDBRANCH  38  41
ENDBRANCH  36  37
ENDBRANCH  35  36
ENDBRANCH  34  35
ENDBRANCH  33  34
ENDBRANCH   1  33
TORSDOF 22
ENDMDL
MODEL 2
REMARK VINA RESULT:     -11.5      1.867      8.142
REMARK SMILES CC(C)Cc1ccc(S(=O)(=O)Nc2cnc(N3CCCC3)c(C(=O)NCCCCCCNC(=O)c3ccc(-c4c5nc(c(-c6c(F)cc(S(=O)(=O)[O-])cc6F)c6ccc([nH]6)c(-c6c(F)cc(S(=O)(=O)[O-])cc6F)c6nc(c(-c7c(F)cc(S(=O)(=O)[O-])cc7F)c7ccc4[nH]7)C=C6)C=C5)cc3)c2)cc1
REMARK SMILES IDX 27 1 26 2 25 3 23 4 24 5 22 7 13 8 14 9 101 10 15 11 16 12
REMARK SMILES IDX 12 13 9 15 10 16 11 17 8 18 5 19 6 20 103 21 7 22 102 23
REMARK SMILES IDX 4 24 2 25 1 26 3 27 17 28 18 29 21 30 19 31 20 32 28 33
REMARK SMILES IDX 29 34 30 35 31 36 32 37 33 38 34 40 35 41 36 42 100 43 37 44
REMARK SMILES IDX 99 45 38 46 39 47 40 48 93 49 41 50 98 51 92 52 94 53 42 54
REMARK SMILES IDX 97 55 91 56 90 57 43 59 77 60 56 61 76 62 57 63 60 64 75 65
REMARK SMILES IDX 95 66 58 67 59 68 74 70 96 71 61 72 44 73 45 74 54 75 46 76
REMARK SMILES IDX 47 77 53 78 55 79 48 80 49 81 50 82 51 83 52 84 78 85 79 86
REMARK SMILES IDX 88 87 80 88 81 89 87 90 89 91 82 92 83 93 84 94 85 95 86 96
REMARK SMILES IDX 62 97 63 98 72 99 64 100 65 101 71 102 73 103 66 104 67 105
REMARK SMILES IDX 68 106 69 107 70 108
REMARK H PARENT 25 6 12 14 32 39 94 58 60 69
REMARK Flexibility Score: inf
ROOT
ATOM      1  C   UNL A   1      37.217  20.979  25.085  1.00  0.00     0.021 C 
ENDROOT
BRANCH   1   2
ATOM      2  C   UNL A   1      36.502  22.268  25.485  1.00  0.00     0.116 C 
BRANCH   2   3
ATOM      3  N   UNL A   1      35.808  22.814  24.339  1.00  0.00    -0.352 N 
ATOM      4  C   UNL A   1      34.499  23.057  24.010  1.00  0.00     0.255 C 
ATOM      5  O   UNL A   1      34.348  23.333  22.820  1.00  0.00    -0.269 OA
ATOM      6  H   UNL A   1      36.427  23.076  23.620  1.00  0.00     0.163 HD
BRANCH   4   7
ATOM      7  C   UNL A   1      33.363  23.070  24.998  1.00  0.00     0.084 A 
ATOM      8  C   UNL A   1      31.663  24.335  26.161  1.00  0.00     0.068 A 
ATOM      9  C   UNL A   1      30.974  23.147  26.341  1.00  0.00     0.140 A 
ATOM     10  C   UNL A   1      32.935  24.259  25.608  1.00  0.00     0.046 A 
ATOM     11  N   UNL A   1      31.407  21.956  25.888  1.00  0.00    -0.236 NA
ATOM     12  C   UNL A   1      32.578  21.908  25.197  1.00  0.00     0.141 A 
BRANCH   8  13
ATOM     13  N   UNL A   1      30.980  25.560  26.420  1.00  0.00    -0.278 N 
ATOM     14  H   UNL A   1      30.005  25.530  26.544  1.00  0.00     0.180 HD
BRANCH  13  15
ATOM     15  S   UNL A   1      31.754  27.057  26.524  1.00  0.00     0.261 S 
ATOM     16  O   UNL A   1      33.181  26.799  26.479  1.00  0.00    -0.201 OA
ATOM     17  O   UNL A   1      31.135  27.726  27.642  1.00  0.00    -0.201 OA
BRANCH  15  18
ATOM     18  C   UNL A   1      31.375  28.021  25.069  1.00  0.00     0.087 A 
ATOM     19  C   UNL A   1      30.193  29.374  22.890  1.00  0.00    -0.048 A 
ATOM     20  C   UNL A   1      30.451  27.994  22.828  1.00  0.00     0.005 A 
ATOM     21  C   UNL A   1      30.615  30.068  24.030  1.00  0.00     0.005 A 
ATOM     22  C   UNL A   1      31.017  27.317  23.913  1.00  0.00     0.022 A 
ATOM     23  C   UNL A   1      31.245  29.407  25.091  1.00  0.00     0.022 A 
BRANCH  19  24
ATOM     24  C   UNL A   1      29.446  30.011  21.733  1.00  0.00     0.038 C 
BRANCH  24  25
ATOM     25  C   UNL A   1      28.146  30.794  22.025  1.00  0.00    -0.013 C 
ATOM     26  C   UNL A   1      27.528  30.412  23.374  1.00  0.00     0.008 C 
ATOM     27  C   UNL A   1      28.433  32.302  22.030  1.00  0.00     0.008 C 
ENDBRANCH  24  25
ENDBRANCH  19  24
ENDBRANCH  15  18
ENDBRANCH  13  15
ENDBRANCH   8  13
BRANCH  12  28
ATOM     28  N   UNL A   1      32.874  20.685  24.677  1.00  0.00    -0.356 N 
ATOM     29  C   UNL A   1      33.503  19.620  25.431  1.00  0.00     0.118 C 
ATOM     30  C   UNL A   1      32.254  20.191  23.462  1.00  0.00     0.118 C 
ATOM     31  C   UNL A   1      33.960  18.696  24.308  1.00  0.00     0.023 C 
ATOM     32  C   UNL A   1      32.783  18.755  23.338  1.00  0.00     0.023 C 
ENDBRANCH  12  28
ENDBRANCH   4   7
ENDBRANCH   2   3
ENDBRANCH   1   2
BRANCH   1  33
ATOM     33  C   UNL A   1      38.706  20.980  25.461  1.00  0.00     0.002 C 
BRANCH  33  34
ATOM     34  C   UNL A   1      39.167  22.198  26.269  1.00  0.00     0.002 C 
BRANCH  34  35
ATOM     35  C   UNL A   1      40.342  21.938  27.216  1.00  0.00     0.021 C 
BRANCH  35  36
ATOM     36  C   UNL A   1      41.206  23.162  27.499  1.00  0.00     0.116 C 
BRANCH  36  37
ATOM     37  N   UNL A   1      41.335  24.018  26.332  1.00  0.00    -0.352 N 
ATOM     38  C   UNL A   1      41.213  25.382  26.255  1.00  0.00     0.251 C 
ATOM     39  H   UNL A   1      41.537  23.558  25.484  1.00  0.00     0.163 HD
ATOM     40  O   UNL A   1      41.178  25.942  25.164  1.00  0.00    -0.269 OA
BRANCH  38  41
ATOM     41  C   UNL A   1      41.100  26.169  27.501  1.00  0.00     0.039 A 
ATOM     42  C   UNL A   1      42.096  27.099  27.806  1.00  0.00     0.014 A 
ATOM     43  C   UNL A   1      40.012  25.988  28.361  1.00  0.00     0.014 A 
ATOM     44  C   UNL A   1      41.980  27.885  28.955  1.00  0.00     0.010 A 
ATOM     45  C   UNL A   1      39.873  26.806  29.478  1.00  0.00     0.010 A 
ATOM     46  C   UNL A   1      40.857  27.756  29.788  1.00  0.00    -0.014 A 
BRANCH  46  47
ATOM     47  C   UNL A   1      40.700  28.592  31.002  1.00  0.00     0.031 A 
ATOM     48  C   UNL A   1      39.646  29.661  31.040  1.00  0.00     0.074 A 
ATOM     49  C   UNL A   1      41.558  28.446  32.029  1.00  0.00     0.049 A 
ATOM     50  N   UNL A   1      39.416  30.562  31.960  1.00  0.00    -0.248 NA
ATOM     51  C   UNL A   1      38.753  29.746  29.875  1.00  0.00     0.031 C 
ATOM     52  C   UNL A   1      42.655  27.480  32.083  1.00  0.00     0.029 A 
ATOM     53  N   UNL A   1      41.656  29.131  33.213  1.00  0.00    -0.354 N 
ATOM     54  C   UNL A   1      38.374  31.339  31.472  1.00  0.00     0.074 A 
ATOM     55  C   UNL A   1      38.037  30.823  30.163  1.00  0.00     0.031 C 
ATOM     56  C   UNL A   1      43.317  27.634  33.241  1.00  0.00     0.029 A 
ATOM     57  C   UNL A   1      42.707  28.725  33.997  1.00  0.00     0.049 A 
ATOM     58  H   UNL A   1      41.031  29.844  33.476  1.00  0.00     0.167 HD
ATOM     59  C   UNL A   1      37.745  32.381  32.067  1.00  0.00     0.037 A 
ATOM     60  C   UNL A   1      43.139  29.186  35.187  1.00  0.00     0.037 A 
ATOM     61  C   UNL A   1      38.062  32.870  33.382  1.00  0.00     0.049 A 
ATOM     62  C   UNL A   1      42.398  30.308  35.855  1.00  0.00     0.074 A 
ATOM     63  C   UNL A   1      37.439  33.874  34.103  1.00  0.00     0.029 A 
ATOM     64  N   UNL A   1      39.094  32.390  34.174  1.00  0.00    -0.354 N 
ATOM     65  N   UNL A   1      41.371  30.992  35.411  1.00  0.00    -0.248 NA
ATOM     66  C   UNL A   1      42.865  30.717  37.186  1.00  0.00     0.031 C 
ATOM     67  C   UNL A   1      38.109  34.014  35.325  1.00  0.00     0.029 A 
ATOM     68  C   UNL A   1      39.133  33.080  35.374  1.00  0.00     0.049 A 
ATOM     69  H   UNL A   1      39.709  31.663  33.921  1.00  0.00     0.167 HD
ATOM     70  C   UNL A   1      41.057  31.902  36.413  1.00  0.00     0.074 A 
ATOM     71  C   UNL A   1      42.000  31.677  37.491  1.00  0.00     0.031 C 
ATOM     72  C   UNL A   1      40.077  32.839  36.437  1.00  0.00     0.037 A 
BRANCH  59  73
ATOM     73  C   UNL A   1      36.658  33.057  31.282  1.00  0.00     0.058 A 
ATOM     74  C   UNL A   1      35.302  32.867  31.590  1.00  0.00     0.135 A 
ATOM     75  C   UNL A   1      36.974  33.878  30.188  1.00  0.00     0.135 A 
ATOM     76  F   UNL A   1      34.946  32.079  32.617  1.00  0.00    -0.206 F 
ATOM     77  C   UNL A   1      34.293  33.426  30.811  1.00  0.00     0.059 A 
ATOM     78  C   UNL A   1      35.982  34.466  29.408  1.00  0.00     0.059 A 
ATOM     79  F   UNL A   1      38.255  34.094  29.851  1.00  0.00    -0.206 F 
ATOM     80  C   UNL A   1      34.644  34.212  29.713  1.00  0.00     0.060 A 
BRANCH  80  81
ATOM     81  S   UNL A   1      33.334  34.893  28.674  1.00  0.00     0.124 S 
ATOM     82  O   UNL A   1      32.351  35.294  29.676  1.00  0.00    -0.237 OA
ATOM     83  O   UNL A   1      34.011  35.984  27.981  1.00  0.00    -0.237 OA
ATOM     84  O   UNL A   1      32.951  33.764  27.832  1.00  0.00    -0.744 OA
ENDBRANCH  80  81
ENDBRANCH  59  73
BRANCH  60  85
ATOM     85  C   UNL A   1      44.323  28.553  35.821  1.00  0.00     0.058 A 
ATOM     86  C   UNL A   1      44.171  27.489  36.720  1.00  0.00     0.135 A 
ATOM     87  C   UNL A   1      45.626  28.945  35.479  1.00  0.00     0.135 A 
ATOM     88  F   UNL A   1      42.943  27.083  37.078  1.00  0.00    -0.206 F 
ATOM     89  C   UNL A   1      45.271  26.825  37.252  1.00  0.00     0.059 A 
ATOM     90  C   UNL A   1      46.741  28.287  35.986  1.00  0.00     0.059 A 
ATOM     91  F   UNL A   1      45.819  29.949  34.609  1.00  0.00    -0.206 F 
ATOM     92  C   UNL A   1      46.554  27.225  36.871  1.00  0.00     0.060 A 
BRANCH  92  93
ATOM     93  S   UNL A   1      47.973  26.288  37.479  1.00  0.00     0.124 S 
ATOM     94  O   UNL A   1      48.369  25.547  36.289  1.00  0.00    -0.237 OA
ATOM     95  O   UNL A   1      48.885  27.348  37.905  1.00  0.00    -0.237 OA
ATOM     96  O   UNL A   1      47.406  25.491  38.564  1.00  0.00    -0.744 OA
ENDBRANCH  92  93
ENDBRANCH  60  85
BRANCH  72  97
ATOM     97  C   UNL A   1      39.957  33.680  37.674  1.00  0.00     0.058 A 
ATOM     98  C   UNL A   1      40.698  34.860  37.830  1.00  0.00     0.135 A 
ATOM     99  C   UNL A   1      39.041  33.338  38.681  1.00  0.00     0.135 A 
ATOM    100  F   UNL A   1      41.591  35.226  36.896  1.00  0.00    -0.206 F 
ATOM    101  C   UNL A   1      40.539  35.673  38.947  1.00  0.00     0.059 A 
ATOM    102  C   UNL A   1      38.854  34.144  39.799  1.00  0.00     0.059 A 
ATOM    103  F   UNL A   1      38.305  32.220  38.573  1.00  0.00    -0.206 F 
ATOM    104  C   UNL A   1      39.613  35.307  39.926  1.00  0.00     0.060 A 
BRANCH 104 105
ATOM    105  S   UNL A   1      39.374  36.394  41.348  1.00  0.00     0.124 S 
ATOM    106  O   UNL A   1      38.129  35.881  41.906  1.00  0.00    -0.237 OA
ATOM    107  O   UNL A   1      40.575  36.147  42.142  1.00  0.00    -0.237 OA
ATOM    108  O   UNL A   1      39.294  37.723  40.747  1.00  0.00    -0.744 OA
ENDBRANCH 104 105
ENDBRANCH  72  97
ENDBRANCH  46  47
ENDBRANCH  38  41
ENDBRANCH  36  37
ENDBRANCH  35  36
ENDBRANCH  34  35
ENDBRANCH  33  34
ENDBRANCH   1  33
TORSDOF 22
ENDMDL
MODEL 3
REMARK VINA RESULT:     -11.4      1.834      2.610
REMARK SMILES CC(C)Cc1ccc(S(=O)(=O)Nc2cnc(N3CCCC3)c(C(=O)NCCCCCCNC(=O)c3ccc(-c4c5nc(c(-c6c(F)cc(S(=O)(=O)[O-])cc6F)c6ccc([nH]6)c(-c6c(F)cc(S(=O)(=O)[O-])cc6F)c6nc(c(-c7c(F)cc(S(=O)(=O)[O-])cc7F)c7ccc4[nH]7)C=C6)C=C5)cc3)c2)cc1
REMARK SMILES IDX 27 1 26 2 25 3 23 4 24 5 22 7 13 8 14 9 101 10 15 11 16 12
REMARK SMILES IDX 12 13 9 15 10 16 11 17 8 18 5 19 6 20 103 21 7 22 102 23
REMARK SMILES IDX 4 24 2 25 1 26 3 27 17 28 18 29 21 30 19 31 20 32 28 33
REMARK SMILES IDX 29 34 30 35 31 36 32 37 33 38 34 40 35 41 36 42 100 43 37 44
REMARK SMILES IDX 99 45 38 46 39 47 40 48 93 49 41 50 98 51 92 52 94 53 42 54
REMARK SMILES IDX 97 55 91 56 90 57 43 59 77 60 56 61 76 62 57 63 60 64 75 65
REMARK SMILES IDX 95 66 58 67 59 68 74 70 96 71 61 72 44 73 45 74 54 75 46 76
REMARK SMILES IDX 47 77 53 78 55 79 48 80 49 81 50 82 51 83 52 84 78 85 79 86
REMARK SMILES IDX 88 87 80 88 81 89 87 90 89 91 82 92 83 93 84 94 85 95 86 96
REMARK SMILES IDX 62 97 63 98 72 99 64 100 65 101 71 102 73 103 66 104 67 105
REMARK SMILES IDX 68 106 69 107 70 108
REMARK H PARENT 25 6 12 14 32 39 94 58 60 69
REMARK Flexibility Score: inf
ROOT
ATOM      1  C   UNL A   1      38.356  20.854  25.310  1.00  0.00     0.021 C 
ENDROOT
BRANCH   1   2
ATOM      2  C   UNL A   1      36.842  21.048  25.367  1.00  0.00     0.116 C 
BRANCH   2   3
ATOM      3  N   UNL A   1      36.422  21.913  24.286  1.00  0.00    -0.352 N 
ATOM      4  C   UNL A   1      35.295  22.636  23.992  1.00  0.00     0.255 C 
ATOM      5  O   UNL A   1      35.287  23.062  22.837  1.00  0.00    -0.269 OA
ATOM      6  H   UNL A   1      37.115  22.006  23.594  1.00  0.00     0.163 HD
BRANCH   4   7
ATOM      7  C   UNL A   1      34.208  22.957  24.983  1.00  0.00     0.084 A 
ATOM      8  C   UNL A   1      32.944  24.636  26.179  1.00  0.00     0.068 A 
ATOM      9  C   UNL A   1      31.939  23.696  26.334  1.00  0.00     0.140 A 
ATOM     10  C   UNL A   1      34.141  24.205  25.621  1.00  0.00     0.046 A 
ATOM     11  N   UNL A   1      32.009  22.441  25.854  1.00  0.00    -0.236 NA
ATOM     12  C   UNL A   1      33.119  22.070  25.158  1.00  0.00     0.141 A 
BRANCH   8  13
ATOM     13  N   UNL A   1      32.646  26.000  26.467  1.00  0.00    -0.278 N 
ATOM     14  H   UNL A   1      32.108  26.199  27.266  1.00  0.00     0.180 HD
BRANCH  13  15
ATOM     15  S   UNL A   1      33.165  27.291  25.510  1.00  0.00     0.261 S 
ATOM     16  O   UNL A   1      34.029  26.739  24.485  1.00  0.00    -0.201 OA
ATOM     17  O   UNL A   1      33.629  28.290  26.443  1.00  0.00    -0.201 OA
BRANCH  15  18
ATOM     18  C   UNL A   1      31.763  27.995  24.655  1.00  0.00     0.087 A 
ATOM     19  C   UNL A   1      29.981  29.423  22.994  1.00  0.00    -0.048 A 
ATOM     20  C   UNL A   1      30.544  30.024  24.133  1.00  0.00     0.005 A 
ATOM     21  C   UNL A   1      30.267  28.074  22.757  1.00  0.00     0.005 A 
ATOM     22  C   UNL A   1      31.443  29.327  24.946  1.00  0.00     0.022 A 
ATOM     23  C   UNL A   1      31.112  27.350  23.607  1.00  0.00     0.022 A 
BRANCH  19  24
ATOM     24  C   UNL A   1      29.129  30.286  22.081  1.00  0.00     0.038 C 
BRANCH  24  25
ATOM     25  C   UNL A   1      28.567  31.618  22.626  1.00  0.00    -0.013 C 
ATOM     26  C   UNL A   1      28.091  32.550  21.507  1.00  0.00     0.008 C 
ATOM     27  C   UNL A   1      27.386  31.342  23.566  1.00  0.00     0.008 C 
ENDBRANCH  24  25
ENDBRANCH  19  24
ENDBRANCH  15  18
ENDBRANCH  13  15
ENDBRANCH   8  13
BRANCH  12  28
ATOM     28  N   UNL A   1      33.048  20.826  24.610  1.00  0.00    -0.356 N 
ATOM     29  C   UNL A   1      33.202  19.601  25.370  1.00  0.00     0.118 C 
ATOM     30  C   UNL A   1      32.437  20.584  23.317  1.00  0.00     0.118 C 
ATOM     31  C   UNL A   1      33.448  18.592  24.253  1.00  0.00     0.023 C 
ATOM     32  C   UNL A   1      32.471  19.055  23.176  1.00  0.00     0.023 C 
ENDBRANCH  12  28
ENDBRANCH   4   7
ENDBRANCH   2   3
ENDBRANCH   1   2
BRANCH   1  33
ATOM     33  C   UNL A   1      39.125  21.904  26.126  1.00  0.00     0.002 C 
BRANCH  33  34
ATOM     34  C   UNL A   1      40.511  21.460  26.606  1.00  0.00     0.002 C 
BRANCH  34  35
ATOM     35  C   UNL A   1      40.980  22.105  27.912  1.00  0.00     0.021 C 
BRANCH  35  36
ATOM     36  C   UNL A   1      42.230  22.968  27.776  1.00  0.00     0.116 C 
BRANCH  36  37
ATOM     37  N   UNL A   1      42.302  23.619  26.479  1.00  0.00    -0.352 N 
ATOM     38  C   UNL A   1      42.061  24.934  26.169  1.00  0.00     0.251 C 
ATOM     39  H   UNL A   1      42.558  23.041  25.723  1.00  0.00     0.163 HD
ATOM     40  O   UNL A   1      41.995  25.293  24.997  1.00  0.00    -0.269 OA
BRANCH  38  41
ATOM     41  C   UNL A   1      41.859  25.910  27.260  1.00  0.00     0.039 A 
ATOM     42  C   UNL A   1      40.747  25.772  28.093  1.00  0.00     0.014 A 
ATOM     43  C   UNL A   1      42.767  26.954  27.457  1.00  0.00     0.014 A 
ATOM     44  C   UNL A   1      40.567  26.658  29.158  1.00  0.00     0.010 A 
ATOM     45  C   UNL A   1      42.614  27.805  28.547  1.00  0.00     0.010 A 
ATOM     46  C   UNL A   1      41.511  27.668  29.403  1.00  0.00    -0.014 A 
BRANCH  46  47
ATOM     47  C   UNL A   1      41.355  28.608  30.538  1.00  0.00     0.031 A 
ATOM     48  C   UNL A   1      42.213  28.451  31.761  1.00  0.00     0.074 A 
ATOM     49  C   UNL A   1      40.386  29.542  30.504  1.00  0.00     0.049 A 
ATOM     50  N   UNL A   1      42.162  29.099  32.895  1.00  0.00    -0.248 NA
ATOM     51  C   UNL A   1      43.246  27.406  31.709  1.00  0.00     0.031 C 
ATOM     52  C   UNL A   1      39.456  29.754  29.394  1.00  0.00     0.029 A 
ATOM     53  N   UNL A   1      40.008  30.471  31.440  1.00  0.00    -0.354 N 
ATOM     54  C   UNL A   1      43.132  28.521  33.703  1.00  0.00     0.074 A 
ATOM     55  C   UNL A   1      43.736  27.451  32.939  1.00  0.00     0.031 C 
ATOM     56  C   UNL A   1      38.612  30.749  29.715  1.00  0.00     0.029 A 
ATOM     57  C   UNL A   1      38.927  31.227  31.059  1.00  0.00     0.049 A 
ATOM     58  H   UNL A   1      40.469  30.585  32.302  1.00  0.00     0.167 HD
ATOM     59  C   UNL A   1      43.496  28.860  34.963  1.00  0.00     0.037 A 
ATOM     60  C   UNL A   1      38.257  32.189  31.722  1.00  0.00     0.037 A 
ATOM     61  C   UNL A   1      42.915  29.945  35.706  1.00  0.00     0.049 A 
ATOM     62  C   UNL A   1      38.708  32.586  33.098  1.00  0.00     0.074 A 
ATOM     63  C   UNL A   1      43.262  30.415  36.962  1.00  0.00     0.029 A 
ATOM     64  N   UNL A   1      41.864  30.732  35.260  1.00  0.00    -0.354 N 
ATOM     65  N   UNL A   1      39.672  32.074  33.825  1.00  0.00    -0.248 NA
ATOM     66  C   UNL A   1      37.990  33.695  33.740  1.00  0.00     0.031 C 
ATOM     67  C   UNL A   1      42.403  31.474  37.283  1.00  0.00     0.029 A 
ATOM     68  C   UNL A   1      41.540  31.680  36.217  1.00  0.00     0.049 A 
ATOM     69  H   UNL A   1      41.413  30.632  34.390  1.00  0.00     0.167 HD
ATOM     70  C   UNL A   1      39.688  32.807  35.006  1.00  0.00     0.074 A 
ATOM     71  C   UNL A   1      38.641  33.804  34.892  1.00  0.00     0.031 C 
ATOM     72  C   UNL A   1      40.497  32.667  36.085  1.00  0.00     0.037 A 
BRANCH  59  73
ATOM     73  C   UNL A   1      44.571  28.030  35.606  1.00  0.00     0.058 A 
ATOM     74  C   UNL A   1      44.262  26.902  36.383  1.00  0.00     0.135 A 
ATOM     75  C   UNL A   1      45.922  28.386  35.472  1.00  0.00     0.135 A 
ATOM     76  F   UNL A   1      42.984  26.529  36.555  1.00  0.00    -0.206 F 
ATOM     77  C   UNL A   1      45.251  26.184  37.047  1.00  0.00     0.059 A 
ATOM     78  C   UNL A   1      46.931  27.668  36.109  1.00  0.00     0.059 A 
ATOM     79  F   UNL A   1      46.272  29.455  34.740  1.00  0.00    -0.206 F 
ATOM     80  C   UNL A   1      46.582  26.584  36.916  1.00  0.00     0.060 A 
BRANCH  80  81
ATOM     81  S   UNL A   1      47.857  25.681  37.820  1.00  0.00     0.124 S 
ATOM     82  O   UNL A   1      48.396  24.819  36.772  1.00  0.00    -0.237 OA
ATOM     83  O   UNL A   1      48.741  26.749  38.276  1.00  0.00    -0.237 OA
ATOM     84  O   UNL A   1      47.107  25.001  38.871  1.00  0.00    -0.744 OA
ENDBRANCH  80  81
ENDBRANCH  59  73
BRANCH  60  85
ATOM     85  C   UNL A   1      37.104  32.852  31.063  1.00  0.00     0.058 A 
ATOM     86  C   UNL A   1      37.305  33.801  30.051  1.00  0.00     0.135 A 
ATOM     87  C   UNL A   1      35.784  32.490  31.372  1.00  0.00     0.135 A 
ATOM     88  F   UNL A   1      38.551  34.180  29.725  1.00  0.00    -0.206 F 
ATOM     89  C   UNL A   1      36.238  34.364  29.360  1.00  0.00     0.059 A 
ATOM     90  C   UNL A   1      34.701  33.027  30.685  1.00  0.00     0.059 A 
ATOM     91  F   UNL A   1      35.544  31.572  32.322  1.00  0.00    -0.206 F 
ATOM     92  C   UNL A   1      34.938  33.963  29.678  1.00  0.00     0.060 A 
BRANCH  92  93
ATOM     93  S   UNL A   1      33.565  34.615  28.702  1.00  0.00     0.124 S 
ATOM     94  O   UNL A   1      33.284  33.499  27.807  1.00  0.00    -0.237 OA
ATOM     95  O   UNL A   1      32.557  34.882  29.725  1.00  0.00    -0.237 OA
ATOM     96  O   UNL A   1      34.136  35.803  28.074  1.00  0.00    -0.744 OA
ENDBRANCH  92  93
ENDBRANCH  60  85
BRANCH  72  97
ATOM     97  C   UNL A   1      40.300  33.623  37.224  1.00  0.00     0.058 A 
ATOM     98  C   UNL A   1      39.359  33.373  38.233  1.00  0.00     0.135 A 
ATOM     99  C   UNL A   1      41.109  34.764  37.343  1.00  0.00     0.135 A 
ATOM    100  F   UNL A   1      38.558  32.298  38.159  1.00  0.00    -0.206 F 
ATOM    101  C   UNL A   1      39.221  34.227  39.322  1.00  0.00     0.059 A 
ATOM    102  C   UNL A   1      41.000  35.623  38.432  1.00  0.00     0.059 A 
ATOM    103  F   UNL A   1      42.028  35.041  36.405  1.00  0.00    -0.206 F 
ATOM    104  C   UNL A   1      40.048  35.349  39.414  1.00  0.00     0.060 A 
BRANCH 104 105
ATOM    105  S   UNL A   1      39.900  36.424  40.857  1.00  0.00     0.124 S 
ATOM    106  O   UNL A   1      40.134  35.486  41.949  1.00  0.00    -0.237 OA
ATOM    107  O   UNL A   1      40.954  37.409  40.630  1.00  0.00    -0.237 OA
ATOM    108  O   UNL A   1      38.538  36.941  40.753  1.00  0.00    -0.744 OA
ENDBRANCH 104 105
ENDBRANCH  72  97
ENDBRANCH  46  47
ENDBRANCH  38  41
ENDBRANCH  36  37
ENDBRANCH  35  36
ENDBRANCH  34  35
ENDBRANCH  33  34
ENDBRANCH   1  33
TORSDOF 22
ENDMDL
