MODEL 1
REMARK VINA RESULT:     -11.7      0.000      0.000
REMARK SMILES C[C@@H](C(=O)NCCCCCCNC(=O)c1ccc(-c2c3nc(c(-c4c(F)cc(S(=O)(=O)[O-])cc4F)c4ccc([nH]4)c(-c4c(F)cc(S(=O)(=O)[O-])cc4F)c4nc(c(-c5c(F)cc(S(=O)(=O)[O-])cc5F)c5ccc2[nH]5)C=C4)C=C3)cc1)c1ccc(N[C@H]2CCC[C@@H]2O)cc1F
REMARK SMILES IDX 8 1 7 2 6 3 5 4 3 5 4 6 2 8 1 9 81 10 82 11 93 12 83 13
REMARK SMILES IDX 92 14 94 15 84 16 85 17 86 19 87 20 90 21 88 22 89 23 91 24
REMARK SMILES IDX 9 26 10 27 11 28 12 29 13 30 14 32 15 33 16 34 80 35 17 36
REMARK SMILES IDX 79 37 18 38 19 39 20 40 73 41 21 42 78 43 72 44 74 45 22 46
REMARK SMILES IDX 77 47 71 48 70 49 23 51 57 52 36 53 56 54 37 55 40 56 55 57
REMARK SMILES IDX 75 58 38 59 39 60 54 62 76 63 41 64 24 65 25 66 34 67 26 68
REMARK SMILES IDX 27 69 33 70 35 71 28 72 29 73 30 74 31 75 32 76 58 77 59 78
REMARK SMILES IDX 68 79 60 80 61 81 67 82 69 83 62 84 63 85 64 86 65 87 66 88
REMARK SMILES IDX 42 89 43 90 52 91 44 92 45 93 51 94 53 95 46 96 47 97 48 98
REMARK SMILES IDX 49 99 50 100
REMARK H PARENT 5 7 85 18 91 25 12 31 74 50 40 61
REMARK Flexibility Score: inf
ROOT
ATOM      1  C   UNL A   1      39.313  21.911  26.107  1.00  0.00     0.002 C 
ENDROOT
BRANCH   1   2
ATOM      2  C   UNL A   1      38.864  23.315  26.533  1.00  0.00     0.021 C 
BRANCH   2   3
ATOM      3  C   UNL A   1      37.489  23.718  25.997  1.00  0.00     0.116 C 
BRANCH   3   4
ATOM      4  N   UNL A   1      37.418  23.508  24.566  1.00  0.00    -0.356 N 
ATOM      5  C   UNL A   1      36.355  23.179  23.778  1.00  0.00     0.227 C 
ATOM      6  O   UNL A   1      36.590  23.022  22.579  1.00  0.00    -0.274 OA
ATOM      7  H   UNL A   1      38.271  23.622  24.088  1.00  0.00     0.163 HD
BRANCH   5   8
ATOM      8  C   UNL A   1      34.945  23.111  24.391  1.00  0.00     0.108 C 
ATOM      9  C   UNL A   1      34.149  21.865  23.998  1.00  0.00     0.023 C 
BRANCH   8  10
ATOM     10  C   UNL A   1      34.119  24.346  24.081  1.00  0.00     0.000 A 
ATOM     11  C   UNL A   1      33.360  24.408  22.910  1.00  0.00     0.009 A 
ATOM     12  C   UNL A   1      34.118  25.461  24.920  1.00  0.00     0.129 A 
ATOM     13  C   UNL A   1      32.629  25.561  22.602  1.00  0.00     0.026 A 
ATOM     14  C   UNL A   1      33.370  26.596  24.619  1.00  0.00     0.065 A 
ATOM     15  F   UNL A   1      34.867  25.471  26.033  1.00  0.00    -0.207 F 
ATOM     16  C   UNL A   1      32.597  26.668  23.455  1.00  0.00     0.037 A 
BRANCH  16  17
ATOM     17  N   UNL A   1      31.908  27.835  23.196  1.00  0.00    -0.380 N 
ATOM     18  H   UNL A   1      32.350  28.661  23.497  1.00  0.00     0.160 HD
BRANCH  17  19
ATOM     19  C   UNL A   1      30.621  28.016  22.543  1.00  0.00     0.107 C 
ATOM     20  C   UNL A   1      29.467  27.268  23.220  1.00  0.00     0.027 C 
ATOM     21  C   UNL A   1      30.167  29.483  22.392  1.00  0.00     0.136 C 
ATOM     22  C   UNL A   1      28.309  28.262  23.294  1.00  0.00     0.005 C 
ATOM     23  C   UNL A   1      28.651  29.359  22.296  1.00  0.00     0.034 C 
BRANCH  21  24
ATOM     24  O   UNL A   1      30.692  30.124  21.235  1.00  0.00    -0.391 OA
ATOM     25  H   UNL A   1      31.565  30.493  21.437  1.00  0.00     0.211 HD
ENDBRANCH  21  24
ENDBRANCH  17  19
ENDBRANCH  16  17
ENDBRANCH   8  10
ENDBRANCH   5   8
ENDBRANCH   3   4
ENDBRANCH   2   3
ENDBRANCH   1   2
BRANCH   1  26
ATOM     26  C   UNL A   1      40.782  21.588  26.392  1.00  0.00     0.002 C 
BRANCH  26  27
ATOM     27  C   UNL A   1      41.311  22.117  27.727  1.00  0.00     0.021 C 
BRANCH  27  28
ATOM     28  C   UNL A   1      42.534  23.018  27.610  1.00  0.00     0.116 C 
BRANCH  28  29
ATOM     29  N   UNL A   1      42.530  23.780  26.373  1.00  0.00    -0.352 N 
ATOM     30  C   UNL A   1      42.170  25.085  26.165  1.00  0.00     0.251 C 
ATOM     31  H   UNL A   1      42.829  23.290  25.573  1.00  0.00     0.163 HD
ATOM     32  O   UNL A   1      42.032  25.503  25.016  1.00  0.00    -0.269 OA
BRANCH  30  33
ATOM     33  C   UNL A   1      41.933  25.984  27.315  1.00  0.00     0.039 A 
ATOM     34  C   UNL A   1      40.788  25.797  28.094  1.00  0.00     0.014 A 
ATOM     35  C   UNL A   1      42.817  27.027  27.608  1.00  0.00     0.014 A 
ATOM     36  C   UNL A   1      40.543  26.641  29.178  1.00  0.00     0.010 A 
ATOM     37  C   UNL A   1      42.610  27.820  28.733  1.00  0.00     0.010 A 
ATOM     38  C   UNL A   1      41.458  27.651  29.515  1.00  0.00    -0.014 A 
BRANCH  38  39
ATOM     39  C   UNL A   1      41.198  28.569  30.654  1.00  0.00     0.031 A 
ATOM     40  C   UNL A   1      42.049  28.486  31.894  1.00  0.00     0.074 A 
ATOM     41  C   UNL A   1      40.179  29.447  30.588  1.00  0.00     0.049 A 
ATOM     42  N   UNL A   1      41.967  29.179  33.000  1.00  0.00    -0.248 NA
ATOM     43  C   UNL A   1      43.116  27.471  31.904  1.00  0.00     0.031 C 
ATOM     44  C   UNL A   1      39.254  29.588  29.460  1.00  0.00     0.029 A 
ATOM     45  N   UNL A   1      39.746  30.386  31.491  1.00  0.00    -0.354 N 
ATOM     46  C   UNL A   1      42.951  28.670  33.842  1.00  0.00     0.074 A 
ATOM     47  C   UNL A   1      43.583  27.576  33.139  1.00  0.00     0.031 C 
ATOM     48  C   UNL A   1      38.387  30.579  29.726  1.00  0.00     0.029 A 
ATOM     49  C   UNL A   1      38.671  31.120  31.051  1.00  0.00     0.049 A 
ATOM     50  H   UNL A   1      40.167  30.521  32.370  1.00  0.00     0.167 HD
ATOM     51  C   UNL A   1      43.313  29.092  35.077  1.00  0.00     0.037 A 
ATOM     52  C   UNL A   1      37.996  32.122  31.647  1.00  0.00     0.037 A 
ATOM     53  C   UNL A   1      42.706  30.208  35.754  1.00  0.00     0.049 A 
ATOM     54  C   UNL A   1      38.433  32.591  33.009  1.00  0.00     0.074 A 
ATOM     55  C   UNL A   1      43.045  30.762  36.975  1.00  0.00     0.029 A 
ATOM     56  N   UNL A   1      41.637  30.944  35.264  1.00  0.00    -0.354 N 
ATOM     57  N   UNL A   1      39.410  32.143  33.761  1.00  0.00    -0.248 NA
ATOM     58  C   UNL A   1      37.684  33.709  33.598  1.00  0.00     0.031 C 
ATOM     59  C   UNL A   1      42.154  31.806  37.244  1.00  0.00     0.029 A 
ATOM     60  C   UNL A   1      41.292  31.936  36.167  1.00  0.00     0.049 A 
ATOM     61  H   UNL A   1      41.189  30.785  34.402  1.00  0.00     0.167 HD
ATOM     62  C   UNL A   1      39.417  32.948  34.896  1.00  0.00     0.074 A 
ATOM     63  C   UNL A   1      38.349  33.914  34.726  1.00  0.00     0.031 C 
ATOM     64  C   UNL A   1      40.234  32.897  35.976  1.00  0.00     0.037 A 
BRANCH  51  65
ATOM     65  C   UNL A   1      44.416  28.344  35.774  1.00  0.00     0.058 A 
ATOM     66  C   UNL A   1      44.151  27.268  36.638  1.00  0.00     0.135 A 
ATOM     67  C   UNL A   1      45.760  28.691  35.559  1.00  0.00     0.135 A 
ATOM     68  F   UNL A   1      42.885  26.902  36.893  1.00  0.00    -0.206 F 
ATOM     69  C   UNL A   1      45.175  26.588  37.290  1.00  0.00     0.059 A 
ATOM     70  C   UNL A   1      46.802  28.005  36.177  1.00  0.00     0.059 A 
ATOM     71  F   UNL A   1      46.072  29.710  34.743  1.00  0.00    -0.206 F 
ATOM     72  C   UNL A   1      46.497  26.965  37.056  1.00  0.00     0.060 A 
BRANCH  72  73
ATOM     73  S   UNL A   1      47.815  26.076  37.912  1.00  0.00     0.124 S 
ATOM     74  O   UNL A   1      47.443  26.280  39.308  1.00  0.00    -0.237 OA
ATOM     75  O   UNL A   1      47.653  24.716  37.406  1.00  0.00    -0.237 OA
ATOM     76  O   UNL A   1      49.027  26.764  37.477  1.00  0.00    -0.744 OA
ENDBRANCH  72  73
ENDBRANCH  51  65
BRANCH  52  77
ATOM     77  C   UNL A   1      36.865  32.781  30.940  1.00  0.00     0.058 A 
ATOM     78  C   UNL A   1      37.101  33.673  29.884  1.00  0.00     0.135 A 
ATOM     79  C   UNL A   1      35.532  32.528  31.298  1.00  0.00     0.135 A 
ATOM     80  F   UNL A   1      38.358  33.950  29.509  1.00  0.00    -0.206 F 
ATOM     81  C   UNL A   1      36.057  34.306  29.218  1.00  0.00     0.059 A 
ATOM     82  C   UNL A   1      34.470  33.129  30.630  1.00  0.00     0.059 A 
ATOM     83  F   UNL A   1      35.252  31.668  32.289  1.00  0.00    -0.206 F 
ATOM     84  C   UNL A   1      34.743  34.027  29.597  1.00  0.00     0.060 A 
BRANCH  84  85
ATOM     85  S   UNL A   1      33.394  34.820  28.696  1.00  0.00     0.124 S 
ATOM     86  O   UNL A   1      33.007  33.771  27.761  1.00  0.00    -0.237 OA
ATOM     87  O   UNL A   1      32.441  35.108  29.764  1.00  0.00    -0.237 OA
ATOM     88  O   UNL A   1      34.032  35.992  28.103  1.00  0.00    -0.744 OA
ENDBRANCH  84  85
ENDBRANCH  52  77
BRANCH  64  89
ATOM     89  C   UNL A   1      40.040  33.944  37.039  1.00  0.00     0.058 A 
ATOM     90  C   UNL A   1      40.587  35.230  36.920  1.00  0.00     0.135 A 
ATOM     91  C   UNL A   1      39.264  33.662  38.174  1.00  0.00     0.135 A 
ATOM     92  F   UNL A   1      41.341  35.550  35.857  1.00  0.00    -0.206 F 
ATOM     93  C   UNL A   1      40.396  36.193  37.907  1.00  0.00     0.059 A 
ATOM     94  C   UNL A   1      39.036  34.618  39.158  1.00  0.00     0.059 A 
ATOM     95  F   UNL A   1      38.707  32.449  38.329  1.00  0.00    -0.206 F 
ATOM     96  C   UNL A   1      39.619  35.876  39.023  1.00  0.00     0.060 A 
BRANCH  96  97
ATOM     97  S   UNL A   1      39.363  37.138  40.289  1.00  0.00     0.124 S 
ATOM     98  O   UNL A   1      38.835  38.244  39.496  1.00  0.00    -0.237 OA
ATOM     99  O   UNL A   1      38.411  36.493  41.187  1.00  0.00    -0.237 OA
ATOM    100  O   UNL A   1      40.698  37.341  40.840  1.00  0.00    -0.744 OA
ENDBRANCH  96  97
ENDBRANCH  64  89
ENDBRANCH  38  39
ENDBRANCH  30  33
ENDBRANCH  28  29
ENDBRANCH  27  28
ENDBRANCH  26  27
ENDBRANCH   1  26
TORSDOF 20
ENDMDL
MODEL 2
REMARK VINA RESULT:     -11.4      1.184      2.042
REMARK SMILES C[C@@H](C(=O)NCCCCCCNC(=O)c1ccc(-c2c3nc(c(-c4c(F)cc(S(=O)(=O)[O-])cc4F)c4ccc([nH]4)c(-c4c(F)cc(S(=O)(=O)[O-])cc4F)c4nc(c(-c5c(F)cc(S(=O)(=O)[O-])cc5F)c5ccc2[nH]5)C=C4)C=C3)cc1)c1ccc(N[C@H]2CCC[C@@H]2O)cc1F
REMARK SMILES IDX 8 1 7 2 6 3 5 4 3 5 4 6 2 8 1 9 81 10 82 11 93 12 83 13
REMARK SMILES IDX 92 14 94 15 84 16 85 17 86 19 87 20 90 21 88 22 89 23 91 24
REMARK SMILES IDX 9 26 10 27 11 28 12 29 13 30 14 32 15 33 16 34 80 35 17 36
REMARK SMILES IDX 79 37 18 38 19 39 20 40 73 41 21 42 78 43 72 44 74 45 22 46
REMARK SMILES IDX 77 47 71 48 70 49 23 51 57 52 36 53 56 54 37 55 40 56 55 57
REMARK SMILES IDX 75 58 38 59 39 60 54 62 76 63 41 64 24 65 25 66 34 67 26 68
REMARK SMILES IDX 27 69 33 70 35 71 28 72 29 73 30 74 31 75 32 76 58 77 59 78
REMARK SMILES IDX 68 79 60 80 61 81 67 82 69 83 62 84 63 85 64 86 65 87 66 88
REMARK SMILES IDX 42 89 43 90 52 91 44 92 45 93 51 94 53 95 46 96 47 97 48 98
REMARK SMILES IDX 49 99 50 100
REMARK H PARENT 5 7 85 18 91 25 12 31 74 50 40 61
REMARK Flexibility Score: inf
ROOT
ATOM      1  C   UNL A   1      39.301  22.015  26.162  1.00  0.00     0.002 C 
ENDROOT
BRANCH   1   2
ATOM      2  C   UNL A   1      38.910  23.467  26.467  1.00  0.00     0.021 C 
BRANCH   2   3
ATOM      3  C   UNL A   1      37.449  23.795  26.157  1.00  0.00     0.116 C 
BRANCH   3   4
ATOM      4  N   UNL A   1      37.167  23.593  24.752  1.00  0.00    -0.356 N 
ATOM      5  C   UNL A   1      36.255  22.781  24.146  1.00  0.00     0.227 C 
ATOM      6  O   UNL A   1      36.258  22.778  22.914  1.00  0.00    -0.274 OA
ATOM      7  H   UNL A   1      37.720  24.129  24.138  1.00  0.00     0.163 HD
BRANCH   5   8
ATOM      8  C   UNL A   1      35.242  22.002  25.002  1.00  0.00     0.108 C 
ATOM      9  C   UNL A   1      34.942  20.591  24.494  1.00  0.00     0.023 C 
BRANCH   8  10
ATOM     10  C   UNL A   1      33.934  22.753  25.178  1.00  0.00     0.000 A 
ATOM     11  C   UNL A   1      33.535  23.183  26.446  1.00  0.00     0.009 A 
ATOM     12  C   UNL A   1      33.078  23.004  24.104  1.00  0.00     0.129 A 
ATOM     13  C   UNL A   1      32.312  23.840  26.617  1.00  0.00     0.026 A 
ATOM     14  C   UNL A   1      31.872  23.678  24.279  1.00  0.00     0.065 A 
ATOM     15  F   UNL A   1      33.392  22.570  22.875  1.00  0.00    -0.207 F 
ATOM     16  C   UNL A   1      31.466  24.123  25.541  1.00  0.00     0.037 A 
BRANCH  16  17
ATOM     17  N   UNL A   1      30.244  24.753  25.651  1.00  0.00    -0.380 N 
ATOM     18  H   UNL A   1      29.523  24.211  26.047  1.00  0.00     0.160 HD
BRANCH  17  19
ATOM     19  C   UNL A   1      29.870  26.106  25.266  1.00  0.00     0.107 C 
ATOM     20  C   UNL A   1      31.022  27.115  25.336  1.00  0.00     0.027 C 
ATOM     21  C   UNL A   1      29.255  26.235  23.856  1.00  0.00     0.136 C 
ATOM     22  C   UNL A   1      30.947  27.925  24.042  1.00  0.00     0.005 C 
ATOM     23  C   UNL A   1      29.549  27.685  23.492  1.00  0.00     0.034 C 
BRANCH  21  24
ATOM     24  O   UNL A   1      27.854  25.984  23.822  1.00  0.00    -0.391 OA
ATOM     25  H   UNL A   1      27.424  26.628  23.240  1.00  0.00     0.211 HD
ENDBRANCH  21  24
ENDBRANCH  17  19
ENDBRANCH  16  17
ENDBRANCH   8  10
ENDBRANCH   5   8
ENDBRANCH   3   4
ENDBRANCH   2   3
ENDBRANCH   1   2
BRANCH   1  26
ATOM     26  C   UNL A   1      40.773  21.675  26.414  1.00  0.00     0.002 C 
BRANCH  26  27
ATOM     27  C   UNL A   1      41.314  22.126  27.772  1.00  0.00     0.021 C 
BRANCH  27  28
ATOM     28  C   UNL A   1      42.501  23.080  27.694  1.00  0.00     0.116 C 
BRANCH  28  29
ATOM     29  N   UNL A   1      42.523  23.817  26.443  1.00  0.00    -0.352 N 
ATOM     30  C   UNL A   1      42.150  25.112  26.198  1.00  0.00     0.251 C 
ATOM     31  H   UNL A   1      42.854  23.317  25.662  1.00  0.00     0.163 HD
ATOM     32  O   UNL A   1      42.040  25.506  25.037  1.00  0.00    -0.269 OA
BRANCH  30  33
ATOM     33  C   UNL A   1      41.865  26.029  27.322  1.00  0.00     0.039 A 
ATOM     34  C   UNL A   1      42.727  27.105  27.551  1.00  0.00     0.014 A 
ATOM     35  C   UNL A   1      40.773  25.815  28.169  1.00  0.00     0.014 A 
ATOM     36  C   UNL A   1      42.480  27.977  28.612  1.00  0.00     0.010 A 
ATOM     37  C   UNL A   1      40.486  26.727  29.180  1.00  0.00     0.010 A 
ATOM     38  C   UNL A   1      41.350  27.803  29.429  1.00  0.00    -0.014 A 
BRANCH  38  39
ATOM     39  C   UNL A   1      41.088  28.712  30.574  1.00  0.00     0.031 A 
ATOM     40  C   UNL A   1      41.925  28.606  31.822  1.00  0.00     0.074 A 
ATOM     41  C   UNL A   1      40.079  29.602  30.507  1.00  0.00     0.049 A 
ATOM     42  N   UNL A   1      41.838  29.288  32.935  1.00  0.00    -0.248 NA
ATOM     43  C   UNL A   1      42.979  27.578  31.832  1.00  0.00     0.031 C 
ATOM     44  C   UNL A   1      39.169  29.766  29.371  1.00  0.00     0.029 A 
ATOM     45  N   UNL A   1      39.648  30.536  31.415  1.00  0.00    -0.354 N 
ATOM     46  C   UNL A   1      42.808  28.759  33.781  1.00  0.00     0.074 A 
ATOM     47  C   UNL A   1      43.435  27.665  33.073  1.00  0.00     0.031 C 
ATOM     48  C   UNL A   1      38.309  30.763  29.638  1.00  0.00     0.029 A 
ATOM     49  C   UNL A   1      38.586  31.287  30.972  1.00  0.00     0.049 A 
ATOM     50  H   UNL A   1      40.061  30.657  32.300  1.00  0.00     0.167 HD
ATOM     51  C   UNL A   1      43.162  29.163  35.024  1.00  0.00     0.037 A 
ATOM     52  C   UNL A   1      37.916  32.290  31.572  1.00  0.00     0.037 A 
ATOM     53  C   UNL A   1      42.560  30.280  35.707  1.00  0.00     0.049 A 
ATOM     54  C   UNL A   1      38.343  32.740  32.943  1.00  0.00     0.074 A 
ATOM     55  C   UNL A   1      42.893  30.816  36.937  1.00  0.00     0.029 A 
ATOM     56  N   UNL A   1      41.504  31.033  35.213  1.00  0.00    -0.354 N 
ATOM     57  N   UNL A   1      39.308  32.273  33.700  1.00  0.00    -0.248 NA
ATOM     58  C   UNL A   1      37.601  33.860  33.536  1.00  0.00     0.031 C 
ATOM     59  C   UNL A   1      42.011  31.868  37.208  1.00  0.00     0.029 A 
ATOM     60  C   UNL A   1      41.161  32.019  36.124  1.00  0.00     0.049 A 
ATOM     61  H   UNL A   1      41.064  30.888  34.346  1.00  0.00     0.167 HD
ATOM     62  C   UNL A   1      39.311  33.066  34.843  1.00  0.00     0.074 A 
ATOM     63  C   UNL A   1      38.257  34.046  34.673  1.00  0.00     0.031 C 
ATOM     64  C   UNL A   1      40.117  32.994  35.932  1.00  0.00     0.037 A 
BRANCH  51  65
ATOM     65  C   UNL A   1      44.249  28.395  35.725  1.00  0.00     0.058 A 
ATOM     66  C   UNL A   1      45.606  28.717  35.563  1.00  0.00     0.135 A 
ATOM     67  C   UNL A   1      43.928  27.337  36.590  1.00  0.00     0.135 A 
ATOM     68  F   UNL A   1      45.972  29.709  34.736  1.00  0.00    -0.206 F 
ATOM     69  C   UNL A   1      46.608  27.995  36.204  1.00  0.00     0.059 A 
ATOM     70  C   UNL A   1      44.913  26.620  37.266  1.00  0.00     0.059 A 
ATOM     71  F   UNL A   1      42.647  26.985  36.784  1.00  0.00    -0.206 F 
ATOM     72  C   UNL A   1      46.251  26.946  37.052  1.00  0.00     0.060 A 
BRANCH  72  73
ATOM     73  S   UNL A   1      47.562  26.015  37.874  1.00  0.00     0.124 S 
ATOM     74  O   UNL A   1      48.494  25.792  36.774  1.00  0.00    -0.237 OA
ATOM     75  O   UNL A   1      48.009  26.949  38.904  1.00  0.00    -0.237 OA
ATOM     76  O   UNL A   1      46.876  24.825  38.367  1.00  0.00    -0.744 OA
ENDBRANCH  72  73
ENDBRANCH  51  65
BRANCH  52  77
ATOM     77  C   UNL A   1      36.800  32.970  30.860  1.00  0.00     0.058 A 
ATOM     78  C   UNL A   1      35.466  32.728  31.220  1.00  0.00     0.135 A 
ATOM     79  C   UNL A   1      37.043  33.878  29.818  1.00  0.00     0.135 A 
ATOM     80  F   UNL A   1      35.184  31.865  32.207  1.00  0.00    -0.206 F 
ATOM     81  C   UNL A   1      34.410  33.347  30.560  1.00  0.00     0.059 A 
ATOM     82  C   UNL A   1      36.003  34.528  29.159  1.00  0.00     0.059 A 
ATOM     83  F   UNL A   1      38.301  34.158  29.448  1.00  0.00    -0.206 F 
ATOM     84  C   UNL A   1      34.688  34.247  29.530  1.00  0.00     0.060 A 
BRANCH  84  85
ATOM     85  S   UNL A   1      33.311  35.078  28.709  1.00  0.00     0.124 S 
ATOM     86  O   UNL A   1      32.742  33.993  27.919  1.00  0.00    -0.237 OA
ATOM     87  O   UNL A   1      32.510  35.533  29.841  1.00  0.00    -0.237 OA
ATOM     88  O   UNL A   1      33.966  36.138  27.948  1.00  0.00    -0.744 OA
ENDBRANCH  84  85
ENDBRANCH  52  77
BRANCH  64  89
ATOM     89  C   UNL A   1      39.924  34.032  37.004  1.00  0.00     0.058 A 
ATOM     90  C   UNL A   1      40.496  35.309  36.911  1.00  0.00     0.135 A 
ATOM     91  C   UNL A   1      39.121  33.751  38.121  1.00  0.00     0.135 A 
ATOM     92  F   UNL A   1      41.275  35.627  35.865  1.00  0.00    -0.206 F 
ATOM     93  C   UNL A   1      40.306  36.263  37.905  1.00  0.00     0.059 A 
ATOM     94  C   UNL A   1      38.894  34.700  39.113  1.00  0.00     0.059 A 
ATOM     95  F   UNL A   1      38.540  32.548  38.252  1.00  0.00    -0.206 F 
ATOM     96  C   UNL A   1      39.503  35.948  39.004  1.00  0.00     0.060 A 
BRANCH  96  97
ATOM     97  S   UNL A   1      39.248  37.200  40.279  1.00  0.00     0.124 S 
ATOM     98  O   UNL A   1      40.622  37.547  40.627  1.00  0.00    -0.237 OA
ATOM     99  O   UNL A   1      38.497  38.227  39.565  1.00  0.00    -0.237 OA
ATOM    100  O   UNL A   1      38.500  36.487  41.309  1.00  0.00    -0.744 OA
ENDBRANCH  96  97
ENDBRANCH  64  89
ENDBRANCH  38  39
ENDBRANCH  30  33
ENDBRANCH  28  29
ENDBRANCH  27  28
ENDBRANCH  26  27
ENDBRANCH   1  26
TORSDOF 20
ENDMDL
MODEL 3
REMARK VINA RESULT:     -11.4      1.987      4.085
REMARK SMILES C[C@@H](C(=O)NCCCCCCNC(=O)c1ccc(-c2c3nc(c(-c4c(F)cc(S(=O)(=O)[O-])cc4F)c4ccc([nH]4)c(-c4c(F)cc(S(=O)(=O)[O-])cc4F)c4nc(c(-c5c(F)cc(S(=O)(=O)[O-])cc5F)c5ccc2[nH]5)C=C4)C=C3)cc1)c1ccc(N[C@H]2CCC[C@@H]2O)cc1F
REMARK SMILES IDX 8 1 7 2 6 3 5 4 3 5 4 6 2 8 1 9 81 10 82 11 93 12 83 13
REMARK SMILES IDX 92 14 94 15 84 16 85 17 86 19 87 20 90 21 88 22 89 23 91 24
REMARK SMILES IDX 9 26 10 27 11 28 12 29 13 30 14 32 15 33 16 34 80 35 17 36
REMARK SMILES IDX 79 37 18 38 19 39 20 40 73 41 21 42 78 43 72 44 74 45 22 46
REMARK SMILES IDX 77 47 71 48 70 49 23 51 57 52 36 53 56 54 37 55 40 56 55 57
REMARK SMILES IDX 75 58 38 59 39 60 54 62 76 63 41 64 24 65 25 66 34 67 26 68
REMARK SMILES IDX 27 69 33 70 35 71 28 72 29 73 30 74 31 75 32 76 58 77 59 78
REMARK SMILES IDX 68 79 60 80 61 81 67 82 69 83 62 84 63 85 64 86 65 87 66 88
REMARK SMILES IDX 42 89 43 90 52 91 44 92 45 93 51 94 53 95 46 96 47 97 48 98
REMARK SMILES IDX 49 99 50 100
REMARK H PARENT 5 7 85 18 91 25 12 31 74 50 40 61
REMARK Flexibility Score: inf
ROOT
ATOM      1  C   UNL A   1      35.826  23.533  24.249  1.00  0.00     0.002 C 
ENDROOT
BRANCH   1   2
ATOM      2  C   UNL A   1      35.107  24.118  25.471  1.00  0.00     0.021 C 
BRANCH   2   3
ATOM      3  C   UNL A   1      34.426  25.461  25.208  1.00  0.00     0.116 C 
BRANCH   3   4
ATOM      4  N   UNL A   1      33.324  25.663  26.125  1.00  0.00    -0.356 N 
ATOM      5  C   UNL A   1      31.980  25.560  25.920  1.00  0.00     0.227 C 
ATOM      6  O   UNL A   1      31.257  25.830  26.881  1.00  0.00    -0.274 OA
ATOM      7  H   UNL A   1      33.587  25.912  27.041  1.00  0.00     0.163 HD
BRANCH   5   8
ATOM      8  C   UNL A   1      31.453  25.042  24.571  1.00  0.00     0.108 C 
ATOM      9  C   UNL A   1      29.966  25.310  24.332  1.00  0.00     0.023 C 
BRANCH   8  10
ATOM     10  C   UNL A   1      31.729  23.563  24.370  1.00  0.00     0.000 A 
ATOM     11  C   UNL A   1      31.495  22.658  25.407  1.00  0.00     0.009 A 
ATOM     12  C   UNL A   1      32.255  23.067  23.176  1.00  0.00     0.129 A 
ATOM     13  C   UNL A   1      31.786  21.299  25.240  1.00  0.00     0.026 A 
ATOM     14  C   UNL A   1      32.521  21.710  23.008  1.00  0.00     0.065 A 
ATOM     15  F   UNL A   1      32.543  23.901  22.166  1.00  0.00    -0.207 F 
ATOM     16  C   UNL A   1      32.280  20.791  24.035  1.00  0.00     0.037 A 
BRANCH  16  17
ATOM     17  N   UNL A   1      32.600  19.467  23.817  1.00  0.00    -0.380 N 
ATOM     18  H   UNL A   1      32.365  19.117  22.927  1.00  0.00     0.160 HD
BRANCH  17  19
ATOM     19  C   UNL A   1      33.235  18.515  24.716  1.00  0.00     0.107 C 
ATOM     20  C   UNL A   1      32.523  17.160  24.793  1.00  0.00     0.027 C 
ATOM     21  C   UNL A   1      34.717  18.217  24.407  1.00  0.00     0.136 C 
ATOM     22  C   UNL A   1      33.623  16.103  24.701  1.00  0.00     0.005 C 
ATOM     23  C   UNL A   1      34.918  16.836  25.018  1.00  0.00     0.034 C 
BRANCH  21  24
ATOM     24  O   UNL A   1      35.618  19.156  24.984  1.00  0.00    -0.391 OA
ATOM     25  H   UNL A   1      36.381  18.688  25.354  1.00  0.00     0.211 HD
ENDBRANCH  21  24
ENDBRANCH  17  19
ENDBRANCH  16  17
ENDBRANCH   8  10
ENDBRANCH   5   8
ENDBRANCH   3   4
ENDBRANCH   2   3
ENDBRANCH   1   2
BRANCH   1  26
ATOM     26  C   UNL A   1      37.261  23.064  24.505  1.00  0.00     0.002 C 
BRANCH  26  27
ATOM     27  C   UNL A   1      37.654  22.970  25.980  1.00  0.00     0.021 C 
BRANCH  27  28
ATOM     28  C   UNL A   1      38.456  24.158  26.498  1.00  0.00     0.116 C 
BRANCH  28  29
ATOM     29  N   UNL A   1      39.856  24.074  26.118  1.00  0.00    -0.352 N 
ATOM     30  C   UNL A   1      40.903  24.871  26.500  1.00  0.00     0.251 C 
ATOM     31  H   UNL A   1      40.084  23.342  25.501  1.00  0.00     0.163 HD
ATOM     32  O   UNL A   1      41.983  24.780  25.916  1.00  0.00    -0.269 OA
BRANCH  30  33
ATOM     33  C   UNL A   1      40.733  25.847  27.597  1.00  0.00     0.039 A 
ATOM     34  C   UNL A   1      41.587  26.951  27.657  1.00  0.00     0.014 A 
ATOM     35  C   UNL A   1      39.759  25.661  28.584  1.00  0.00     0.014 A 
ATOM     36  C   UNL A   1      41.449  27.879  28.690  1.00  0.00     0.010 A 
ATOM     37  C   UNL A   1      39.573  26.625  29.570  1.00  0.00     0.010 A 
ATOM     38  C   UNL A   1      40.432  27.731  29.649  1.00  0.00    -0.014 A 
BRANCH  38  39
ATOM     39  C   UNL A   1      40.288  28.700  30.765  1.00  0.00     0.031 A 
ATOM     40  C   UNL A   1      41.156  28.568  31.990  1.00  0.00     0.074 A 
ATOM     41  C   UNL A   1      39.357  29.670  30.695  1.00  0.00     0.049 A 
ATOM     42  N   UNL A   1      41.166  29.295  33.077  1.00  0.00    -0.248 NA
ATOM     43  C   UNL A   1      42.120  27.455  32.006  1.00  0.00     0.031 C 
ATOM     44  C   UNL A   1      38.424  29.870  29.583  1.00  0.00     0.029 A 
ATOM     45  N   UNL A   1      39.037  30.670  31.579  1.00  0.00    -0.354 N 
ATOM     46  C   UNL A   1      42.116  28.716  33.912  1.00  0.00     0.074 A 
ATOM     47  C   UNL A   1      42.624  27.547  33.228  1.00  0.00     0.031 C 
ATOM     48  C   UNL A   1      37.662  30.947  29.838  1.00  0.00     0.029 A 
ATOM     49  C   UNL A   1      38.028  31.493  31.141  1.00  0.00     0.049 A 
ATOM     50  H   UNL A   1      39.490  30.788  32.445  1.00  0.00     0.167 HD
ATOM     51  C   UNL A   1      42.546  29.134  35.126  1.00  0.00     0.037 A 
ATOM     52  C   UNL A   1      37.466  32.571  31.721  1.00  0.00     0.037 A 
ATOM     53  C   UNL A   1      42.066  30.322  35.783  1.00  0.00     0.049 A 
ATOM     54  C   UNL A   1      37.978  33.032  33.060  1.00  0.00     0.074 A 
ATOM     55  C   UNL A   1      42.485  30.873  36.981  1.00  0.00     0.029 A 
ATOM     56  N   UNL A   1      41.061  31.144  35.294  1.00  0.00    -0.354 N 
ATOM     57  N   UNL A   1      38.925  32.512  33.804  1.00  0.00    -0.248 NA
ATOM     58  C   UNL A   1      37.354  34.233  33.631  1.00  0.00     0.031 C 
ATOM     59  C   UNL A   1      41.705  32.005  37.238  1.00  0.00     0.029 A 
ATOM     60  C   UNL A   1      40.834  32.189  36.175  1.00  0.00     0.049 A 
ATOM     61  H   UNL A   1      40.580  31.006  34.447  1.00  0.00     0.167 HD
ATOM     62  C   UNL A   1      39.036  33.343  34.914  1.00  0.00     0.074 A 
ATOM     63  C   UNL A   1      38.062  34.403  34.738  1.00  0.00     0.031 C 
ATOM     64  C   UNL A   1      39.870  33.242  35.978  1.00  0.00     0.037 A 
BRANCH  51  65
ATOM     65  C   UNL A   1      43.588  28.302  35.822  1.00  0.00     0.058 A 
ATOM     66  C   UNL A   1      43.241  27.271  36.711  1.00  0.00     0.135 A 
ATOM     67  C   UNL A   1      44.954  28.522  35.580  1.00  0.00     0.135 A 
ATOM     68  F   UNL A   1      41.951  27.026  36.992  1.00  0.00    -0.206 F 
ATOM     69  C   UNL A   1      44.209  26.512  37.362  1.00  0.00     0.059 A 
ATOM     70  C   UNL A   1      45.939  27.755  36.197  1.00  0.00     0.059 A 
ATOM     71  F   UNL A   1      45.344  29.493  34.740  1.00  0.00    -0.206 F 
ATOM     72  C   UNL A   1      45.556  26.764  37.100  1.00  0.00     0.060 A 
BRANCH  72  73
ATOM     73  S   UNL A   1      46.802  25.774  37.954  1.00  0.00     0.124 S 
ATOM     74  O   UNL A   1      47.660  26.812  38.518  1.00  0.00    -0.237 OA
ATOM     75  O   UNL A   1      45.999  25.025  38.916  1.00  0.00    -0.237 OA
ATOM     76  O   UNL A   1      47.397  24.980  36.884  1.00  0.00    -0.744 OA
ENDBRANCH  72  73
ENDBRANCH  51  65
BRANCH  52  77
ATOM     77  C   UNL A   1      36.388  33.318  31.019  1.00  0.00     0.058 A 
ATOM     78  C   UNL A   1      35.050  33.200  31.427  1.00  0.00     0.135 A 
ATOM     79  C   UNL A   1      36.670  34.167  29.938  1.00  0.00     0.135 A 
ATOM     80  F   UNL A   1      34.731  32.397  32.452  1.00  0.00    -0.206 F 
ATOM     81  C   UNL A   1      34.028  33.882  30.776  1.00  0.00     0.059 A 
ATOM     82  C   UNL A   1      35.667  34.879  29.288  1.00  0.00     0.059 A 
ATOM     83  F   UNL A   1      37.935  34.328  29.521  1.00  0.00    -0.206 F 
ATOM     84  C   UNL A   1      34.346  34.722  29.708  1.00  0.00     0.060 A 
BRANCH  84  85
ATOM     85  S   UNL A   1      33.016  35.637  28.899  1.00  0.00     0.124 S 
ATOM     86  O   UNL A   1      33.753  36.713  28.247  1.00  0.00    -0.237 OA
ATOM     87  O   UNL A   1      32.444  34.627  28.014  1.00  0.00    -0.237 OA
ATOM     88  O   UNL A   1      32.162  36.040  30.013  1.00  0.00    -0.744 OA
ENDBRANCH  84  85
ENDBRANCH  52  77
BRANCH  64  89
ATOM     89  C   UNL A   1      39.802  34.331  37.014  1.00  0.00     0.058 A 
ATOM     90  C   UNL A   1      40.479  35.549  36.854  1.00  0.00     0.135 A 
ATOM     91  C   UNL A   1      39.017  34.162  38.165  1.00  0.00     0.135 A 
ATOM     92  F   UNL A   1      41.247  35.760  35.773  1.00  0.00    -0.206 F 
ATOM     93  C   UNL A   1      40.404  36.553  37.816  1.00  0.00     0.059 A 
ATOM     94  C   UNL A   1      38.905  35.163  39.126  1.00  0.00     0.059 A 
ATOM     95  F   UNL A   1      38.339  33.020  38.361  1.00  0.00    -0.206 F 
ATOM     96  C   UNL A   1      39.616  36.348  38.949  1.00  0.00     0.060 A 
BRANCH  96  97
ATOM     97  S   UNL A   1      39.511  37.663  40.182  1.00  0.00     0.124 S 
ATOM     98  O   UNL A   1      39.113  36.918  41.372  1.00  0.00    -0.237 OA
ATOM     99  O   UNL A   1      40.871  38.192  40.193  1.00  0.00    -0.237 OA
ATOM    100  O   UNL A   1      38.501  38.561  39.635  1.00  0.00    -0.744 OA
ENDBRANCH  96  97
ENDBRANCH  64  89
ENDBRANCH  38  39
ENDBRANCH  30  33
ENDBRANCH  28  29
ENDBRANCH  27  28
ENDBRANCH  26  27
ENDBRANCH   1  26
TORSDOF 20
ENDMDL
