MODEL 1
REMARK VINA RESULT:     -11.1      0.000      0.000
REMARK SMILES O=C(C[C@H]1C[C@H]2CC[C@@H](C1)[N@H+]2C[C@@H]1CCCOC1)NCCCCCCNC(=O)c1ccc(-c2c3nc(c(-c4c(F)cc(S(=O)(=O)[O-])cc4F)c4ccc([nH]4)c(-c4c(F)cc(S(=O)(=O)[O-])cc4F)c4nc(c(-c5c(F)cc(S(=O)(=O)[O-])cc5F)c5ccc2[nH]5)C=C4)C=C3)cc1
REMARK SMILES IDX 22 1 21 2 20 3 19 4 1 5 2 6 3 8 4 9 5 10 10 11 6 12 9 13
REMARK SMILES IDX 7 14 11 15 8 16 12 18 13 19 14 20 18 21 15 22 17 23 16 24
REMARK SMILES IDX 23 25 24 26 25 27 26 28 27 29 28 31 29 32 30 33 94 34 31 35
REMARK SMILES IDX 93 36 32 37 33 38 34 39 87 40 35 41 92 42 86 43 88 44 36 45
REMARK SMILES IDX 91 46 85 47 84 48 37 50 71 51 50 52 70 53 51 54 54 55 69 56
REMARK SMILES IDX 89 57 52 58 53 59 68 61 90 62 55 63 38 64 39 65 48 66 40 67
REMARK SMILES IDX 41 68 47 69 49 70 42 71 43 72 44 73 45 74 46 75 72 76 73 77
REMARK SMILES IDX 82 78 74 79 75 80 81 81 83 82 76 83 77 84 78 85 79 86 80 87
REMARK SMILES IDX 56 88 57 89 66 90 58 91 59 92 65 93 67 94 60 95 61 96 62 97
REMARK SMILES IDX 63 98 64 99
REMARK H PARENT 19 7 11 17 26 30 88 49 54 60
REMARK Flexibility Score: inf
ROOT
ATOM      1  C   UNL A   1      39.755  21.937  26.322  1.00  0.00     0.002 C 
ENDROOT
BRANCH   1   2
ATOM      2  C   UNL A   1      39.346  23.307  26.892  1.00  0.00     0.021 C 
BRANCH   2   3
ATOM      3  C   UNL A   1      37.931  23.756  26.527  1.00  0.00     0.116 C 
BRANCH   3   4
ATOM      4  N   UNL A   1      37.630  23.400  25.159  1.00  0.00    -0.356 N 
ATOM      5  O   UNL A   1      36.137  21.700  25.612  1.00  0.00    -0.275 OA
ATOM      6  C   UNL A   1      36.662  22.483  24.828  1.00  0.00     0.220 C 
ATOM      7  H   UNL A   1      38.139  23.833  24.436  1.00  0.00     0.163 HD
BRANCH   6   8
ATOM      8  C   UNL A   1      36.202  22.647  23.398  1.00  0.00     0.104 C 
BRANCH   8   9
ATOM      9  C   UNL A   1      34.899  23.463  23.310  1.00  0.00     0.010 C 
ATOM     10  C   UNL A   1      33.587  22.636  23.336  1.00  0.00     0.069 C 
ATOM     11  C   UNL A   1      34.972  24.652  24.302  1.00  0.00     0.069 C 
ATOM     12  C   UNL A   1      32.585  23.031  24.405  1.00  0.00     0.184 C 
ATOM     13  C   UNL A   1      33.729  24.883  25.170  1.00  0.00     0.184 C 
ATOM     14  C   UNL A   1      33.136  22.614  25.780  1.00  0.00     0.071 C 
ATOM     15  N   UNL A   1      32.510  24.473  24.512  1.00  0.00    -0.330 N 
ATOM     16  C   UNL A   1      33.749  23.889  26.347  1.00  0.00     0.071 C 
ATOM     17  H   UNL A   1      31.731  24.813  25.076  1.00  0.00     0.348 HD
BRANCH  15  18
ATOM     18  C   UNL A   1      31.746  25.272  23.568  1.00  0.00     0.268 C 
BRANCH  18  19
ATOM     19  C   UNL A   1      31.786  26.813  23.304  1.00  0.00     0.070 C 
ATOM     20  C   UNL A   1      33.099  27.412  22.768  1.00  0.00     0.014 C 
ATOM     21  C   UNL A   1      31.021  27.666  24.315  1.00  0.00     0.169 C 
ATOM     22  C   UNL A   1      33.596  28.719  23.389  1.00  0.00     0.029 C 
ATOM     23  O   UNL A   1      31.379  29.045  24.264  1.00  0.00    -0.381 OA
ATOM     24  C   UNL A   1      32.760  29.233  24.543  1.00  0.00     0.160 C 
ENDBRANCH  18  19
ENDBRANCH  15  18
ENDBRANCH   8   9
ENDBRANCH   6   8
ENDBRANCH   3   4
ENDBRANCH   2   3
ENDBRANCH   1   2
BRANCH   1  25
ATOM     25  C   UNL A   1      41.260  21.702  26.163  1.00  0.00     0.002 C 
BRANCH  25  26
ATOM     26  C   UNL A   1      42.113  22.173  27.340  1.00  0.00     0.021 C 
BRANCH  26  27
ATOM     27  C   UNL A   1      43.047  23.338  27.034  1.00  0.00     0.116 C 
BRANCH  27  28
ATOM     28  N   UNL A   1      42.602  24.144  25.906  1.00  0.00    -0.352 N 
ATOM     29  C   UNL A   1      42.049  25.404  25.929  1.00  0.00     0.251 C 
ATOM     30  H   UNL A   1      42.712  23.737  25.016  1.00  0.00     0.163 HD
ATOM     31  O   UNL A   1      41.600  25.906  24.904  1.00  0.00    -0.269 OA
BRANCH  29  32
ATOM     32  C   UNL A   1      41.963  26.126  27.217  1.00  0.00     0.039 A 
ATOM     33  C   UNL A   1      42.905  27.116  27.503  1.00  0.00     0.014 A 
ATOM     34  C   UNL A   1      40.913  25.871  28.105  1.00  0.00     0.014 A 
ATOM     35  C   UNL A   1      42.747  27.906  28.643  1.00  0.00     0.010 A 
ATOM     36  C   UNL A   1      40.715  26.711  29.197  1.00  0.00     0.010 A 
ATOM     37  C   UNL A   1      41.625  27.742  29.473  1.00  0.00    -0.014 A 
BRANCH  37  38
ATOM     38  C   UNL A   1      41.369  28.664  30.611  1.00  0.00     0.031 A 
ATOM     39  C   UNL A   1      42.171  28.551  31.878  1.00  0.00     0.074 A 
ATOM     40  C   UNL A   1      40.361  29.556  30.528  1.00  0.00     0.049 A 
ATOM     41  N   UNL A   1      42.054  29.228  32.992  1.00  0.00    -0.248 NA
ATOM     42  C   UNL A   1      43.224  27.524  31.907  1.00  0.00     0.031 C 
ATOM     43  C   UNL A   1      39.470  29.717  29.378  1.00  0.00     0.029 A 
ATOM     44  N   UNL A   1      39.906  30.482  31.432  1.00  0.00    -0.354 N 
ATOM     45  C   UNL A   1      43.012  28.708  33.853  1.00  0.00     0.074 A 
ATOM     46  C   UNL A   1      43.656  27.616  33.155  1.00  0.00     0.031 C 
ATOM     47  C   UNL A   1      38.588  30.694  29.639  1.00  0.00     0.029 A 
ATOM     48  C   UNL A   1      38.821  31.201  30.987  1.00  0.00     0.049 A 
ATOM     49  H   UNL A   1      40.317  30.619  32.317  1.00  0.00     0.167 HD
ATOM     50  C   UNL A   1      43.344  29.119  35.101  1.00  0.00     0.037 A 
ATOM     51  C   UNL A   1      38.086  32.151  31.598  1.00  0.00     0.037 A 
ATOM     52  C   UNL A   1      42.697  30.208  35.789  1.00  0.00     0.049 A 
ATOM     53  C   UNL A   1      38.459  32.586  32.988  1.00  0.00     0.074 A 
ATOM     54  C   UNL A   1      42.994  30.738  37.032  1.00  0.00     0.029 A 
ATOM     55  N   UNL A   1      41.613  30.924  35.299  1.00  0.00    -0.354 N 
ATOM     56  N   UNL A   1      39.422  32.139  33.759  1.00  0.00    -0.248 NA
ATOM     57  C   UNL A   1      37.654  33.656  33.590  1.00  0.00     0.031 C 
ATOM     58  C   UNL A   1      42.056  31.737  37.316  1.00  0.00     0.029 A 
ATOM     59  C   UNL A   1      41.209  31.870  36.227  1.00  0.00     0.049 A 
ATOM     60  H   UNL A   1      41.193  30.780  34.420  1.00  0.00     0.167 HD
ATOM     61  C   UNL A   1      39.347  32.881  34.932  1.00  0.00     0.074 A 
ATOM     62  C   UNL A   1      38.256  33.820  34.760  1.00  0.00     0.031 C 
ATOM     63  C   UNL A   1      40.110  32.790  36.050  1.00  0.00     0.037 A 
BRANCH  50  64
ATOM     64  C   UNL A   1      44.455  28.379  35.798  1.00  0.00     0.058 A 
ATOM     65  C   UNL A   1      44.201  27.262  36.613  1.00  0.00     0.135 A 
ATOM     66  C   UNL A   1      45.791  28.790  35.655  1.00  0.00     0.135 A 
ATOM     67  F   UNL A   1      42.942  26.830  36.795  1.00  0.00    -0.206 F 
ATOM     68  C   UNL A   1      45.221  26.614  37.301  1.00  0.00     0.059 A 
ATOM     69  C   UNL A   1      46.831  28.134  36.308  1.00  0.00     0.059 A 
ATOM     70  F   UNL A   1      46.095  29.847  34.886  1.00  0.00    -0.206 F 
ATOM     71  C   UNL A   1      46.534  27.063  37.148  1.00  0.00     0.060 A 
BRANCH  71  72
ATOM     72  S   UNL A   1      47.841  26.234  38.076  1.00  0.00     0.124 S 
ATOM     73  O   UNL A   1      47.192  26.026  39.367  1.00  0.00    -0.237 OA
ATOM     74  O   UNL A   1      48.072  25.030  37.284  1.00  0.00    -0.237 OA
ATOM     75  O   UNL A   1      48.930  27.204  38.071  1.00  0.00    -0.744 OA
ENDBRANCH  71  72
ENDBRANCH  50  64
BRANCH  51  76
ATOM     76  C   UNL A   1      36.932  32.755  30.880  1.00  0.00     0.058 A 
ATOM     77  C   UNL A   1      35.613  32.417  31.213  1.00  0.00     0.135 A 
ATOM     78  C   UNL A   1      37.128  33.728  29.886  1.00  0.00     0.135 A 
ATOM     79  F   UNL A   1      35.374  31.487  32.150  1.00  0.00    -0.206 F 
ATOM     80  C   UNL A   1      34.527  33.023  30.589  1.00  0.00     0.059 A 
ATOM     81  C   UNL A   1      36.059  34.366  29.266  1.00  0.00     0.059 A 
ATOM     82  F   UNL A   1      38.372  34.096  29.542  1.00  0.00    -0.206 F 
ATOM     83  C   UNL A   1      34.761  34.005  29.623  1.00  0.00     0.060 A 
BRANCH  83  84
ATOM     84  S   UNL A   1      33.344  34.848  28.886  1.00  0.00     0.124 S 
ATOM     85  O   UNL A   1      32.500  35.082  30.053  1.00  0.00    -0.237 OA
ATOM     86  O   UNL A   1      33.963  36.031  28.299  1.00  0.00    -0.237 OA
ATOM     87  O   UNL A   1      32.836  33.873  27.925  1.00  0.00    -0.744 OA
ENDBRANCH  83  84
ENDBRANCH  51  76
BRANCH  63  88
ATOM     88  C   UNL A   1      39.799  33.737  37.179  1.00  0.00     0.058 A 
ATOM     89  C   UNL A   1      38.869  33.409  38.178  1.00  0.00     0.135 A 
ATOM     90  C   UNL A   1      40.478  34.960  37.293  1.00  0.00     0.135 A 
ATOM     91  F   UNL A   1      38.186  32.255  38.115  1.00  0.00    -0.206 F 
ATOM     92  C   UNL A   1      38.608  34.272  39.238  1.00  0.00     0.059 A 
ATOM     93  C   UNL A   1      40.254  35.824  38.360  1.00  0.00     0.059 A 
ATOM     94  F   UNL A   1      41.384  35.319  36.370  1.00  0.00    -0.206 F 
ATOM     95  C   UNL A   1      39.309  35.476  39.323  1.00  0.00     0.060 A 
BRANCH  95  96
ATOM     96  S   UNL A   1      38.987  36.567  40.725  1.00  0.00     0.124 S 
ATOM     97  O   UNL A   1      40.308  36.659  41.336  1.00  0.00    -0.237 OA
ATOM     98  O   UNL A   1      38.504  37.780  40.071  1.00  0.00    -0.237 OA
ATOM     99  O   UNL A   1      37.987  35.838  41.499  1.00  0.00    -0.744 OA
ENDBRANCH  95  96
ENDBRANCH  63  88
ENDBRANCH  37  38
ENDBRANCH  29  32
ENDBRANCH  27  28
ENDBRANCH  26  27
ENDBRANCH  25  26
ENDBRANCH   1  25
TORSDOF 19
ENDMDL
MODEL 2
REMARK VINA RESULT:     -11.1      1.394      2.845
REMARK SMILES O=C(C[C@H]1C[C@H]2CC[C@@H](C1)[N@H+]2C[C@@H]1CCCOC1)NCCCCCCNC(=O)c1ccc(-c2c3nc(c(-c4c(F)cc(S(=O)(=O)[O-])cc4F)c4ccc([nH]4)c(-c4c(F)cc(S(=O)(=O)[O-])cc4F)c4nc(c(-c5c(F)cc(S(=O)(=O)[O-])cc5F)c5ccc2[nH]5)C=C4)C=C3)cc1
REMARK SMILES IDX 22 1 21 2 20 3 19 4 1 5 2 6 3 8 4 9 5 10 10 11 6 12 9 13
REMARK SMILES IDX 7 14 11 15 8 16 12 18 13 19 14 20 18 21 15 22 17 23 16 24
REMARK SMILES IDX 23 25 24 26 25 27 26 28 27 29 28 31 29 32 30 33 94 34 31 35
REMARK SMILES IDX 93 36 32 37 33 38 34 39 87 40 35 41 92 42 86 43 88 44 36 45
REMARK SMILES IDX 91 46 85 47 84 48 37 50 71 51 50 52 70 53 51 54 54 55 69 56
REMARK SMILES IDX 89 57 52 58 53 59 68 61 90 62 55 63 38 64 39 65 48 66 40 67
REMARK SMILES IDX 41 68 47 69 49 70 42 71 43 72 44 73 45 74 46 75 72 76 73 77
REMARK SMILES IDX 82 78 74 79 75 80 81 81 83 82 76 83 77 84 78 85 79 86 80 87
REMARK SMILES IDX 56 88 57 89 66 90 58 91 59 92 65 93 67 94 60 95 61 96 62 97
REMARK SMILES IDX 63 98 64 99
REMARK H PARENT 19 7 11 17 26 30 88 49 54 60
REMARK Flexibility Score: inf
ROOT
ATOM      1  C   UNL A   1      36.638  21.171  25.598  1.00  0.00     0.002 C 
ENDROOT
BRANCH   1   2
ATOM      2  C   UNL A   1      35.246  20.869  25.013  1.00  0.00     0.021 C 
BRANCH   2   3
ATOM      3  C   UNL A   1      34.089  21.029  25.999  1.00  0.00     0.116 C 
BRANCH   3   4
ATOM      4  N   UNL A   1      33.028  21.809  25.405  1.00  0.00    -0.356 N 
ATOM      5  O   UNL A   1      33.233  23.672  26.750  1.00  0.00    -0.275 OA
ATOM      6  C   UNL A   1      32.780  23.113  25.758  1.00  0.00     0.220 C 
ATOM      7  H   UNL A   1      32.460  21.388  24.720  1.00  0.00     0.163 HD
BRANCH   6   8
ATOM      8  C   UNL A   1      31.993  23.840  24.692  1.00  0.00     0.104 C 
BRANCH   8   9
ATOM      9  C   UNL A   1      32.548  25.254  24.439  1.00  0.00     0.010 C 
ATOM     10  C   UNL A   1      33.788  25.332  23.512  1.00  0.00     0.069 C 
ATOM     11  C   UNL A   1      31.377  26.208  24.090  1.00  0.00     0.069 C 
ATOM     12  C   UNL A   1      33.654  26.256  22.315  1.00  0.00     0.184 C 
ATOM     13  C   UNL A   1      31.597  27.131  22.885  1.00  0.00     0.184 C 
ATOM     14  C   UNL A   1      32.668  25.629  21.313  1.00  0.00     0.071 C 
ATOM     15  N   UNL A   1      32.986  27.481  22.701  1.00  0.00    -0.330 N 
ATOM     16  C   UNL A   1      31.345  26.333  21.591  1.00  0.00     0.071 C 
ATOM     17  H   UNL A   1      33.023  28.219  21.999  1.00  0.00     0.348 HD
BRANCH  15  18
ATOM     18  C   UNL A   1      33.688  28.552  23.389  1.00  0.00     0.268 C 
BRANCH  18  19
ATOM     19  C   UNL A   1      33.455  29.141  24.819  1.00  0.00     0.070 C 
ATOM     20  C   UNL A   1      34.046  28.372  26.014  1.00  0.00     0.014 C 
ATOM     21  C   UNL A   1      32.085  29.780  25.043  1.00  0.00     0.169 C 
ATOM     22  C   UNL A   1      33.169  28.189  27.253  1.00  0.00     0.029 C 
ATOM     23  O   UNL A   1      31.775  29.964  26.422  1.00  0.00    -0.381 OA
ATOM     24  C   UNL A   1      31.759  28.725  27.119  1.00  0.00     0.160 C 
ENDBRANCH  18  19
ENDBRANCH  15  18
ENDBRANCH   8   9
ENDBRANCH   6   8
ENDBRANCH   3   4
ENDBRANCH   2   3
ENDBRANCH   1   2
BRANCH   1  25
ATOM     25  C   UNL A   1      37.435  22.271  24.889  1.00  0.00     0.002 C 
BRANCH  25  26
ATOM     26  C   UNL A   1      37.158  23.689  25.388  1.00  0.00     0.021 C 
BRANCH  26  27
ATOM     27  C   UNL A   1      38.055  24.157  26.528  1.00  0.00     0.116 C 
BRANCH  27  28
ATOM     28  N   UNL A   1      39.467  23.898  26.287  1.00  0.00    -0.352 N 
ATOM     29  C   UNL A   1      40.551  24.622  26.727  1.00  0.00     0.251 C 
ATOM     30  H   UNL A   1      39.672  23.104  25.740  1.00  0.00     0.163 HD
ATOM     31  O   UNL A   1      41.681  24.356  26.333  1.00  0.00    -0.269 OA
BRANCH  29  32
ATOM     32  C   UNL A   1      40.327  25.756  27.651  1.00  0.00     0.039 A 
ATOM     33  C   UNL A   1      39.408  25.611  28.691  1.00  0.00     0.014 A 
ATOM     34  C   UNL A   1      41.077  26.930  27.527  1.00  0.00     0.014 A 
ATOM     35  C   UNL A   1      39.298  26.614  29.656  1.00  0.00     0.010 A 
ATOM     36  C   UNL A   1      41.022  27.891  28.533  1.00  0.00     0.010 A 
ATOM     37  C   UNL A   1      40.138  27.739  29.612  1.00  0.00    -0.014 A 
BRANCH  37  38
ATOM     38  C   UNL A   1      40.132  28.747  30.704  1.00  0.00     0.031 A 
ATOM     39  C   UNL A   1      41.006  28.565  31.914  1.00  0.00     0.074 A 
ATOM     40  C   UNL A   1      39.281  29.790  30.639  1.00  0.00     0.049 A 
ATOM     41  N   UNL A   1      41.094  29.307  32.989  1.00  0.00    -0.248 NA
ATOM     42  C   UNL A   1      41.875  27.378  31.932  1.00  0.00     0.031 C 
ATOM     43  C   UNL A   1      38.336  30.041  29.549  1.00  0.00     0.029 A 
ATOM     44  N   UNL A   1      39.059  30.825  31.513  1.00  0.00    -0.354 N 
ATOM     45  C   UNL A   1      42.022  28.678  33.809  1.00  0.00     0.074 A 
ATOM     46  C   UNL A   1      42.418  27.460  33.137  1.00  0.00     0.031 C 
ATOM     47  C   UNL A   1      37.651  31.164  29.811  1.00  0.00     0.029 A 
ATOM     48  C   UNL A   1      38.074  31.692  31.103  1.00  0.00     0.049 A 
ATOM     49  H   UNL A   1      39.558  30.935  32.355  1.00  0.00     0.167 HD
ATOM     50  C   UNL A   1      42.517  29.090  35.001  1.00  0.00     0.037 A 
ATOM     51  C   UNL A   1      37.558  32.783  31.704  1.00  0.00     0.037 A 
ATOM     52  C   UNL A   1      42.117  30.305  35.663  1.00  0.00     0.049 A 
ATOM     53  C   UNL A   1      38.110  33.218  33.033  1.00  0.00     0.074 A 
ATOM     54  C   UNL A   1      42.598  30.841  36.845  1.00  0.00     0.029 A 
ATOM     55  N   UNL A   1      41.128  31.168  35.209  1.00  0.00    -0.354 N 
ATOM     56  N   UNL A   1      39.047  32.655  33.759  1.00  0.00    -0.248 NA
ATOM     57  C   UNL A   1      37.544  34.438  33.622  1.00  0.00     0.031 C 
ATOM     58  C   UNL A   1      41.863  31.996  37.133  1.00  0.00     0.029 A 
ATOM     59  C   UNL A   1      40.963  32.215  36.103  1.00  0.00     0.049 A 
ATOM     60  H   UNL A   1      40.619  31.053  34.374  1.00  0.00     0.167 HD
ATOM     61  C   UNL A   1      39.191  33.458  34.885  1.00  0.00     0.074 A 
ATOM     62  C   UNL A   1      38.259  34.557  34.732  1.00  0.00     0.031 C 
ATOM     63  C   UNL A   1      40.019  33.296  35.948  1.00  0.00     0.037 A 
BRANCH  50  64
ATOM     64  C   UNL A   1      43.546  28.209  35.661  1.00  0.00     0.058 A 
ATOM     65  C   UNL A   1      44.924  28.413  35.473  1.00  0.00     0.135 A 
ATOM     66  C   UNL A   1      43.153  27.145  36.490  1.00  0.00     0.135 A 
ATOM     67  F   UNL A   1      45.358  29.409  34.682  1.00  0.00    -0.206 F 
ATOM     68  C   UNL A   1      45.871  27.566  36.037  1.00  0.00     0.059 A 
ATOM     69  C   UNL A   1      44.085  26.305  37.092  1.00  0.00     0.059 A 
ATOM     70  F   UNL A   1      41.851  26.904  36.711  1.00  0.00    -0.206 F 
ATOM     71  C   UNL A   1      45.441  26.508  36.839  1.00  0.00     0.060 A 
BRANCH  71  72
ATOM     72  S   UNL A   1      46.681  25.395  37.534  1.00  0.00     0.124 S 
ATOM     73  O   UNL A   1      46.627  25.749  38.949  1.00  0.00    -0.237 OA
ATOM     74  O   UNL A   1      46.149  24.080  37.190  1.00  0.00    -0.237 OA
ATOM     75  O   UNL A   1      47.906  25.775  36.839  1.00  0.00    -0.744 OA
ENDBRANCH  71  72
ENDBRANCH  50  64
BRANCH  51  76
ATOM     76  C   UNL A   1      36.463  33.536  31.036  1.00  0.00     0.058 A 
ATOM     77  C   UNL A   1      36.700  34.282  29.873  1.00  0.00     0.135 A 
ATOM     78  C   UNL A   1      35.145  33.475  31.517  1.00  0.00     0.135 A 
ATOM     79  F   UNL A   1      37.944  34.377  29.379  1.00  0.00    -0.206 F 
ATOM     80  C   UNL A   1      35.671  34.938  29.206  1.00  0.00     0.059 A 
ATOM     81  C   UNL A   1      34.095  34.102  30.854  1.00  0.00     0.059 A 
ATOM     82  F   UNL A   1      34.864  32.762  32.619  1.00  0.00    -0.206 F 
ATOM     83  C   UNL A   1      34.368  34.833  29.700  1.00  0.00     0.060 A 
BRANCH  83  84
ATOM     84  S   UNL A   1      33.027  35.614  28.775  1.00  0.00     0.124 S 
ATOM     85  O   UNL A   1      32.529  34.498  27.979  1.00  0.00    -0.237 OA
ATOM     86  O   UNL A   1      32.149  36.079  29.843  1.00  0.00    -0.237 OA
ATOM     87  O   UNL A   1      33.706  36.670  28.029  1.00  0.00    -0.744 OA
ENDBRANCH  83  84
ENDBRANCH  51  76
BRANCH  63  88
ATOM     88  C   UNL A   1      39.961  34.338  37.034  1.00  0.00     0.058 A 
ATOM     89  C   UNL A   1      40.802  35.461  37.021  1.00  0.00     0.135 A 
ATOM     90  C   UNL A   1      39.017  34.239  38.069  1.00  0.00     0.135 A 
ATOM     91  F   UNL A   1      41.728  35.602  36.059  1.00  0.00    -0.206 F 
ATOM     92  C   UNL A   1      40.724  36.439  38.008  1.00  0.00     0.059 A 
ATOM     93  C   UNL A   1      38.902  35.219  39.049  1.00  0.00     0.059 A 
ATOM     94  F   UNL A   1      38.182  33.189  38.124  1.00  0.00    -0.206 F 
ATOM     95  C   UNL A   1      39.767  36.311  39.016  1.00  0.00     0.060 A 
BRANCH  95  96
ATOM     96  S   UNL A   1      39.652  37.607  40.268  1.00  0.00     0.124 S 
ATOM     97  O   UNL A   1      41.014  38.129  40.277  1.00  0.00    -0.237 OA
ATOM     98  O   UNL A   1      38.636  38.493  39.706  1.00  0.00    -0.237 OA
ATOM     99  O   UNL A   1      39.249  36.883  41.470  1.00  0.00    -0.744 OA
ENDBRANCH  95  96
ENDBRANCH  63  88
ENDBRANCH  37  38
ENDBRANCH  29  32
ENDBRANCH  27  28
ENDBRANCH  26  27
ENDBRANCH  25  26
ENDBRANCH   1  25
TORSDOF 19
ENDMDL
MODEL 3
REMARK VINA RESULT:     -11.1      1.675      8.795
REMARK SMILES O=C(C[C@H]1C[C@H]2CC[C@@H](C1)[N@H+]2C[C@@H]1CCCOC1)NCCCCCCNC(=O)c1ccc(-c2c3nc(c(-c4c(F)cc(S(=O)(=O)[O-])cc4F)c4ccc([nH]4)c(-c4c(F)cc(S(=O)(=O)[O-])cc4F)c4nc(c(-c5c(F)cc(S(=O)(=O)[O-])cc5F)c5ccc2[nH]5)C=C4)C=C3)cc1
REMARK SMILES IDX 22 1 21 2 20 3 19 4 1 5 2 6 3 8 4 9 5 10 10 11 6 12 9 13
REMARK SMILES IDX 7 14 11 15 8 16 12 18 13 19 14 20 18 21 15 22 17 23 16 24
REMARK SMILES IDX 23 25 24 26 25 27 26 28 27 29 28 31 29 32 30 33 94 34 31 35
REMARK SMILES IDX 93 36 32 37 33 38 34 39 87 40 35 41 92 42 86 43 88 44 36 45
REMARK SMILES IDX 91 46 85 47 84 48 37 50 71 51 50 52 70 53 51 54 54 55 69 56
REMARK SMILES IDX 89 57 52 58 53 59 68 61 90 62 55 63 38 64 39 65 48 66 40 67
REMARK SMILES IDX 41 68 47 69 49 70 42 71 43 72 44 73 45 74 46 75 72 76 73 77
REMARK SMILES IDX 82 78 74 79 75 80 81 81 83 82 76 83 77 84 78 85 79 86 80 87
REMARK SMILES IDX 56 88 57 89 66 90 58 91 59 92 65 93 67 94 60 95 61 96 62 97
REMARK SMILES IDX 63 98 64 99
REMARK H PARENT 19 7 11 17 26 30 88 49 54 60
REMARK Flexibility Score: inf
ROOT
ATOM      1  C   UNL A   1      41.353  21.710  26.366  1.00  0.00     0.002 C 
ENDROOT
BRANCH   1   2
ATOM      2  C   UNL A   1      39.884  21.586  26.807  1.00  0.00     0.021 C 
BRANCH   2   3
ATOM      3  C   UNL A   1      38.878  21.479  25.660  1.00  0.00     0.116 C 
BRANCH   3   4
ATOM      4  N   UNL A   1      37.594  21.999  26.070  1.00  0.00    -0.356 N 
ATOM      5  O   UNL A   1      38.085  24.241  25.825  1.00  0.00    -0.275 OA
ATOM      6  C   UNL A   1      37.277  23.335  25.995  1.00  0.00     0.220 C 
ATOM      7  H   UNL A   1      36.920  21.372  26.416  1.00  0.00     0.163 HD
BRANCH   6   8
ATOM      8  C   UNL A   1      35.783  23.555  25.998  1.00  0.00     0.104 C 
BRANCH   8   9
ATOM      9  C   UNL A   1      35.031  22.362  25.378  1.00  0.00     0.010 C 
ATOM     10  C   UNL A   1      34.056  21.618  26.327  1.00  0.00     0.069 C 
ATOM     11  C   UNL A   1      34.452  22.782  24.003  1.00  0.00     0.069 C 
ATOM     12  C   UNL A   1      32.628  21.490  25.830  1.00  0.00     0.184 C 
ATOM     13  C   UNL A   1      32.994  22.387  23.736  1.00  0.00     0.184 C 
ATOM     14  C   UNL A   1      31.962  22.876  25.874  1.00  0.00     0.071 C 
ATOM     15  N   UNL A   1      32.616  21.171  24.417  1.00  0.00    -0.330 N 
ATOM     16  C   UNL A   1      32.066  23.394  24.444  1.00  0.00     0.071 C 
ATOM     17  H   UNL A   1      31.704  20.892  24.057  1.00  0.00     0.348 HD
BRANCH  15  18
ATOM     18  C   UNL A   1      32.854  19.821  23.936  1.00  0.00     0.268 C 
BRANCH  18  19
ATOM     19  C   UNL A   1      33.484  18.594  24.674  1.00  0.00     0.070 C 
ATOM     20  C   UNL A   1      34.399  17.663  23.859  1.00  0.00     0.014 C 
ATOM     21  C   UNL A   1      32.575  17.917  25.699  1.00  0.00     0.169 C 
ATOM     22  C   UNL A   1      34.222  16.153  24.033  1.00  0.00     0.029 C 
ATOM     23  O   UNL A   1      33.026  16.616  26.069  1.00  0.00    -0.381 OA
ATOM     24  C   UNL A   1      33.083  15.747  24.944  1.00  0.00     0.160 C 
ENDBRANCH  18  19
ENDBRANCH  15  18
ENDBRANCH   8   9
ENDBRANCH   6   8
ENDBRANCH   3   4
ENDBRANCH   2   3
ENDBRANCH   1   2
BRANCH   1  25
ATOM     25  C   UNL A   1      42.396  21.606  27.483  1.00  0.00     0.002 C 
BRANCH  25  26
ATOM     26  C   UNL A   1      42.481  22.826  28.400  1.00  0.00     0.021 C 
BRANCH  26  27
ATOM     27  C   UNL A   1      43.387  23.945  27.902  1.00  0.00     0.116 C 
BRANCH  27  28
ATOM     28  N   UNL A   1      43.051  24.395  26.558  1.00  0.00    -0.352 N 
ATOM     29  C   UNL A   1      42.321  25.502  26.191  1.00  0.00     0.251 C 
ATOM     30  H   UNL A   1      43.390  23.837  25.820  1.00  0.00     0.163 HD
ATOM     31  O   UNL A   1      42.008  25.681  25.019  1.00  0.00    -0.269 OA
BRANCH  29  32
ATOM     32  C   UNL A   1      41.883  26.451  27.238  1.00  0.00     0.039 A 
ATOM     33  C   UNL A   1      40.820  26.097  28.071  1.00  0.00     0.014 A 
ATOM     34  C   UNL A   1      42.567  27.654  27.437  1.00  0.00     0.014 A 
ATOM     35  C   UNL A   1      40.496  26.914  29.156  1.00  0.00     0.010 A 
ATOM     36  C   UNL A   1      42.294  28.424  28.563  1.00  0.00     0.010 A 
ATOM     37  C   UNL A   1      41.261  28.058  29.439  1.00  0.00    -0.014 A 
BRANCH  37  38
ATOM     38  C   UNL A   1      41.017  28.861  30.666  1.00  0.00     0.031 A 
ATOM     39  C   UNL A   1      39.925  29.893  30.697  1.00  0.00     0.074 A 
ATOM     40  C   UNL A   1      41.832  28.710  31.729  1.00  0.00     0.049 A 
ATOM     41  N   UNL A   1      39.601  30.725  31.654  1.00  0.00    -0.248 NA
ATOM     42  C   UNL A   1      39.107  30.029  29.482  1.00  0.00     0.031 C 
ATOM     43  C   UNL A   1      42.968  27.789  31.799  1.00  0.00     0.029 A 
ATOM     44  N   UNL A   1      41.842  29.339  32.949  1.00  0.00    -0.354 N 
ATOM     45  C   UNL A   1      38.547  31.482  31.158  1.00  0.00     0.074 A 
ATOM     46  C   UNL A   1      38.331  31.056  29.792  1.00  0.00     0.031 C 
ATOM     47  C   UNL A   1      43.552  27.900  33.001  1.00  0.00     0.029 A 
ATOM     48  C   UNL A   1      42.862  28.928  33.774  1.00  0.00     0.049 A 
ATOM     49  H   UNL A   1      41.181  30.022  33.209  1.00  0.00     0.167 HD
ATOM     50  C   UNL A   1      37.810  32.427  31.790  1.00  0.00     0.037 A 
ATOM     51  C   UNL A   1      43.214  29.339  35.009  1.00  0.00     0.037 A 
ATOM     52  C   UNL A   1      38.032  32.845  33.151  1.00  0.00     0.049 A 
ATOM     53  C   UNL A   1      42.394  30.398  35.691  1.00  0.00     0.074 A 
ATOM     54  C   UNL A   1      37.307  33.754  33.902  1.00  0.00     0.029 A 
ATOM     55  N   UNL A   1      39.065  32.393  33.962  1.00  0.00    -0.354 N 
ATOM     56  N   UNL A   1      41.348  31.047  35.236  1.00  0.00    -0.248 NA
ATOM     57  C   UNL A   1      42.793  30.776  37.051  1.00  0.00     0.031 C 
ATOM     58  C   UNL A   1      37.934  33.891  35.145  1.00  0.00     0.029 A 
ATOM     59  C   UNL A   1      39.016  33.026  35.193  1.00  0.00     0.049 A 
ATOM     60  H   UNL A   1      39.734  31.719  33.699  1.00  0.00     0.167 HD
ATOM     61  C   UNL A   1      40.957  31.903  36.260  1.00  0.00     0.074 A 
ATOM     62  C   UNL A   1      41.866  31.672  37.364  1.00  0.00     0.031 C 
ATOM     63  C   UNL A   1      39.938  32.799  36.281  1.00  0.00     0.037 A 
BRANCH  50  64
ATOM     64  C   UNL A   1      36.697  33.072  31.006  1.00  0.00     0.058 A 
ATOM     65  C   UNL A   1      36.956  34.005  29.987  1.00  0.00     0.135 A 
ATOM     66  C   UNL A   1      35.354  32.759  31.275  1.00  0.00     0.135 A 
ATOM     67  F   UNL A   1      38.221  34.351  29.693  1.00  0.00    -0.206 F 
ATOM     68  C   UNL A   1      35.928  34.642  29.302  1.00  0.00     0.059 A 
ATOM     69  C   UNL A   1      34.310  33.360  30.578  1.00  0.00     0.059 A 
ATOM     70  F   UNL A   1      35.046  31.871  32.234  1.00  0.00    -0.206 F 
ATOM     71  C   UNL A   1      34.606  34.318  29.611  1.00  0.00     0.060 A 
BRANCH  71  72
ATOM     72  S   UNL A   1      33.282  35.181  28.738  1.00  0.00     0.124 S 
ATOM     73  O   UNL A   1      32.721  34.105  27.927  1.00  0.00    -0.237 OA
ATOM     74  O   UNL A   1      32.440  35.651  29.834  1.00  0.00    -0.237 OA
ATOM     75  O   UNL A   1      33.985  36.224  27.998  1.00  0.00    -0.744 OA
ENDBRANCH  71  72
ENDBRANCH  50  64
BRANCH  51  76
ATOM     76  C   UNL A   1      44.397  28.728  35.672  1.00  0.00     0.058 A 
ATOM     77  C   UNL A   1      45.682  29.261  35.499  1.00  0.00     0.135 A 
ATOM     78  C   UNL A   1      44.254  27.632  36.539  1.00  0.00     0.135 A 
ATOM     79  F   UNL A   1      45.871  30.301  34.674  1.00  0.00    -0.206 F 
ATOM     80  C   UNL A   1      46.784  28.733  36.164  1.00  0.00     0.059 A 
ATOM     81  C   UNL A   1      45.336  27.103  37.235  1.00  0.00     0.059 A 
ATOM     82  F   UNL A   1      43.042  27.095  36.749  1.00  0.00    -0.206 F 
ATOM     83  C   UNL A   1      46.599  27.660  37.039  1.00  0.00     0.060 A 
BRANCH  83  84
ATOM     84  S   UNL A   1      48.022  27.044  37.965  1.00  0.00     0.124 S 
ATOM     85  O   UNL A   1      48.769  26.343  36.927  1.00  0.00    -0.237 OA
ATOM     86  O   UNL A   1      48.621  28.278  38.461  1.00  0.00    -0.237 OA
ATOM     87  O   UNL A   1      47.414  26.197  38.988  1.00  0.00    -0.744 OA
ENDBRANCH  83  84
ENDBRANCH  51  76
BRANCH  63  88
ATOM     88  C   UNL A   1      39.745  33.598  37.543  1.00  0.00     0.058 A 
ATOM     89  C   UNL A   1      40.417  34.811  37.755  1.00  0.00     0.135 A 
ATOM     90  C   UNL A   1      38.837  33.172  38.526  1.00  0.00     0.135 A 
ATOM     91  F   UNL A   1      41.301  35.262  36.851  1.00  0.00    -0.206 F 
ATOM     92  C   UNL A   1      40.212  35.564  38.907  1.00  0.00     0.059 A 
ATOM     93  C   UNL A   1      38.594  33.922  39.671  1.00  0.00     0.059 A 
ATOM     94  F   UNL A   1      38.161  32.023  38.369  1.00  0.00    -0.206 F 
ATOM     95  C   UNL A   1      39.294  35.113  39.858  1.00  0.00     0.060 A 
BRANCH  95  96
ATOM     96  S   UNL A   1      39.010  36.120  41.330  1.00  0.00     0.124 S 
ATOM     97  O   UNL A   1      40.242  35.900  42.079  1.00  0.00    -0.237 OA
ATOM     98  O   UNL A   1      38.841  37.456  40.765  1.00  0.00    -0.237 OA
ATOM     99  O   UNL A   1      37.807  35.535  41.914  1.00  0.00    -0.744 OA
ENDBRANCH  95  96
ENDBRANCH  63  88
ENDBRANCH  37  38
ENDBRANCH  29  32
ENDBRANCH  27  28
ENDBRANCH  26  27
ENDBRANCH  25  26
ENDBRANCH   1  25
TORSDOF 19
ENDMDL
