MODEL 1
REMARK VINA RESULT:     -11.0      0.000      0.000
REMARK SMILES C[C@@H]1CC[C@@]1(SC1CCCCC1)C(=O)NCCCCCCNC(=O)c1ccc(-c2c3nc(c(-c4c(F)cc(S(=O)(=O)[O-])cc4F)c4ccc([nH]4)c(-c4c(F)cc(S(=O)(=O)[O-])cc4F)c4nc(c(-c5c(F)cc(S(=O)(=O)[O-])cc5F)c5ccc2[nH]5)C=C4)C=C3)cc1
REMARK SMILES IDX 19 1 18 2 17 3 16 4 15 5 13 6 14 7 5 9 1 10 2 11 3 12 4 13
REMARK SMILES IDX 6 14 7 15 8 16 12 17 9 18 11 19 10 20 20 21 21 22 22 23
REMARK SMILES IDX 23 24 24 26 25 27 26 28 90 29 27 30 89 31 28 32 29 33 30 34
REMARK SMILES IDX 83 35 31 36 88 37 82 38 84 39 32 40 87 41 81 42 80 43 33 45
REMARK SMILES IDX 67 46 46 47 66 48 47 49 50 50 65 51 85 52 48 53 49 54 64 56
REMARK SMILES IDX 86 57 51 58 34 59 35 60 44 61 36 62 37 63 43 64 45 65 38 66
REMARK SMILES IDX 39 67 40 68 41 69 42 70 68 71 69 72 78 73 70 74 71 75 77 76
REMARK SMILES IDX 79 77 72 78 73 79 74 80 75 81 76 82 52 83 53 84 62 85 54 86
REMARK SMILES IDX 55 87 61 88 63 89 56 90 57 91 58 92 59 93 60 94
REMARK H PARENT 15 8 22 25 84 44 50 55
REMARK Flexibility Score: inf
ROOT
ATOM      1  C   UNL A   1      31.877  30.645  26.510  1.00  0.00     0.002 C 
ENDROOT
BRANCH   1   2
ATOM      2  C   UNL A   1      33.084  30.021  27.223  1.00  0.00     0.002 C 
BRANCH   2   3
ATOM      3  C   UNL A   1      33.874  29.014  26.377  1.00  0.00     0.021 C 
BRANCH   3   4
ATOM      4  C   UNL A   1      33.455  29.019  24.912  1.00  0.00     0.116 C 
BRANCH   4   5
ATOM      5  N   UNL A   1      33.838  27.776  24.276  1.00  0.00    -0.355 N 
ATOM      6  C   UNL A   1      33.087  26.710  23.847  1.00  0.00     0.236 C 
ATOM      7  O   UNL A   1      33.732  25.827  23.259  1.00  0.00    -0.273 OA
ATOM      8  H   UNL A   1      34.806  27.679  24.126  1.00  0.00     0.163 HD
BRANCH   6   9
ATOM      9  C   UNL A   1      31.536  26.618  24.105  1.00  0.00     0.097 C 
ATOM     10  C   UNL A   1      30.621  24.110  23.387  1.00  0.00     0.009 C 
ATOM     11  C   UNL A   1      31.124  25.097  24.425  1.00  0.00     0.012 C 
ATOM     12  C   UNL A   1      30.062  25.627  25.402  1.00  0.00     0.007 C 
ATOM     13  C   UNL A   1      30.857  26.935  25.475  1.00  0.00     0.028 C 
BRANCH   9  14
ATOM     14  S   UNL A   1      30.544  27.244  22.638  1.00  0.00    -0.141 SA
BRANCH  14  15
ATOM     15  C   UNL A   1      29.441  28.567  23.265  1.00  0.00     0.047 C 
ATOM     16  C   UNL A   1      30.097  29.949  23.231  1.00  0.00     0.014 C 
ATOM     17  C   UNL A   1      28.004  28.575  22.731  1.00  0.00     0.014 C 
ATOM     18  C   UNL A   1      29.217  31.002  23.905  1.00  0.00     0.001 C 
ATOM     19  C   UNL A   1      27.149  29.691  23.339  1.00  0.00     0.001 C 
ATOM     20  C   UNL A   1      27.838  31.050  23.259  1.00  0.00     0.000 C 
ENDBRANCH  14  15
ENDBRANCH   9  14
ENDBRANCH   6   9
ENDBRANCH   4   5
ENDBRANCH   3   4
ENDBRANCH   2   3
ENDBRANCH   1   2
BRANCH   1  21
ATOM     21  C   UNL A   1      31.643  32.123  26.830  1.00  0.00     0.021 C 
BRANCH  21  22
ATOM     22  C   UNL A   1      32.875  32.842  27.366  1.00  0.00     0.116 C 
BRANCH  22  23
ATOM     23  N   UNL A   1      32.585  34.230  27.698  1.00  0.00    -0.352 N 
ATOM     24  C   UNL A   1      33.078  34.989  28.726  1.00  0.00     0.251 C 
ATOM     25  H   UNL A   1      31.946  34.684  27.102  1.00  0.00     0.163 HD
ATOM     26  O   UNL A   1      32.558  36.069  28.998  1.00  0.00    -0.269 OA
BRANCH  24  27
ATOM     27  C   UNL A   1      34.226  34.493  29.510  1.00  0.00     0.039 A 
ATOM     28  C   UNL A   1      33.993  33.893  30.749  1.00  0.00     0.014 A 
ATOM     29  C   UNL A   1      35.528  34.613  29.014  1.00  0.00     0.014 A 
ATOM     30  C   UNL A   1      35.065  33.364  31.468  1.00  0.00     0.010 A 
ATOM     31  C   UNL A   1      36.583  34.015  29.694  1.00  0.00     0.010 A 
ATOM     32  C   UNL A   1      36.364  33.391  30.932  1.00  0.00    -0.014 A 
BRANCH  32  33
ATOM     33  C   UNL A   1      37.504  32.769  31.649  1.00  0.00     0.031 A 
ATOM     34  C   UNL A   1      38.202  31.570  31.067  1.00  0.00     0.074 A 
ATOM     35  C   UNL A   1      37.863  33.240  32.859  1.00  0.00     0.049 A 
ATOM     36  N   UNL A   1      39.179  30.859  31.570  1.00  0.00    -0.248 NA
ATOM     37  C   UNL A   1      37.719  31.089  29.764  1.00  0.00     0.031 C 
ATOM     38  C   UNL A   1      37.221  34.357  33.554  1.00  0.00     0.029 A 
ATOM     39  N   UNL A   1      38.844  32.830  33.726  1.00  0.00    -0.354 N 
ATOM     40  C   UNL A   1      39.413  29.838  30.656  1.00  0.00     0.074 A 
ATOM     41  C   UNL A   1      38.439  29.989  29.597  1.00  0.00     0.031 C 
ATOM     42  C   UNL A   1      37.835  34.556  34.730  1.00  0.00     0.029 A 
ATOM     43  C   UNL A   1      38.886  33.555  34.894  1.00  0.00     0.049 A 
ATOM     44  H   UNL A   1      39.460  32.087  33.531  1.00  0.00     0.167 HD
ATOM     45  C   UNL A   1      40.365  28.875  30.689  1.00  0.00     0.037 A 
ATOM     46  C   UNL A   1      39.671  33.423  35.980  1.00  0.00     0.037 A 
ATOM     47  C   UNL A   1      41.338  28.744  31.742  1.00  0.00     0.049 A 
ATOM     48  C   UNL A   1      40.728  32.355  35.994  1.00  0.00     0.074 A 
ATOM     49  C   UNL A   1      42.392  27.853  31.834  1.00  0.00     0.029 A 
ATOM     50  N   UNL A   1      41.366  29.514  32.898  1.00  0.00    -0.354 N 
ATOM     51  N   UNL A   1      40.995  31.451  35.081  1.00  0.00    -0.248 NA
ATOM     52  C   UNL A   1      41.595  32.291  37.178  1.00  0.00     0.031 C 
ATOM     53  C   UNL A   1      43.019  28.041  33.070  1.00  0.00     0.029 A 
ATOM     54  C   UNL A   1      42.397  29.094  33.723  1.00  0.00     0.049 A 
ATOM     55  H   UNL A   1      40.744  30.250  33.100  1.00  0.00     0.167 HD
ATOM     56  C   UNL A   1      42.075  30.724  35.570  1.00  0.00     0.074 A 
ATOM     57  C   UNL A   1      42.419  31.303  36.853  1.00  0.00     0.031 C 
ATOM     58  C   UNL A   1      42.724  29.674  35.005  1.00  0.00     0.037 A 
BRANCH  45  59
ATOM     59  C   UNL A   1      40.383  27.878  29.559  1.00  0.00     0.058 A 
ATOM     60  C   UNL A   1      39.518  26.771  29.527  1.00  0.00     0.135 A 
ATOM     61  C   UNL A   1      41.280  28.034  28.489  1.00  0.00     0.135 A 
ATOM     62  F   UNL A   1      38.647  26.564  30.528  1.00  0.00    -0.206 F 
ATOM     63  C   UNL A   1      39.577  25.829  28.505  1.00  0.00     0.059 A 
ATOM     64  C   UNL A   1      41.331  27.123  27.437  1.00  0.00     0.059 A 
ATOM     65  F   UNL A   1      42.127  29.074  28.461  1.00  0.00    -0.206 F 
ATOM     66  C   UNL A   1      40.492  26.010  27.467  1.00  0.00     0.060 A 
BRANCH  66  67
ATOM     67  S   UNL A   1      40.579  24.763  26.166  1.00  0.00     0.124 S 
ATOM     68  O   UNL A   1      41.192  25.521  25.079  1.00  0.00    -0.237 OA
ATOM     69  O   UNL A   1      41.420  23.736  26.773  1.00  0.00    -0.237 OA
ATOM     70  O   UNL A   1      39.184  24.388  25.959  1.00  0.00    -0.744 OA
ENDBRANCH  66  67
ENDBRANCH  45  59
BRANCH  46  71
ATOM     71  C   UNL A   1      39.483  34.348  37.130  1.00  0.00     0.058 A 
ATOM     72  C   UNL A   1      38.878  33.915  38.318  1.00  0.00     0.135 A 
ATOM     73  C   UNL A   1      39.969  35.664  37.084  1.00  0.00     0.135 A 
ATOM     74  F   UNL A   1      38.392  32.667  38.408  1.00  0.00    -0.206 F 
ATOM     75  C   UNL A   1      38.765  34.751  39.424  1.00  0.00     0.059 A 
ATOM     76  C   UNL A   1      39.890  36.511  38.185  1.00  0.00     0.059 A 
ATOM     77  F   UNL A   1      40.571  36.121  35.975  1.00  0.00    -0.206 F 
ATOM     78  C   UNL A   1      39.287  36.045  39.351  1.00  0.00     0.060 A 
BRANCH  78  79
ATOM     79  S   UNL A   1      39.223  37.089  40.824  1.00  0.00     0.124 S 
ATOM     80  O   UNL A   1      38.508  38.257  40.327  1.00  0.00    -0.237 OA
ATOM     81  O   UNL A   1      38.492  36.243  41.764  1.00  0.00    -0.237 OA
ATOM     82  O   UNL A   1      40.631  37.299  41.149  1.00  0.00    -0.744 OA
ENDBRANCH  78  79
ENDBRANCH  46  71
BRANCH  58  83
ATOM     83  C   UNL A   1      43.889  29.091  35.758  1.00  0.00     0.058 A 
ATOM     84  C   UNL A   1      43.736  28.009  36.639  1.00  0.00     0.135 A 
ATOM     85  C   UNL A   1      45.187  29.586  35.549  1.00  0.00     0.135 A 
ATOM     86  F   UNL A   1      42.517  27.501  36.880  1.00  0.00    -0.206 F 
ATOM     87  C   UNL A   1      44.824  27.452  37.302  1.00  0.00     0.059 A 
ATOM     88  C   UNL A   1      46.295  29.025  36.179  1.00  0.00     0.059 A 
ATOM     89  F   UNL A   1      45.393  30.613  34.710  1.00  0.00    -0.206 F 
ATOM     90  C   UNL A   1      46.101  27.965  37.063  1.00  0.00     0.060 A 
BRANCH  90  91
ATOM     91  S   UNL A   1      47.509  27.210  37.903  1.00  0.00     0.124 S 
ATOM     92  O   UNL A   1      47.703  28.119  39.027  1.00  0.00    -0.237 OA
ATOM     93  O   UNL A   1      46.995  25.885  38.241  1.00  0.00    -0.237 OA
ATOM     94  O   UNL A   1      48.561  27.228  36.892  1.00  0.00    -0.744 OA
ENDBRANCH  90  91
ENDBRANCH  58  83
ENDBRANCH  32  33
ENDBRANCH  24  27
ENDBRANCH  22  23
ENDBRANCH  21  22
ENDBRANCH   1  21
TORSDOF 18
ENDMDL
MODEL 2
REMARK VINA RESULT:     -10.9      2.199      8.531
REMARK SMILES C[C@@H]1CC[C@@]1(SC1CCCCC1)C(=O)NCCCCCCNC(=O)c1ccc(-c2c3nc(c(-c4c(F)cc(S(=O)(=O)[O-])cc4F)c4ccc([nH]4)c(-c4c(F)cc(S(=O)(=O)[O-])cc4F)c4nc(c(-c5c(F)cc(S(=O)(=O)[O-])cc5F)c5ccc2[nH]5)C=C4)C=C3)cc1
REMARK SMILES IDX 19 1 18 2 17 3 16 4 15 5 13 6 14 7 5 9 1 10 2 11 3 12 4 13
REMARK SMILES IDX 6 14 7 15 8 16 12 17 9 18 11 19 10 20 20 21 21 22 22 23
REMARK SMILES IDX 23 24 24 26 25 27 26 28 90 29 27 30 89 31 28 32 29 33 30 34
REMARK SMILES IDX 83 35 31 36 88 37 82 38 84 39 32 40 87 41 81 42 80 43 33 45
REMARK SMILES IDX 67 46 46 47 66 48 47 49 50 50 65 51 85 52 48 53 49 54 64 56
REMARK SMILES IDX 86 57 51 58 34 59 35 60 44 61 36 62 37 63 43 64 45 65 38 66
REMARK SMILES IDX 39 67 40 68 41 69 42 70 68 71 69 72 78 73 70 74 71 75 77 76
REMARK SMILES IDX 79 77 72 78 73 79 74 80 75 81 76 82 52 83 53 84 62 85 54 86
REMARK SMILES IDX 55 87 61 88 63 89 56 90 57 91 58 92 59 93 60 94
REMARK H PARENT 15 8 22 25 84 44 50 55
REMARK Flexibility Score: inf
ROOT
ATOM      1  C   UNL A   1      36.955  23.367  24.510  1.00  0.00     0.002 C 
ENDROOT
BRANCH   1   2
ATOM      2  C   UNL A   1      35.495  22.899  24.455  1.00  0.00     0.002 C 
BRANCH   2   3
ATOM      3  C   UNL A   1      34.502  23.820  25.175  1.00  0.00     0.021 C 
BRANCH   3   4
ATOM      4  C   UNL A   1      33.433  24.377  24.244  1.00  0.00     0.116 C 
BRANCH   4   5
ATOM      5  N   UNL A   1      33.769  25.726  23.843  1.00  0.00    -0.355 N 
ATOM      6  C   UNL A   1      33.069  26.903  23.946  1.00  0.00     0.236 C 
ATOM      7  O   UNL A   1      33.693  27.909  23.574  1.00  0.00    -0.273 OA
ATOM      8  H   UNL A   1      34.655  25.815  23.422  1.00  0.00     0.163 HD
BRANCH   6   9
ATOM      9  C   UNL A   1      31.588  26.954  24.477  1.00  0.00     0.097 C 
ATOM     10  C   UNL A   1      30.483  29.425  23.916  1.00  0.00     0.009 C 
ATOM     11  C   UNL A   1      30.719  27.964  23.577  1.00  0.00     0.012 C 
ATOM     12  C   UNL A   1      29.506  27.038  23.769  1.00  0.00     0.007 C 
ATOM     13  C   UNL A   1      30.488  25.910  24.103  1.00  0.00     0.028 C 
BRANCH   9  14
ATOM     14  S   UNL A   1      31.506  27.484  26.277  1.00  0.00    -0.141 SA
BRANCH  14  15
ATOM     15  C   UNL A   1      32.718  28.842  26.490  1.00  0.00     0.047 C 
ATOM     16  C   UNL A   1      32.083  30.122  27.038  1.00  0.00     0.014 C 
ATOM     17  C   UNL A   1      34.036  28.485  27.184  1.00  0.00     0.014 C 
ATOM     18  C   UNL A   1      33.081  31.279  27.054  1.00  0.00     0.001 C 
ATOM     19  C   UNL A   1      35.000  29.672  27.282  1.00  0.00     0.001 C 
ATOM     20  C   UNL A   1      34.323  30.913  27.857  1.00  0.00     0.000 C 
ENDBRANCH  14  15
ENDBRANCH   9  14
ENDBRANCH   6   9
ENDBRANCH   4   5
ENDBRANCH   3   4
ENDBRANCH   2   3
ENDBRANCH   1   2
BRANCH   1  21
ATOM     21  C   UNL A   1      37.690  23.005  25.802  1.00  0.00     0.021 C 
BRANCH  21  22
ATOM     22  C   UNL A   1      38.533  24.139  26.374  1.00  0.00     0.116 C 
BRANCH  22  23
ATOM     23  N   UNL A   1      39.947  23.961  26.074  1.00  0.00    -0.352 N 
ATOM     24  C   UNL A   1      41.008  24.748  26.436  1.00  0.00     0.251 C 
ATOM     25  H   UNL A   1      40.170  23.166  25.538  1.00  0.00     0.163 HD
ATOM     26  O   UNL A   1      42.106  24.581  25.910  1.00  0.00    -0.269 OA
BRANCH  24  27
ATOM     27  C   UNL A   1      40.817  25.805  27.449  1.00  0.00     0.039 A 
ATOM     28  C   UNL A   1      39.812  25.654  28.406  1.00  0.00     0.014 A 
ATOM     29  C   UNL A   1      41.638  26.937  27.455  1.00  0.00     0.014 A 
ATOM     30  C   UNL A   1      39.666  26.616  29.406  1.00  0.00     0.010 A 
ATOM     31  C   UNL A   1      41.542  27.852  28.497  1.00  0.00     0.010 A 
ATOM     32  C   UNL A   1      40.550  27.706  29.479  1.00  0.00    -0.014 A 
BRANCH  32  33
ATOM     33  C   UNL A   1      40.455  28.700  30.577  1.00  0.00     0.031 A 
ATOM     34  C   UNL A   1      41.322  28.565  31.798  1.00  0.00     0.074 A 
ATOM     35  C   UNL A   1      39.536  29.682  30.505  1.00  0.00     0.049 A 
ATOM     36  N   UNL A   1      41.344  29.299  32.881  1.00  0.00    -0.248 NA
ATOM     37  C   UNL A   1      42.266  27.437  31.820  1.00  0.00     0.031 C 
ATOM     38  C   UNL A   1      38.596  29.878  29.399  1.00  0.00     0.029 A 
ATOM     39  N   UNL A   1      39.229  30.690  31.383  1.00  0.00    -0.354 N 
ATOM     40  C   UNL A   1      42.287  28.714  33.717  1.00  0.00     0.074 A 
ATOM     41  C   UNL A   1      42.774  27.531  33.040  1.00  0.00     0.031 C 
ATOM     42  C   UNL A   1      37.832  30.950  29.656  1.00  0.00     0.029 A 
ATOM     43  C   UNL A   1      38.196  31.493  30.962  1.00  0.00     0.049 A 
ATOM     44  H   UNL A   1      39.704  30.825  32.235  1.00  0.00     0.167 HD
ATOM     45  C   UNL A   1      42.721  29.135  34.929  1.00  0.00     0.037 A 
ATOM     46  C   UNL A   1      37.597  32.539  31.564  1.00  0.00     0.037 A 
ATOM     47  C   UNL A   1      42.239  30.323  35.586  1.00  0.00     0.049 A 
ATOM     48  C   UNL A   1      38.099  32.998  32.904  1.00  0.00     0.074 A 
ATOM     49  C   UNL A   1      42.666  30.881  36.777  1.00  0.00     0.029 A 
ATOM     50  N   UNL A   1      41.208  31.126  35.117  1.00  0.00    -0.354 N 
ATOM     51  N   UNL A   1      39.054  32.485  33.644  1.00  0.00    -0.248 NA
ATOM     52  C   UNL A   1      37.451  34.179  33.489  1.00  0.00     0.031 C 
ATOM     53  C   UNL A   1      41.854  31.984  37.060  1.00  0.00     0.029 A 
ATOM     54  C   UNL A   1      40.962  32.155  36.013  1.00  0.00     0.049 A 
ATOM     55  H   UNL A   1      40.724  30.986  34.271  1.00  0.00     0.167 HD
ATOM     56  C   UNL A   1      39.136  33.293  34.773  1.00  0.00     0.074 A 
ATOM     57  C   UNL A   1      38.142  34.336  34.611  1.00  0.00     0.031 C 
ATOM     58  C   UNL A   1      39.962  33.183  35.844  1.00  0.00     0.037 A 
BRANCH  45  59
ATOM     59  C   UNL A   1      43.755  28.291  35.628  1.00  0.00     0.058 A 
ATOM     60  C   UNL A   1      45.132  28.464  35.408  1.00  0.00     0.135 A 
ATOM     61  C   UNL A   1      43.362  27.293  36.536  1.00  0.00     0.135 A 
ATOM     62  F   UNL A   1      45.567  29.395  34.542  1.00  0.00    -0.206 F 
ATOM     63  C   UNL A   1      46.077  27.646  36.019  1.00  0.00     0.059 A 
ATOM     64  C   UNL A   1      44.292  26.487  37.187  1.00  0.00     0.059 A 
ATOM     65  F   UNL A   1      42.062  27.085  36.792  1.00  0.00    -0.206 F 
ATOM     66  C   UNL A   1      45.647  26.656  36.903  1.00  0.00     0.060 A 
BRANCH  66  67
ATOM     67  S   UNL A   1      46.881  25.582  37.663  1.00  0.00     0.124 S 
ATOM     68  O   UNL A   1      48.061  25.881  36.857  1.00  0.00    -0.237 OA
ATOM     69  O   UNL A   1      46.915  26.070  39.039  1.00  0.00    -0.237 OA
ATOM     70  O   UNL A   1      46.325  24.244  37.488  1.00  0.00    -0.744 OA
ENDBRANCH  66  67
ENDBRANCH  45  59
BRANCH  46  71
ATOM     71  C   UNL A   1      36.469  33.224  30.879  1.00  0.00     0.058 A 
ATOM     72  C   UNL A   1      35.156  33.119  31.360  1.00  0.00     0.135 A 
ATOM     73  C   UNL A   1      36.695  34.053  29.768  1.00  0.00     0.135 A 
ATOM     74  F   UNL A   1      34.890  32.333  32.414  1.00  0.00    -0.206 F 
ATOM     75  C   UNL A   1      34.106  33.814  30.770  1.00  0.00     0.059 A 
ATOM     76  C   UNL A   1      35.665  34.778  29.176  1.00  0.00     0.059 A 
ATOM     77  F   UNL A   1      37.935  34.200  29.280  1.00  0.00    -0.206 F 
ATOM     78  C   UNL A   1      34.374  34.653  29.685  1.00  0.00     0.060 A 
BRANCH  78  79
ATOM     79  S   UNL A   1      33.022  35.627  28.989  1.00  0.00     0.124 S 
ATOM     80  O   UNL A   1      32.285  36.009  30.188  1.00  0.00    -0.237 OA
ATOM     81  O   UNL A   1      33.740  36.701  28.309  1.00  0.00    -0.237 OA
ATOM     82  O   UNL A   1      32.346  34.680  28.106  1.00  0.00    -0.744 OA
ENDBRANCH  78  79
ENDBRANCH  46  71
BRANCH  58  83
ATOM     83  C   UNL A   1      39.846  34.227  36.922  1.00  0.00     0.058 A 
ATOM     84  C   UNL A   1      40.409  35.505  36.780  1.00  0.00     0.135 A 
ATOM     85  C   UNL A   1      39.112  33.961  38.090  1.00  0.00     0.135 A 
ATOM     86  F   UNL A   1      41.127  35.810  35.687  1.00  0.00    -0.206 F 
ATOM     87  C   UNL A   1      40.266  36.476  37.765  1.00  0.00     0.059 A 
ATOM     88  C   UNL A   1      38.930  34.927  39.075  1.00  0.00     0.059 A 
ATOM     89  F   UNL A   1      38.544  32.759  38.274  1.00  0.00    -0.206 F 
ATOM     90  C   UNL A   1      39.521  36.179  38.909  1.00  0.00     0.060 A 
BRANCH  90  91
ATOM     91  S   UNL A   1      39.313  37.460  40.163  1.00  0.00     0.124 S 
ATOM     92  O   UNL A   1      38.649  36.720  41.231  1.00  0.00    -0.237 OA
ATOM     93  O   UNL A   1      40.692  37.859  40.431  1.00  0.00    -0.237 OA
ATOM     94  O   UNL A   1      38.495  38.465  39.493  1.00  0.00    -0.744 OA
ENDBRANCH  90  91
ENDBRANCH  58  83
ENDBRANCH  32  33
ENDBRANCH  24  27
ENDBRANCH  22  23
ENDBRANCH  21  22
ENDBRANCH   1  21
TORSDOF 18
ENDMDL
MODEL 3
REMARK VINA RESULT:     -10.8      3.168      9.349
REMARK SMILES C[C@@H]1CC[C@@]1(SC1CCCCC1)C(=O)NCCCCCCNC(=O)c1ccc(-c2c3nc(c(-c4c(F)cc(S(=O)(=O)[O-])cc4F)c4ccc([nH]4)c(-c4c(F)cc(S(=O)(=O)[O-])cc4F)c4nc(c(-c5c(F)cc(S(=O)(=O)[O-])cc5F)c5ccc2[nH]5)C=C4)C=C3)cc1
REMARK SMILES IDX 19 1 18 2 17 3 16 4 15 5 13 6 14 7 5 9 1 10 2 11 3 12 4 13
REMARK SMILES IDX 6 14 7 15 8 16 12 17 9 18 11 19 10 20 20 21 21 22 22 23
REMARK SMILES IDX 23 24 24 26 25 27 26 28 90 29 27 30 89 31 28 32 29 33 30 34
REMARK SMILES IDX 83 35 31 36 88 37 82 38 84 39 32 40 87 41 81 42 80 43 33 45
REMARK SMILES IDX 67 46 46 47 66 48 47 49 50 50 65 51 85 52 48 53 49 54 64 56
REMARK SMILES IDX 86 57 51 58 34 59 35 60 44 61 36 62 37 63 43 64 45 65 38 66
REMARK SMILES IDX 39 67 40 68 41 69 42 70 68 71 69 72 78 73 70 74 71 75 77 76
REMARK SMILES IDX 79 77 72 78 73 79 74 80 75 81 76 82 52 83 53 84 62 85 54 86
REMARK SMILES IDX 55 87 61 88 63 89 56 90 57 91 58 92 59 93 60 94
REMARK H PARENT 15 8 22 25 84 44 50 55
REMARK Flexibility Score: inf
ROOT
ATOM      1  C   UNL A   1      40.057  22.037  26.397  1.00  0.00     0.002 C 
ENDROOT
BRANCH   1   2
ATOM      2  C   UNL A   1      38.726  22.798  26.461  1.00  0.00     0.002 C 
BRANCH   2   3
ATOM      3  C   UNL A   1      37.780  22.529  25.284  1.00  0.00     0.021 C 
BRANCH   3   4
ATOM      4  C   UNL A   1      36.691  21.519  25.623  1.00  0.00     0.116 C 
BRANCH   4   5
ATOM      5  N   UNL A   1      35.773  22.077  26.593  1.00  0.00    -0.355 N 
ATOM      6  C   UNL A   1      34.446  22.415  26.494  1.00  0.00     0.236 C 
ATOM      7  O   UNL A   1      33.929  22.797  27.556  1.00  0.00    -0.273 OA
ATOM      8  H   UNL A   1      36.170  22.244  27.478  1.00  0.00     0.163 HD
BRANCH   6   9
ATOM      9  C   UNL A   1      33.660  22.339  25.131  1.00  0.00     0.097 C 
ATOM     10  C   UNL A   1      31.462  24.013  25.231  1.00  0.00     0.009 C 
ATOM     11  C   UNL A   1      32.906  23.733  24.856  1.00  0.00     0.012 C 
ATOM     12  C   UNL A   1      33.174  23.540  23.354  1.00  0.00     0.007 C 
ATOM     13  C   UNL A   1      34.309  22.583  23.732  1.00  0.00     0.028 C 
BRANCH   9  14
ATOM     14  S   UNL A   1      32.412  20.935  25.120  1.00  0.00    -0.141 SA
BRANCH  14  15
ATOM     15  C   UNL A   1      33.161  19.562  24.165  1.00  0.00     0.047 C 
ATOM     16  C   UNL A   1      34.124  18.716  25.001  1.00  0.00     0.014 C 
ATOM     17  C   UNL A   1      32.208  18.716  23.313  1.00  0.00     0.014 C 
ATOM     18  C   UNL A   1      34.851  17.682  24.140  1.00  0.00     0.001 C 
ATOM     19  C   UNL A   1      32.929  17.620  22.523  1.00  0.00     0.001 C 
ATOM     20  C   UNL A   1      33.856  16.791  23.407  1.00  0.00     0.000 C 
ENDBRANCH  14  15
ENDBRANCH   9  14
ENDBRANCH   6   9
ENDBRANCH   4   5
ENDBRANCH   3   4
ENDBRANCH   2   3
ENDBRANCH   1   2
BRANCH   1  21
ATOM     21  C   UNL A   1      40.819  21.975  27.722  1.00  0.00     0.021 C 
BRANCH  21  22
ATOM     22  C   UNL A   1      41.991  22.945  27.809  1.00  0.00     0.116 C 
BRANCH  22  23
ATOM     23  N   UNL A   1      42.255  23.584  26.528  1.00  0.00    -0.352 N 
ATOM     24  C   UNL A   1      42.069  24.891  26.164  1.00  0.00     0.251 C 
ATOM     25  H   UNL A   1      42.618  22.995  25.827  1.00  0.00     0.163 HD
ATOM     26  O   UNL A   1      42.128  25.216  24.980  1.00  0.00    -0.269 OA
BRANCH  24  27
ATOM     27  C   UNL A   1      41.784  25.901  27.203  1.00  0.00     0.039 A 
ATOM     28  C   UNL A   1      40.672  25.729  28.029  1.00  0.00     0.014 A 
ATOM     29  C   UNL A   1      42.621  27.009  27.363  1.00  0.00     0.014 A 
ATOM     30  C   UNL A   1      40.430  26.644  29.054  1.00  0.00     0.010 A 
ATOM     31  C   UNL A   1      42.424  27.874  28.433  1.00  0.00     0.010 A 
ATOM     32  C   UNL A   1      41.322  27.705  29.286  1.00  0.00    -0.014 A 
BRANCH  32  33
ATOM     33  C   UNL A   1      41.120  28.645  30.416  1.00  0.00     0.031 A 
ATOM     34  C   UNL A   1      41.956  28.523  31.661  1.00  0.00     0.074 A 
ATOM     35  C   UNL A   1      40.136  29.562  30.349  1.00  0.00     0.049 A 
ATOM     36  N   UNL A   1      41.891  29.214  32.770  1.00  0.00    -0.248 NA
ATOM     37  C   UNL A   1      42.978  27.466  31.673  1.00  0.00     0.031 C 
ATOM     38  C   UNL A   1      39.220  29.735  29.219  1.00  0.00     0.029 A 
ATOM     39  N   UNL A   1      39.729  30.509  31.253  1.00  0.00    -0.354 N 
ATOM     40  C   UNL A   1      42.846  28.664  33.616  1.00  0.00     0.074 A 
ATOM     41  C   UNL A   1      43.438  27.547  32.913  1.00  0.00     0.031 C 
ATOM     42  C   UNL A   1      38.373  30.739  29.490  1.00  0.00     0.029 A 
ATOM     43  C   UNL A   1      38.654  31.253  30.827  1.00  0.00     0.049 A 
ATOM     44  H   UNL A   1      40.166  30.644  32.126  1.00  0.00     0.167 HD
ATOM     45  C   UNL A   1      43.209  29.066  34.858  1.00  0.00     0.037 A 
ATOM     46  C   UNL A   1      37.963  32.230  31.447  1.00  0.00     0.037 A 
ATOM     47  C   UNL A   1      42.622  30.189  35.541  1.00  0.00     0.049 A 
ATOM     48  C   UNL A   1      38.387  32.669  32.820  1.00  0.00     0.074 A 
ATOM     49  C   UNL A   1      42.970  30.729  36.766  1.00  0.00     0.029 A 
ATOM     50  N   UNL A   1      41.551  30.936  35.067  1.00  0.00    -0.354 N 
ATOM     51  N   UNL A   1      39.352  32.196  33.572  1.00  0.00    -0.248 NA
ATOM     52  C   UNL A   1      37.637  33.777  33.426  1.00  0.00     0.031 C 
ATOM     53  C   UNL A   1      42.072  31.759  37.063  1.00  0.00     0.029 A 
ATOM     54  C   UNL A   1      41.204  31.908  35.992  1.00  0.00     0.049 A 
ATOM     55  H   UNL A   1      41.106  30.796  34.201  1.00  0.00     0.167 HD
ATOM     56  C   UNL A   1      39.341  32.963  34.733  1.00  0.00     0.074 A 
ATOM     57  C   UNL A   1      38.280  33.938  34.576  1.00  0.00     0.031 C 
ATOM     58  C   UNL A   1      40.138  32.868  35.827  1.00  0.00     0.037 A 
BRANCH  45  59
ATOM     59  C   UNL A   1      44.279  28.271  35.560  1.00  0.00     0.058 A 
ATOM     60  C   UNL A   1      43.973  27.196  36.410  1.00  0.00     0.135 A 
ATOM     61  C   UNL A   1      45.636  28.589  35.376  1.00  0.00     0.135 A 
ATOM     62  F   UNL A   1      42.693  26.853  36.633  1.00  0.00    -0.206 F 
ATOM     63  C   UNL A   1      44.965  26.500  37.093  1.00  0.00     0.059 A 
ATOM     64  C   UNL A   1      46.648  27.883  36.021  1.00  0.00     0.059 A 
ATOM     65  F   UNL A   1      45.991  29.602  34.571  1.00  0.00    -0.206 F 
ATOM     66  C   UNL A   1      46.300  26.855  36.897  1.00  0.00     0.060 A 
BRANCH  66  67
ATOM     67  S   UNL A   1      47.574  25.965  37.814  1.00  0.00     0.124 S 
ATOM     68  O   UNL A   1      47.096  26.106  39.186  1.00  0.00    -0.237 OA
ATOM     69  O   UNL A   1      47.486  24.622  37.248  1.00  0.00    -0.237 OA
ATOM     70  O   UNL A   1      48.797  26.697  37.499  1.00  0.00    -0.744 OA
ENDBRANCH  66  67
ENDBRANCH  45  59
BRANCH  46  71
ATOM     71  C   UNL A   1      36.811  32.859  30.749  1.00  0.00     0.058 A 
ATOM     72  C   UNL A   1      35.493  32.467  31.025  1.00  0.00     0.135 A 
ATOM     73  C   UNL A   1      37.004  33.914  29.843  1.00  0.00     0.135 A 
ATOM     74  F   UNL A   1      35.258  31.459  31.879  1.00  0.00    -0.206 F 
ATOM     75  C   UNL A   1      34.406  33.101  30.432  1.00  0.00     0.059 A 
ATOM     76  C   UNL A   1      35.932  34.580  29.257  1.00  0.00     0.059 A 
ATOM     77  F   UNL A   1      38.245  34.338  29.558  1.00  0.00    -0.206 F 
ATOM     78  C   UNL A   1      34.636  34.166  29.558  1.00  0.00     0.060 A 
BRANCH  78  79
ATOM     79  S   UNL A   1      33.215  35.045  28.871  1.00  0.00     0.124 S 
ATOM     80  O   UNL A   1      32.413  35.288  30.064  1.00  0.00    -0.237 OA
ATOM     81  O   UNL A   1      33.845  36.219  28.273  1.00  0.00    -0.237 OA
ATOM     82  O   UNL A   1      32.659  34.089  27.918  1.00  0.00    -0.744 OA
ENDBRANCH  78  79
ENDBRANCH  46  71
BRANCH  58  83
ATOM     83  C   UNL A   1      39.913  33.858  36.939  1.00  0.00     0.058 A 
ATOM     84  C   UNL A   1      40.426  35.163  36.885  1.00  0.00     0.135 A 
ATOM     85  C   UNL A   1      39.122  33.511  38.047  1.00  0.00     0.135 A 
ATOM     86  F   UNL A   1      41.194  35.545  35.852  1.00  0.00    -0.206 F 
ATOM     87  C   UNL A   1      40.182  36.083  37.900  1.00  0.00     0.059 A 
ATOM     88  C   UNL A   1      38.840  34.423  39.060  1.00  0.00     0.059 A 
ATOM     89  F   UNL A   1      38.598  32.279  38.146  1.00  0.00    -0.206 F 
ATOM     90  C   UNL A   1      39.385  35.704  38.982  1.00  0.00     0.060 A 
BRANCH  90  91
ATOM     91  S   UNL A   1      39.047  36.919  40.274  1.00  0.00     0.124 S 
ATOM     92  O   UNL A   1      40.364  37.076  40.882  1.00  0.00    -0.237 OA
ATOM     93  O   UNL A   1      38.561  38.062  39.507  1.00  0.00    -0.237 OA
ATOM     94  O   UNL A   1      38.046  36.260  41.108  1.00  0.00    -0.744 OA
ENDBRANCH  90  91
ENDBRANCH  58  83
ENDBRANCH  32  33
ENDBRANCH  24  27
ENDBRANCH  22  23
ENDBRANCH  21  22
ENDBRANCH   1  21
TORSDOF 18
ENDMDL
