MODEL 1
REMARK VINA RESULT:     -11.4      0.000      0.000
REMARK SMILES COc1ccc(CCC(=O)Nc2ccc(N3CCCC3)cc2C(=O)NCCCCCCNC(=O)c2ccc(-c3c4nc(c(-c5c(F)cc(S(=O)(=O)[O-])cc5F)c5ccc([nH]5)c(-c5c(F)cc(S(=O)(=O)[O-])cc5F)c5nc(c(-c6c(F)cc(S(=O)(=O)[O-])cc6F)c6ccc3[nH]6)C=C5)C=C4)cc2)cc1
REMARK SMILES IDX 27 1 26 2 25 3 23 4 24 5 22 7 12 8 13 9 14 10 21 11 15 12
REMARK SMILES IDX 11 13 9 14 10 15 8 17 7 18 6 19 3 20 4 21 102 22 5 23 101 24
REMARK SMILES IDX 2 25 1 26 16 27 17 28 20 29 18 30 19 31 28 32 29 33 30 34
REMARK SMILES IDX 31 35 32 36 33 37 34 39 35 40 36 41 100 42 37 43 99 44 38 45
REMARK SMILES IDX 39 46 40 47 93 48 41 49 98 50 92 51 94 52 42 53 97 54 91 55
REMARK SMILES IDX 90 56 43 58 77 59 56 60 76 61 57 62 60 63 75 64 95 65 58 66
REMARK SMILES IDX 59 67 74 69 96 70 61 71 44 72 45 73 54 74 46 75 47 76 53 77
REMARK SMILES IDX 55 78 48 79 49 80 50 81 51 82 52 83 78 84 79 85 88 86 80 87
REMARK SMILES IDX 81 88 87 89 89 90 82 91 83 92 84 93 85 94 86 95 62 96 63 97
REMARK SMILES IDX 72 98 64 99 65 100 71 101 73 102 66 103 67 104 68 105 69 106
REMARK SMILES IDX 70 107
REMARK H PARENT 25 6 11 16 32 38 94 57 60 68
REMARK Flexibility Score: inf
ROOT
ATOM      1  C   UNL A   1      39.304  22.798  26.055  1.00  0.00     0.021 C 
ENDROOT
BRANCH   1   2
ATOM      2  C   UNL A   1      37.783  22.831  25.884  1.00  0.00     0.116 C 
BRANCH   2   3
ATOM      3  N   UNL A   1      37.309  22.164  24.705  1.00  0.00    -0.352 N 
ATOM      4  C   UNL A   1      36.116  21.459  24.677  1.00  0.00     0.253 C 
ATOM      5  O   UNL A   1      36.260  20.311  25.042  1.00  0.00    -0.269 OA
ATOM      6  H   UNL A   1      37.852  22.209  23.884  1.00  0.00     0.163 HD
BRANCH   4   7
ATOM      7  C   UNL A   1      34.888  22.109  23.994  1.00  0.00     0.065 A 
ATOM      8  C   UNL A   1      33.729  21.520  24.386  1.00  0.00     0.054 A 
ATOM      9  C   UNL A   1      32.643  21.499  23.525  1.00  0.00     0.029 A 
ATOM     10  C   UNL A   1      32.458  22.630  22.742  1.00  0.00     0.028 A 
ATOM     11  C   UNL A   1      34.623  23.347  23.379  1.00  0.00     0.042 A 
ATOM     12  C   UNL A   1      33.340  23.696  22.870  1.00  0.00     0.038 A 
BRANCH   8  13
ATOM     13  N   UNL A   1      33.529  21.428  25.780  1.00  0.00    -0.325 N 
ATOM     14  C   UNL A   1      33.849  22.399  26.738  1.00  0.00     0.224 C 
ATOM     15  O   UNL A   1      34.071  21.966  27.878  1.00  0.00    -0.275 OA
ATOM     16  H   UNL A   1      33.124  20.595  26.114  1.00  0.00     0.169 HD
BRANCH  14  17
ATOM     17  C   UNL A   1      33.712  24.012  26.506  1.00  0.00     0.105 C 
BRANCH  17  18
ATOM     18  C   UNL A   1      32.480  25.076  26.335  1.00  0.00     0.045 C 
BRANCH  18  19
ATOM     19  C   UNL A   1      32.590  26.626  26.127  1.00  0.00    -0.047 A 
ATOM     20  C   UNL A   1      33.078  29.335  26.768  1.00  0.00     0.118 A 
ATOM     21  C   UNL A   1      31.814  28.803  26.929  1.00  0.00     0.046 A 
ATOM     22  C   UNL A   1      33.970  28.646  25.941  1.00  0.00     0.046 A 
ATOM     23  C   UNL A   1      31.544  27.509  26.458  1.00  0.00     0.007 A 
ATOM     24  C   UNL A   1      33.751  27.266  25.674  1.00  0.00     0.007 A 
BRANCH  20  25
ATOM     25  O   UNL A   1      33.480  30.134  27.814  1.00  0.00    -0.497 OA
ATOM     26  C   UNL A   1      34.622  30.951  27.660  1.00  0.00     0.278 C 
ENDBRANCH  20  25
ENDBRANCH  18  19
ENDBRANCH  17  18
ENDBRANCH  14  17
ENDBRANCH   8  13
BRANCH  12  27
ATOM     27  N   UNL A   1      32.893  24.979  22.635  1.00  0.00    -0.372 N 
ATOM     28  C   UNL A   1      33.642  26.080  22.071  1.00  0.00     0.116 C 
ATOM     29  C   UNL A   1      31.486  25.369  22.822  1.00  0.00     0.116 C 
ATOM     30  C   UNL A   1      32.861  27.321  22.496  1.00  0.00     0.023 C 
ATOM     31  C   UNL A   1      31.421  26.851  22.423  1.00  0.00     0.023 C 
ENDBRANCH  12  27
ENDBRANCH   4   7
ENDBRANCH   2   3
ENDBRANCH   1   2
BRANCH   1  32
ATOM     32  C   UNL A   1      39.955  21.989  27.196  1.00  0.00     0.002 C 
BRANCH  32  33
ATOM     33  C   UNL A   1      41.474  21.824  27.312  1.00  0.00     0.002 C 
BRANCH  33  34
ATOM     34  C   UNL A   1      42.217  22.637  28.362  1.00  0.00     0.021 C 
BRANCH  34  35
ATOM     35  C   UNL A   1      43.074  23.769  27.829  1.00  0.00     0.116 C 
BRANCH  35  36
ATOM     36  N   UNL A   1      42.686  24.202  26.497  1.00  0.00    -0.352 N 
ATOM     37  C   UNL A   1      41.952  25.314  26.165  1.00  0.00     0.251 C 
ATOM     38  H   UNL A   1      42.982  23.634  25.749  1.00  0.00     0.163 HD
ATOM     39  O   UNL A   1      41.564  25.494  25.009  1.00  0.00    -0.269 OA
BRANCH  37  40
ATOM     40  C   UNL A   1      41.605  26.278  27.228  1.00  0.00     0.039 A 
ATOM     41  C   UNL A   1      40.570  25.976  28.113  1.00  0.00     0.014 A 
ATOM     42  C   UNL A   1      42.363  27.443  27.392  1.00  0.00     0.014 A 
ATOM     43  C   UNL A   1      40.324  26.822  29.195  1.00  0.00     0.010 A 
ATOM     44  C   UNL A   1      42.175  28.235  28.518  1.00  0.00     0.010 A 
ATOM     45  C   UNL A   1      41.144  27.942  29.423  1.00  0.00    -0.014 A 
BRANCH  45  46
ATOM     46  C   UNL A   1      40.919  28.834  30.589  1.00  0.00     0.031 A 
ATOM     47  C   UNL A   1      41.768  28.677  31.822  1.00  0.00     0.074 A 
ATOM     48  C   UNL A   1      39.926  29.744  30.557  1.00  0.00     0.049 A 
ATOM     49  N   UNL A   1      41.703  29.322  32.958  1.00  0.00    -0.248 NA
ATOM     50  C   UNL A   1      42.812  27.639  31.784  1.00  0.00     0.031 C 
ATOM     51  C   UNL A   1      39.006  29.953  29.436  1.00  0.00     0.029 A 
ATOM     52  N   UNL A   1      39.519  30.661  31.493  1.00  0.00    -0.354 N 
ATOM     53  C   UNL A   1      42.682  28.761  33.768  1.00  0.00     0.074 A 
ATOM     54  C   UNL A   1      43.286  27.681  33.020  1.00  0.00     0.031 C 
ATOM     55  C   UNL A   1      38.162  30.953  29.738  1.00  0.00     0.029 A 
ATOM     56  C   UNL A   1      38.453  31.431  31.087  1.00  0.00     0.049 A 
ATOM     57  H   UNL A   1      39.950  30.760  32.371  1.00  0.00     0.167 HD
ATOM     58  C   UNL A   1      43.065  29.131  35.013  1.00  0.00     0.037 A 
ATOM     59  C   UNL A   1      37.783  32.405  31.731  1.00  0.00     0.037 A 
ATOM     60  C   UNL A   1      42.473  30.224  35.739  1.00  0.00     0.049 A 
ATOM     61  C   UNL A   1      38.221  32.795  33.118  1.00  0.00     0.074 A 
ATOM     62  C   UNL A   1      42.823  30.719  36.983  1.00  0.00     0.029 A 
ATOM     63  N   UNL A   1      41.405  30.987  35.291  1.00  0.00    -0.354 N 
ATOM     64  N   UNL A   1      39.196  32.300  33.845  1.00  0.00    -0.248 NA
ATOM     65  C   UNL A   1      37.474  33.877  33.773  1.00  0.00     0.031 C 
ATOM     66  C   UNL A   1      41.932  31.745  37.309  1.00  0.00     0.029 A 
ATOM     67  C   UNL A   1      41.065  31.932  36.244  1.00  0.00     0.049 A 
ATOM     68  H   UNL A   1      40.954  30.872  34.422  1.00  0.00     0.167 HD
ATOM     69  C   UNL A   1      39.198  33.030  35.029  1.00  0.00     0.074 A 
ATOM     70  C   UNL A   1      38.135  34.008  34.915  1.00  0.00     0.031 C 
ATOM     71  C   UNL A   1      40.007  32.903  36.110  1.00  0.00     0.037 A 
BRANCH  58  72
ATOM     72  C   UNL A   1      44.174  28.350  35.665  1.00  0.00     0.058 A 
ATOM     73  C   UNL A   1      45.525  28.690  35.484  1.00  0.00     0.135 A 
ATOM     74  C   UNL A   1      43.883  27.264  36.508  1.00  0.00     0.135 A 
ATOM     75  F   UNL A   1      45.864  29.707  34.676  1.00  0.00    -0.206 F 
ATOM     76  C   UNL A   1      46.546  27.964  36.088  1.00  0.00     0.059 A 
ATOM     77  C   UNL A   1      44.888  26.544  37.148  1.00  0.00     0.059 A 
ATOM     78  F   UNL A   1      42.610  26.893  36.715  1.00  0.00    -0.206 F 
ATOM     79  C   UNL A   1      46.218  26.894  36.920  1.00  0.00     0.060 A 
BRANCH  79  80
ATOM     80  S   UNL A   1      47.555  25.968  37.703  1.00  0.00     0.124 S 
ATOM     81  O   UNL A   1      47.905  25.017  36.652  1.00  0.00    -0.237 OA
ATOM     82  O   UNL A   1      48.542  27.011  37.966  1.00  0.00    -0.237 OA
ATOM     83  O   UNL A   1      46.925  25.392  38.886  1.00  0.00    -0.744 OA
ENDBRANCH  79  80
ENDBRANCH  58  72
BRANCH  59  84
ATOM     84  C   UNL A   1      36.642  33.092  31.065  1.00  0.00     0.058 A 
ATOM     85  C   UNL A   1      36.855  34.006  30.024  1.00  0.00     0.135 A 
ATOM     86  C   UNL A   1      35.316  32.838  31.448  1.00  0.00     0.135 A 
ATOM     87  F   UNL A   1      38.105  34.291  29.625  1.00  0.00    -0.206 F 
ATOM     88  C   UNL A   1      35.797  34.657  29.396  1.00  0.00     0.059 A 
ATOM     89  C   UNL A   1      34.240  33.453  30.815  1.00  0.00     0.059 A 
ATOM     90  F   UNL A   1      35.054  31.959  32.429  1.00  0.00    -0.206 F 
ATOM     91  C   UNL A   1      34.492  34.371  29.797  1.00  0.00     0.060 A 
BRANCH  91  92
ATOM     92  S   UNL A   1      33.125  35.188  28.945  1.00  0.00     0.124 S 
ATOM     93  O   UNL A   1      32.220  35.477  30.051  1.00  0.00    -0.237 OA
ATOM     94  O   UNL A   1      33.786  36.341  28.342  1.00  0.00    -0.237 OA
ATOM     95  O   UNL A   1      32.665  34.174  28.001  1.00  0.00    -0.744 OA
ENDBRANCH  91  92
ENDBRANCH  59  84
BRANCH  71  96
ATOM     96  C   UNL A   1      39.799  33.865  37.248  1.00  0.00     0.058 A 
ATOM     97  C   UNL A   1      40.412  35.126  37.273  1.00  0.00     0.135 A 
ATOM     98  C   UNL A   1      38.924  33.540  38.298  1.00  0.00     0.135 A 
ATOM     99  F   UNL A   1      41.262  35.484  36.297  1.00  0.00    -0.206 F 
ATOM    100  C   UNL A   1      40.182  36.025  38.308  1.00  0.00     0.059 A 
ATOM    101  C   UNL A   1      38.654  34.435  39.328  1.00  0.00     0.059 A 
ATOM    102  F   UNL A   1      38.302  32.350  38.318  1.00  0.00    -0.206 F 
ATOM    103  C   UNL A   1      39.297  35.672  39.329  1.00  0.00     0.060 A 
BRANCH 103 104
ATOM    104  S   UNL A   1      38.977  36.865  40.645  1.00  0.00     0.124 S 
ATOM    105  O   UNL A   1      38.248  37.906  39.928  1.00  0.00    -0.237 OA
ATOM    106  O   UNL A   1      38.192  36.080  41.594  1.00  0.00    -0.237 OA
ATOM    107  O   UNL A   1      40.313  37.236  41.102  1.00  0.00    -0.744 OA
ENDBRANCH 103 104
ENDBRANCH  71  96
ENDBRANCH  45  46
ENDBRANCH  37  40
ENDBRANCH  35  36
ENDBRANCH  34  35
ENDBRANCH  33  34
ENDBRANCH  32  33
ENDBRANCH   1  32
TORSDOF 22
ENDMDL
MODEL 2
REMARK VINA RESULT:     -11.2      0.984      2.040
REMARK SMILES COc1ccc(CCC(=O)Nc2ccc(N3CCCC3)cc2C(=O)NCCCCCCNC(=O)c2ccc(-c3c4nc(c(-c5c(F)cc(S(=O)(=O)[O-])cc5F)c5ccc([nH]5)c(-c5c(F)cc(S(=O)(=O)[O-])cc5F)c5nc(c(-c6c(F)cc(S(=O)(=O)[O-])cc6F)c6ccc3[nH]6)C=C5)C=C4)cc2)cc1
REMARK SMILES IDX 27 1 26 2 25 3 23 4 24 5 22 7 12 8 13 9 14 10 21 11 15 12
REMARK SMILES IDX 11 13 9 14 10 15 8 17 7 18 6 19 3 20 4 21 102 22 5 23 101 24
REMARK SMILES IDX 2 25 1 26 16 27 17 28 20 29 18 30 19 31 28 32 29 33 30 34
REMARK SMILES IDX 31 35 32 36 33 37 34 39 35 40 36 41 100 42 37 43 99 44 38 45
REMARK SMILES IDX 39 46 40 47 93 48 41 49 98 50 92 51 94 52 42 53 97 54 91 55
REMARK SMILES IDX 90 56 43 58 77 59 56 60 76 61 57 62 60 63 75 64 95 65 58 66
REMARK SMILES IDX 59 67 74 69 96 70 61 71 44 72 45 73 54 74 46 75 47 76 53 77
REMARK SMILES IDX 55 78 48 79 49 80 50 81 51 82 52 83 78 84 79 85 88 86 80 87
REMARK SMILES IDX 81 88 87 89 89 90 82 91 83 92 84 93 85 94 86 95 62 96 63 97
REMARK SMILES IDX 72 98 64 99 65 100 71 101 73 102 66 103 67 104 68 105 69 106
REMARK SMILES IDX 70 107
REMARK H PARENT 25 6 11 16 32 38 94 57 60 68
REMARK Flexibility Score: inf
ROOT
ATOM      1  C   UNL A   1      39.691  22.214  26.172  1.00  0.00     0.021 C 
ENDROOT
BRANCH   1   2
ATOM      2  C   UNL A   1      38.167  22.094  26.091  1.00  0.00     0.116 C 
BRANCH   2   3
ATOM      3  N   UNL A   1      37.688  21.509  24.870  1.00  0.00    -0.352 N 
ATOM      4  C   UNL A   1      36.476  20.843  24.790  1.00  0.00     0.253 C 
ATOM      5  O   UNL A   1      36.581  19.672  25.091  1.00  0.00    -0.269 OA
ATOM      6  H   UNL A   1      38.242  21.584  24.059  1.00  0.00     0.163 HD
BRANCH   4   7
ATOM      7  C   UNL A   1      35.276  21.566  24.132  1.00  0.00     0.065 A 
ATOM      8  C   UNL A   1      34.094  21.151  24.657  1.00  0.00     0.054 A 
ATOM      9  C   UNL A   1      32.948  21.179  23.878  1.00  0.00     0.029 A 
ATOM     10  C   UNL A   1      32.826  22.251  23.003  1.00  0.00     0.028 A 
ATOM     11  C   UNL A   1      35.098  22.769  23.421  1.00  0.00     0.042 A 
ATOM     12  C   UNL A   1      33.825  23.216  22.969  1.00  0.00     0.038 A 
BRANCH   8  13
ATOM     13  N   UNL A   1      33.994  21.205  26.064  1.00  0.00    -0.325 N 
ATOM     14  C   UNL A   1      33.640  22.319  26.836  1.00  0.00     0.224 C 
ATOM     15  O   UNL A   1      34.083  22.323  27.994  1.00  0.00    -0.275 OA
ATOM     16  H   UNL A   1      34.195  20.374  26.553  1.00  0.00     0.169 HD
BRANCH  14  17
ATOM     17  C   UNL A   1      32.530  23.437  26.398  1.00  0.00     0.105 C 
BRANCH  17  18
ATOM     18  C   UNL A   1      32.524  25.055  26.153  1.00  0.00     0.045 C 
BRANCH  18  19
ATOM     19  C   UNL A   1      31.340  25.926  25.608  1.00  0.00    -0.047 A 
ATOM     20  C   UNL A   1      29.881  27.545  23.809  1.00  0.00     0.118 A 
ATOM     21  C   UNL A   1      30.724  28.126  24.735  1.00  0.00     0.046 A 
ATOM     22  C   UNL A   1      29.480  26.226  24.037  1.00  0.00     0.046 A 
ATOM     23  C   UNL A   1      31.317  27.329  25.726  1.00  0.00     0.007 A 
ATOM     24  C   UNL A   1      30.255  25.399  24.896  1.00  0.00     0.007 A 
BRANCH  20  25
ATOM     25  O   UNL A   1      29.970  28.102  22.553  1.00  0.00    -0.497 OA
ATOM     26  C   UNL A   1      30.720  29.284  22.372  1.00  0.00     0.278 C 
ENDBRANCH  20  25
ENDBRANCH  18  19
ENDBRANCH  17  18
ENDBRANCH  14  17
ENDBRANCH   8  13
BRANCH  12  27
ATOM     27  N   UNL A   1      33.502  24.516  22.643  1.00  0.00    -0.372 N 
ATOM     28  C   UNL A   1      32.392  24.969  21.834  1.00  0.00     0.116 C 
ATOM     29  C   UNL A   1      34.213  25.671  23.216  1.00  0.00     0.116 C 
ATOM     30  C   UNL A   1      32.795  26.377  21.400  1.00  0.00     0.023 C 
ATOM     31  C   UNL A   1      33.522  26.907  22.620  1.00  0.00     0.023 C 
ENDBRANCH  12  27
ENDBRANCH   4   7
ENDBRANCH   2   3
ENDBRANCH   1   2
BRANCH   1  32
ATOM     32  C   UNL A   1      40.448  21.833  27.461  1.00  0.00     0.002 C 
BRANCH  32  33
ATOM     33  C   UNL A   1      41.966  21.620  27.480  1.00  0.00     0.002 C 
BRANCH  33  34
ATOM     34  C   UNL A   1      42.797  22.400  28.489  1.00  0.00     0.021 C 
BRANCH  34  35
ATOM     35  C   UNL A   1      43.353  23.723  27.997  1.00  0.00     0.116 C 
BRANCH  35  36
ATOM     36  N   UNL A   1      42.893  24.076  26.664  1.00  0.00    -0.352 N 
ATOM     37  C   UNL A   1      42.101  25.140  26.312  1.00  0.00     0.251 C 
ATOM     38  H   UNL A   1      43.183  23.485  25.931  1.00  0.00     0.163 HD
ATOM     39  O   UNL A   1      41.660  25.249  25.167  1.00  0.00    -0.269 OA
BRANCH  37  40
ATOM     40  C   UNL A   1      41.757  26.139  27.344  1.00  0.00     0.039 A 
ATOM     41  C   UNL A   1      40.740  25.856  28.257  1.00  0.00     0.014 A 
ATOM     42  C   UNL A   1      42.499  27.320  27.451  1.00  0.00     0.014 A 
ATOM     43  C   UNL A   1      40.499  26.740  29.309  1.00  0.00     0.010 A 
ATOM     44  C   UNL A   1      42.317  28.152  28.549  1.00  0.00     0.010 A 
ATOM     45  C   UNL A   1      41.305  27.879  29.482  1.00  0.00    -0.014 A 
BRANCH  45  46
ATOM     46  C   UNL A   1      41.086  28.811  30.616  1.00  0.00     0.031 A 
ATOM     47  C   UNL A   1      41.952  28.709  31.843  1.00  0.00     0.074 A 
ATOM     48  C   UNL A   1      40.083  29.709  30.563  1.00  0.00     0.049 A 
ATOM     49  N   UNL A   1      41.894  29.395  32.955  1.00  0.00    -0.248 NA
ATOM     50  C   UNL A   1      43.006  27.681  31.830  1.00  0.00     0.031 C 
ATOM     51  C   UNL A   1      39.146  29.867  29.447  1.00  0.00     0.029 A 
ATOM     52  N   UNL A   1      39.678  30.657  31.469  1.00  0.00    -0.354 N 
ATOM     53  C   UNL A   1      42.890  28.875  33.773  1.00  0.00     0.074 A 
ATOM     54  C   UNL A   1      43.495  27.774  33.057  1.00  0.00     0.031 C 
ATOM     55  C   UNL A   1      38.297  30.869  29.723  1.00  0.00     0.029 A 
ATOM     56  C   UNL A   1      38.599  31.400  31.049  1.00  0.00     0.049 A 
ATOM     57  H   UNL A   1      40.119  30.793  32.338  1.00  0.00     0.167 HD
ATOM     58  C   UNL A   1      43.284  29.295  34.998  1.00  0.00     0.037 A 
ATOM     59  C   UNL A   1      37.927  32.391  31.665  1.00  0.00     0.037 A 
ATOM     60  C   UNL A   1      42.690  30.408  35.691  1.00  0.00     0.049 A 
ATOM     61  C   UNL A   1      38.378  32.837  33.031  1.00  0.00     0.074 A 
ATOM     62  C   UNL A   1      43.050  30.953  36.910  1.00  0.00     0.029 A 
ATOM     63  N   UNL A   1      41.608  31.143  35.228  1.00  0.00    -0.354 N 
ATOM     64  N   UNL A   1      39.367  32.379  33.763  1.00  0.00    -0.248 NA
ATOM     65  C   UNL A   1      37.628  33.935  33.655  1.00  0.00     0.031 C 
ATOM     66  C   UNL A   1      42.153  31.982  37.210  1.00  0.00     0.029 A 
ATOM     67  C   UNL A   1      41.270  32.120  36.149  1.00  0.00     0.049 A 
ATOM     68  H   UNL A   1      41.148  30.992  34.370  1.00  0.00     0.167 HD
ATOM     69  C   UNL A   1      39.376  33.152  34.918  1.00  0.00     0.074 A 
ATOM     70  C   UNL A   1      38.302  34.115  34.783  1.00  0.00     0.031 C 
ATOM     71  C   UNL A   1      40.200  33.074  35.994  1.00  0.00     0.037 A 
BRANCH  58  72
ATOM     72  C   UNL A   1      44.409  28.550  35.664  1.00  0.00     0.058 A 
ATOM     73  C   UNL A   1      44.171  27.467  36.526  1.00  0.00     0.135 A 
ATOM     74  C   UNL A   1      45.746  28.904  35.416  1.00  0.00     0.135 A 
ATOM     75  F   UNL A   1      42.915  27.094  36.815  1.00  0.00    -0.206 F 
ATOM     76  C   UNL A   1      45.215  26.782  37.141  1.00  0.00     0.059 A 
ATOM     77  C   UNL A   1      46.806  28.213  35.995  1.00  0.00     0.059 A 
ATOM     78  F   UNL A   1      46.032  29.933  34.603  1.00  0.00    -0.206 F 
ATOM     79  C   UNL A   1      46.529  27.162  36.868  1.00  0.00     0.060 A 
BRANCH  79  80
ATOM     80  S   UNL A   1      47.872  26.257  37.667  1.00  0.00     0.124 S 
ATOM     81  O   UNL A   1      48.946  27.246  37.639  1.00  0.00    -0.237 OA
ATOM     82  O   UNL A   1      47.311  25.969  38.983  1.00  0.00    -0.237 OA
ATOM     83  O   UNL A   1      48.065  25.098  36.803  1.00  0.00    -0.744 OA
ENDBRANCH  79  80
ENDBRANCH  58  72
BRANCH  59  84
ATOM     84  C   UNL A   1      36.771  33.041  30.989  1.00  0.00     0.058 A 
ATOM     85  C   UNL A   1      35.458  32.833  31.437  1.00  0.00     0.135 A 
ATOM     86  C   UNL A   1      36.956  33.895  29.890  1.00  0.00     0.135 A 
ATOM     87  F   UNL A   1      35.226  32.021  32.480  1.00  0.00    -0.206 F 
ATOM     88  C   UNL A   1      34.369  33.433  30.812  1.00  0.00     0.059 A 
ATOM     89  C   UNL A   1      35.886  34.529  29.266  1.00  0.00     0.059 A 
ATOM     90  F   UNL A   1      38.193  34.141  29.429  1.00  0.00    -0.206 F 
ATOM     91  C   UNL A   1      34.594  34.282  29.728  1.00  0.00     0.060 A 
BRANCH  91  92
ATOM     92  S   UNL A   1      33.177  35.089  28.952  1.00  0.00     0.124 S 
ATOM     93  O   UNL A   1      32.293  35.293  30.094  1.00  0.00    -0.237 OA
ATOM     94  O   UNL A   1      33.781  36.292  28.388  1.00  0.00    -0.237 OA
ATOM     95  O   UNL A   1      32.726  34.105  27.972  1.00  0.00    -0.744 OA
ENDBRANCH  91  92
ENDBRANCH  59  84
BRANCH  71  96
ATOM     96  C   UNL A   1      39.997  34.076  37.097  1.00  0.00     0.058 A 
ATOM     97  C   UNL A   1      39.128  33.829  38.171  1.00  0.00     0.135 A 
ATOM     98  C   UNL A   1      40.732  35.273  37.110  1.00  0.00     0.135 A 
ATOM     99  F   UNL A   1      38.397  32.703  38.204  1.00  0.00    -0.206 F 
ATOM    100  C   UNL A   1      38.978  34.743  39.208  1.00  0.00     0.059 A 
ATOM    101  C   UNL A   1      40.622  36.187  38.153  1.00  0.00     0.059 A 
ATOM    102  F   UNL A   1      41.586  35.554  36.113  1.00  0.00    -0.206 F 
ATOM    103  C   UNL A   1      39.733  35.918  39.192  1.00  0.00     0.060 A 
BRANCH 103 104
ATOM    104  S   UNL A   1      39.558  37.075  40.567  1.00  0.00     0.124 S 
ATOM    105  O   UNL A   1      38.256  37.671  40.286  1.00  0.00    -0.237 OA
ATOM    106  O   UNL A   1      39.615  36.191  41.727  1.00  0.00    -0.237 OA
ATOM    107  O   UNL A   1      40.704  37.967  40.409  1.00  0.00    -0.744 OA
ENDBRANCH 103 104
ENDBRANCH  71  96
ENDBRANCH  45  46
ENDBRANCH  37  40
ENDBRANCH  35  36
ENDBRANCH  34  35
ENDBRANCH  33  34
ENDBRANCH  32  33
ENDBRANCH   1  32
TORSDOF 22
ENDMDL
MODEL 3
REMARK VINA RESULT:     -11.2      6.113      8.438
REMARK SMILES COc1ccc(CCC(=O)Nc2ccc(N3CCCC3)cc2C(=O)NCCCCCCNC(=O)c2ccc(-c3c4nc(c(-c5c(F)cc(S(=O)(=O)[O-])cc5F)c5ccc([nH]5)c(-c5c(F)cc(S(=O)(=O)[O-])cc5F)c5nc(c(-c6c(F)cc(S(=O)(=O)[O-])cc6F)c6ccc3[nH]6)C=C5)C=C4)cc2)cc1
REMARK SMILES IDX 27 1 26 2 25 3 23 4 24 5 22 7 12 8 13 9 14 10 21 11 15 12
REMARK SMILES IDX 11 13 9 14 10 15 8 17 7 18 6 19 3 20 4 21 102 22 5 23 101 24
REMARK SMILES IDX 2 25 1 26 16 27 17 28 20 29 18 30 19 31 28 32 29 33 30 34
REMARK SMILES IDX 31 35 32 36 33 37 34 39 35 40 36 41 100 42 37 43 99 44 38 45
REMARK SMILES IDX 39 46 40 47 93 48 41 49 98 50 92 51 94 52 42 53 97 54 91 55
REMARK SMILES IDX 90 56 43 58 77 59 56 60 76 61 57 62 60 63 75 64 95 65 58 66
REMARK SMILES IDX 59 67 74 69 96 70 61 71 44 72 45 73 54 74 46 75 47 76 53 77
REMARK SMILES IDX 55 78 48 79 49 80 50 81 51 82 52 83 78 84 79 85 88 86 80 87
REMARK SMILES IDX 81 88 87 89 89 90 82 91 83 92 84 93 85 94 86 95 62 96 63 97
REMARK SMILES IDX 72 98 64 99 65 100 71 101 73 102 66 103 67 104 68 105 69 106
REMARK SMILES IDX 70 107
REMARK H PARENT 25 6 11 16 32 38 94 57 60 68
REMARK Flexibility Score: inf
ROOT
ATOM      1  C   UNL A   1      39.068  23.817  26.490  1.00  0.00     0.021 C 
ENDROOT
BRANCH   1   2
ATOM      2  C   UNL A   1      37.614  23.433  26.207  1.00  0.00     0.116 C 
BRANCH   2   3
ATOM      3  N   UNL A   1      37.391  22.902  24.891  1.00  0.00    -0.352 N 
ATOM      4  C   UNL A   1      36.452  21.916  24.636  1.00  0.00     0.253 C 
ATOM      5  O   UNL A   1      36.907  20.803  24.805  1.00  0.00    -0.269 OA
ATOM      6  H   UNL A   1      37.925  23.253  24.142  1.00  0.00     0.163 HD
BRANCH   4   7
ATOM      7  C   UNL A   1      35.113  22.321  23.974  1.00  0.00     0.065 A 
ATOM      8  C   UNL A   1      34.072  21.607  24.474  1.00  0.00     0.054 A 
ATOM      9  C   UNL A   1      32.965  21.356  23.679  1.00  0.00     0.029 A 
ATOM     10  C   UNL A   1      32.580  22.379  22.822  1.00  0.00     0.028 A 
ATOM     11  C   UNL A   1      34.640  23.452  23.281  1.00  0.00     0.042 A 
ATOM     12  C   UNL A   1      33.299  23.568  22.818  1.00  0.00     0.038 A 
BRANCH   8  13
ATOM     13  N   UNL A   1      33.949  21.604  25.880  1.00  0.00    -0.325 N 
ATOM     14  C   UNL A   1      33.972  22.722  26.724  1.00  0.00     0.224 C 
ATOM     15  O   UNL A   1      34.350  22.502  27.884  1.00  0.00    -0.275 OA
ATOM     16  H   UNL A   1      33.836  20.727  26.312  1.00  0.00     0.169 HD
BRANCH  14  17
ATOM     17  C   UNL A   1      33.328  24.179  26.353  1.00  0.00     0.105 C 
BRANCH  17  18
ATOM     18  C   UNL A   1      33.893  25.601  25.772  1.00  0.00     0.045 C 
BRANCH  18  19
ATOM     19  C   UNL A   1      33.179  26.996  25.826  1.00  0.00    -0.047 A 
ATOM     20  C   UNL A   1      32.541  29.585  26.761  1.00  0.00     0.118 A 
ATOM     21  C   UNL A   1      31.832  28.491  27.216  1.00  0.00     0.046 A 
ATOM     22  C   UNL A   1      33.277  29.435  25.583  1.00  0.00     0.046 A 
ATOM     23  C   UNL A   1      32.047  27.235  26.628  1.00  0.00     0.007 A 
ATOM     24  C   UNL A   1      33.648  28.131  25.152  1.00  0.00     0.007 A 
BRANCH  20  25
ATOM     25  O   UNL A   1      32.874  30.480  27.752  1.00  0.00    -0.497 OA
ATOM     26  C   UNL A   1      33.778  31.526  27.463  1.00  0.00     0.278 C 
ENDBRANCH  20  25
ENDBRANCH  18  19
ENDBRANCH  17  18
ENDBRANCH  14  17
ENDBRANCH   8  13
BRANCH  12  27
ATOM     27  N   UNL A   1      32.657  24.749  22.510  1.00  0.00    -0.372 N 
ATOM     28  C   UNL A   1      33.041  25.722  21.512  1.00  0.00     0.116 C 
ATOM     29  C   UNL A   1      31.362  25.119  23.105  1.00  0.00     0.116 C 
ATOM     30  C   UNL A   1      32.316  26.998  21.935  1.00  0.00     0.023 C 
ATOM     31  C   UNL A   1      30.999  26.471  22.472  1.00  0.00     0.023 C 
ENDBRANCH  12  27
ENDBRANCH   4   7
ENDBRANCH   2   3
ENDBRANCH   1   2
BRANCH   1  32
ATOM     32  C   UNL A   1      40.049  22.802  27.114  1.00  0.00     0.002 C 
BRANCH  32  33
ATOM     33  C   UNL A   1      41.123  22.093  26.283  1.00  0.00     0.002 C 
BRANCH  33  34
ATOM     34  C   UNL A   1      41.034  20.583  26.114  1.00  0.00     0.021 C 
BRANCH  34  35
ATOM     35  C   UNL A   1      42.236  19.796  26.601  1.00  0.00     0.116 C 
BRANCH  35  36
ATOM     36  N   UNL A   1      42.992  19.183  25.522  1.00  0.00    -0.352 N 
ATOM     37  C   UNL A   1      43.938  19.779  24.727  1.00  0.00     0.251 C 
ATOM     38  H   UNL A   1      42.805  18.233  25.342  1.00  0.00     0.163 HD
ATOM     39  O   UNL A   1      44.405  19.191  23.749  1.00  0.00    -0.269 OA
BRANCH  37  40
ATOM     40  C   UNL A   1      44.365  21.157  25.044  1.00  0.00     0.039 A 
ATOM     41  C   UNL A   1      44.042  22.192  24.166  1.00  0.00     0.014 A 
ATOM     42  C   UNL A   1      45.016  21.428  26.253  1.00  0.00     0.014 A 
ATOM     43  C   UNL A   1      44.329  23.509  24.525  1.00  0.00     0.010 A 
ATOM     44  C   UNL A   1      45.220  22.745  26.645  1.00  0.00     0.010 A 
ATOM     45  C   UNL A   1      44.893  23.799  25.780  1.00  0.00    -0.014 A 
BRANCH  45  46
ATOM     46  C   UNL A   1      45.173  25.198  26.192  1.00  0.00     0.031 A 
ATOM     47  C   UNL A   1      46.572  25.741  26.080  1.00  0.00     0.074 A 
ATOM     48  C   UNL A   1      44.187  25.957  26.708  1.00  0.00     0.049 A 
ATOM     49  N   UNL A   1      47.033  26.915  26.427  1.00  0.00    -0.248 NA
ATOM     50  C   UNL A   1      47.597  24.836  25.532  1.00  0.00     0.031 C 
ATOM     51  C   UNL A   1      42.803  25.521  26.912  1.00  0.00     0.029 A 
ATOM     52  N   UNL A   1      44.195  27.252  27.162  1.00  0.00    -0.354 N 
ATOM     53  C   UNL A   1      48.395  26.883  26.151  1.00  0.00     0.074 A 
ATOM     54  C   UNL A   1      48.700  25.555  25.670  1.00  0.00     0.031 C 
ATOM     55  C   UNL A   1      42.091  26.539  27.421  1.00  0.00     0.029 A 
ATOM     56  C   UNL A   1      42.972  27.685  27.619  1.00  0.00     0.049 A 
ATOM     57  H   UNL A   1      45.000  27.817  27.159  1.00  0.00     0.167 HD
ATOM     58  C   UNL A   1      49.305  27.880  26.262  1.00  0.00     0.037 A 
ATOM     59  C   UNL A   1      42.606  28.871  28.145  1.00  0.00     0.037 A 
ATOM     60  C   UNL A   1      48.984  29.207  26.720  1.00  0.00     0.049 A 
ATOM     61  C   UNL A   1      43.636  29.962  28.267  1.00  0.00     0.074 A 
ATOM     62  C   UNL A   1      49.817  30.307  26.816  1.00  0.00     0.029 A 
ATOM     63  N   UNL A   1      47.733  29.612  27.163  1.00  0.00    -0.354 N 
ATOM     64  N   UNL A   1      44.906  29.938  27.936  1.00  0.00    -0.248 NA
ATOM     65  C   UNL A   1      43.186  31.244  28.825  1.00  0.00     0.031 C 
ATOM     66  C   UNL A   1      49.084  31.361  27.368  1.00  0.00     0.029 A 
ATOM     67  C   UNL A   1      47.777  30.938  27.560  1.00  0.00     0.049 A 
ATOM     68  H   UNL A   1      46.932  29.039  27.192  1.00  0.00     0.167 HD
ATOM     69  C   UNL A   1      45.399  31.207  28.220  1.00  0.00     0.074 A 
ATOM     70  C   UNL A   1      44.286  31.978  28.737  1.00  0.00     0.031 C 
ATOM     71  C   UNL A   1      46.657  31.691  28.065  1.00  0.00     0.037 A 
BRANCH  58  72
ATOM     72  C   UNL A   1      50.728  27.575  25.881  1.00  0.00     0.058 A 
ATOM     73  C   UNL A   1      51.682  27.181  26.835  1.00  0.00     0.135 A 
ATOM     74  C   UNL A   1      51.139  27.646  24.540  1.00  0.00     0.135 A 
ATOM     75  F   UNL A   1      51.351  27.112  28.134  1.00  0.00    -0.206 F 
ATOM     76  C   UNL A   1      52.997  26.901  26.478  1.00  0.00     0.059 A 
ATOM     77  C   UNL A   1      52.442  27.339  24.156  1.00  0.00     0.059 A 
ATOM     78  F   UNL A   1      50.271  28.019  23.587  1.00  0.00    -0.206 F 
ATOM     79  C   UNL A   1      53.367  26.981  25.136  1.00  0.00     0.060 A 
BRANCH  79  80
ATOM     80  S   UNL A   1      55.075  26.606  24.688  1.00  0.00     0.124 S 
ATOM     81  O   UNL A   1      55.146  25.178  24.985  1.00  0.00    -0.237 OA
ATOM     82  O   UNL A   1      55.110  26.961  23.273  1.00  0.00    -0.237 OA
ATOM     83  O   UNL A   1      55.856  27.468  25.569  1.00  0.00    -0.744 OA
ENDBRANCH  79  80
ENDBRANCH  58  72
BRANCH  59  84
ATOM     84  C   UNL A   1      41.199  29.092  28.577  1.00  0.00     0.058 A 
ATOM     85  C   UNL A   1      40.851  29.101  29.936  1.00  0.00     0.135 A 
ATOM     86  C   UNL A   1      40.176  29.312  27.642  1.00  0.00     0.135 A 
ATOM     87  F   UNL A   1      41.790  28.889  30.871  1.00  0.00    -0.206 F 
ATOM     88  C   UNL A   1      39.539  29.304  30.352  1.00  0.00     0.059 A 
ATOM     89  C   UNL A   1      38.861  29.546  28.034  1.00  0.00     0.059 A 
ATOM     90  F   UNL A   1      40.456  29.329  26.329  1.00  0.00    -0.206 F 
ATOM     91  C   UNL A   1      38.551  29.529  29.392  1.00  0.00     0.060 A 
BRANCH  91  92
ATOM     92  S   UNL A   1      36.859  29.835  29.947  1.00  0.00     0.124 S 
ATOM     93  O   UNL A   1      36.085  29.348  28.810  1.00  0.00    -0.237 OA
ATOM     94  O   UNL A   1      36.786  29.031  31.162  1.00  0.00    -0.237 OA
ATOM     95  O   UNL A   1      36.831  31.279  30.157  1.00  0.00    -0.744 OA
ENDBRANCH  91  92
ENDBRANCH  59  84
BRANCH  71  96
ATOM     96  C   UNL A   1      46.895  33.132  28.427  1.00  0.00     0.058 A 
ATOM     97  C   UNL A   1      47.342  33.511  29.702  1.00  0.00     0.135 A 
ATOM     98  C   UNL A   1      46.733  34.140  27.462  1.00  0.00     0.135 A 
ATOM     99  F   UNL A   1      47.508  32.588  30.662  1.00  0.00    -0.206 F 
ATOM    100  C   UNL A   1      47.600  34.841  30.014  1.00  0.00     0.059 A 
ATOM    101  C   UNL A   1      47.015  35.472  27.743  1.00  0.00     0.059 A 
ATOM    102  F   UNL A   1      46.318  33.830  26.223  1.00  0.00    -0.206 F 
ATOM    103  C   UNL A   1      47.437  35.814  29.026  1.00  0.00     0.060 A 
BRANCH 103 104
ATOM    104  S   UNL A   1      47.815  37.531  29.435  1.00  0.00     0.124 S 
ATOM    105  O   UNL A   1      46.825  38.249  28.639  1.00  0.00    -0.237 OA
ATOM    106  O   UNL A   1      47.609  37.560  30.880  1.00  0.00    -0.237 OA
ATOM    107  O   UNL A   1      49.201  37.688  29.003  1.00  0.00    -0.744 OA
ENDBRANCH 103 104
ENDBRANCH  71  96
ENDBRANCH  45  46
ENDBRANCH  37  40
ENDBRANCH  35  36
ENDBRANCH  34  35
ENDBRANCH  33  34
ENDBRANCH  32  33
ENDBRANCH   1  32
TORSDOF 22
ENDMDL
