MODEL 1
REMARK VINA RESULT:     -11.6      0.000      0.000
REMARK SMILES Cc1ccc(Br)cc1C(=O)N1CCO[C@H](CC(=O)NCCCCCCNC(=O)c2ccc(-c3c4nc(c(-c5c(F)cc(S(=O)(=O)[O-])cc5F)c5ccc([nH]5)c(-c5c(F)cc(S(=O)(=O)[O-])cc5F)c5nc(c(-c6c(F)cc(S(=O)(=O)[O-])cc6F)c6ccc3[nH]6)C=C5)C=C4)cc2)C1
REMARK SMILES IDX 22 1 21 2 20 3 19 4 17 5 18 6 16 8 15 9 11 10 12 11 95 12
REMARK SMILES IDX 13 13 14 14 9 15 10 16 8 17 1 18 2 19 3 20 4 21 7 22 5 23
REMARK SMILES IDX 6 24 23 25 24 26 25 27 26 28 27 29 28 31 29 32 30 33 94 34
REMARK SMILES IDX 31 35 93 36 32 37 33 38 34 39 87 40 35 41 92 42 86 43 88 44
REMARK SMILES IDX 36 45 91 46 85 47 84 48 37 50 71 51 50 52 70 53 51 54 54 55
REMARK SMILES IDX 69 56 89 57 52 58 53 59 68 61 90 62 55 63 38 64 39 65 48 66
REMARK SMILES IDX 40 67 41 68 47 69 49 70 42 71 43 72 44 73 45 74 46 75 72 76
REMARK SMILES IDX 73 77 82 78 74 79 75 80 81 81 83 82 76 83 77 84 78 85 79 86
REMARK SMILES IDX 80 87 56 88 57 89 66 90 58 91 59 92 65 93 67 94 60 95 61 96
REMARK SMILES IDX 62 97 63 98 64 99
REMARK H PARENT 19 7 26 30 88 49 54 60
REMARK Flexibility Score: inf
ROOT
ATOM      1  C   UNL A   1      33.774  28.352  26.983  1.00  0.00     0.002 C 
ENDROOT
BRANCH   1   2
ATOM      2  C   UNL A   1      32.398  29.017  27.090  1.00  0.00     0.021 C 
BRANCH   2   3
ATOM      3  C   UNL A   1      31.281  28.119  26.573  1.00  0.00     0.116 C 
BRANCH   3   4
ATOM      4  N   UNL A   1      31.402  26.805  27.170  1.00  0.00    -0.356 N 
ATOM      5  C   UNL A   1      31.422  25.605  26.527  1.00  0.00     0.222 C 
ATOM      6  O   UNL A   1      31.214  24.570  27.158  1.00  0.00    -0.275 OA
ATOM      7  H   UNL A   1      31.480  26.776  28.151  1.00  0.00     0.163 HD
BRANCH   5   8
ATOM      8  C   UNL A   1      31.815  25.584  25.074  1.00  0.00     0.133 C 
BRANCH   8   9
ATOM      9  C   UNL A   1      30.658  25.493  24.068  1.00  0.00     0.147 C 
ATOM     10  N   UNL A   1      32.169  24.742  22.324  1.00  0.00    -0.334 N 
ATOM     11  C   UNL A   1      31.988  25.943  21.516  1.00  0.00     0.148 C 
ATOM     12  C   UNL A   1      30.954  24.375  23.059  1.00  0.00     0.152 C 
ATOM     13  C   UNL A   1      31.358  27.092  22.335  1.00  0.00     0.182 C 
ATOM     14  O   UNL A   1      30.389  26.712  23.335  1.00  0.00    -0.374 OA
BRANCH  10  15
ATOM     15  C   UNL A   1      33.174  23.794  22.224  1.00  0.00     0.254 C 
ATOM     16  O   UNL A   1      33.568  23.480  21.095  1.00  0.00    -0.269 OA
BRANCH  15  17
ATOM     17  C   UNL A   1      33.717  22.981  23.386  1.00  0.00     0.044 A 
ATOM     18  C   UNL A   1      32.222  20.847  23.366  1.00  0.00     0.045 C 
ATOM     19  C   UNL A   1      33.379  21.676  23.816  1.00  0.00    -0.038 A 
ATOM     20  C   UNL A   1      34.188  21.021  24.778  1.00  0.00     0.005 A 
ATOM     21  C   UNL A   1      35.334  21.609  25.295  1.00  0.00     0.016 A 
ATOM     22  C   UNL A   1      34.872  23.566  23.966  1.00  0.00     0.029 A 
ATOM     23  C   UNL A   1      35.670  22.887  24.889  1.00  0.00     0.018 A 
ATOM     24  Br  UNL A   1      37.247  23.693  25.548  1.00  0.00    -0.051 Br
ENDBRANCH  15  17
ENDBRANCH  10  15
ENDBRANCH   8   9
ENDBRANCH   5   8
ENDBRANCH   3   4
ENDBRANCH   2   3
ENDBRANCH   1   2
BRANCH   1  25
ATOM     25  C   UNL A   1      34.951  29.321  27.147  1.00  0.00     0.002 C 
BRANCH  25  26
ATOM     26  C   UNL A   1      34.556  30.711  27.653  1.00  0.00     0.021 C 
BRANCH  26  27
ATOM     27  C   UNL A   1      35.672  31.435  28.396  1.00  0.00     0.116 C 
BRANCH  27  28
ATOM     28  N   UNL A   1      35.531  31.295  29.837  1.00  0.00    -0.352 N 
ATOM     29  C   UNL A   1      36.323  30.603  30.718  1.00  0.00     0.251 C 
ATOM     30  H   UNL A   1      34.762  31.762  30.236  1.00  0.00     0.163 HD
ATOM     31  O   UNL A   1      35.937  30.389  31.860  1.00  0.00    -0.269 OA
BRANCH  29  32
ATOM     32  C   UNL A   1      37.638  30.106  30.266  1.00  0.00     0.039 A 
ATOM     33  C   UNL A   1      37.959  30.171  28.909  1.00  0.00     0.014 A 
ATOM     34  C   UNL A   1      38.554  29.587  31.187  1.00  0.00     0.014 A 
ATOM     35  C   UNL A   1      39.225  29.767  28.482  1.00  0.00     0.010 A 
ATOM     36  C   UNL A   1      39.839  29.259  30.771  1.00  0.00     0.010 A 
ATOM     37  C   UNL A   1      40.186  29.340  29.414  1.00  0.00    -0.014 A 
BRANCH  37  38
ATOM     38  C   UNL A   1      41.561  28.972  28.992  1.00  0.00     0.031 A 
ATOM     39  C   UNL A   1      42.638  30.021  28.940  1.00  0.00     0.074 A 
ATOM     40  C   UNL A   1      41.819  27.711  28.591  1.00  0.00     0.049 A 
ATOM     41  N   UNL A   1      43.873  29.915  28.522  1.00  0.00    -0.248 NA
ATOM     42  C   UNL A   1      42.272  31.373  29.392  1.00  0.00     0.031 C 
ATOM     43  C   UNL A   1      40.844  26.618  28.557  1.00  0.00     0.029 A 
ATOM     44  N   UNL A   1      42.975  27.138  28.124  1.00  0.00    -0.354 N 
ATOM     45  C   UNL A   1      44.425  31.185  28.648  1.00  0.00     0.074 A 
ATOM     46  C   UNL A   1      43.376  32.057  29.127  1.00  0.00     0.031 C 
ATOM     47  C   UNL A   1      41.448  25.504  28.114  1.00  0.00     0.029 A 
ATOM     48  C   UNL A   1      42.837  25.811  27.788  1.00  0.00     0.049 A 
ATOM     49  H   UNL A   1      43.823  27.630  28.038  1.00  0.00     0.167 HD
ATOM     50  C   UNL A   1      45.698  31.581  28.407  1.00  0.00     0.037 A 
ATOM     51  C   UNL A   1      43.726  24.943  27.266  1.00  0.00     0.037 A 
ATOM     52  C   UNL A   1      46.740  30.700  27.948  1.00  0.00     0.049 A 
ATOM     53  C   UNL A   1      45.130  25.411  26.991  1.00  0.00     0.074 A 
ATOM     54  C   UNL A   1      48.074  30.990  27.726  1.00  0.00     0.029 A 
ATOM     55  N   UNL A   1      46.565  29.359  27.635  1.00  0.00    -0.354 N 
ATOM     56  N   UNL A   1      45.652  26.600  27.176  1.00  0.00    -0.248 NA
ATOM     57  C   UNL A   1      46.067  24.422  26.443  1.00  0.00     0.031 C 
ATOM     58  C   UNL A   1      48.694  29.841  27.226  1.00  0.00     0.029 A 
ATOM     59  C   UNL A   1      47.761  28.816  27.197  1.00  0.00     0.049 A 
ATOM     60  H   UNL A   1      45.716  28.867  27.713  1.00  0.00     0.167 HD
ATOM     61  C   UNL A   1      46.987  26.493  26.797  1.00  0.00     0.074 A 
ATOM     62  C   UNL A   1      47.192  25.121  26.381  1.00  0.00     0.031 C 
ATOM     63  C   UNL A   1      47.954  27.443  26.796  1.00  0.00     0.037 A 
BRANCH  50  64
ATOM     64  C   UNL A   1      46.035  33.030  28.633  1.00  0.00     0.058 A 
ATOM     65  C   UNL A   1      45.919  33.984  27.610  1.00  0.00     0.135 A 
ATOM     66  C   UNL A   1      46.441  33.479  29.901  1.00  0.00     0.135 A 
ATOM     67  F   UNL A   1      45.550  33.611  26.374  1.00  0.00    -0.206 F 
ATOM     68  C   UNL A   1      46.221  35.325  27.826  1.00  0.00     0.059 A 
ATOM     69  C   UNL A   1      46.718  34.821  30.149  1.00  0.00     0.059 A 
ATOM     70  F   UNL A   1      46.569  32.610  30.916  1.00  0.00    -0.206 F 
ATOM     71  C   UNL A   1      46.618  35.734  29.100  1.00  0.00     0.060 A 
BRANCH  71  72
ATOM     72  S   UNL A   1      46.997  37.478  29.365  1.00  0.00     0.124 S 
ATOM     73  O   UNL A   1      45.742  37.967  29.927  1.00  0.00    -0.237 OA
ATOM     74  O   UNL A   1      48.123  37.415  30.292  1.00  0.00    -0.237 OA
ATOM     75  O   UNL A   1      47.316  37.965  28.027  1.00  0.00    -0.744 OA
ENDBRANCH  71  72
ENDBRANCH  50  64
BRANCH  51  76
ATOM     76  C   UNL A   1      43.317  23.541  26.981  1.00  0.00     0.058 A 
ATOM     77  C   UNL A   1      43.123  23.097  25.665  1.00  0.00     0.135 A 
ATOM     78  C   UNL A   1      43.124  22.613  28.017  1.00  0.00     0.135 A 
ATOM     79  F   UNL A   1      43.290  23.947  24.640  1.00  0.00    -0.206 F 
ATOM     80  C   UNL A   1      42.736  21.791  25.385  1.00  0.00     0.059 A 
ATOM     81  C   UNL A   1      42.765  21.294  27.761  1.00  0.00     0.059 A 
ATOM     82  F   UNL A   1      43.313  22.982  29.295  1.00  0.00    -0.206 F 
ATOM     83  C   UNL A   1      42.563  20.895  26.441  1.00  0.00     0.060 A 
BRANCH  83  84
ATOM     84  S   UNL A   1      42.107  19.189  26.064  1.00  0.00     0.124 S 
ATOM     85  O   UNL A   1      42.858  18.949  24.837  1.00  0.00    -0.237 OA
ATOM     86  O   UNL A   1      42.574  18.479  27.249  1.00  0.00    -0.237 OA
ATOM     87  O   UNL A   1      40.656  19.256  25.912  1.00  0.00    -0.744 OA
ENDBRANCH  83  84
ENDBRANCH  51  76
BRANCH  63  88
ATOM     88  C   UNL A   1      49.337  27.031  26.373  1.00  0.00     0.058 A 
ATOM     89  C   UNL A   1      49.769  27.139  25.042  1.00  0.00     0.135 A 
ATOM     90  C   UNL A   1      50.265  26.583  27.329  1.00  0.00     0.135 A 
ATOM     91  F   UNL A   1      48.921  27.554  24.088  1.00  0.00    -0.206 F 
ATOM     92  C   UNL A   1      51.067  26.803  24.670  1.00  0.00     0.059 A 
ATOM     93  C   UNL A   1      51.576  26.270  26.984  1.00  0.00     0.059 A 
ATOM     94  F   UNL A   1      49.906  26.470  28.618  1.00  0.00    -0.206 F 
ATOM     95  C   UNL A   1      51.965  26.374  25.650  1.00  0.00     0.060 A 
BRANCH  95  96
ATOM     96  S   UNL A   1      53.657  25.986  25.160  1.00  0.00     0.124 S 
ATOM     97  O   UNL A   1      54.358  26.056  26.438  1.00  0.00    -0.237 OA
ATOM     98  O   UNL A   1      53.517  24.651  24.588  1.00  0.00    -0.237 OA
ATOM     99  O   UNL A   1      53.986  27.039  24.205  1.00  0.00    -0.744 OA
ENDBRANCH  95  96
ENDBRANCH  63  88
ENDBRANCH  37  38
ENDBRANCH  29  32
ENDBRANCH  27  28
ENDBRANCH  26  27
ENDBRANCH  25  26
ENDBRANCH   1  25
TORSDOF 19
ENDMDL
MODEL 2
REMARK VINA RESULT:     -11.3      1.244      2.180
REMARK SMILES Cc1ccc(Br)cc1C(=O)N1CCO[C@H](CC(=O)NCCCCCCNC(=O)c2ccc(-c3c4nc(c(-c5c(F)cc(S(=O)(=O)[O-])cc5F)c5ccc([nH]5)c(-c5c(F)cc(S(=O)(=O)[O-])cc5F)c5nc(c(-c6c(F)cc(S(=O)(=O)[O-])cc6F)c6ccc3[nH]6)C=C5)C=C4)cc2)C1
REMARK SMILES IDX 22 1 21 2 20 3 19 4 17 5 18 6 16 8 15 9 11 10 12 11 95 12
REMARK SMILES IDX 13 13 14 14 9 15 10 16 8 17 1 18 2 19 3 20 4 21 7 22 5 23
REMARK SMILES IDX 6 24 23 25 24 26 25 27 26 28 27 29 28 31 29 32 30 33 94 34
REMARK SMILES IDX 31 35 93 36 32 37 33 38 34 39 87 40 35 41 92 42 86 43 88 44
REMARK SMILES IDX 36 45 91 46 85 47 84 48 37 50 71 51 50 52 70 53 51 54 54 55
REMARK SMILES IDX 69 56 89 57 52 58 53 59 68 61 90 62 55 63 38 64 39 65 48 66
REMARK SMILES IDX 40 67 41 68 47 69 49 70 42 71 43 72 44 73 45 74 46 75 72 76
REMARK SMILES IDX 73 77 82 78 74 79 75 80 81 81 83 82 76 83 77 84 78 85 79 86
REMARK SMILES IDX 80 87 56 88 57 89 66 90 58 91 59 92 65 93 67 94 60 95 61 96
REMARK SMILES IDX 62 97 63 98 64 99
REMARK H PARENT 19 7 26 30 88 49 54 60
REMARK Flexibility Score: inf
ROOT
ATOM      1  C   UNL A   1      32.506  30.654  27.143  1.00  0.00     0.002 C 
ENDROOT
BRANCH   1   2
ATOM      2  C   UNL A   1      31.481  30.530  26.010  1.00  0.00     0.021 C 
BRANCH   2   3
ATOM      3  C   UNL A   1      32.006  29.696  24.846  1.00  0.00     0.116 C 
BRANCH   3   4
ATOM      4  N   UNL A   1      31.018  29.669  23.787  1.00  0.00    -0.356 N 
ATOM      5  C   UNL A   1      30.533  28.574  23.139  1.00  0.00     0.222 C 
ATOM      6  O   UNL A   1      29.946  28.710  22.067  1.00  0.00    -0.275 OA
ATOM      7  H   UNL A   1      30.655  30.540  23.505  1.00  0.00     0.163 HD
BRANCH   5   8
ATOM      8  C   UNL A   1      30.636  27.239  23.825  1.00  0.00     0.133 C 
BRANCH   8   9
ATOM      9  C   UNL A   1      30.844  26.027  22.905  1.00  0.00     0.147 C 
ATOM     10  N   UNL A   1      32.915  25.463  24.035  1.00  0.00    -0.334 N 
ATOM     11  C   UNL A   1      33.742  25.739  22.866  1.00  0.00     0.148 C 
ATOM     12  C   UNL A   1      31.596  24.933  23.674  1.00  0.00     0.152 C 
ATOM     13  C   UNL A   1      32.979  26.572  21.812  1.00  0.00     0.182 C 
ATOM     14  O   UNL A   1      31.567  26.306  21.682  1.00  0.00    -0.374 OA
BRANCH  10  15
ATOM     15  C   UNL A   1      33.322  25.337  25.353  1.00  0.00     0.254 C 
ATOM     16  O   UNL A   1      33.411  26.364  26.037  1.00  0.00    -0.269 OA
BRANCH  15  17
ATOM     17  C   UNL A   1      33.833  24.053  25.984  1.00  0.00     0.044 A 
ATOM     18  C   UNL A   1      31.682  22.997  27.005  1.00  0.00     0.045 C 
ATOM     19  C   UNL A   1      33.120  23.002  26.606  1.00  0.00    -0.038 A 
ATOM     20  C   UNL A   1      33.782  21.786  26.908  1.00  0.00     0.005 A 
ATOM     21  C   UNL A   1      35.114  21.575  26.582  1.00  0.00     0.016 A 
ATOM     22  C   UNL A   1      35.204  23.817  25.703  1.00  0.00     0.029 A 
ATOM     23  C   UNL A   1      35.824  22.599  25.983  1.00  0.00     0.018 A 
ATOM     24  Br  UNL A   1      37.628  22.322  25.493  1.00  0.00    -0.051 Br
ENDBRANCH  15  17
ENDBRANCH  10  15
ENDBRANCH   8   9
ENDBRANCH   5   8
ENDBRANCH   3   4
ENDBRANCH   2   3
ENDBRANCH   1   2
BRANCH   1  25
ATOM     25  C   UNL A   1      33.823  29.916  26.878  1.00  0.00     0.002 C 
BRANCH  25  26
ATOM     26  C   UNL A   1      35.046  30.551  27.546  1.00  0.00     0.021 C 
BRANCH  26  27
ATOM     27  C   UNL A   1      35.548  29.786  28.763  1.00  0.00     0.116 C 
BRANCH  27  28
ATOM     28  N   UNL A   1      35.532  30.615  29.959  1.00  0.00    -0.352 N 
ATOM     29  C   UNL A   1      36.560  30.915  30.815  1.00  0.00     0.251 C 
ATOM     30  H   UNL A   1      34.662  31.017  30.184  1.00  0.00     0.163 HD
ATOM     31  O   UNL A   1      36.330  31.432  31.901  1.00  0.00    -0.269 OA
BRANCH  29  32
ATOM     32  C   UNL A   1      37.945  30.593  30.417  1.00  0.00     0.039 A 
ATOM     33  C   UNL A   1      38.823  30.073  31.369  1.00  0.00     0.014 A 
ATOM     34  C   UNL A   1      38.368  30.794  29.099  1.00  0.00     0.014 A 
ATOM     35  C   UNL A   1      40.112  29.702  30.986  1.00  0.00     0.010 A 
ATOM     36  C   UNL A   1      39.625  30.352  28.702  1.00  0.00     0.010 A 
ATOM     37  C   UNL A   1      40.512  29.807  29.643  1.00  0.00    -0.014 A 
BRANCH  37  38
ATOM     38  C   UNL A   1      41.853  29.352  29.198  1.00  0.00     0.031 A 
ATOM     39  C   UNL A   1      42.992  30.332  29.120  1.00  0.00     0.074 A 
ATOM     40  C   UNL A   1      42.026  28.076  28.800  1.00  0.00     0.049 A 
ATOM     41  N   UNL A   1      44.210  30.148  28.681  1.00  0.00    -0.248 NA
ATOM     42  C   UNL A   1      42.718  31.707  29.570  1.00  0.00     0.031 C 
ATOM     43  C   UNL A   1      40.985  27.045  28.791  1.00  0.00     0.029 A 
ATOM     44  N   UNL A   1      43.136  27.430  28.316  1.00  0.00    -0.354 N 
ATOM     45  C   UNL A   1      44.842  31.382  28.789  1.00  0.00     0.074 A 
ATOM     46  C   UNL A   1      43.857  32.320  29.281  1.00  0.00     0.031 C 
ATOM     47  C   UNL A   1      41.511  25.893  28.343  1.00  0.00     0.029 A 
ATOM     48  C   UNL A   1      42.910  26.113  27.991  1.00  0.00     0.049 A 
ATOM     49  H   UNL A   1      44.011  27.868  28.211  1.00  0.00     0.167 HD
ATOM     50  C   UNL A   1      46.132  31.698  28.522  1.00  0.00     0.037 A 
ATOM     51  C   UNL A   1      43.734  25.189  27.459  1.00  0.00     0.037 A 
ATOM     52  C   UNL A   1      47.109  30.752  28.050  1.00  0.00     0.049 A 
ATOM     53  C   UNL A   1      45.159  25.568  27.156  1.00  0.00     0.074 A 
ATOM     54  C   UNL A   1      48.454  30.958  27.803  1.00  0.00     0.029 A 
ATOM     55  N   UNL A   1      46.846  29.423  27.749  1.00  0.00    -0.354 N 
ATOM     56  N   UNL A   1      45.757  26.723  27.323  1.00  0.00    -0.248 NA
ATOM     57  C   UNL A   1      46.023  24.520  26.596  1.00  0.00     0.031 C 
ATOM     58  C   UNL A   1      48.993  29.770  27.299  1.00  0.00     0.029 A 
ATOM     59  C   UNL A   1      47.998  28.805  27.292  1.00  0.00     0.049 A 
ATOM     60  H   UNL A   1      45.970  28.984  27.845  1.00  0.00     0.167 HD
ATOM     61  C   UNL A   1      47.075  26.532  26.921  1.00  0.00     0.074 A 
ATOM     62  C   UNL A   1      47.188  25.148  26.510  1.00  0.00     0.031 C 
ATOM     63  C   UNL A   1      48.098  27.421  26.896  1.00  0.00     0.037 A 
BRANCH  50  64
ATOM     64  C   UNL A   1      46.562  33.125  28.734  1.00  0.00     0.058 A 
ATOM     65  C   UNL A   1      47.069  33.569  29.965  1.00  0.00     0.135 A 
ATOM     66  C   UNL A   1      46.504  34.051  27.679  1.00  0.00     0.135 A 
ATOM     67  F   UNL A   1      47.134  32.732  31.013  1.00  0.00    -0.206 F 
ATOM     68  C   UNL A   1      47.475  34.886  30.153  1.00  0.00     0.059 A 
ATOM     69  C   UNL A   1      46.934  35.366  27.836  1.00  0.00     0.059 A 
ATOM     70  F   UNL A   1      46.027  33.682  26.480  1.00  0.00    -0.206 F 
ATOM     71  C   UNL A   1      47.405  35.777  29.081  1.00  0.00     0.060 A 
BRANCH  71  72
ATOM     72  S   UNL A   1      47.945  37.479  29.341  1.00  0.00     0.124 S 
ATOM     73  O   UNL A   1      46.832  38.024  30.112  1.00  0.00    -0.237 OA
ATOM     74  O   UNL A   1      49.195  37.302  30.072  1.00  0.00    -0.237 OA
ATOM     75  O   UNL A   1      48.083  38.004  27.986  1.00  0.00    -0.744 OA
ENDBRANCH  71  72
ENDBRANCH  50  64
BRANCH  51  76
ATOM     76  C   UNL A   1      43.234  23.813  27.190  1.00  0.00     0.058 A 
ATOM     77  C   UNL A   1      42.769  23.448  25.918  1.00  0.00     0.135 A 
ATOM     78  C   UNL A   1      43.223  22.832  28.194  1.00  0.00     0.135 A 
ATOM     79  F   UNL A   1      42.754  24.351  24.925  1.00  0.00    -0.206 F 
ATOM     80  C   UNL A   1      42.295  22.168  25.654  1.00  0.00     0.059 A 
ATOM     81  C   UNL A   1      42.781  21.537  27.948  1.00  0.00     0.059 A 
ATOM     82  F   UNL A   1      43.674  23.125  29.425  1.00  0.00    -0.206 F 
ATOM     83  C   UNL A   1      42.309  21.217  26.676  1.00  0.00     0.060 A 
BRANCH  83  84
ATOM     84  S   UNL A   1      41.735  19.544  26.310  1.00  0.00     0.124 S 
ATOM     85  O   UNL A   1      42.087  18.838  27.537  1.00  0.00    -0.237 OA
ATOM     86  O   UNL A   1      40.310  19.754  26.078  1.00  0.00    -0.237 OA
ATOM     87  O   UNL A   1      42.508  19.176  25.127  1.00  0.00    -0.744 OA
ENDBRANCH  83  84
ENDBRANCH  51  76
BRANCH  63  88
ATOM     88  C   UNL A   1      49.446  26.922  26.452  1.00  0.00     0.058 A 
ATOM     89  C   UNL A   1      50.321  26.265  27.331  1.00  0.00     0.135 A 
ATOM     90  C   UNL A   1      49.837  27.044  25.108  1.00  0.00     0.135 A 
ATOM     91  F   UNL A   1      50.000  26.129  28.627  1.00  0.00    -0.206 F 
ATOM     92  C   UNL A   1      51.544  25.763  26.899  1.00  0.00     0.059 A 
ATOM     93  C   UNL A   1      51.042  26.522  24.647  1.00  0.00     0.059 A 
ATOM     94  F   UNL A   1      49.034  27.654  24.222  1.00  0.00    -0.206 F 
ATOM     95  C   UNL A   1      51.893  25.891  25.552  1.00  0.00     0.060 A 
BRANCH  95  96
ATOM     96  S   UNL A   1      53.461  25.193  24.996  1.00  0.00     0.124 S 
ATOM     97  O   UNL A   1      53.487  25.603  23.596  1.00  0.00    -0.237 OA
ATOM     98  O   UNL A   1      54.424  25.857  25.869  1.00  0.00    -0.237 OA
ATOM     99  O   UNL A   1      53.298  23.761  25.228  1.00  0.00    -0.744 OA
ENDBRANCH  95  96
ENDBRANCH  63  88
ENDBRANCH  37  38
ENDBRANCH  29  32
ENDBRANCH  27  28
ENDBRANCH  26  27
ENDBRANCH  25  26
ENDBRANCH   1  25
TORSDOF 19
ENDMDL
MODEL 3
REMARK VINA RESULT:     -11.3      6.285     11.745
REMARK SMILES Cc1ccc(Br)cc1C(=O)N1CCO[C@H](CC(=O)NCCCCCCNC(=O)c2ccc(-c3c4nc(c(-c5c(F)cc(S(=O)(=O)[O-])cc5F)c5ccc([nH]5)c(-c5c(F)cc(S(=O)(=O)[O-])cc5F)c5nc(c(-c6c(F)cc(S(=O)(=O)[O-])cc6F)c6ccc3[nH]6)C=C5)C=C4)cc2)C1
REMARK SMILES IDX 22 1 21 2 20 3 19 4 17 5 18 6 16 8 15 9 11 10 12 11 95 12
REMARK SMILES IDX 13 13 14 14 9 15 10 16 8 17 1 18 2 19 3 20 4 21 7 22 5 23
REMARK SMILES IDX 6 24 23 25 24 26 25 27 26 28 27 29 28 31 29 32 30 33 94 34
REMARK SMILES IDX 31 35 93 36 32 37 33 38 34 39 87 40 35 41 92 42 86 43 88 44
REMARK SMILES IDX 36 45 91 46 85 47 84 48 37 50 71 51 50 52 70 53 51 54 54 55
REMARK SMILES IDX 69 56 89 57 52 58 53 59 68 61 90 62 55 63 38 64 39 65 48 66
REMARK SMILES IDX 40 67 41 68 47 69 49 70 42 71 43 72 44 73 45 74 46 75 72 76
REMARK SMILES IDX 73 77 82 78 74 79 75 80 81 81 83 82 76 83 77 84 78 85 79 86
REMARK SMILES IDX 80 87 56 88 57 89 66 90 58 91 59 92 65 93 67 94 60 95 61 96
REMARK SMILES IDX 62 97 63 98 64 99
REMARK H PARENT 19 7 26 30 88 49 54 60
REMARK Flexibility Score: inf
ROOT
ATOM      1  C   UNL A   1      39.200  22.536  26.380  1.00  0.00     0.002 C 
ENDROOT
BRANCH   1   2
ATOM      2  C   UNL A   1      37.992  21.866  25.715  1.00  0.00     0.021 C 
BRANCH   2   3
ATOM      3  C   UNL A   1      36.704  22.651  25.934  1.00  0.00     0.116 C 
BRANCH   3   4
ATOM      4  N   UNL A   1      35.699  21.779  26.507  1.00  0.00    -0.356 N 
ATOM      5  C   UNL A   1      34.378  22.054  26.694  1.00  0.00     0.222 C 
ATOM      6  O   UNL A   1      33.714  21.363  27.465  1.00  0.00    -0.275 OA
ATOM      7  H   UNL A   1      36.004  20.888  26.793  1.00  0.00     0.163 HD
BRANCH   5   8
ATOM      8  C   UNL A   1      33.751  23.134  25.854  1.00  0.00     0.133 C 
BRANCH   8   9
ATOM      9  C   UNL A   1      32.451  22.751  25.132  1.00  0.00     0.147 C 
ATOM     10  N   UNL A   1      31.979  25.080  24.642  1.00  0.00    -0.334 N 
ATOM     11  C   UNL A   1      30.794  25.119  25.490  1.00  0.00     0.148 C 
ATOM     12  C   UNL A   1      32.174  23.767  24.016  1.00  0.00     0.152 C 
ATOM     13  C   UNL A   1      30.754  23.925  26.471  1.00  0.00     0.182 C 
ATOM     14  O   UNL A   1      31.281  22.674  25.981  1.00  0.00    -0.374 OA
BRANCH  10  15
ATOM     15  C   UNL A   1      32.696  26.150  24.133  1.00  0.00     0.254 C 
ATOM     16  O   UNL A   1      33.636  25.910  23.366  1.00  0.00    -0.269 OA
BRANCH  15  17
ATOM     17  C   UNL A   1      32.529  27.594  24.575  1.00  0.00     0.044 A 
ATOM     18  C   UNL A   1      30.307  28.313  23.422  1.00  0.00     0.045 C 
ATOM     19  C   UNL A   1      31.459  28.492  24.353  1.00  0.00    -0.038 A 
ATOM     20  C   UNL A   1      31.409  29.715  25.066  1.00  0.00     0.005 A 
ATOM     21  C   UNL A   1      32.368  30.054  26.010  1.00  0.00     0.016 A 
ATOM     22  C   UNL A   1      33.513  27.991  25.517  1.00  0.00     0.029 A 
ATOM     23  C   UNL A   1      33.425  29.189  26.228  1.00  0.00     0.018 A 
ATOM     24  Br  UNL A   1      34.722  29.610  27.536  1.00  0.00    -0.051 Br
ENDBRANCH  15  17
ENDBRANCH  10  15
ENDBRANCH   8   9
ENDBRANCH   5   8
ENDBRANCH   3   4
ENDBRANCH   2   3
ENDBRANCH   1   2
BRANCH   1  25
ATOM     25  C   UNL A   1      40.464  21.669  26.398  1.00  0.00     0.002 C 
BRANCH  25  26
ATOM     26  C   UNL A   1      41.198  21.654  27.742  1.00  0.00     0.021 C 
BRANCH  26  27
ATOM     27  C   UNL A   1      42.143  22.833  27.939  1.00  0.00     0.116 C 
BRANCH  27  28
ATOM     28  N   UNL A   1      42.467  23.474  26.673  1.00  0.00    -0.352 N 
ATOM     29  C   UNL A   1      42.292  24.782  26.299  1.00  0.00     0.251 C 
ATOM     30  H   UNL A   1      42.868  22.888  25.992  1.00  0.00     0.163 HD
ATOM     31  O   UNL A   1      42.398  25.107  25.123  1.00  0.00    -0.269 OA
BRANCH  29  32
ATOM     32  C   UNL A   1      41.960  25.787  27.329  1.00  0.00     0.039 A 
ATOM     33  C   UNL A   1      40.825  25.600  28.118  1.00  0.00     0.014 A 
ATOM     34  C   UNL A   1      42.779  26.905  27.517  1.00  0.00     0.014 A 
ATOM     35  C   UNL A   1      40.540  26.509  29.139  1.00  0.00     0.010 A 
ATOM     36  C   UNL A   1      42.538  27.765  28.582  1.00  0.00     0.010 A 
ATOM     37  C   UNL A   1      41.413  27.579  29.401  1.00  0.00    -0.014 A 
BRANCH  37  38
ATOM     38  C   UNL A   1      41.169  28.517  30.525  1.00  0.00     0.031 A 
ATOM     39  C   UNL A   1      41.975  28.401  31.790  1.00  0.00     0.074 A 
ATOM     40  C   UNL A   1      40.177  29.425  30.430  1.00  0.00     0.049 A 
ATOM     41  N   UNL A   1      41.855  29.070  32.907  1.00  0.00    -0.248 NA
ATOM     42  C   UNL A   1      43.036  27.381  31.812  1.00  0.00     0.031 C 
ATOM     43  C   UNL A   1      39.301  29.603  29.270  1.00  0.00     0.029 A 
ATOM     44  N   UNL A   1      39.731  30.362  31.329  1.00  0.00    -0.354 N 
ATOM     45  C   UNL A   1      42.814  28.545  33.767  1.00  0.00     0.074 A 
ATOM     46  C   UNL A   1      43.468  27.465  33.061  1.00  0.00     0.031 C 
ATOM     47  C   UNL A   1      38.437  30.600  29.520  1.00  0.00     0.029 A 
ATOM     48  C   UNL A   1      38.665  31.102  30.871  1.00  0.00     0.049 A 
ATOM     49  H   UNL A   1      40.135  30.492  32.216  1.00  0.00     0.167 HD
ATOM     50  C   UNL A   1      43.134  28.944  35.021  1.00  0.00     0.037 A 
ATOM     51  C   UNL A   1      37.945  32.067  31.476  1.00  0.00     0.037 A 
ATOM     52  C   UNL A   1      42.490  30.032  35.707  1.00  0.00     0.049 A 
ATOM     53  C   UNL A   1      38.310  32.481  32.877  1.00  0.00     0.074 A 
ATOM     54  C   UNL A   1      42.777  30.551  36.957  1.00  0.00     0.029 A 
ATOM     55  N   UNL A   1      41.426  30.768  35.204  1.00  0.00    -0.354 N 
ATOM     56  N   UNL A   1      39.260  32.016  33.652  1.00  0.00    -0.248 NA
ATOM     57  C   UNL A   1      37.509  33.551  33.485  1.00  0.00     0.031 C 
ATOM     58  C   UNL A   1      41.852  31.562  37.234  1.00  0.00     0.029 A 
ATOM     59  C   UNL A   1      41.028  31.718  36.130  1.00  0.00     0.049 A 
ATOM     60  H   UNL A   1      41.015  30.635  34.320  1.00  0.00     0.167 HD
ATOM     61  C   UNL A   1      39.193  32.760  34.826  1.00  0.00     0.074 A 
ATOM     62  C   UNL A   1      38.114  33.710  34.654  1.00  0.00     0.031 C 
ATOM     63  C   UNL A   1      39.957  32.666  35.941  1.00  0.00     0.037 A 
BRANCH  50  64
ATOM     64  C   UNL A   1      44.229  28.197  35.735  1.00  0.00     0.058 A 
ATOM     65  C   UNL A   1      45.574  28.589  35.641  1.00  0.00     0.135 A 
ATOM     66  C   UNL A   1      43.926  27.099  36.557  1.00  0.00     0.135 A 
ATOM     67  F   UNL A   1      45.925  29.623  34.859  1.00  0.00    -0.206 F 
ATOM     68  C   UNL A   1      46.582  27.903  36.311  1.00  0.00     0.059 A 
ATOM     69  C   UNL A   1      44.914  26.416  37.261  1.00  0.00     0.059 A 
ATOM     70  F   UNL A   1      42.657  26.679  36.683  1.00  0.00    -0.206 F 
ATOM     71  C   UNL A   1      46.241  26.818  37.121  1.00  0.00     0.060 A 
BRANCH  71  72
ATOM     72  S   UNL A   1      47.560  25.945  37.989  1.00  0.00     0.124 S 
ATOM     73  O   UNL A   1      46.980  24.614  38.137  1.00  0.00    -0.237 OA
ATOM     74  O   UNL A   1      48.673  26.050  37.051  1.00  0.00    -0.237 OA
ATOM     75  O   UNL A   1      47.713  26.703  39.227  1.00  0.00    -0.744 OA
ENDBRANCH  71  72
ENDBRANCH  50  64
BRANCH  51  76
ATOM     76  C   UNL A   1      36.817  32.715  30.755  1.00  0.00     0.058 A 
ATOM     77  C   UNL A   1      35.485  32.418  31.081  1.00  0.00     0.135 A 
ATOM     78  C   UNL A   1      37.045  33.653  29.737  1.00  0.00     0.135 A 
ATOM     79  F   UNL A   1      35.213  31.524  32.043  1.00  0.00    -0.206 F 
ATOM     80  C   UNL A   1      34.420  33.013  30.412  1.00  0.00     0.059 A 
ATOM     81  C   UNL A   1      35.998  34.283  29.073  1.00  0.00     0.059 A 
ATOM     82  F   UNL A   1      38.301  33.986  29.398  1.00  0.00    -0.206 F 
ATOM     83  C   UNL A   1      34.688  33.948  29.411  1.00  0.00     0.060 A 
BRANCH  83  84
ATOM     84  S   UNL A   1      33.299  34.750  28.581  1.00  0.00     0.124 S 
ATOM     85  O   UNL A   1      32.391  34.993  29.697  1.00  0.00    -0.237 OA
ATOM     86  O   UNL A   1      33.930  35.930  28.001  1.00  0.00    -0.237 OA
ATOM     87  O   UNL A   1      32.858  33.745  27.617  1.00  0.00    -0.744 OA
ENDBRANCH  83  84
ENDBRANCH  51  76
BRANCH  63  88
ATOM     88  C   UNL A   1      39.688  33.641  37.055  1.00  0.00     0.058 A 
ATOM     89  C   UNL A   1      38.821  33.336  38.115  1.00  0.00     0.135 A 
ATOM     90  C   UNL A   1      40.363  34.874  37.094  1.00  0.00     0.135 A 
ATOM     91  F   UNL A   1      38.145  32.176  38.123  1.00  0.00    -0.206 F 
ATOM     92  C   UNL A   1      38.617  34.224  39.166  1.00  0.00     0.059 A 
ATOM     93  C   UNL A   1      40.198  35.764  38.151  1.00  0.00     0.059 A 
ATOM     94  F   UNL A   1      41.212  35.212  36.111  1.00  0.00    -0.206 F 
ATOM     95  C   UNL A   1      39.315  35.434  39.178  1.00  0.00     0.060 A 
BRANCH  95  96
ATOM     96  S   UNL A   1      39.077  36.555  40.571  1.00  0.00     0.124 S 
ATOM     97  O   UNL A   1      38.149  35.798  41.404  1.00  0.00    -0.237 OA
ATOM     98  O   UNL A   1      40.432  36.692  41.095  1.00  0.00    -0.237 OA
ATOM     99  O   UNL A   1      38.527  37.757  39.952  1.00  0.00    -0.744 OA
ENDBRANCH  95  96
ENDBRANCH  63  88
ENDBRANCH  37  38
ENDBRANCH  29  32
ENDBRANCH  27  28
ENDBRANCH  26  27
ENDBRANCH  25  26
ENDBRANCH   1  25
TORSDOF 19
ENDMDL
