MODEL 1
REMARK VINA RESULT:     -12.4      0.000      0.000
REMARK SMILES Cc1ncc(CC(=O)N2CCc3c(c(C(=O)NCCCCCCNC(=O)c4ccc(-c5c6nc(c(-c7c(F)cc(S(=O)(=O)[O-])cc7F)c7ccc([nH]7)c(-c7c(F)cc(S(=O)(=O)[O-])cc7F)c7nc(c(-c8c(F)cc(S(=O)(=O)[O-])cc8F)c8ccc5[nH]8)C=C7)C=C6)cc4)nn3CC3CC3)C2)c(=O)[nH]1
REMARK SMILES IDX 20 1 19 2 18 3 17 4 15 5 16 6 14 8 9 9 10 10 99 11 11 12
REMARK SMILES IDX 13 13 12 14 94 15 93 16 7 17 8 18 6 19 5 20 1 21 2 22 3 23
REMARK SMILES IDX 102 24 4 25 100 26 101 28 95 29 96 30 97 31 98 32 21 33
REMARK SMILES IDX 22 34 23 35 24 36 25 37 26 39 27 40 28 41 92 42 29 43 91 44
REMARK SMILES IDX 30 45 31 46 32 47 85 48 33 49 90 50 84 51 86 52 34 53 89 54
REMARK SMILES IDX 83 55 82 56 35 58 69 59 48 60 68 61 49 62 52 63 67 64 87 65
REMARK SMILES IDX 50 66 51 67 66 69 88 70 53 71 36 72 37 73 46 74 38 75 39 76
REMARK SMILES IDX 45 77 47 78 40 79 41 80 42 81 43 82 44 83 70 84 71 85 80 86
REMARK SMILES IDX 72 87 73 88 79 89 81 90 74 91 75 92 76 93 77 94 78 95 54 96
REMARK SMILES IDX 55 97 64 98 56 99 57 100 63 101 65 102 58 103 59 104 60 105
REMARK SMILES IDX 61 106 62 107
REMARK H PARENT 17 7 102 27 24 38 86 57 52 68
REMARK Flexibility Score: inf
ROOT
ATOM      1  C   UNL A   1      35.276  30.705  28.414  1.00  0.00     0.002 C 
ENDROOT
BRANCH   1   2
ATOM      2  C   UNL A   1      35.561  29.429  27.619  1.00  0.00     0.021 C 
BRANCH   2   3
ATOM      3  C   UNL A   1      34.399  28.909  26.775  1.00  0.00     0.116 C 
BRANCH   3   4
ATOM      4  N   UNL A   1      33.222  28.592  27.569  1.00  0.00    -0.351 N 
ATOM      5  C   UNL A   1      31.967  28.150  27.195  1.00  0.00     0.272 C 
ATOM      6  O   UNL A   1      31.149  27.952  28.098  1.00  0.00    -0.267 OA
ATOM      7  H   UNL A   1      33.339  28.711  28.539  1.00  0.00     0.163 HD
BRANCH   5   8
ATOM      8  C   UNL A   1      31.600  27.952  25.778  1.00  0.00     0.155 A 
ATOM      9  N   UNL A   1      32.134  24.543  24.194  1.00  0.00    -0.338 N 
ATOM     10  C   UNL A   1      30.929  24.635  23.350  1.00  0.00     0.126 C 
ATOM     11  C   UNL A   1      32.074  25.341  25.444  1.00  0.00     0.159 C 
ATOM     12  C   UNL A   1      30.779  26.044  22.749  1.00  0.00     0.078 C 
ATOM     13  C   UNL A   1      31.619  26.720  25.057  1.00  0.00     0.026 A 
ATOM     14  C   UNL A   1      31.042  27.019  23.835  1.00  0.00     0.046 A 
ATOM     15  N   UNL A   1      30.775  28.348  23.838  1.00  0.00    -0.268 N 
ATOM     16  N   UNL A   1      31.211  28.948  24.958  1.00  0.00    -0.167 NA
BRANCH   9  17
ATOM     17  C   UNL A   1      33.281  23.814  23.936  1.00  0.00     0.227 C 
ATOM     18  O   UNL A   1      33.722  23.723  22.783  1.00  0.00    -0.275 OA
BRANCH  17  19
ATOM     19  C   UNL A   1      33.863  22.862  25.002  1.00  0.00     0.143 C 
BRANCH  19  20
ATOM     20  C   UNL A   1      33.596  21.399  24.945  1.00  0.00     0.045 A 
ATOM     21  C   UNL A   1      32.923  17.243  25.311  1.00  0.00     0.087 C 
ATOM     22  C   UNL A   1      33.114  18.717  25.118  1.00  0.00     0.105 A 
ATOM     23  N   UNL A   1      32.098  19.514  25.035  1.00  0.00    -0.243 NA
ATOM     24  N   UNL A   1      34.410  19.145  25.050  1.00  0.00    -0.311 N 
ATOM     25  C   UNL A   1      32.371  20.851  24.941  1.00  0.00     0.123 A 
ATOM     26  C   UNL A   1      34.738  20.463  24.908  1.00  0.00     0.254 A 
ATOM     27  H   UNL A   1      35.133  18.480  25.106  1.00  0.00     0.171 HD
ATOM     28  O   UNL A   1      35.895  20.841  24.784  1.00  0.00    -0.269 OA
ENDBRANCH  19  20
ENDBRANCH  17  19
ENDBRANCH   9  17
BRANCH  15  29
ATOM     29  C   UNL A   1      30.160  29.148  22.786  1.00  0.00     0.148 C 
BRANCH  29  30
ATOM     30  C   UNL A   1      29.087  30.098  23.246  1.00  0.00     0.011 C 
ATOM     31  C   UNL A   1      28.273  30.994  22.337  1.00  0.00     0.006 C 
ATOM     32  C   UNL A   1      27.640  29.778  22.949  1.00  0.00     0.006 C 
ENDBRANCH  29  30
ENDBRANCH  15  29
ENDBRANCH   5   8
ENDBRANCH   3   4
ENDBRANCH   2   3
ENDBRANCH   1   2
BRANCH   1  33
ATOM     33  C   UNL A   1      36.020  31.971  27.963  1.00  0.00     0.002 C 
BRANCH  33  34
ATOM     34  C   UNL A   1      35.338  33.319  28.244  1.00  0.00     0.021 C 
BRANCH  34  35
ATOM     35  C   UNL A   1      34.076  33.223  29.088  1.00  0.00     0.116 C 
BRANCH  35  36
ATOM     36  N   UNL A   1      34.023  34.229  30.148  1.00  0.00    -0.352 N 
ATOM     37  C   UNL A   1      34.674  34.218  31.371  1.00  0.00     0.251 C 
ATOM     38  H   UNL A   1      33.454  35.012  29.970  1.00  0.00     0.163 HD
ATOM     39  O   UNL A   1      34.267  34.895  32.300  1.00  0.00    -0.269 OA
BRANCH  37  40
ATOM     40  C   UNL A   1      35.875  33.372  31.524  1.00  0.00     0.039 A 
ATOM     41  C   UNL A   1      35.776  32.008  31.814  1.00  0.00     0.014 A 
ATOM     42  C   UNL A   1      37.118  33.973  31.350  1.00  0.00     0.014 A 
ATOM     43  C   UNL A   1      36.941  31.242  31.845  1.00  0.00     0.010 A 
ATOM     44  C   UNL A   1      38.236  33.194  31.216  1.00  0.00     0.010 A 
ATOM     45  C   UNL A   1      38.169  31.841  31.523  1.00  0.00    -0.014 A 
BRANCH  45  46
ATOM     46  C   UNL A   1      39.384  31.046  31.380  1.00  0.00     0.031 A 
ATOM     47  C   UNL A   1      40.086  30.762  32.661  1.00  0.00     0.074 A 
ATOM     48  C   UNL A   1      39.702  30.408  30.231  1.00  0.00     0.049 A 
ATOM     49  N   UNL A   1      41.246  31.187  33.038  1.00  0.00    -0.248 NA
ATOM     50  C   UNL A   1      39.348  30.049  33.720  1.00  0.00     0.031 C 
ATOM     51  C   UNL A   1      38.926  30.342  28.987  1.00  0.00     0.029 A 
ATOM     52  N   UNL A   1      40.737  29.565  29.971  1.00  0.00    -0.354 N 
ATOM     53  C   UNL A   1      41.491  30.583  34.269  1.00  0.00     0.074 A 
ATOM     54  C   UNL A   1      40.220  30.090  34.729  1.00  0.00     0.031 C 
ATOM     55  C   UNL A   1      39.375  29.322  28.223  1.00  0.00     0.029 A 
ATOM     56  C   UNL A   1      40.567  28.771  28.839  1.00  0.00     0.049 A 
ATOM     57  H   UNL A   1      41.542  29.519  30.536  1.00  0.00     0.167 HD
ATOM     58  C   UNL A   1      42.761  30.300  34.673  1.00  0.00     0.037 A 
ATOM     59  C   UNL A   1      41.330  27.712  28.461  1.00  0.00     0.037 A 
ATOM     60  C   UNL A   1      43.728  31.027  33.884  1.00  0.00     0.049 A 
ATOM     61  C   UNL A   1      42.634  27.851  29.166  1.00  0.00     0.074 A 
ATOM     62  C   UNL A   1      43.924  32.363  33.589  1.00  0.00     0.029 A 
ATOM     63  N   UNL A   1      44.432  30.330  32.929  1.00  0.00    -0.354 N 
ATOM     64  N   UNL A   1      43.480  28.820  28.935  1.00  0.00    -0.248 NA
ATOM     65  C   UNL A   1      42.768  27.205  30.463  1.00  0.00     0.031 C 
ATOM     66  C   UNL A   1      44.281  32.382  32.208  1.00  0.00     0.029 A 
ATOM     67  C   UNL A   1      44.374  31.061  31.770  1.00  0.00     0.049 A 
ATOM     68  H   UNL A   1      44.892  29.468  33.055  1.00  0.00     0.167 HD
ATOM     69  C   UNL A   1      43.941  29.195  30.190  1.00  0.00     0.074 A 
ATOM     70  C   UNL A   1      43.531  28.112  31.083  1.00  0.00     0.031 C 
ATOM     71  C   UNL A   1      44.348  30.474  30.447  1.00  0.00     0.037 A 
BRANCH  58  72
ATOM     72  C   UNL A   1      43.148  29.092  35.500  1.00  0.00     0.058 A 
ATOM     73  C   UNL A   1      44.008  29.264  36.606  1.00  0.00     0.135 A 
ATOM     74  C   UNL A   1      42.949  27.754  35.092  1.00  0.00     0.135 A 
ATOM     75  F   UNL A   1      44.275  30.491  37.081  1.00  0.00    -0.206 F 
ATOM     76  C   UNL A   1      44.685  28.199  37.202  1.00  0.00     0.059 A 
ATOM     77  C   UNL A   1      43.569  26.674  35.708  1.00  0.00     0.059 A 
ATOM     78  F   UNL A   1      42.227  27.429  34.014  1.00  0.00    -0.206 F 
ATOM     79  C   UNL A   1      44.469  26.907  36.732  1.00  0.00     0.060 A 
BRANCH  79  80
ATOM     80  S   UNL A   1      45.416  25.542  37.424  1.00  0.00     0.124 S 
ATOM     81  O   UNL A   1      44.361  24.584  37.732  1.00  0.00    -0.237 OA
ATOM     82  O   UNL A   1      46.296  25.193  36.313  1.00  0.00    -0.237 OA
ATOM     83  O   UNL A   1      46.081  26.145  38.575  1.00  0.00    -0.744 OA
ENDBRANCH  79  80
ENDBRANCH  58  72
BRANCH  59  84
ATOM     84  C   UNL A   1      40.886  26.445  27.811  1.00  0.00     0.058 A 
ATOM     85  C   UNL A   1      41.622  25.861  26.762  1.00  0.00     0.135 A 
ATOM     86  C   UNL A   1      39.884  25.632  28.381  1.00  0.00     0.135 A 
ATOM     87  F   UNL A   1      42.609  26.549  26.168  1.00  0.00    -0.206 F 
ATOM     88  C   UNL A   1      41.415  24.539  26.343  1.00  0.00     0.059 A 
ATOM     89  C   UNL A   1      39.650  24.319  27.971  1.00  0.00     0.059 A 
ATOM     90  F   UNL A   1      39.155  26.056  29.424  1.00  0.00    -0.206 F 
ATOM     91  C   UNL A   1      40.438  23.767  26.971  1.00  0.00     0.060 A 
BRANCH  91  92
ATOM     92  S   UNL A   1      40.289  22.007  26.575  1.00  0.00     0.124 S 
ATOM     93  O   UNL A   1      38.940  21.932  26.025  1.00  0.00    -0.237 OA
ATOM     94  O   UNL A   1      41.378  21.810  25.625  1.00  0.00    -0.237 OA
ATOM     95  O   UNL A   1      40.473  21.352  27.868  1.00  0.00    -0.744 OA
ENDBRANCH  91  92
ENDBRANCH  59  84
BRANCH  71  96
ATOM     96  C   UNL A   1      44.571  31.418  29.291  1.00  0.00     0.058 A 
ATOM     97  C   UNL A   1      45.717  31.434  28.475  1.00  0.00     0.135 A 
ATOM     98  C   UNL A   1      43.494  32.225  28.891  1.00  0.00     0.135 A 
ATOM     99  F   UNL A   1      46.751  30.618  28.719  1.00  0.00    -0.206 F 
ATOM    100  C   UNL A   1      45.801  32.241  27.338  1.00  0.00     0.059 A 
ATOM    101  C   UNL A   1      43.543  33.012  27.745  1.00  0.00     0.059 A 
ATOM    102  F   UNL A   1      42.347  32.210  29.590  1.00  0.00    -0.206 F 
ATOM    103  C   UNL A   1      44.706  33.026  26.978  1.00  0.00     0.060 A 
BRANCH 103 104
ATOM    104  S   UNL A   1      44.787  34.017  25.471  1.00  0.00     0.124 S 
ATOM    105  O   UNL A   1      44.292  33.084  24.464  1.00  0.00    -0.237 OA
ATOM    106  O   UNL A   1      43.908  35.140  25.782  1.00  0.00    -0.237 OA
ATOM    107  O   UNL A   1      46.204  34.359  25.362  1.00  0.00    -0.744 OA
ENDBRANCH 103 104
ENDBRANCH  71  96
ENDBRANCH  45  46
ENDBRANCH  37  40
ENDBRANCH  35  36
ENDBRANCH  34  35
ENDBRANCH  33  34
ENDBRANCH   1  33
TORSDOF 21
ENDMDL
MODEL 2
REMARK VINA RESULT:     -12.1      2.405      4.765
REMARK SMILES Cc1ncc(CC(=O)N2CCc3c(c(C(=O)NCCCCCCNC(=O)c4ccc(-c5c6nc(c(-c7c(F)cc(S(=O)(=O)[O-])cc7F)c7ccc([nH]7)c(-c7c(F)cc(S(=O)(=O)[O-])cc7F)c7nc(c(-c8c(F)cc(S(=O)(=O)[O-])cc8F)c8ccc5[nH]8)C=C7)C=C6)cc4)nn3CC3CC3)C2)c(=O)[nH]1
REMARK SMILES IDX 20 1 19 2 18 3 17 4 15 5 16 6 14 8 9 9 10 10 99 11 11 12
REMARK SMILES IDX 13 13 12 14 94 15 93 16 7 17 8 18 6 19 5 20 1 21 2 22 3 23
REMARK SMILES IDX 102 24 4 25 100 26 101 28 95 29 96 30 97 31 98 32 21 33
REMARK SMILES IDX 22 34 23 35 24 36 25 37 26 39 27 40 28 41 92 42 29 43 91 44
REMARK SMILES IDX 30 45 31 46 32 47 85 48 33 49 90 50 84 51 86 52 34 53 89 54
REMARK SMILES IDX 83 55 82 56 35 58 69 59 48 60 68 61 49 62 52 63 67 64 87 65
REMARK SMILES IDX 50 66 51 67 66 69 88 70 53 71 36 72 37 73 46 74 38 75 39 76
REMARK SMILES IDX 45 77 47 78 40 79 41 80 42 81 43 82 44 83 70 84 71 85 80 86
REMARK SMILES IDX 72 87 73 88 79 89 81 90 74 91 75 92 76 93 77 94 78 95 54 96
REMARK SMILES IDX 55 97 64 98 56 99 57 100 63 101 65 102 58 103 59 104 60 105
REMARK SMILES IDX 61 106 62 107
REMARK H PARENT 17 7 102 27 24 38 86 57 52 68
REMARK Flexibility Score: inf
ROOT
ATOM      1  C   UNL A   1      31.490  26.940  25.976  1.00  0.00     0.002 C 
ENDROOT
BRANCH   1   2
ATOM      2  C   UNL A   1      30.626  26.404  24.833  1.00  0.00     0.021 C 
BRANCH   2   3
ATOM      3  C   UNL A   1      30.504  24.883  24.762  1.00  0.00     0.116 C 
BRANCH   3   4
ATOM      4  N   UNL A   1      30.000  24.297  25.995  1.00  0.00    -0.351 N 
ATOM      5  C   UNL A   1      30.348  23.135  26.656  1.00  0.00     0.272 C 
ATOM      6  O   UNL A   1      29.748  22.885  27.705  1.00  0.00    -0.267 OA
ATOM      7  H   UNL A   1      29.289  24.819  26.433  1.00  0.00     0.163 HD
BRANCH   5   8
ATOM      8  C   UNL A   1      31.369  22.210  26.123  1.00  0.00     0.155 A 
ATOM      9  N   UNL A   1      35.002  23.311  26.062  1.00  0.00    -0.338 N 
ATOM     10  C   UNL A   1      35.520  21.962  26.355  1.00  0.00     0.126 C 
ATOM     11  C   UNL A   1      33.631  23.568  26.567  1.00  0.00     0.159 C 
ATOM     12  C   UNL A   1      34.750  20.888  25.566  1.00  0.00     0.078 C 
ATOM     13  C   UNL A   1      32.783  22.405  26.133  1.00  0.00     0.026 A 
ATOM     14  C   UNL A   1      33.305  21.206  25.679  1.00  0.00     0.046 A 
ATOM     15  N   UNL A   1      32.255  20.408  25.369  1.00  0.00    -0.268 N 
ATOM     16  N   UNL A   1      31.079  21.039  25.522  1.00  0.00    -0.167 NA
BRANCH   9  17
ATOM     17  C   UNL A   1      35.649  24.323  25.376  1.00  0.00     0.227 C 
ATOM     18  O   UNL A   1      36.885  24.376  25.353  1.00  0.00    -0.275 OA
BRANCH  17  19
ATOM     19  C   UNL A   1      34.870  25.562  24.886  1.00  0.00     0.143 C 
BRANCH  19  20
ATOM     20  C   UNL A   1      34.104  25.525  23.611  1.00  0.00     0.045 A 
ATOM     21  C   UNL A   1      32.403  25.490  19.742  1.00  0.00     0.087 C 
ATOM     22  C   UNL A   1      32.946  25.457  21.139  1.00  0.00     0.105 A 
ATOM     23  N   UNL A   1      33.150  24.334  21.747  1.00  0.00    -0.243 NA
ATOM     24  N   UNL A   1      33.215  26.673  21.702  1.00  0.00    -0.311 N 
ATOM     25  C   UNL A   1      33.724  24.399  22.987  1.00  0.00     0.123 A 
ATOM     26  C   UNL A   1      33.742  26.798  22.954  1.00  0.00     0.254 A 
ATOM     27  H   UNL A   1      33.021  27.488  21.185  1.00  0.00     0.171 HD
ATOM     28  O   UNL A   1      33.925  27.887  23.483  1.00  0.00    -0.269 OA
ENDBRANCH  19  20
ENDBRANCH  17  19
ENDBRANCH   9  17
BRANCH  15  29
ATOM     29  C   UNL A   1      32.277  19.043  24.859  1.00  0.00     0.148 C 
BRANCH  29  30
ATOM     30  C   UNL A   1      32.990  18.861  23.546  1.00  0.00     0.011 C 
ATOM     31  C   UNL A   1      33.548  17.549  23.035  1.00  0.00     0.006 C 
ATOM     32  C   UNL A   1      32.299  18.117  22.426  1.00  0.00     0.006 C 
ENDBRANCH  29  30
ENDBRANCH  15  29
ENDBRANCH   5   8
ENDBRANCH   3   4
ENDBRANCH   2   3
ENDBRANCH   1   2
BRANCH   1  33
ATOM     33  C   UNL A   1      31.717  28.459  26.005  1.00  0.00     0.002 C 
BRANCH  33  34
ATOM     34  C   UNL A   1      32.272  29.058  27.307  1.00  0.00     0.021 C 
BRANCH  34  35
ATOM     35  C   UNL A   1      33.753  29.399  27.262  1.00  0.00     0.116 C 
BRANCH  35  36
ATOM     36  N   UNL A   1      34.003  30.827  27.065  1.00  0.00    -0.352 N 
ATOM     37  C   UNL A   1      35.026  31.597  27.593  1.00  0.00     0.251 C 
ATOM     38  H   UNL A   1      33.364  31.299  26.484  1.00  0.00     0.163 HD
ATOM     39  O   UNL A   1      34.918  32.809  27.671  1.00  0.00    -0.269 OA
BRANCH  37  40
ATOM     40  C   UNL A   1      36.254  30.919  28.055  1.00  0.00     0.039 A 
ATOM     41  C   UNL A   1      36.540  29.599  27.696  1.00  0.00     0.014 A 
ATOM     42  C   UNL A   1      37.136  31.645  28.850  1.00  0.00     0.014 A 
ATOM     43  C   UNL A   1      37.762  29.048  28.078  1.00  0.00     0.010 A 
ATOM     44  C   UNL A   1      38.397  31.165  29.080  1.00  0.00     0.010 A 
ATOM     45  C   UNL A   1      38.697  29.848  28.755  1.00  0.00    -0.014 A 
BRANCH  45  46
ATOM     46  C   UNL A   1      40.048  29.367  29.026  1.00  0.00     0.031 A 
ATOM     47  C   UNL A   1      40.363  29.205  30.472  1.00  0.00     0.074 A 
ATOM     48  C   UNL A   1      40.849  28.868  28.057  1.00  0.00     0.049 A 
ATOM     49  N   UNL A   1      41.214  29.876  31.175  1.00  0.00    -0.248 NA
ATOM     50  C   UNL A   1      39.523  28.297  31.273  1.00  0.00     0.031 C 
ATOM     51  C   UNL A   1      40.537  28.671  26.636  1.00  0.00     0.029 A 
ATOM     52  N   UNL A   1      42.082  28.304  28.163  1.00  0.00    -0.354 N 
ATOM     53  C   UNL A   1      41.199  29.298  32.442  1.00  0.00     0.074 A 
ATOM     54  C   UNL A   1      40.002  28.502  32.501  1.00  0.00     0.031 C 
ATOM     55  C   UNL A   1      41.428  27.817  26.089  1.00  0.00     0.029 A 
ATOM     56  C   UNL A   1      42.464  27.538  27.064  1.00  0.00     0.049 A 
ATOM     57  H   UNL A   1      42.657  28.426  28.952  1.00  0.00     0.167 HD
ATOM     58  C   UNL A   1      42.310  29.306  33.232  1.00  0.00     0.037 A 
ATOM     59  C   UNL A   1      43.534  26.704  26.982  1.00  0.00     0.037 A 
ATOM     60  C   UNL A   1      43.273  30.271  32.757  1.00  0.00     0.049 A 
ATOM     61  C   UNL A   1      44.482  27.118  28.052  1.00  0.00     0.074 A 
ATOM     62  C   UNL A   1      43.231  31.627  32.489  1.00  0.00     0.029 A 
ATOM     63  N   UNL A   1      44.384  29.798  32.095  1.00  0.00    -0.354 N 
ATOM     64  N   UNL A   1      45.105  28.267  28.061  1.00  0.00    -0.248 NA
ATOM     65  C   UNL A   1      44.355  26.471  29.350  1.00  0.00     0.031 C 
ATOM     66  C   UNL A   1      43.984  31.785  31.288  1.00  0.00     0.029 A 
ATOM     67  C   UNL A   1      44.518  30.541  30.950  1.00  0.00     0.049 A 
ATOM     68  H   UNL A   1      44.971  29.065  32.389  1.00  0.00     0.167 HD
ATOM     69  C   UNL A   1      45.051  28.690  29.383  1.00  0.00     0.074 A 
ATOM     70  C   UNL A   1      44.651  27.506  30.142  1.00  0.00     0.031 C 
ATOM     71  C   UNL A   1      45.044  30.017  29.707  1.00  0.00     0.037 A 
BRANCH  58  72
ATOM     72  C   UNL A   1      42.694  28.192  34.182  1.00  0.00     0.058 A 
ATOM     73  C   UNL A   1      42.807  28.472  35.560  1.00  0.00     0.135 A 
ATOM     74  C   UNL A   1      43.229  26.950  33.773  1.00  0.00     0.135 A 
ATOM     75  F   UNL A   1      42.336  29.625  36.065  1.00  0.00    -0.206 F 
ATOM     76  C   UNL A   1      43.475  27.626  36.445  1.00  0.00     0.059 A 
ATOM     77  C   UNL A   1      43.849  26.066  34.648  1.00  0.00     0.059 A 
ATOM     78  F   UNL A   1      43.272  26.570  32.491  1.00  0.00    -0.206 F 
ATOM     79  C   UNL A   1      44.008  26.431  35.973  1.00  0.00     0.060 A 
BRANCH  79  80
ATOM     80  S   UNL A   1      44.963  25.385  37.083  1.00  0.00     0.124 S 
ATOM     81  O   UNL A   1      44.496  24.057  36.704  1.00  0.00    -0.237 OA
ATOM     82  O   UNL A   1      46.333  25.716  36.704  1.00  0.00    -0.237 OA
ATOM     83  O   UNL A   1      44.558  25.846  38.408  1.00  0.00    -0.744 OA
ENDBRANCH  79  80
ENDBRANCH  58  72
BRANCH  59  84
ATOM     84  C   UNL A   1      43.626  25.395  26.272  1.00  0.00     0.058 A 
ATOM     85  C   UNL A   1      44.614  25.156  25.297  1.00  0.00     0.135 A 
ATOM     86  C   UNL A   1      42.927  24.257  26.725  1.00  0.00     0.135 A 
ATOM     87  F   UNL A   1      45.345  26.174  24.817  1.00  0.00    -0.206 F 
ATOM     88  C   UNL A   1      44.925  23.868  24.842  1.00  0.00     0.059 A 
ATOM     89  C   UNL A   1      43.209  22.966  26.276  1.00  0.00     0.059 A 
ATOM     90  F   UNL A   1      42.004  24.348  27.694  1.00  0.00    -0.206 F 
ATOM     91  C   UNL A   1      44.229  22.774  25.355  1.00  0.00     0.060 A 
BRANCH  91  92
ATOM     92  S   UNL A   1      44.747  21.094  24.922  1.00  0.00     0.124 S 
ATOM     93  O   UNL A   1      46.119  21.061  25.418  1.00  0.00    -0.237 OA
ATOM     94  O   UNL A   1      43.785  20.275  25.650  1.00  0.00    -0.237 OA
ATOM     95  O   UNL A   1      44.609  21.062  23.467  1.00  0.00    -0.744 OA
ENDBRANCH  91  92
ENDBRANCH  59  84
BRANCH  71  96
ATOM     96  C   UNL A   1      45.386  31.033  28.644  1.00  0.00     0.058 A 
ATOM     97  C   UNL A   1      44.468  31.578  27.727  1.00  0.00     0.135 A 
ATOM     98  C   UNL A   1      46.667  31.606  28.677  1.00  0.00     0.135 A 
ATOM     99  F   UNL A   1      43.193  31.168  27.698  1.00  0.00    -0.206 F 
ATOM    100  C   UNL A   1      44.820  32.613  26.859  1.00  0.00     0.059 A 
ATOM    101  C   UNL A   1      47.030  32.660  27.845  1.00  0.00     0.059 A 
ATOM    102  F   UNL A   1      47.572  31.175  29.572  1.00  0.00    -0.206 F 
ATOM    103  C   UNL A   1      46.105  33.152  26.928  1.00  0.00     0.060 A 
BRANCH 103 104
ATOM    104  S   UNL A   1      46.540  34.538  25.856  1.00  0.00     0.124 S 
ATOM    105  O   UNL A   1      47.935  34.254  25.538  1.00  0.00    -0.237 OA
ATOM    106  O   UNL A   1      45.596  34.395  24.752  1.00  0.00    -0.237 OA
ATOM    107  O   UNL A   1      46.320  35.708  26.704  1.00  0.00    -0.744 OA
ENDBRANCH 103 104
ENDBRANCH  71  96
ENDBRANCH  45  46
ENDBRANCH  37  40
ENDBRANCH  35  36
ENDBRANCH  34  35
ENDBRANCH  33  34
ENDBRANCH   1  33
TORSDOF 21
ENDMDL
MODEL 3
REMARK VINA RESULT:     -11.3      1.457      2.090
REMARK SMILES Cc1ncc(CC(=O)N2CCc3c(c(C(=O)NCCCCCCNC(=O)c4ccc(-c5c6nc(c(-c7c(F)cc(S(=O)(=O)[O-])cc7F)c7ccc([nH]7)c(-c7c(F)cc(S(=O)(=O)[O-])cc7F)c7nc(c(-c8c(F)cc(S(=O)(=O)[O-])cc8F)c8ccc5[nH]8)C=C7)C=C6)cc4)nn3CC3CC3)C2)c(=O)[nH]1
REMARK SMILES IDX 20 1 19 2 18 3 17 4 15 5 16 6 14 8 9 9 10 10 99 11 11 12
REMARK SMILES IDX 13 13 12 14 94 15 93 16 7 17 8 18 6 19 5 20 1 21 2 22 3 23
REMARK SMILES IDX 102 24 4 25 100 26 101 28 95 29 96 30 97 31 98 32 21 33
REMARK SMILES IDX 22 34 23 35 24 36 25 37 26 39 27 40 28 41 92 42 29 43 91 44
REMARK SMILES IDX 30 45 31 46 32 47 85 48 33 49 90 50 84 51 86 52 34 53 89 54
REMARK SMILES IDX 83 55 82 56 35 58 69 59 48 60 68 61 49 62 52 63 67 64 87 65
REMARK SMILES IDX 50 66 51 67 66 69 88 70 53 71 36 72 37 73 46 74 38 75 39 76
REMARK SMILES IDX 45 77 47 78 40 79 41 80 42 81 43 82 44 83 70 84 71 85 80 86
REMARK SMILES IDX 72 87 73 88 79 89 81 90 74 91 75 92 76 93 77 94 78 95 54 96
REMARK SMILES IDX 55 97 64 98 56 99 57 100 63 101 65 102 58 103 59 104 60 105
REMARK SMILES IDX 61 106 62 107
REMARK H PARENT 17 7 102 27 24 38 86 57 52 68
REMARK Flexibility Score: inf
ROOT
ATOM      1  C   UNL A   1      36.031  31.151  27.921  1.00  0.00     0.002 C 
ENDROOT
BRANCH   1   2
ATOM      2  C   UNL A   1      34.662  30.729  27.382  1.00  0.00     0.021 C 
BRANCH   2   3
ATOM      3  C   UNL A   1      34.539  29.259  26.986  1.00  0.00     0.116 C 
BRANCH   3   4
ATOM      4  N   UNL A   1      33.425  28.588  27.639  1.00  0.00    -0.351 N 
ATOM      5  C   UNL A   1      32.148  28.307  27.194  1.00  0.00     0.272 C 
ATOM      6  O   UNL A   1      31.401  27.710  27.974  1.00  0.00    -0.267 OA
ATOM      7  H   UNL A   1      33.615  28.281  28.556  1.00  0.00     0.163 HD
BRANCH   5   8
ATOM      8  C   UNL A   1      31.677  28.727  25.858  1.00  0.00     0.155 A 
ATOM      9  N   UNL A   1      31.949  26.293  22.958  1.00  0.00    -0.338 N 
ATOM     10  C   UNL A   1      30.694  26.746  22.330  1.00  0.00     0.126 C 
ATOM     11  C   UNL A   1      32.009  26.492  24.427  1.00  0.00     0.159 C 
ATOM     12  C   UNL A   1      30.567  28.278  22.386  1.00  0.00     0.078 C 
ATOM     13  C   UNL A   1      31.591  27.912  24.690  1.00  0.00     0.026 A 
ATOM     14  C   UNL A   1      30.947  28.704  23.756  1.00  0.00     0.046 A 
ATOM     15  N   UNL A   1      30.741  29.912  24.335  1.00  0.00    -0.268 N 
ATOM     16  N   UNL A   1      31.278  29.981  25.564  1.00  0.00    -0.167 NA
BRANCH   9  17
ATOM     17  C   UNL A   1      33.042  25.725  22.327  1.00  0.00     0.227 C 
ATOM     18  O   UNL A   1      33.866  26.436  21.739  1.00  0.00    -0.275 OA
BRANCH  17  19
ATOM     19  C   UNL A   1      33.103  24.203  22.082  1.00  0.00     0.143 C 
BRANCH  19  20
ATOM     20  C   UNL A   1      33.291  23.255  23.214  1.00  0.00     0.045 A 
ATOM     21  C   UNL A   1      33.897  20.999  26.736  1.00  0.00     0.087 C 
ATOM     22  C   UNL A   1      33.637  21.740  25.459  1.00  0.00     0.105 A 
ATOM     23  N   UNL A   1      32.430  21.938  25.038  1.00  0.00    -0.243 NA
ATOM     24  N   UNL A   1      34.745  22.190  24.797  1.00  0.00    -0.311 N 
ATOM     25  C   UNL A   1      32.288  22.693  23.907  1.00  0.00     0.123 A 
ATOM     26  C   UNL A   1      34.663  22.907  23.638  1.00  0.00     0.254 A 
ATOM     27  H   UNL A   1      35.633  21.990  25.168  1.00  0.00     0.171 HD
ATOM     28  O   UNL A   1      35.654  23.257  23.011  1.00  0.00    -0.269 OA
ENDBRANCH  19  20
ENDBRANCH  17  19
ENDBRANCH   9  17
BRANCH  15  29
ATOM     29  C   UNL A   1      30.093  31.087  23.766  1.00  0.00     0.148 C 
BRANCH  29  30
ATOM     30  C   UNL A   1      28.611  31.182  24.009  1.00  0.00     0.011 C 
ATOM     31  C   UNL A   1      27.625  31.886  23.101  1.00  0.00     0.006 C 
ATOM     32  C   UNL A   1      27.666  30.387  23.138  1.00  0.00     0.006 C 
ENDBRANCH  29  30
ENDBRANCH  15  29
ENDBRANCH   5   8
ENDBRANCH   3   4
ENDBRANCH   2   3
ENDBRANCH   1   2
BRANCH   1  33
ATOM     33  C   UNL A   1      36.281  32.662  28.040  1.00  0.00     0.002 C 
BRANCH  33  34
ATOM     34  C   UNL A   1      36.017  33.308  29.408  1.00  0.00     0.021 C 
BRANCH  34  35
ATOM     35  C   UNL A   1      34.928  32.629  30.225  1.00  0.00     0.116 C 
BRANCH  35  36
ATOM     36  N   UNL A   1      34.834  33.149  31.590  1.00  0.00    -0.352 N 
ATOM     37  C   UNL A   1      35.469  32.681  32.729  1.00  0.00     0.251 C 
ATOM     38  H   UNL A   1      34.246  33.928  31.714  1.00  0.00     0.163 HD
ATOM     39  O   UNL A   1      35.032  32.940  33.837  1.00  0.00    -0.269 OA
BRANCH  37  40
ATOM     40  C   UNL A   1      36.690  31.866  32.572  1.00  0.00     0.039 A 
ATOM     41  C   UNL A   1      36.630  30.476  32.437  1.00  0.00     0.014 A 
ATOM     42  C   UNL A   1      37.913  32.529  32.542  1.00  0.00     0.014 A 
ATOM     43  C   UNL A   1      37.807  29.773  32.189  1.00  0.00     0.010 A 
ATOM     44  C   UNL A   1      39.038  31.863  32.134  1.00  0.00     0.010 A 
ATOM     45  C   UNL A   1      39.009  30.479  32.018  1.00  0.00    -0.014 A 
BRANCH  45  46
ATOM     46  C   UNL A   1      40.230  29.802  31.594  1.00  0.00     0.031 A 
ATOM     47  C   UNL A   1      41.192  29.525  32.696  1.00  0.00     0.074 A 
ATOM     48  C   UNL A   1      40.364  29.246  30.369  1.00  0.00     0.049 A 
ATOM     49  N   UNL A   1      42.367  30.034  32.866  1.00  0.00    -0.248 NA
ATOM     50  C   UNL A   1      40.737  28.703  33.832  1.00  0.00     0.031 C 
ATOM     51  C   UNL A   1      39.364  29.167  29.297  1.00  0.00     0.029 A 
ATOM     52  N   UNL A   1      41.390  28.512  29.862  1.00  0.00    -0.354 N 
ATOM     53  C   UNL A   1      42.897  29.401  33.987  1.00  0.00     0.074 A 
ATOM     54  C   UNL A   1      41.786  28.776  34.653  1.00  0.00     0.031 C 
ATOM     55  C   UNL A   1      39.732  28.226  28.400  1.00  0.00     0.029 A 
ATOM     56  C   UNL A   1      41.061  27.757  28.738  1.00  0.00     0.049 A 
ATOM     57  H   UNL A   1      42.291  28.513  30.257  1.00  0.00     0.167 HD
ATOM     58  C   UNL A   1      44.241  29.214  34.119  1.00  0.00     0.037 A 
ATOM     59  C   UNL A   1      41.815  26.787  28.156  1.00  0.00     0.037 A 
ATOM     60  C   UNL A   1      44.972  30.058  33.204  1.00  0.00     0.049 A 
ATOM     61  C   UNL A   1      43.218  27.011  28.602  1.00  0.00     0.074 A 
ATOM     62  C   UNL A   1      45.000  31.419  32.958  1.00  0.00     0.029 A 
ATOM     63  N   UNL A   1      45.526  29.470  32.090  1.00  0.00    -0.354 N 
ATOM     64  N   UNL A   1      43.923  28.060  28.271  1.00  0.00    -0.248 NA
ATOM     65  C   UNL A   1      43.657  26.322  29.807  1.00  0.00     0.031 C 
ATOM     66  C   UNL A   1      45.074  31.531  31.539  1.00  0.00     0.029 A 
ATOM     67  C   UNL A   1      45.182  30.244  31.011  1.00  0.00     0.049 A 
ATOM     68  H   UNL A   1      46.068  28.648  32.071  1.00  0.00     0.167 HD
ATOM     69  C   UNL A   1      44.593  28.419  29.434  1.00  0.00     0.074 A 
ATOM     70  C   UNL A   1      44.454  27.265  30.321  1.00  0.00     0.031 C 
ATOM     71  C   UNL A   1      44.941  29.716  29.685  1.00  0.00     0.037 A 
BRANCH  58  72
ATOM     72  C   UNL A   1      44.878  28.010  34.780  1.00  0.00     0.058 A 
ATOM     73  C   UNL A   1      44.541  26.718  34.325  1.00  0.00     0.135 A 
ATOM     74  C   UNL A   1      45.572  28.055  36.011  1.00  0.00     0.135 A 
ATOM     75  F   UNL A   1      43.879  26.551  33.168  1.00  0.00    -0.206 F 
ATOM     76  C   UNL A   1      44.795  25.569  35.074  1.00  0.00     0.059 A 
ATOM     77  C   UNL A   1      45.885  26.918  36.746  1.00  0.00     0.059 A 
ATOM     78  F   UNL A   1      45.892  29.203  36.616  1.00  0.00    -0.206 F 
ATOM     79  C   UNL A   1      45.455  25.683  36.293  1.00  0.00     0.060 A 
BRANCH  79  80
ATOM     80  S   UNL A   1      45.692  24.220  37.315  1.00  0.00     0.124 S 
ATOM     81  O   UNL A   1      45.019  23.200  36.522  1.00  0.00    -0.237 OA
ATOM     82  O   UNL A   1      47.148  24.130  37.376  1.00  0.00    -0.237 OA
ATOM     83  O   UNL A   1      45.040  24.580  38.571  1.00  0.00    -0.744 OA
ENDBRANCH  79  80
ENDBRANCH  58  72
BRANCH  59  84
ATOM     84  C   UNL A   1      41.352  25.516  27.528  1.00  0.00     0.058 A 
ATOM     85  C   UNL A   1      42.135  24.843  26.570  1.00  0.00     0.135 A 
ATOM     86  C   UNL A   1      40.263  24.787  28.049  1.00  0.00     0.135 A 
ATOM     87  F   UNL A   1      43.204  25.447  26.029  1.00  0.00    -0.206 F 
ATOM     88  C   UNL A   1      41.886  23.515  26.194  1.00  0.00     0.059 A 
ATOM     89  C   UNL A   1      39.987  23.470  27.680  1.00  0.00     0.059 A 
ATOM     90  F   UNL A   1      39.479  25.299  29.009  1.00  0.00    -0.206 F 
ATOM     91  C   UNL A   1      40.819  22.828  26.774  1.00  0.00     0.060 A 
BRANCH  91  92
ATOM     92  S   UNL A   1      40.601  21.062  26.444  1.00  0.00     0.124 S 
ATOM     93  O   UNL A   1      40.633  20.495  27.788  1.00  0.00    -0.237 OA
ATOM     94  O   UNL A   1      39.310  21.029  25.767  1.00  0.00    -0.237 OA
ATOM     95  O   UNL A   1      41.748  20.731  25.600  1.00  0.00    -0.744 OA
ENDBRANCH  91  92
ENDBRANCH  59  84
BRANCH  71  96
ATOM     96  C   UNL A   1      44.855  30.727  28.568  1.00  0.00     0.058 A 
ATOM     97  C   UNL A   1      43.786  31.620  28.371  1.00  0.00     0.135 A 
ATOM     98  C   UNL A   1      45.994  30.913  27.767  1.00  0.00     0.135 A 
ATOM     99  F   UNL A   1      42.703  31.587  29.158  1.00  0.00    -0.206 F 
ATOM    100  C   UNL A   1      43.832  32.621  27.398  1.00  0.00     0.059 A 
ATOM    101  C   UNL A   1      46.074  31.924  26.816  1.00  0.00     0.059 A 
ATOM    102  F   UNL A   1      47.075  30.135  27.946  1.00  0.00    -0.206 F 
ATOM    103  C   UNL A   1      44.983  32.769  26.626  1.00  0.00     0.060 A 
BRANCH 103 104
ATOM    104  S   UNL A   1      45.072  34.108  25.418  1.00  0.00     0.124 S 
ATOM    105  O   UNL A   1      44.479  33.494  24.236  1.00  0.00    -0.237 OA
ATOM    106  O   UNL A   1      44.284  35.160  26.052  1.00  0.00    -0.237 OA
ATOM    107  O   UNL A   1      46.504  34.388  25.323  1.00  0.00    -0.744 OA
ENDBRANCH 103 104
ENDBRANCH  71  96
ENDBRANCH  45  46
ENDBRANCH  37  40
ENDBRANCH  35  36
ENDBRANCH  34  35
ENDBRANCH  33  34
ENDBRANCH   1  33
TORSDOF 21
ENDMDL
