MODEL 1
REMARK VINA RESULT:     -13.0      0.000      0.000
REMARK SMILES O=C(NCCCCCCNC(=O)[C@]1(NC(=O)C2CCN(C(=O)C3CC3)CC2)CCCc2ccccc21)c1ccc(-c2c3nc(c(-c4c(F)cc(S(=O)(=O)[O-])cc4F)c4ccc([nH]4)c(-c4c(F)cc(S(=O)(=O)[O-])cc4F)c4nc(c(-c5c(F)cc(S(=O)(=O)[O-])cc5F)c5ccc2[nH]5)C=C4)C=C3)cc1
REMARK SMILES IDX 6 1 5 2 4 3 3 4 1 5 2 6 37 8 38 9 102 10 39 11 101 12 40 13
REMARK SMILES IDX 41 14 42 15 95 16 43 17 100 18 94 19 96 20 44 21 99 22 93 23
REMARK SMILES IDX 92 24 45 26 79 27 58 28 78 29 59 30 62 31 77 32 97 33 60 34
REMARK SMILES IDX 61 35 76 37 98 38 63 39 46 40 47 41 56 42 48 43 49 44 55 45
REMARK SMILES IDX 57 46 50 47 51 48 52 49 53 50 54 51 80 52 81 53 90 54 82 55
REMARK SMILES IDX 83 56 89 57 91 58 84 59 85 60 86 61 87 62 88 63 64 64 65 65
REMARK SMILES IDX 74 66 66 67 67 68 73 69 75 70 68 71 69 72 70 73 71 74 72 75
REMARK SMILES IDX 7 76 8 77 9 78 10 79 11 80 12 82 13 83 28 84 36 85 29 86
REMARK SMILES IDX 31 87 35 88 30 89 32 90 34 91 33 92 14 93 15 94 16 96 17 97
REMARK SMILES IDX 18 98 27 99 19 100 26 101 20 102 21 103 22 104 23 105 24 106
REMARK SMILES IDX 25 107
REMARK H PARENT 3 7 96 25 62 36 10 81 14 95
REMARK Flexibility Score: inf
ROOT
ATOM      1  C   UNL A   1      40.219  21.693  26.294  1.00  0.00     0.002 C 
ENDROOT
BRANCH   1   2
ATOM      2  C   UNL A   1      40.630  22.150  27.694  1.00  0.00     0.021 C 
BRANCH   2   3
ATOM      3  C   UNL A   1      41.803  23.118  27.731  1.00  0.00     0.116 C 
BRANCH   3   4
ATOM      4  N   UNL A   1      41.997  23.800  26.463  1.00  0.00    -0.352 N 
ATOM      5  O   UNL A   1      41.845  25.508  24.997  1.00  0.00    -0.269 OA
ATOM      6  C   UNL A   1      41.794  25.124  26.161  1.00  0.00     0.251 C 
ATOM      7  H   UNL A   1      42.318  23.237  25.722  1.00  0.00     0.163 HD
BRANCH   6   8
ATOM      8  C   UNL A   1      41.486  26.075  27.251  1.00  0.00     0.039 A 
ATOM      9  C   UNL A   1      42.310  27.180  27.476  1.00  0.00     0.014 A 
ATOM     10  C   UNL A   1      40.383  25.837  28.074  1.00  0.00     0.014 A 
ATOM     11  C   UNL A   1      42.122  27.957  28.612  1.00  0.00     0.010 A 
ATOM     12  C   UNL A   1      40.142  26.677  29.165  1.00  0.00     0.010 A 
ATOM     13  C   UNL A   1      41.030  27.722  29.465  1.00  0.00    -0.014 A 
BRANCH  13  14
ATOM     14  C   UNL A   1      40.823  28.611  30.637  1.00  0.00     0.031 A 
ATOM     15  C   UNL A   1      41.716  28.528  31.846  1.00  0.00     0.074 A 
ATOM     16  C   UNL A   1      39.837  29.528  30.584  1.00  0.00     0.049 A 
ATOM     17  N   UNL A   1      41.694  29.253  32.935  1.00  0.00    -0.248 NA
ATOM     18  C   UNL A   1      42.762  27.495  31.838  1.00  0.00     0.031 C 
ATOM     19  C   UNL A   1      38.898  29.690  29.470  1.00  0.00     0.029 A 
ATOM     20  N   UNL A   1      39.470  30.508  31.469  1.00  0.00    -0.354 N 
ATOM     21  C   UNL A   1      42.698  28.748  33.754  1.00  0.00     0.074 A 
ATOM     22  C   UNL A   1      43.300  27.641  33.042  1.00  0.00     0.031 C 
ATOM     23  C   UNL A   1      38.104  30.742  29.711  1.00  0.00     0.029 A 
ATOM     24  C   UNL A   1      38.432  31.291  31.022  1.00  0.00     0.049 A 
ATOM     25  H   UNL A   1      39.908  30.639  32.341  1.00  0.00     0.167 HD
ATOM     26  C   UNL A   1      43.084  29.173  34.982  1.00  0.00     0.037 A 
ATOM     27  C   UNL A   1      37.807  32.331  31.602  1.00  0.00     0.037 A 
ATOM     28  C   UNL A   1      42.493  30.294  35.671  1.00  0.00     0.049 A 
ATOM     29  C   UNL A   1      38.260  32.787  32.959  1.00  0.00     0.074 A 
ATOM     30  C   UNL A   1      42.838  30.828  36.901  1.00  0.00     0.029 A 
ATOM     31  N   UNL A   1      41.434  31.053  35.192  1.00  0.00    -0.354 N 
ATOM     32  N   UNL A   1      39.232  32.315  33.704  1.00  0.00    -0.248 NA
ATOM     33  C   UNL A   1      37.535  33.916  33.554  1.00  0.00     0.031 C 
ATOM     34  C   UNL A   1      41.964  31.884  37.182  1.00  0.00     0.029 A 
ATOM     35  C   UNL A   1      41.104  32.040  36.107  1.00  0.00     0.049 A 
ATOM     36  H   UNL A   1      40.984  30.910  34.328  1.00  0.00     0.167 HD
ATOM     37  C   UNL A   1      39.250  33.104  34.846  1.00  0.00     0.074 A 
ATOM     38  C   UNL A   1      38.202  34.092  34.687  1.00  0.00     0.031 C 
ATOM     39  C   UNL A   1      40.063  33.020  35.929  1.00  0.00     0.037 A 
BRANCH  26  40
ATOM     40  C   UNL A   1      44.184  28.414  35.674  1.00  0.00     0.058 A 
ATOM     41  C   UNL A   1      45.538  28.739  35.495  1.00  0.00     0.135 A 
ATOM     42  C   UNL A   1      43.875  27.367  36.560  1.00  0.00     0.135 A 
ATOM     43  F   UNL A   1      45.891  29.721  34.650  1.00  0.00    -0.206 F 
ATOM     44  C   UNL A   1      46.548  28.037  36.147  1.00  0.00     0.059 A 
ATOM     45  C   UNL A   1      44.867  26.668  37.241  1.00  0.00     0.059 A 
ATOM     46  F   UNL A   1      42.598  27.015  36.770  1.00  0.00    -0.206 F 
ATOM     47  C   UNL A   1      46.202  27.000  37.016  1.00  0.00     0.060 A 
BRANCH  47  48
ATOM     48  S   UNL A   1      47.523  26.096  37.850  1.00  0.00     0.124 S 
ATOM     49  O   UNL A   1      47.042  24.721  37.749  1.00  0.00    -0.237 OA
ATOM     50  O   UNL A   1      48.689  26.419  37.033  1.00  0.00    -0.237 OA
ATOM     51  O   UNL A   1      47.528  26.662  39.195  1.00  0.00    -0.744 OA
ENDBRANCH  47  48
ENDBRANCH  26  40
BRANCH  27  52
ATOM     52  C   UNL A   1      36.696  33.015  30.891  1.00  0.00     0.058 A 
ATOM     53  C   UNL A   1      35.363  32.823  31.283  1.00  0.00     0.135 A 
ATOM     54  C   UNL A   1      36.947  33.896  29.828  1.00  0.00     0.135 A 
ATOM     55  F   UNL A   1      35.073  31.988  32.292  1.00  0.00    -0.206 F 
ATOM     56  C   UNL A   1      34.315  33.471  30.637  1.00  0.00     0.059 A 
ATOM     57  C   UNL A   1      35.919  34.577  29.185  1.00  0.00     0.059 A 
ATOM     58  F   UNL A   1      38.208  34.128  29.430  1.00  0.00    -0.206 F 
ATOM     59  C   UNL A   1      34.604  34.348  29.590  1.00  0.00     0.060 A 
BRANCH  59  60
ATOM     60  S   UNL A   1      33.243  35.227  28.795  1.00  0.00     0.124 S 
ATOM     61  O   UNL A   1      32.489  35.702  29.950  1.00  0.00    -0.237 OA
ATOM     62  O   UNL A   1      33.943  36.249  28.025  1.00  0.00    -0.237 OA
ATOM     63  O   UNL A   1      32.594  34.189  27.999  1.00  0.00    -0.744 OA
ENDBRANCH  59  60
ENDBRANCH  27  52
BRANCH  39  64
ATOM     64  C   UNL A   1      39.876  34.053  37.004  1.00  0.00     0.058 A 
ATOM     65  C   UNL A   1      39.050  33.824  38.116  1.00  0.00     0.135 A 
ATOM     66  C   UNL A   1      40.549  35.283  36.927  1.00  0.00     0.135 A 
ATOM     67  F   UNL A   1      38.378  32.667  38.232  1.00  0.00    -0.206 F 
ATOM     68  C   UNL A   1      38.872  34.793  39.098  1.00  0.00     0.059 A 
ATOM     69  C   UNL A   1      40.406  36.255  37.910  1.00  0.00     0.059 A 
ATOM     70  F   UNL A   1      41.358  35.547  35.889  1.00  0.00    -0.206 F 
ATOM     71  C   UNL A   1      39.552  36.007  38.984  1.00  0.00     0.060 A 
BRANCH  71  72
ATOM     72  S   UNL A   1      39.323  37.255  40.268  1.00  0.00     0.124 S 
ATOM     73  O   UNL A   1      38.548  38.266  39.558  1.00  0.00    -0.237 OA
ATOM     74  O   UNL A   1      38.603  36.515  41.301  1.00  0.00    -0.237 OA
ATOM     75  O   UNL A   1      40.688  37.637  40.617  1.00  0.00    -0.744 OA
ENDBRANCH  71  72
ENDBRANCH  39  64
ENDBRANCH  13  14
ENDBRANCH   6   8
ENDBRANCH   3   4
ENDBRANCH   2   3
ENDBRANCH   1   2
BRANCH   1  76
ATOM     76  C   UNL A   1      38.767  21.991  25.898  1.00  0.00     0.002 C 
BRANCH  76  77
ATOM     77  C   UNL A   1      38.295  23.429  26.137  1.00  0.00     0.021 C 
BRANCH  77  78
ATOM     78  C   UNL A   1      36.845  23.684  25.751  1.00  0.00     0.116 C 
BRANCH  78  79
ATOM     79  N   UNL A   1      35.921  23.326  26.803  1.00  0.00    -0.354 N 
ATOM     80  C   UNL A   1      34.567  23.216  26.800  1.00  0.00     0.250 C 
ATOM     81  H   UNL A   1      36.346  23.127  27.670  1.00  0.00     0.163 HD
ATOM     82  O   UNL A   1      34.155  22.326  27.556  1.00  0.00    -0.272 OA
BRANCH  80  83
ATOM     83  C   UNL A   1      33.561  24.108  25.966  1.00  0.00     0.145 C 
ATOM     84  C   UNL A   1      32.287  24.182  26.869  1.00  0.00     0.044 C 
ATOM     85  C   UNL A   1      33.170  23.557  24.585  1.00  0.00    -0.010 A 
ATOM     86  C   UNL A   1      31.525  22.867  26.890  1.00  0.00     0.008 C 
ATOM     87  C   UNL A   1      31.971  22.820  24.393  1.00  0.00    -0.042 A 
ATOM     88  C   UNL A   1      34.037  23.716  23.486  1.00  0.00     0.007 A 
ATOM     89  C   UNL A   1      30.976  22.572  25.503  1.00  0.00     0.036 C 
ATOM     90  C   UNL A   1      31.686  22.264  23.134  1.00  0.00     0.004 A 
ATOM     91  C   UNL A   1      33.741  23.146  22.244  1.00  0.00     0.000 A 
ATOM     92  C   UNL A   1      32.571  22.415  22.071  1.00  0.00     0.000 A 
BRANCH  83  93
ATOM     93  N   UNL A   1      33.939  25.555  25.808  1.00  0.00    -0.338 N 
ATOM     94  C   UNL A   1      33.313  26.747  25.988  1.00  0.00     0.224 C 
ATOM     95  H   UNL A   1      34.867  25.666  25.498  1.00  0.00     0.164 HD
ATOM     96  O   UNL A   1      34.019  27.707  26.309  1.00  0.00    -0.275 OA
BRANCH  94  97
ATOM     97  C   UNL A   1      31.832  26.925  25.682  1.00  0.00     0.082 C 
ATOM     98  C   UNL A   1      31.584  26.735  24.171  1.00  0.00     0.035 C 
ATOM     99  C   UNL A   1      31.305  28.297  26.174  1.00  0.00     0.035 C 
ATOM    100  C   UNL A   1      31.881  27.972  23.333  1.00  0.00     0.120 C 
ATOM    101  C   UNL A   1      31.643  29.448  25.220  1.00  0.00     0.120 C 
ATOM    102  N   UNL A   1      31.170  29.114  23.884  1.00  0.00    -0.342 N 
ATOM    103  C   UNL A   1      30.043  29.562  23.196  1.00  0.00     0.225 C 
ATOM    104  O   UNL A   1      29.695  29.029  22.142  1.00  0.00    -0.275 OA
BRANCH 103 105
ATOM    105  C   UNL A   1      29.188  30.709  23.624  1.00  0.00     0.079 C 
ATOM    106  C   UNL A   1      28.647  31.852  22.819  1.00  0.00     0.014 C 
ATOM    107  C   UNL A   1      27.719  30.766  23.300  1.00  0.00     0.014 C 
ENDBRANCH 103 105
ENDBRANCH  94  97
ENDBRANCH  83  93
ENDBRANCH  80  83
ENDBRANCH  78  79
ENDBRANCH  77  78
ENDBRANCH  76  77
ENDBRANCH   1  76
TORSDOF 19
ENDMDL
MODEL 2
REMARK VINA RESULT:     -12.8      6.199     11.905
REMARK SMILES O=C(NCCCCCCNC(=O)[C@]1(NC(=O)C2CCN(C(=O)C3CC3)CC2)CCCc2ccccc21)c1ccc(-c2c3nc(c(-c4c(F)cc(S(=O)(=O)[O-])cc4F)c4ccc([nH]4)c(-c4c(F)cc(S(=O)(=O)[O-])cc4F)c4nc(c(-c5c(F)cc(S(=O)(=O)[O-])cc5F)c5ccc2[nH]5)C=C4)C=C3)cc1
REMARK SMILES IDX 6 1 5 2 4 3 3 4 1 5 2 6 37 8 38 9 102 10 39 11 101 12 40 13
REMARK SMILES IDX 41 14 42 15 95 16 43 17 100 18 94 19 96 20 44 21 99 22 93 23
REMARK SMILES IDX 92 24 45 26 79 27 58 28 78 29 59 30 62 31 77 32 97 33 60 34
REMARK SMILES IDX 61 35 76 37 98 38 63 39 46 40 47 41 56 42 48 43 49 44 55 45
REMARK SMILES IDX 57 46 50 47 51 48 52 49 53 50 54 51 80 52 81 53 90 54 82 55
REMARK SMILES IDX 83 56 89 57 91 58 84 59 85 60 86 61 87 62 88 63 64 64 65 65
REMARK SMILES IDX 74 66 66 67 67 68 73 69 75 70 68 71 69 72 70 73 71 74 72 75
REMARK SMILES IDX 7 76 8 77 9 78 10 79 11 80 12 82 13 83 28 84 36 85 29 86
REMARK SMILES IDX 31 87 35 88 30 89 32 90 34 91 33 92 14 93 15 94 16 96 17 97
REMARK SMILES IDX 18 98 27 99 19 100 26 101 20 102 21 103 22 104 23 105 24 106
REMARK SMILES IDX 25 107
REMARK H PARENT 3 7 96 25 62 36 10 81 14 95
REMARK Flexibility Score: inf
ROOT
ATOM      1  C   UNL A   1      34.145  32.275  28.129  1.00  0.00     0.002 C 
ENDROOT
BRANCH   1   2
ATOM      2  C   UNL A   1      35.603  32.721  28.012  1.00  0.00     0.021 C 
BRANCH   2   3
ATOM      3  C   UNL A   1      36.359  32.783  29.330  1.00  0.00     0.116 C 
BRANCH   3   4
ATOM      4  N   UNL A   1      35.926  31.759  30.266  1.00  0.00    -0.352 N 
ATOM      5  O   UNL A   1      35.974  29.748  31.288  1.00  0.00    -0.269 OA
ATOM      6  C   UNL A   1      36.554  30.586  30.605  1.00  0.00     0.251 C 
ATOM      7  H   UNL A   1      35.068  31.930  30.717  1.00  0.00     0.163 HD
BRANCH   6   8
ATOM      8  C   UNL A   1      37.926  30.334  30.114  1.00  0.00     0.039 A 
ATOM      9  C   UNL A   1      38.156  30.090  28.758  1.00  0.00     0.014 A 
ATOM     10  C   UNL A   1      38.985  30.310  31.025  1.00  0.00     0.014 A 
ATOM     11  C   UNL A   1      39.412  29.671  28.339  1.00  0.00     0.010 A 
ATOM     12  C   UNL A   1      40.269  29.978  30.583  1.00  0.00     0.010 A 
ATOM     13  C   UNL A   1      40.486  29.619  29.243  1.00  0.00    -0.014 A 
BRANCH  13  14
ATOM     14  C   UNL A   1      41.831  29.226  28.749  1.00  0.00     0.031 A 
ATOM     15  C   UNL A   1      42.976  30.202  28.747  1.00  0.00     0.074 A 
ATOM     16  C   UNL A   1      42.020  27.958  28.334  1.00  0.00     0.049 A 
ATOM     17  N   UNL A   1      44.219  30.011  28.384  1.00  0.00    -0.248 NA
ATOM     18  C   UNL A   1      42.692  31.572  29.201  1.00  0.00     0.031 C 
ATOM     19  C   UNL A   1      40.979  26.927  28.278  1.00  0.00     0.029 A 
ATOM     20  N   UNL A   1      43.149  27.310  27.906  1.00  0.00    -0.354 N 
ATOM     21  C   UNL A   1      44.858  31.237  28.535  1.00  0.00     0.074 A 
ATOM     22  C   UNL A   1      43.860  32.172  29.007  1.00  0.00     0.031 C 
ATOM     23  C   UNL A   1      41.528  25.766  27.897  1.00  0.00     0.029 A 
ATOM     24  C   UNL A   1      42.944  25.980  27.621  1.00  0.00     0.049 A 
ATOM     25  H   UNL A   1      44.022  27.753  27.812  1.00  0.00     0.167 HD
ATOM     26  C   UNL A   1      46.157  31.549  28.307  1.00  0.00     0.037 A 
ATOM     27  C   UNL A   1      43.796  25.038  27.180  1.00  0.00     0.037 A 
ATOM     28  C   UNL A   1      47.149  30.602  27.861  1.00  0.00     0.049 A 
ATOM     29  C   UNL A   1      45.232  25.409  26.945  1.00  0.00     0.074 A 
ATOM     30  C   UNL A   1      48.499  30.810  27.638  1.00  0.00     0.029 A 
ATOM     31  N   UNL A   1      46.899  29.268  27.570  1.00  0.00    -0.354 N 
ATOM     32  N   UNL A   1      45.822  26.566  27.122  1.00  0.00    -0.248 NA
ATOM     33  C   UNL A   1      46.117  24.347  26.450  1.00  0.00     0.031 C 
ATOM     34  C   UNL A   1      49.057  29.614  27.175  1.00  0.00     0.029 A 
ATOM     35  C   UNL A   1      48.066  28.646  27.155  1.00  0.00     0.049 A 
ATOM     36  H   UNL A   1      46.022  28.829  27.646  1.00  0.00     0.167 HD
ATOM     37  C   UNL A   1      47.155  26.368  26.784  1.00  0.00     0.074 A 
ATOM     38  C   UNL A   1      47.284  24.974  26.404  1.00  0.00     0.031 C 
ATOM     39  C   UNL A   1      48.178  27.257  26.788  1.00  0.00     0.037 A 
BRANCH  26  40
ATOM     40  C   UNL A   1      46.582  32.978  28.514  1.00  0.00     0.058 A 
ATOM     41  C   UNL A   1      47.086  33.433  29.743  1.00  0.00     0.135 A 
ATOM     42  C   UNL A   1      46.518  33.898  27.454  1.00  0.00     0.135 A 
ATOM     43  F   UNL A   1      47.156  32.601  30.794  1.00  0.00    -0.206 F 
ATOM     44  C   UNL A   1      47.485  34.754  29.922  1.00  0.00     0.059 A 
ATOM     45  C   UNL A   1      46.936  35.218  27.603  1.00  0.00     0.059 A 
ATOM     46  F   UNL A   1      46.047  33.518  26.257  1.00  0.00    -0.206 F 
ATOM     47  C   UNL A   1      47.403  35.640  28.846  1.00  0.00     0.060 A 
BRANCH  47  48
ATOM     48  S   UNL A   1      47.921  37.352  29.096  1.00  0.00     0.124 S 
ATOM     49  O   UNL A   1      46.940  38.071  28.288  1.00  0.00    -0.237 OA
ATOM     50  O   UNL A   1      47.789  37.512  30.541  1.00  0.00    -0.237 OA
ATOM     51  O   UNL A   1      49.289  37.372  28.588  1.00  0.00    -0.744 OA
ENDBRANCH  47  48
ENDBRANCH  26  40
BRANCH  27  52
ATOM     52  C   UNL A   1      43.310  23.653  26.950  1.00  0.00     0.058 A 
ATOM     53  C   UNL A   1      43.071  23.180  25.651  1.00  0.00     0.135 A 
ATOM     54  C   UNL A   1      43.106  22.767  28.019  1.00  0.00     0.135 A 
ATOM     55  F   UNL A   1      43.251  23.991  24.598  1.00  0.00    -0.206 F 
ATOM     56  C   UNL A   1      42.633  21.880  25.420  1.00  0.00     0.059 A 
ATOM     57  C   UNL A   1      42.695  21.455  27.812  1.00  0.00     0.059 A 
ATOM     58  F   UNL A   1      43.341  23.167  29.278  1.00  0.00    -0.206 F 
ATOM     59  C   UNL A   1      42.451  21.024  26.508  1.00  0.00     0.060 A 
BRANCH  59  60
ATOM     60  S   UNL A   1      41.936  19.322  26.195  1.00  0.00     0.124 S 
ATOM     61  O   UNL A   1      42.271  18.679  27.460  1.00  0.00    -0.237 OA
ATOM     62  O   UNL A   1      40.513  19.476  25.913  1.00  0.00    -0.237 OA
ATOM     63  O   UNL A   1      42.754  18.930  25.050  1.00  0.00    -0.744 OA
ENDBRANCH  59  60
ENDBRANCH  27  52
BRANCH  39  64
ATOM     64  C   UNL A   1      49.537  26.735  26.412  1.00  0.00     0.058 A 
ATOM     65  C   UNL A   1      50.022  26.814  25.097  1.00  0.00     0.135 A 
ATOM     66  C   UNL A   1      50.370  26.165  27.387  1.00  0.00     0.135 A 
ATOM     67  F   UNL A   1      49.260  27.342  24.126  1.00  0.00    -0.206 F 
ATOM     68  C   UNL A   1      51.274  26.314  24.756  1.00  0.00     0.059 A 
ATOM     69  C   UNL A   1      51.636  25.683  27.074  1.00  0.00     0.059 A 
ATOM     70  F   UNL A   1      49.957  26.075  28.661  1.00  0.00    -0.206 F 
ATOM     71  C   UNL A   1      52.073  25.747  25.751  1.00  0.00     0.060 A 
BRANCH  71  72
ATOM     72  S   UNL A   1      53.701  25.111  25.302  1.00  0.00     0.124 S 
ATOM     73  O   UNL A   1      53.442  23.677  25.221  1.00  0.00    -0.237 OA
ATOM     74  O   UNL A   1      53.961  25.780  24.030  1.00  0.00    -0.237 OA
ATOM     75  O   UNL A   1      54.549  25.536  26.411  1.00  0.00    -0.744 OA
ENDBRANCH  71  72
ENDBRANCH  39  64
ENDBRANCH  13  14
ENDBRANCH   6   8
ENDBRANCH   3   4
ENDBRANCH   2   3
ENDBRANCH   1   2
BRANCH   1  76
ATOM     76  C   UNL A   1      33.757  31.046  27.298  1.00  0.00     0.002 C 
BRANCH  76  77
ATOM     77  C   UNL A   1      34.316  29.707  27.791  1.00  0.00     0.021 C 
BRANCH  77  78
ATOM     78  C   UNL A   1      33.925  28.512  26.935  1.00  0.00     0.116 C 
BRANCH  78  79
ATOM     79  N   UNL A   1      34.279  28.687  25.545  1.00  0.00    -0.354 N 
ATOM     80  C   UNL A   1      33.842  28.049  24.427  1.00  0.00     0.250 C 
ATOM     81  H   UNL A   1      34.951  29.388  25.380  1.00  0.00     0.163 HD
ATOM     82  O   UNL A   1      33.804  28.790  23.435  1.00  0.00    -0.272 OA
BRANCH  80  83
ATOM     83  C   UNL A   1      33.432  26.524  24.323  1.00  0.00     0.145 C 
ATOM     84  C   UNL A   1      33.891  26.109  22.888  1.00  0.00     0.044 C 
ATOM     85  C   UNL A   1      31.933  26.226  24.481  1.00  0.00    -0.010 A 
ATOM     86  C   UNL A   1      32.997  26.701  21.810  1.00  0.00     0.008 C 
ATOM     87  C   UNL A   1      31.086  26.065  23.353  1.00  0.00    -0.042 A 
ATOM     88  C   UNL A   1      31.351  26.172  25.764  1.00  0.00     0.007 A 
ATOM     89  C   UNL A   1      31.597  26.120  21.931  1.00  0.00     0.036 C 
ATOM     90  C   UNL A   1      29.706  25.872  23.536  1.00  0.00     0.004 A 
ATOM     91  C   UNL A   1      29.974  25.990  25.925  1.00  0.00     0.000 A 
ATOM     92  C   UNL A   1      29.152  25.848  24.812  1.00  0.00     0.000 A 
BRANCH  83  93
ATOM     93  N   UNL A   1      34.199  25.575  25.203  1.00  0.00    -0.338 N 
ATOM     94  C   UNL A   1      34.667  24.306  25.084  1.00  0.00     0.224 C 
ATOM     95  H   UNL A   1      34.414  25.969  26.079  1.00  0.00     0.164 HD
ATOM     96  O   UNL A   1      35.690  24.025  25.715  1.00  0.00    -0.275 OA
BRANCH  94  97
ATOM     97  C   UNL A   1      33.899  23.241  24.314  1.00  0.00     0.082 C 
ATOM     98  C   UNL A   1      32.874  22.559  25.246  1.00  0.00     0.035 C 
ATOM     99  C   UNL A   1      34.850  22.202  23.665  1.00  0.00     0.035 C 
ATOM    100  C   UNL A   1      33.465  21.465  26.124  1.00  0.00     0.120 C 
ATOM    101  C   UNL A   1      35.342  21.138  24.653  1.00  0.00     0.120 C 
ATOM    102  N   UNL A   1      34.193  20.517  25.296  1.00  0.00    -0.342 N 
ATOM    103  C   UNL A   1      33.596  19.279  25.060  1.00  0.00     0.225 C 
ATOM    104  O   UNL A   1      32.513  18.994  25.571  1.00  0.00    -0.275 OA
BRANCH 103 105
ATOM    105  C   UNL A   1      34.193  18.195  24.225  1.00  0.00     0.079 C 
ATOM    106  C   UNL A   1      34.245  16.717  24.470  1.00  0.00     0.014 C 
ATOM    107  C   UNL A   1      33.340  17.270  23.399  1.00  0.00     0.014 C 
ENDBRANCH 103 105
ENDBRANCH  94  97
ENDBRANCH  83  93
ENDBRANCH  80  83
ENDBRANCH  78  79
ENDBRANCH  77  78
ENDBRANCH  76  77
ENDBRANCH   1  76
TORSDOF 19
ENDMDL
MODEL 3
REMARK VINA RESULT:     -12.4      6.268     11.618
REMARK SMILES O=C(NCCCCCCNC(=O)[C@]1(NC(=O)C2CCN(C(=O)C3CC3)CC2)CCCc2ccccc21)c1ccc(-c2c3nc(c(-c4c(F)cc(S(=O)(=O)[O-])cc4F)c4ccc([nH]4)c(-c4c(F)cc(S(=O)(=O)[O-])cc4F)c4nc(c(-c5c(F)cc(S(=O)(=O)[O-])cc5F)c5ccc2[nH]5)C=C4)C=C3)cc1
REMARK SMILES IDX 6 1 5 2 4 3 3 4 1 5 2 6 37 8 38 9 102 10 39 11 101 12 40 13
REMARK SMILES IDX 41 14 42 15 95 16 43 17 100 18 94 19 96 20 44 21 99 22 93 23
REMARK SMILES IDX 92 24 45 26 79 27 58 28 78 29 59 30 62 31 77 32 97 33 60 34
REMARK SMILES IDX 61 35 76 37 98 38 63 39 46 40 47 41 56 42 48 43 49 44 55 45
REMARK SMILES IDX 57 46 50 47 51 48 52 49 53 50 54 51 80 52 81 53 90 54 82 55
REMARK SMILES IDX 83 56 89 57 91 58 84 59 85 60 86 61 87 62 88 63 64 64 65 65
REMARK SMILES IDX 74 66 66 67 67 68 73 69 75 70 68 71 69 72 70 73 71 74 72 75
REMARK SMILES IDX 7 76 8 77 9 78 10 79 11 80 12 82 13 83 28 84 36 85 29 86
REMARK SMILES IDX 31 87 35 88 30 89 32 90 34 91 33 92 14 93 15 94 16 96 17 97
REMARK SMILES IDX 18 98 27 99 19 100 26 101 20 102 21 103 22 104 23 105 24 106
REMARK SMILES IDX 25 107
REMARK H PARENT 3 7 96 25 62 36 10 81 14 95
REMARK Flexibility Score: inf
ROOT
ATOM      1  C   UNL A   1      34.338  32.292  28.184  1.00  0.00     0.002 C 
ENDROOT
BRANCH   1   2
ATOM      2  C   UNL A   1      35.774  32.813  28.116  1.00  0.00     0.021 C 
BRANCH   2   3
ATOM      3  C   UNL A   1      36.507  32.840  29.449  1.00  0.00     0.116 C 
BRANCH   3   4
ATOM      4  N   UNL A   1      36.042  31.806  30.357  1.00  0.00    -0.352 N 
ATOM      5  O   UNL A   1      36.044  29.777  31.346  1.00  0.00    -0.269 OA
ATOM      6  C   UNL A   1      36.649  30.619  30.689  1.00  0.00     0.251 C 
ATOM      7  H   UNL A   1      35.177  31.980  30.793  1.00  0.00     0.163 HD
BRANCH   6   8
ATOM      8  C   UNL A   1      38.028  30.359  30.223  1.00  0.00     0.039 A 
ATOM      9  C   UNL A   1      38.283  30.132  28.868  1.00  0.00     0.014 A 
ATOM     10  C   UNL A   1      39.067  30.310  31.155  1.00  0.00     0.014 A 
ATOM     11  C   UNL A   1      39.543  29.705  28.469  1.00  0.00     0.010 A 
ATOM     12  C   UNL A   1      40.356  29.970  30.734  1.00  0.00     0.010 A 
ATOM     13  C   UNL A   1      40.597  29.628  29.394  1.00  0.00    -0.014 A 
BRANCH  13  14
ATOM     14  C   UNL A   1      41.948  29.227  28.921  1.00  0.00     0.031 A 
ATOM     15  C   UNL A   1      42.215  27.835  28.417  1.00  0.00     0.074 A 
ATOM     16  C   UNL A   1      42.929  30.151  28.914  1.00  0.00     0.049 A 
ATOM     17  N   UNL A   1      43.325  27.334  27.935  1.00  0.00    -0.248 NA
ATOM     18  C   UNL A   1      41.101  26.877  28.466  1.00  0.00     0.031 C 
ATOM     19  C   UNL A   1      42.789  31.530  29.394  1.00  0.00     0.029 A 
ATOM     20  N   UNL A   1      44.224  30.086  28.472  1.00  0.00    -0.354 N 
ATOM     21  C   UNL A   1      43.054  25.999  27.653  1.00  0.00     0.074 A 
ATOM     22  C   UNL A   1      41.679  25.763  28.034  1.00  0.00     0.031 C 
ATOM     23  C   UNL A   1      43.931  32.194  29.168  1.00  0.00     0.029 A 
ATOM     24  C   UNL A   1      44.904  31.276  28.586  1.00  0.00     0.049 A 
ATOM     25  H   UNL A   1      44.629  29.266  28.109  1.00  0.00     0.167 HD
ATOM     26  C   UNL A   1      43.877  25.063  27.121  1.00  0.00     0.037 A 
ATOM     27  C   UNL A   1      46.170  31.595  28.266  1.00  0.00     0.037 A 
ATOM     28  C   UNL A   1      45.239  25.317  26.721  1.00  0.00     0.049 A 
ATOM     29  C   UNL A   1      47.057  30.540  27.669  1.00  0.00     0.074 A 
ATOM     30  C   UNL A   1      46.141  24.446  26.136  1.00  0.00     0.029 A 
ATOM     31  N   UNL A   1      45.895  26.531  26.866  1.00  0.00    -0.354 N 
ATOM     32  N   UNL A   1      46.773  29.293  27.382  1.00  0.00    -0.248 NA
ATOM     33  C   UNL A   1      48.434  30.936  27.351  1.00  0.00     0.031 C 
ATOM     34  C   UNL A   1      47.355  25.121  25.963  1.00  0.00     0.029 A 
ATOM     35  C   UNL A   1      47.195  26.428  26.395  1.00  0.00     0.049 A 
ATOM     36  H   UNL A   1      45.496  27.346  27.246  1.00  0.00     0.167 HD
ATOM     37  C   UNL A   1      47.929  28.759  26.828  1.00  0.00     0.074 A 
ATOM     38  C   UNL A   1      48.911  29.825  26.807  1.00  0.00     0.031 C 
ATOM     39  C   UNL A   1      48.157  27.501  26.376  1.00  0.00     0.037 A 
BRANCH  26  40
ATOM     40  C   UNL A   1      43.336  23.668  26.956  1.00  0.00     0.058 A 
ATOM     41  C   UNL A   1      43.190  22.794  28.045  1.00  0.00     0.135 A 
ATOM     42  C   UNL A   1      42.923  23.211  25.693  1.00  0.00     0.135 A 
ATOM     43  F   UNL A   1      43.581  23.173  29.272  1.00  0.00    -0.206 F 
ATOM     44  C   UNL A   1      42.680  21.509  27.884  1.00  0.00     0.059 A 
ATOM     45  C   UNL A   1      42.388  21.939  25.513  1.00  0.00     0.059 A 
ATOM     46  F   UNL A   1      43.039  24.004  24.617  1.00  0.00    -0.206 F 
ATOM     47  C   UNL A   1      42.285  21.089  26.613  1.00  0.00     0.060 A 
BRANCH  47  48
ATOM     48  S   UNL A   1      41.630  19.417  26.420  1.00  0.00     0.124 S 
ATOM     49  O   UNL A   1      40.203  19.683  26.263  1.00  0.00    -0.237 OA
ATOM     50  O   UNL A   1      42.321  18.946  25.224  1.00  0.00    -0.237 OA
ATOM     51  O   UNL A   1      42.013  18.755  27.663  1.00  0.00    -0.744 OA
ENDBRANCH  47  48
ENDBRANCH  26  40
BRANCH  27  52
ATOM     52  C   UNL A   1      46.663  32.978  28.493  1.00  0.00     0.058 A 
ATOM     53  C   UNL A   1      46.500  33.971  27.516  1.00  0.00     0.135 A 
ATOM     54  C   UNL A   1      47.278  33.341  29.701  1.00  0.00     0.135 A 
ATOM     55  F   UNL A   1      45.920  33.671  26.344  1.00  0.00    -0.206 F 
ATOM     56  C   UNL A   1      46.941  35.274  27.723  1.00  0.00     0.059 A 
ATOM     57  C   UNL A   1      47.701  34.643  29.943  1.00  0.00     0.059 A 
ATOM     58  F   UNL A   1      47.438  32.431  30.675  1.00  0.00    -0.206 F 
ATOM     59  C   UNL A   1      47.538  35.601  28.942  1.00  0.00     0.060 A 
BRANCH  59  60
ATOM     60  S   UNL A   1      48.056  37.307  29.223  1.00  0.00     0.124 S 
ATOM     61  O   UNL A   1      48.520  37.247  30.605  1.00  0.00    -0.237 OA
ATOM     62  O   UNL A   1      49.089  37.487  28.209  1.00  0.00    -0.237 OA
ATOM     63  O   UNL A   1      46.831  38.070  29.000  1.00  0.00    -0.744 OA
ENDBRANCH  59  60
ENDBRANCH  27  52
BRANCH  39  64
ATOM     64  C   UNL A   1      49.508  27.225  25.779  1.00  0.00     0.058 A 
ATOM     65  C   UNL A   1      49.767  27.413  24.412  1.00  0.00     0.135 A 
ATOM     66  C   UNL A   1      50.563  26.783  26.594  1.00  0.00     0.135 A 
ATOM     67  F   UNL A   1      48.789  27.826  23.590  1.00  0.00    -0.206 F 
ATOM     68  C   UNL A   1      51.017  27.139  23.868  1.00  0.00     0.059 A 
ATOM     69  C   UNL A   1      51.828  26.530  26.074  1.00  0.00     0.059 A 
ATOM     70  F   UNL A   1      50.371  26.597  27.909  1.00  0.00    -0.206 F 
ATOM     71  C   UNL A   1      52.040  26.695  24.706  1.00  0.00     0.060 A 
BRANCH  71  72
ATOM     72  S   UNL A   1      53.663  26.352  23.993  1.00  0.00     0.124 S 
ATOM     73  O   UNL A   1      54.385  27.581  24.305  1.00  0.00    -0.237 OA
ATOM     74  O   UNL A   1      54.086  25.164  24.728  1.00  0.00    -0.237 OA
ATOM     75  O   UNL A   1      53.372  26.136  22.579  1.00  0.00    -0.744 OA
ENDBRANCH  71  72
ENDBRANCH  39  64
ENDBRANCH  13  14
ENDBRANCH   6   8
ENDBRANCH   3   4
ENDBRANCH   2   3
ENDBRANCH   1   2
BRANCH   1  76
ATOM     76  C   UNL A   1      34.017  31.106  27.266  1.00  0.00     0.002 C 
BRANCH  76  77
ATOM     77  C   UNL A   1      34.639  29.765  27.672  1.00  0.00     0.021 C 
BRANCH  77  78
ATOM     78  C   UNL A   1      34.193  28.585  26.820  1.00  0.00     0.116 C 
BRANCH  78  79
ATOM     79  N   UNL A   1      34.430  28.800  25.410  1.00  0.00    -0.354 N 
ATOM     80  C   UNL A   1      33.907  28.189  24.315  1.00  0.00     0.250 C 
ATOM     81  H   UNL A   1      35.082  29.511  25.208  1.00  0.00     0.163 HD
ATOM     82  O   UNL A   1      33.781  28.955  23.350  1.00  0.00    -0.272 OA
BRANCH  80  83
ATOM     83  C   UNL A   1      33.499  26.663  24.204  1.00  0.00     0.145 C 
ATOM     84  C   UNL A   1      33.875  26.280  22.736  1.00  0.00     0.044 C 
ATOM     85  C   UNL A   1      32.013  26.352  24.443  1.00  0.00    -0.010 A 
ATOM     86  C   UNL A   1      32.918  26.888  21.725  1.00  0.00     0.008 C 
ATOM     87  C   UNL A   1      31.103  26.208  23.363  1.00  0.00    -0.042 A 
ATOM     88  C   UNL A   1      31.507  26.269  25.756  1.00  0.00     0.007 A 
ATOM     89  C   UNL A   1      31.530  26.295  21.915  1.00  0.00     0.036 C 
ATOM     90  C   UNL A   1      29.737  26.003  23.622  1.00  0.00     0.004 A 
ATOM     91  C   UNL A   1      30.143  26.075  25.993  1.00  0.00     0.000 A 
ATOM     92  C   UNL A   1      29.259  25.950  24.927  1.00  0.00     0.000 A 
BRANCH  83  93
ATOM     93  N   UNL A   1      34.321  25.702  25.019  1.00  0.00    -0.338 N 
ATOM     94  C   UNL A   1      34.832  24.458  24.826  1.00  0.00     0.224 C 
ATOM     95  H   UNL A   1      34.542  26.061  25.908  1.00  0.00     0.164 HD
ATOM     96  O   UNL A   1      35.879  24.186  25.420  1.00  0.00    -0.275 OA
BRANCH  94  97
ATOM     97  C   UNL A   1      34.085  23.404  24.021  1.00  0.00     0.082 C 
ATOM     98  C   UNL A   1      32.893  22.867  24.842  1.00  0.00     0.035 C 
ATOM     99  C   UNL A   1      35.023  22.255  23.570  1.00  0.00     0.035 C 
ATOM    100  C   UNL A   1      33.269  21.794  25.854  1.00  0.00     0.120 C 
ATOM    101  C   UNL A   1      35.290  21.227  24.675  1.00  0.00     0.120 C 
ATOM    102  N   UNL A   1      34.018  20.740  25.190  1.00  0.00    -0.342 N 
ATOM    103  C   UNL A   1      33.355  19.537  24.946  1.00  0.00     0.225 C 
ATOM    104  O   UNL A   1      32.194  19.371  25.320  1.00  0.00    -0.275 OA
BRANCH 103 105
ATOM    105  C   UNL A   1      33.964  18.357  24.265  1.00  0.00     0.079 C 
ATOM    106  C   UNL A   1      35.125  17.505  24.681  1.00  0.00     0.014 C 
ATOM    107  C   UNL A   1      33.725  16.952  24.750  1.00  0.00     0.014 C 
ENDBRANCH 103 105
ENDBRANCH  94  97
ENDBRANCH  83  93
ENDBRANCH  80  83
ENDBRANCH  78  79
ENDBRANCH  77  78
ENDBRANCH  76  77
ENDBRANCH   1  76
TORSDOF 19
ENDMDL
