MODEL 1
REMARK VINA RESULT:     -12.9      0.000      0.000
REMARK SMILES Cc1ccccc1C[C@@H](CC(F)(F)F)C(=O)NCCCCCCNC(=O)c1ccc(-c2c3nc(c(-c4c(F)cc(S(=O)(=O)[O-])cc4F)c4ccc([nH]4)c(-c4c(F)cc(S(=O)(=O)[O-])cc4F)c4nc(c(-c5c(F)cc(S(=O)(=O)[O-])cc5F)c5ccc2[nH]5)C=C4)C=C3)cc1
REMARK SMILES IDX 21 1 20 2 19 3 18 4 17 5 15 6 16 7 9 9 8 10 7 11 1 12 2 13
REMARK SMILES IDX 3 14 4 15 6 16 5 17 10 18 11 19 12 20 13 21 14 22 22 23
REMARK SMILES IDX 23 24 24 25 25 26 26 28 27 29 28 30 92 31 29 32 91 33 30 34
REMARK SMILES IDX 31 35 32 36 85 37 33 38 90 39 84 40 86 41 34 42 89 43 83 44
REMARK SMILES IDX 82 45 35 47 69 48 48 49 68 50 49 51 52 52 67 53 87 54 50 55
REMARK SMILES IDX 51 56 66 58 88 59 53 60 36 61 37 62 46 63 38 64 39 65 45 66
REMARK SMILES IDX 47 67 40 68 41 69 42 70 43 71 44 72 70 73 71 74 80 75 72 76
REMARK SMILES IDX 73 77 79 78 81 79 74 80 75 81 76 82 77 83 78 84 54 85 55 86
REMARK SMILES IDX 64 87 56 88 57 89 63 90 65 91 58 92 59 93 60 94 61 95 62 96
REMARK H PARENT 17 8 24 27 86 46 52 57
REMARK Flexibility Score: inf
ROOT
ATOM      1  C   UNL A   1      32.129  28.967  25.849  1.00  0.00     0.002 C 
ENDROOT
BRANCH   1   2
ATOM      2  C   UNL A   1      31.114  29.613  24.889  1.00  0.00     0.002 C 
BRANCH   2   3
ATOM      3  C   UNL A   1      30.803  28.873  23.582  1.00  0.00     0.021 C 
BRANCH   3   4
ATOM      4  C   UNL A   1      31.274  27.424  23.517  1.00  0.00     0.116 C 
BRANCH   4   5
ATOM      5  N   UNL A   1      32.137  27.138  22.388  1.00  0.00    -0.356 N 
ATOM      6  C   UNL A   1      32.931  26.078  22.096  1.00  0.00     0.223 C 
ATOM      7  O   UNL A   1      33.326  25.983  20.928  1.00  0.00    -0.275 OA
ATOM      8  H   UNL A   1      32.150  27.846  21.705  1.00  0.00     0.163 HD
BRANCH   6   9
ATOM      9  C   UNL A   1      33.324  24.986  23.096  1.00  0.00     0.092 C 
BRANCH   9  10
ATOM     10  C   UNL A   1      33.861  23.690  22.457  1.00  0.00     0.049 C 
BRANCH  10  11
ATOM     11  C   UNL A   1      34.683  22.809  23.385  1.00  0.00    -0.044 A 
ATOM     12  C   UNL A   1      32.674  21.454  24.265  1.00  0.00     0.044 C 
ATOM     13  C   UNL A   1      34.137  21.806  24.212  1.00  0.00    -0.048 A 
ATOM     14  C   UNL A   1      35.005  21.013  24.990  1.00  0.00     0.004 A 
ATOM     15  C   UNL A   1      36.384  21.214  24.975  1.00  0.00     0.000 A 
ATOM     16  C   UNL A   1      36.082  22.982  23.376  1.00  0.00     0.004 A 
ATOM     17  C   UNL A   1      36.923  22.203  24.168  1.00  0.00     0.000 A 
ENDBRANCH  10  11
ENDBRANCH   9  10
BRANCH   9  18
ATOM     18  C   UNL A   1      34.068  25.564  24.314  1.00  0.00     0.129 C 
BRANCH  18  19
ATOM     19  C   UNL A   1      33.562  25.203  25.689  1.00  0.00     0.389 C 
ATOM     20  F   UNL A   1      32.365  24.589  25.641  1.00  0.00    -0.171 F 
ATOM     21  F   UNL A   1      34.422  24.342  26.285  1.00  0.00    -0.171 F 
ATOM     22  F   UNL A   1      33.456  26.274  26.499  1.00  0.00    -0.171 F 
ENDBRANCH  18  19
ENDBRANCH   9  18
ENDBRANCH   6   9
ENDBRANCH   4   5
ENDBRANCH   3   4
ENDBRANCH   2   3
ENDBRANCH   1   2
BRANCH   1  23
ATOM     23  C   UNL A   1      33.569  29.491  25.813  1.00  0.00     0.021 C 
BRANCH  23  24
ATOM     24  C   UNL A   1      34.193  29.727  27.179  1.00  0.00     0.116 C 
BRANCH  24  25
ATOM     25  N   UNL A   1      34.965  30.952  27.278  1.00  0.00    -0.352 N 
ATOM     26  C   UNL A   1      36.063  31.110  28.124  1.00  0.00     0.251 C 
ATOM     27  H   UNL A   1      34.697  31.716  26.716  1.00  0.00     0.163 HD
ATOM     28  O   UNL A   1      36.307  32.116  28.738  1.00  0.00    -0.269 OA
BRANCH  26  29
ATOM     29  C   UNL A   1      37.012  29.968  28.115  1.00  0.00     0.039 A 
ATOM     30  C   UNL A   1      37.138  29.208  29.281  1.00  0.00     0.014 A 
ATOM     31  C   UNL A   1      37.920  29.837  27.068  1.00  0.00     0.014 A 
ATOM     32  C   UNL A   1      38.273  28.417  29.461  1.00  0.00     0.010 A 
ATOM     33  C   UNL A   1      39.081  29.120  27.283  1.00  0.00     0.010 A 
ATOM     34  C   UNL A   1      39.280  28.439  28.492  1.00  0.00    -0.014 A 
BRANCH  34  35
ATOM     35  C   UNL A   1      40.606  27.857  28.688  1.00  0.00     0.031 A 
ATOM     36  C   UNL A   1      40.878  26.448  28.284  1.00  0.00     0.074 A 
ATOM     37  C   UNL A   1      41.627  28.610  29.157  1.00  0.00     0.049 A 
ATOM     38  N   UNL A   1      41.820  25.714  28.780  1.00  0.00    -0.248 NA
ATOM     39  C   UNL A   1      40.081  25.746  27.281  1.00  0.00     0.031 C 
ATOM     40  C   UNL A   1      43.048  28.263  29.111  1.00  0.00     0.029 A 
ATOM     41  N   UNL A   1      41.637  29.806  29.869  1.00  0.00    -0.354 N 
ATOM     42  C   UNL A   1      41.946  24.593  27.989  1.00  0.00     0.074 A 
ATOM     43  C   UNL A   1      40.799  24.630  27.109  1.00  0.00     0.031 C 
ATOM     44  C   UNL A   1      43.708  29.014  30.004  1.00  0.00     0.029 A 
ATOM     45  C   UNL A   1      42.711  29.744  30.764  1.00  0.00     0.049 A 
ATOM     46  H   UNL A   1      41.007  30.555  29.764  1.00  0.00     0.167 HD
ATOM     47  C   UNL A   1      43.077  23.829  28.056  1.00  0.00     0.037 A 
ATOM     48  C   UNL A   1      42.614  29.722  32.128  1.00  0.00     0.037 A 
ATOM     49  C   UNL A   1      44.019  24.350  29.044  1.00  0.00     0.049 A 
ATOM     50  C   UNL A   1      43.276  28.512  32.770  1.00  0.00     0.074 A 
ATOM     51  C   UNL A   1      45.138  25.159  28.924  1.00  0.00     0.029 A 
ATOM     52  N   UNL A   1      43.718  24.296  30.401  1.00  0.00    -0.354 N 
ATOM     53  N   UNL A   1      43.628  27.444  32.113  1.00  0.00    -0.248 NA
ATOM     54  C   UNL A   1      43.551  28.390  34.202  1.00  0.00     0.031 C 
ATOM     55  C   UNL A   1      45.488  25.626  30.211  1.00  0.00     0.029 A 
ATOM     56  C   UNL A   1      44.585  25.101  31.118  1.00  0.00     0.049 A 
ATOM     57  H   UNL A   1      42.991  23.761  30.795  1.00  0.00     0.167 HD
ATOM     58  C   UNL A   1      44.104  26.496  32.982  1.00  0.00     0.074 A 
ATOM     59  C   UNL A   1      44.072  27.152  34.275  1.00  0.00     0.031 C 
ATOM     60  C   UNL A   1      44.462  25.246  32.562  1.00  0.00     0.037 A 
BRANCH  47  61
ATOM     61  C   UNL A   1      43.458  22.816  26.990  1.00  0.00     0.058 A 
ATOM     62  C   UNL A   1      42.780  21.581  26.878  1.00  0.00     0.135 A 
ATOM     63  C   UNL A   1      44.526  22.979  26.086  1.00  0.00     0.135 A 
ATOM     64  F   UNL A   1      41.665  21.322  27.574  1.00  0.00    -0.206 F 
ATOM     65  C   UNL A   1      43.217  20.542  26.055  1.00  0.00     0.059 A 
ATOM     66  C   UNL A   1      45.018  21.936  25.291  1.00  0.00     0.059 A 
ATOM     67  F   UNL A   1      45.111  24.174  25.917  1.00  0.00    -0.206 F 
ATOM     68  C   UNL A   1      44.367  20.710  25.300  1.00  0.00     0.060 A 
BRANCH  68  69
ATOM     69  S   UNL A   1      44.991  19.309  24.352  1.00  0.00     0.124 S 
ATOM     70  O   UNL A   1      46.423  19.361  24.629  1.00  0.00    -0.237 OA
ATOM     71  O   UNL A   1      44.268  18.192  24.949  1.00  0.00    -0.237 OA
ATOM     72  O   UNL A   1      44.616  19.636  22.978  1.00  0.00    -0.744 OA
ENDBRANCH  68  69
ENDBRANCH  47  61
BRANCH  48  73
ATOM     73  C   UNL A   1      41.414  30.407  32.668  1.00  0.00     0.058 A 
ATOM     74  C   UNL A   1      40.274  29.625  32.925  1.00  0.00     0.135 A 
ATOM     75  C   UNL A   1      41.519  31.643  33.320  1.00  0.00     0.135 A 
ATOM     76  F   UNL A   1      40.109  28.451  32.293  1.00  0.00    -0.206 F 
ATOM     77  C   UNL A   1      39.378  29.957  33.934  1.00  0.00     0.059 A 
ATOM     78  C   UNL A   1      40.627  32.002  34.329  1.00  0.00     0.059 A 
ATOM     79  F   UNL A   1      42.573  32.441  33.093  1.00  0.00    -0.206 F 
ATOM     80  C   UNL A   1      39.612  31.109  34.683  1.00  0.00     0.060 A 
BRANCH  80  81
ATOM     81  S   UNL A   1      38.681  31.325  36.220  1.00  0.00     0.124 S 
ATOM     82  O   UNL A   1      39.597  32.131  37.020  1.00  0.00    -0.237 OA
ATOM     83  O   UNL A   1      37.479  32.013  35.747  1.00  0.00    -0.237 OA
ATOM     84  O   UNL A   1      38.475  29.957  36.677  1.00  0.00    -0.744 OA
ENDBRANCH  80  81
ENDBRANCH  48  73
BRANCH  60  85
ATOM     85  C   UNL A   1      44.826  24.081  33.451  1.00  0.00     0.058 A 
ATOM     86  C   UNL A   1      43.979  22.988  33.699  1.00  0.00     0.135 A 
ATOM     87  C   UNL A   1      46.129  23.976  33.995  1.00  0.00     0.135 A 
ATOM     88  F   UNL A   1      42.761  22.912  33.143  1.00  0.00    -0.206 F 
ATOM     89  C   UNL A   1      44.364  21.902  34.490  1.00  0.00     0.059 A 
ATOM     90  C   UNL A   1      46.553  22.879  34.744  1.00  0.00     0.059 A 
ATOM     91  F   UNL A   1      47.044  24.939  33.808  1.00  0.00    -0.206 F 
ATOM     92  C   UNL A   1      45.653  21.858  35.012  1.00  0.00     0.060 A 
BRANCH  92  93
ATOM     93  S   UNL A   1      46.183  20.441  35.994  1.00  0.00     0.124 S 
ATOM     94  O   UNL A   1      45.811  20.865  37.341  1.00  0.00    -0.237 OA
ATOM     95  O   UNL A   1      45.395  19.344  35.440  1.00  0.00    -0.237 OA
ATOM     96  O   UNL A   1      47.615  20.371  35.724  1.00  0.00    -0.744 OA
ENDBRANCH  92  93
ENDBRANCH  60  85
ENDBRANCH  34  35
ENDBRANCH  26  29
ENDBRANCH  24  25
ENDBRANCH  23  24
ENDBRANCH   1  23
TORSDOF 20
ENDMDL
MODEL 2
REMARK VINA RESULT:     -12.6      4.834     11.364
REMARK SMILES Cc1ccccc1C[C@@H](CC(F)(F)F)C(=O)NCCCCCCNC(=O)c1ccc(-c2c3nc(c(-c4c(F)cc(S(=O)(=O)[O-])cc4F)c4ccc([nH]4)c(-c4c(F)cc(S(=O)(=O)[O-])cc4F)c4nc(c(-c5c(F)cc(S(=O)(=O)[O-])cc5F)c5ccc2[nH]5)C=C4)C=C3)cc1
REMARK SMILES IDX 21 1 20 2 19 3 18 4 17 5 15 6 16 7 9 9 8 10 7 11 1 12 2 13
REMARK SMILES IDX 3 14 4 15 6 16 5 17 10 18 11 19 12 20 13 21 14 22 22 23
REMARK SMILES IDX 23 24 24 25 25 26 26 28 27 29 28 30 92 31 29 32 91 33 30 34
REMARK SMILES IDX 31 35 32 36 85 37 33 38 90 39 84 40 86 41 34 42 89 43 83 44
REMARK SMILES IDX 82 45 35 47 69 48 48 49 68 50 49 51 52 52 67 53 87 54 50 55
REMARK SMILES IDX 51 56 66 58 88 59 53 60 36 61 37 62 46 63 38 64 39 65 45 66
REMARK SMILES IDX 47 67 40 68 41 69 42 70 43 71 44 72 70 73 71 74 80 75 72 76
REMARK SMILES IDX 73 77 79 78 81 79 74 80 75 81 76 82 77 83 78 84 54 85 55 86
REMARK SMILES IDX 64 87 56 88 57 89 63 90 65 91 58 92 59 93 60 94 61 95 62 96
REMARK H PARENT 17 8 24 27 86 46 52 57
REMARK Flexibility Score: inf
ROOT
ATOM      1  C   UNL A   1      35.599  22.339  26.274  1.00  0.00     0.002 C 
ENDROOT
BRANCH   1   2
ATOM      2  C   UNL A   1      34.581  21.281  25.809  1.00  0.00     0.002 C 
BRANCH   2   3
ATOM      3  C   UNL A   1      33.862  21.525  24.478  1.00  0.00     0.021 C 
BRANCH   3   4
ATOM      4  C   UNL A   1      32.357  21.757  24.574  1.00  0.00     0.116 C 
BRANCH   4   5
ATOM      5  N   UNL A   1      31.899  22.090  25.909  1.00  0.00    -0.356 N 
ATOM      6  C   UNL A   1      31.519  23.263  26.473  1.00  0.00     0.223 C 
ATOM      7  O   UNL A   1      30.904  23.193  27.544  1.00  0.00    -0.275 OA
ATOM      8  H   UNL A   1      31.857  21.321  26.521  1.00  0.00     0.163 HD
BRANCH   6   9
ATOM      9  C   UNL A   1      31.761  24.643  25.853  1.00  0.00     0.092 C 
BRANCH   9  10
ATOM     10  C   UNL A   1      30.696  25.702  26.202  1.00  0.00     0.049 C 
BRANCH  10  11
ATOM     11  C   UNL A   1      31.151  27.145  26.052  1.00  0.00    -0.044 A 
ATOM     12  C   UNL A   1      30.564  27.318  23.547  1.00  0.00     0.044 C 
ATOM     13  C   UNL A   1      31.101  27.867  24.842  1.00  0.00    -0.048 A 
ATOM     14  C   UNL A   1      31.499  29.220  24.836  1.00  0.00     0.004 A 
ATOM     15  C   UNL A   1      31.959  29.848  25.991  1.00  0.00     0.000 A 
ATOM     16  C   UNL A   1      31.606  27.808  27.210  1.00  0.00     0.004 A 
ATOM     17  C   UNL A   1      32.016  29.139  27.181  1.00  0.00     0.000 A 
ENDBRANCH  10  11
ENDBRANCH   9  10
BRANCH   9  18
ATOM     18  C   UNL A   1      33.245  25.050  25.916  1.00  0.00     0.129 C 
BRANCH  18  19
ATOM     19  C   UNL A   1      33.921  25.461  24.631  1.00  0.00     0.389 C 
ATOM     20  F   UNL A   1      34.109  26.792  24.563  1.00  0.00    -0.171 F 
ATOM     21  F   UNL A   1      35.144  24.886  24.550  1.00  0.00    -0.171 F 
ATOM     22  F   UNL A   1      33.233  25.074  23.539  1.00  0.00    -0.171 F 
ENDBRANCH  18  19
ENDBRANCH   9  18
ENDBRANCH   6   9
ENDBRANCH   4   5
ENDBRANCH   3   4
ENDBRANCH   2   3
ENDBRANCH   1   2
BRANCH   1  23
ATOM     23  C   UNL A   1      36.979  22.333  25.608  1.00  0.00     0.021 C 
BRANCH  23  24
ATOM     24  C   UNL A   1      37.885  23.484  26.014  1.00  0.00     0.116 C 
BRANCH  24  25
ATOM     25  N   UNL A   1      38.991  23.098  26.872  1.00  0.00    -0.352 N 
ATOM     26  C   UNL A   1      40.080  23.923  27.151  1.00  0.00     0.251 C 
ATOM     27  H   UNL A   1      38.970  22.201  27.280  1.00  0.00     0.163 HD
ATOM     28  O   UNL A   1      41.218  23.540  27.240  1.00  0.00    -0.269 OA
BRANCH  26  29
ATOM     29  C   UNL A   1      39.718  25.327  27.471  1.00  0.00     0.039 A 
ATOM     30  C   UNL A   1      40.319  26.348  26.729  1.00  0.00     0.014 A 
ATOM     31  C   UNL A   1      39.010  25.607  28.636  1.00  0.00     0.014 A 
ATOM     32  C   UNL A   1      40.337  27.646  27.241  1.00  0.00     0.010 A 
ATOM     33  C   UNL A   1      39.102  26.873  29.182  1.00  0.00     0.010 A 
ATOM     34  C   UNL A   1      39.797  27.886  28.507  1.00  0.00    -0.014 A 
BRANCH  34  35
ATOM     35  C   UNL A   1      39.982  29.135  29.244  1.00  0.00     0.031 A 
ATOM     36  C   UNL A   1      38.915  30.175  29.243  1.00  0.00     0.074 A 
ATOM     37  C   UNL A   1      41.083  29.328  30.005  1.00  0.00     0.049 A 
ATOM     38  N   UNL A   1      39.120  31.432  29.469  1.00  0.00    -0.248 NA
ATOM     39  C   UNL A   1      37.514  29.871  28.967  1.00  0.00     0.031 C 
ATOM     40  C   UNL A   1      41.257  30.367  31.021  1.00  0.00     0.029 A 
ATOM     41  N   UNL A   1      42.334  28.718  29.986  1.00  0.00    -0.354 N 
ATOM     42  C   UNL A   1      37.895  32.034  29.660  1.00  0.00     0.074 A 
ATOM     43  C   UNL A   1      36.926  31.033  29.273  1.00  0.00     0.031 C 
ATOM     44  C   UNL A   1      42.567  30.517  31.269  1.00  0.00     0.029 A 
ATOM     45  C   UNL A   1      43.277  29.702  30.301  1.00  0.00     0.049 A 
ATOM     46  H   UNL A   1      42.520  27.772  29.789  1.00  0.00     0.167 HD
ATOM     47  C   UNL A   1      37.818  33.259  30.261  1.00  0.00     0.037 A 
ATOM     48  C   UNL A   1      44.251  30.174  29.463  1.00  0.00     0.037 A 
ATOM     49  C   UNL A   1      39.143  33.775  30.602  1.00  0.00     0.049 A 
ATOM     50  C   UNL A   1      44.196  31.678  29.245  1.00  0.00     0.074 A 
ATOM     51  C   UNL A   1      39.869  33.762  31.782  1.00  0.00     0.029 A 
ATOM     52  N   UNL A   1      40.031  34.151  29.600  1.00  0.00    -0.354 N 
ATOM     53  N   UNL A   1      43.168  32.419  29.552  1.00  0.00    -0.248 NA
ATOM     54  C   UNL A   1      45.268  32.457  28.626  1.00  0.00     0.031 C 
ATOM     55  C   UNL A   1      41.209  34.096  31.483  1.00  0.00     0.029 A 
ATOM     56  C   UNL A   1      41.302  34.313  30.120  1.00  0.00     0.049 A 
ATOM     57  H   UNL A   1      39.789  34.284  28.655  1.00  0.00     0.167 HD
ATOM     58  C   UNL A   1      43.386  33.710  29.146  1.00  0.00     0.074 A 
ATOM     59  C   UNL A   1      44.731  33.691  28.606  1.00  0.00     0.031 C 
ATOM     60  C   UNL A   1      42.427  34.677  29.270  1.00  0.00     0.037 A 
BRANCH  47  61
ATOM     61  C   UNL A   1      36.530  33.823  30.834  1.00  0.00     0.058 A 
ATOM     62  C   UNL A   1      35.442  34.161  29.996  1.00  0.00     0.135 A 
ATOM     63  C   UNL A   1      36.326  34.111  32.198  1.00  0.00     0.135 A 
ATOM     64  F   UNL A   1      35.424  33.834  28.698  1.00  0.00    -0.206 F 
ATOM     65  C   UNL A   1      34.322  34.861  30.446  1.00  0.00     0.059 A 
ATOM     66  C   UNL A   1      35.240  34.860  32.666  1.00  0.00     0.059 A 
ATOM     67  F   UNL A   1      37.164  33.642  33.134  1.00  0.00    -0.206 F 
ATOM     68  C   UNL A   1      34.250  35.251  31.774  1.00  0.00     0.060 A 
BRANCH  68  69
ATOM     69  S   UNL A   1      32.862  36.274  32.301  1.00  0.00     0.124 S 
ATOM     70  O   UNL A   1      31.796  35.290  32.461  1.00  0.00    -0.237 OA
ATOM     71  O   UNL A   1      33.371  36.866  33.532  1.00  0.00    -0.237 OA
ATOM     72  O   UNL A   1      32.683  37.201  31.186  1.00  0.00    -0.744 OA
ENDBRANCH  68  69
ENDBRANCH  47  61
BRANCH  48  73
ATOM     73  C   UNL A   1      44.711  29.195  28.447  1.00  0.00     0.058 A 
ATOM     74  C   UNL A   1      45.682  28.256  28.836  1.00  0.00     0.135 A 
ATOM     75  C   UNL A   1      43.928  28.899  27.324  1.00  0.00     0.135 A 
ATOM     76  F   UNL A   1      46.484  28.513  29.882  1.00  0.00    -0.206 F 
ATOM     77  C   UNL A   1      45.741  26.991  28.261  1.00  0.00     0.059 A 
ATOM     78  C   UNL A   1      43.976  27.640  26.725  1.00  0.00     0.059 A 
ATOM     79  F   UNL A   1      43.002  29.769  26.894  1.00  0.00    -0.206 F 
ATOM     80  C   UNL A   1      44.826  26.670  27.260  1.00  0.00     0.060 A 
BRANCH  80  81
ATOM     81  S   UNL A   1      44.654  24.929  26.797  1.00  0.00     0.124 S 
ATOM     82  O   UNL A   1      46.004  24.596  26.357  1.00  0.00    -0.237 OA
ATOM     83  O   UNL A   1      44.231  24.323  28.060  1.00  0.00    -0.237 OA
ATOM     84  O   UNL A   1      43.637  24.963  25.754  1.00  0.00    -0.744 OA
ENDBRANCH  80  81
ENDBRANCH  48  73
BRANCH  60  85
ATOM     85  C   UNL A   1      42.495  36.073  28.698  1.00  0.00     0.058 A 
ATOM     86  C   UNL A   1      42.974  37.189  29.406  1.00  0.00     0.135 A 
ATOM     87  C   UNL A   1      42.185  36.304  27.336  1.00  0.00     0.135 A 
ATOM     88  F   UNL A   1      43.411  37.076  30.669  1.00  0.00    -0.206 F 
ATOM     89  C   UNL A   1      43.067  38.459  28.831  1.00  0.00     0.059 A 
ATOM     90  C   UNL A   1      42.320  37.551  26.728  1.00  0.00     0.059 A 
ATOM     91  F   UNL A   1      41.746  35.315  26.543  1.00  0.00    -0.206 F 
ATOM     92  C   UNL A   1      42.735  38.632  27.492  1.00  0.00     0.060 A 
BRANCH  92  93
ATOM     93  S   UNL A   1      42.897  40.254  26.721  1.00  0.00     0.124 S 
ATOM     94  O   UNL A   1      41.544  40.475  26.219  1.00  0.00    -0.237 OA
ATOM     95  O   UNL A   1      43.301  41.107  27.835  1.00  0.00    -0.237 OA
ATOM     96  O   UNL A   1      43.923  40.035  25.706  1.00  0.00    -0.744 OA
ENDBRANCH  92  93
ENDBRANCH  60  85
ENDBRANCH  34  35
ENDBRANCH  26  29
ENDBRANCH  24  25
ENDBRANCH  23  24
ENDBRANCH   1  23
TORSDOF 20
ENDMDL
MODEL 3
REMARK VINA RESULT:     -12.5      4.955     11.275
REMARK SMILES Cc1ccccc1C[C@@H](CC(F)(F)F)C(=O)NCCCCCCNC(=O)c1ccc(-c2c3nc(c(-c4c(F)cc(S(=O)(=O)[O-])cc4F)c4ccc([nH]4)c(-c4c(F)cc(S(=O)(=O)[O-])cc4F)c4nc(c(-c5c(F)cc(S(=O)(=O)[O-])cc5F)c5ccc2[nH]5)C=C4)C=C3)cc1
REMARK SMILES IDX 21 1 20 2 19 3 18 4 17 5 15 6 16 7 9 9 8 10 7 11 1 12 2 13
REMARK SMILES IDX 3 14 4 15 6 16 5 17 10 18 11 19 12 20 13 21 14 22 22 23
REMARK SMILES IDX 23 24 24 25 25 26 26 28 27 29 28 30 92 31 29 32 91 33 30 34
REMARK SMILES IDX 31 35 32 36 85 37 33 38 90 39 84 40 86 41 34 42 89 43 83 44
REMARK SMILES IDX 82 45 35 47 69 48 48 49 68 50 49 51 52 52 67 53 87 54 50 55
REMARK SMILES IDX 51 56 66 58 88 59 53 60 36 61 37 62 46 63 38 64 39 65 45 66
REMARK SMILES IDX 47 67 40 68 41 69 42 70 43 71 44 72 70 73 71 74 80 75 72 76
REMARK SMILES IDX 73 77 79 78 81 79 74 80 75 81 76 82 77 83 78 84 54 85 55 86
REMARK SMILES IDX 64 87 56 88 57 89 63 90 65 91 58 92 59 93 60 94 61 95 62 96
REMARK H PARENT 17 8 24 27 86 46 52 57
REMARK Flexibility Score: inf
ROOT
ATOM      1  C   UNL A   1      35.855  21.865  25.668  1.00  0.00     0.002 C 
ENDROOT
BRANCH   1   2
ATOM      2  C   UNL A   1      34.994  21.171  24.596  1.00  0.00     0.002 C 
BRANCH   2   3
ATOM      3  C   UNL A   1      33.820  21.963  24.008  1.00  0.00     0.021 C 
BRANCH   3   4
ATOM      4  C   UNL A   1      32.455  21.671  24.623  1.00  0.00     0.116 C 
BRANCH   4   5
ATOM      5  N   UNL A   1      32.386  21.928  26.048  1.00  0.00    -0.356 N 
ATOM      6  C   UNL A   1      32.176  23.064  26.758  1.00  0.00     0.223 C 
ATOM      7  O   UNL A   1      31.883  22.929  27.952  1.00  0.00    -0.275 OA
ATOM      8  H   UNL A   1      32.517  21.128  26.606  1.00  0.00     0.163 HD
BRANCH   6   9
ATOM      9  C   UNL A   1      32.232  24.477  26.170  1.00  0.00     0.092 C 
BRANCH   9  10
ATOM     10  C   UNL A   1      33.630  24.923  25.696  1.00  0.00     0.049 C 
BRANCH  10  11
ATOM     11  C   UNL A   1      33.633  26.048  24.672  1.00  0.00    -0.044 A 
ATOM     12  C   UNL A   1      33.881  27.942  26.403  1.00  0.00     0.044 C 
ATOM     13  C   UNL A   1      33.734  27.415  25.001  1.00  0.00    -0.048 A 
ATOM     14  C   UNL A   1      33.782  28.366  23.961  1.00  0.00     0.004 A 
ATOM     15  C   UNL A   1      33.712  27.986  22.622  1.00  0.00     0.000 A 
ATOM     16  C   UNL A   1      33.578  25.688  23.311  1.00  0.00     0.004 A 
ATOM     17  C   UNL A   1      33.606  26.643  22.297  1.00  0.00     0.000 A 
ENDBRANCH  10  11
ENDBRANCH   9  10
BRANCH   9  18
ATOM     18  C   UNL A   1      31.024  24.769  25.260  1.00  0.00     0.129 C 
BRANCH  18  19
ATOM     19  C   UNL A   1      30.278  26.065  25.468  1.00  0.00     0.389 C 
ATOM     20  F   UNL A   1      30.420  26.902  24.425  1.00  0.00    -0.171 F 
ATOM     21  F   UNL A   1      28.953  25.817  25.598  1.00  0.00    -0.171 F 
ATOM     22  F   UNL A   1      30.667  26.710  26.586  1.00  0.00    -0.171 F 
ENDBRANCH  18  19
ENDBRANCH   9  18
ENDBRANCH   6   9
ENDBRANCH   4   5
ENDBRANCH   3   4
ENDBRANCH   2   3
ENDBRANCH   1   2
BRANCH   1  23
ATOM     23  C   UNL A   1      37.361  21.974  25.403  1.00  0.00     0.021 C 
BRANCH  23  24
ATOM     24  C   UNL A   1      38.032  23.178  26.044  1.00  0.00     0.116 C 
BRANCH  24  25
ATOM     25  N   UNL A   1      39.216  22.858  26.820  1.00  0.00    -0.352 N 
ATOM     26  C   UNL A   1      40.254  23.759  27.056  1.00  0.00     0.251 C 
ATOM     27  H   UNL A   1      39.290  21.953  27.201  1.00  0.00     0.163 HD
ATOM     28  O   UNL A   1      41.421  23.463  27.064  1.00  0.00    -0.269 OA
BRANCH  26  29
ATOM     29  C   UNL A   1      39.807  25.122  27.441  1.00  0.00     0.039 A 
ATOM     30  C   UNL A   1      40.255  26.202  26.676  1.00  0.00     0.014 A 
ATOM     31  C   UNL A   1      39.182  25.320  28.669  1.00  0.00     0.014 A 
ATOM     32  C   UNL A   1      40.211  27.487  27.216  1.00  0.00     0.010 A 
ATOM     33  C   UNL A   1      39.217  26.579  29.235  1.00  0.00     0.010 A 
ATOM     34  C   UNL A   1      39.765  27.659  28.529  1.00  0.00    -0.014 A 
BRANCH  34  35
ATOM     35  C   UNL A   1      39.909  28.906  29.278  1.00  0.00     0.031 A 
ATOM     36  C   UNL A   1      38.849  29.951  29.214  1.00  0.00     0.074 A 
ATOM     37  C   UNL A   1      40.963  29.094  30.106  1.00  0.00     0.049 A 
ATOM     38  N   UNL A   1      39.046  31.207  29.454  1.00  0.00    -0.248 NA
ATOM     39  C   UNL A   1      37.467  29.653  28.851  1.00  0.00     0.031 C 
ATOM     40  C   UNL A   1      41.079  30.130  31.133  1.00  0.00     0.029 A 
ATOM     41  N   UNL A   1      42.210  28.478  30.163  1.00  0.00    -0.354 N 
ATOM     42  C   UNL A   1      37.814  31.814  29.570  1.00  0.00     0.074 A 
ATOM     43  C   UNL A   1      36.866  30.818  29.123  1.00  0.00     0.031 C 
ATOM     44  C   UNL A   1      42.371  30.274  31.460  1.00  0.00     0.029 A 
ATOM     45  C   UNL A   1      43.136  29.457  30.536  1.00  0.00     0.049 A 
ATOM     46  H   UNL A   1      42.404  27.531  29.976  1.00  0.00     0.167 HD
ATOM     47  C   UNL A   1      37.706  33.038  30.167  1.00  0.00     0.037 A 
ATOM     48  C   UNL A   1      44.161  29.926  29.761  1.00  0.00     0.037 A 
ATOM     49  C   UNL A   1      39.009  33.548  30.590  1.00  0.00     0.049 A 
ATOM     50  C   UNL A   1      44.126  31.430  29.543  1.00  0.00     0.074 A 
ATOM     51  C   UNL A   1      39.661  33.530  31.813  1.00  0.00     0.029 A 
ATOM     52  N   UNL A   1      39.959  33.922  29.645  1.00  0.00    -0.354 N 
ATOM     53  N   UNL A   1      43.085  32.175  29.788  1.00  0.00    -0.248 NA
ATOM     54  C   UNL A   1      45.238  32.206  28.992  1.00  0.00     0.031 C 
ATOM     55  C   UNL A   1      41.018  33.858  31.597  1.00  0.00     0.029 A 
ATOM     56  C   UNL A   1      41.196  34.077  30.243  1.00  0.00     0.049 A 
ATOM     57  H   UNL A   1      39.776  34.057  28.688  1.00  0.00     0.167 HD
ATOM     58  C   UNL A   1      43.333  33.466  29.397  1.00  0.00     0.074 A 
ATOM     59  C   UNL A   1      44.709  33.442  28.942  1.00  0.00     0.031 C 
ATOM     60  C   UNL A   1      42.373  34.437  29.464  1.00  0.00     0.037 A 
BRANCH  47  61
ATOM     61  C   UNL A   1      36.387  33.607  30.661  1.00  0.00     0.058 A 
ATOM     62  C   UNL A   1      35.413  34.089  29.757  1.00  0.00     0.135 A 
ATOM     63  C   UNL A   1      36.046  33.759  32.020  1.00  0.00     0.135 A 
ATOM     64  F   UNL A   1      35.524  33.904  28.436  1.00  0.00    -0.206 F 
ATOM     65  C   UNL A   1      34.281  34.798  30.161  1.00  0.00     0.059 A 
ATOM     66  C   UNL A   1      34.948  34.513  32.452  1.00  0.00     0.059 A 
ATOM     67  F   UNL A   1      36.756  33.150  32.981  1.00  0.00    -0.206 F 
ATOM     68  C   UNL A   1      34.080  35.048  31.510  1.00  0.00     0.060 A 
BRANCH  68  69
ATOM     69  S   UNL A   1      32.686  36.083  31.998  1.00  0.00     0.124 S 
ATOM     70  O   UNL A   1      32.389  36.803  30.764  1.00  0.00    -0.237 OA
ATOM     71  O   UNL A   1      31.700  35.091  32.409  1.00  0.00    -0.237 OA
ATOM     72  O   UNL A   1      33.236  36.904  33.074  1.00  0.00    -0.744 OA
ENDBRANCH  68  69
ENDBRANCH  47  61
BRANCH  48  73
ATOM     73  C   UNL A   1      44.679  28.946  28.774  1.00  0.00     0.058 A 
ATOM     74  C   UNL A   1      44.217  29.046  27.450  1.00  0.00     0.135 A 
ATOM     75  C   UNL A   1      45.880  28.261  28.998  1.00  0.00     0.135 A 
ATOM     76  F   UNL A   1      43.050  29.658  27.190  1.00  0.00    -0.206 F 
ATOM     77  C   UNL A   1      45.009  28.662  26.374  1.00  0.00     0.059 A 
ATOM     78  C   UNL A   1      46.687  27.858  27.934  1.00  0.00     0.059 A 
ATOM     79  F   UNL A   1      46.355  28.115  30.243  1.00  0.00    -0.206 F 
ATOM     80  C   UNL A   1      46.277  28.143  26.630  1.00  0.00     0.060 A 
BRANCH  80  81
ATOM     81  S   UNL A   1      47.434  28.011  25.244  1.00  0.00     0.124 S 
ATOM     82  O   UNL A   1      46.670  28.604  24.152  1.00  0.00    -0.237 OA
ATOM     83  O   UNL A   1      48.569  28.799  25.726  1.00  0.00    -0.237 OA
ATOM     84  O   UNL A   1      47.671  26.577  25.146  1.00  0.00    -0.744 OA
ENDBRANCH  80  81
ENDBRANCH  48  73
BRANCH  60  85
ATOM     85  C   UNL A   1      42.482  35.834  28.900  1.00  0.00     0.058 A 
ATOM     86  C   UNL A   1      41.781  36.280  27.767  1.00  0.00     0.135 A 
ATOM     87  C   UNL A   1      43.226  36.825  29.584  1.00  0.00     0.135 A 
ATOM     88  F   UNL A   1      40.950  35.467  27.099  1.00  0.00    -0.206 F 
ATOM     89  C   UNL A   1      41.869  37.594  27.298  1.00  0.00     0.059 A 
ATOM     90  C   UNL A   1      43.287  38.153  29.165  1.00  0.00     0.059 A 
ATOM     91  F   UNL A   1      43.917  36.536  30.698  1.00  0.00    -0.206 F 
ATOM     92  C   UNL A   1      42.627  38.523  28.002  1.00  0.00     0.060 A 
BRANCH  92  93
ATOM     93  S   UNL A   1      42.711  40.234  27.440  1.00  0.00     0.124 S 
ATOM     94  O   UNL A   1      41.339  40.463  26.997  1.00  0.00    -0.237 OA
ATOM     95  O   UNL A   1      43.112  40.957  28.643  1.00  0.00    -0.237 OA
ATOM     96  O   UNL A   1      43.718  40.185  26.384  1.00  0.00    -0.744 OA
ENDBRANCH  92  93
ENDBRANCH  60  85
ENDBRANCH  34  35
ENDBRANCH  26  29
ENDBRANCH  24  25
ENDBRANCH  23  24
ENDBRANCH   1  23
TORSDOF 20
ENDMDL
