MODEL 1
REMARK VINA RESULT:     -12.6      0.000      0.000
REMARK SMILES CCn1c(N2CCC[C@H](C(=O)NCCCCCCNC(=O)c3ccc(-c4c5nc(c(-c6c(F)cc(S(=O)(=O)[O-])cc6F)c6ccc([nH]6)c(-c6c(F)cc(S(=O)(=O)[O-])cc6F)c6nc(c(-c7c(F)cc(S(=O)(=O)[O-])cc7F)c7ccc4[nH]7)C=C6)C=C5)cc3)C2)nc2cc(C)ccc21
REMARK SMILES IDX 16 1 15 2 14 3 13 4 12 5 10 6 11 7 9 9 5 10 6 11 88 12 7 13
REMARK SMILES IDX 8 14 4 15 3 16 96 17 89 18 90 19 95 20 91 21 94 22 92 23
REMARK SMILES IDX 93 24 2 25 1 26 17 27 18 28 19 29 20 30 21 32 22 33 23 34
REMARK SMILES IDX 87 35 24 36 86 37 25 38 26 39 27 40 80 41 28 42 85 43 79 44
REMARK SMILES IDX 81 45 29 46 84 47 78 48 77 49 30 51 64 52 43 53 63 54 44 55
REMARK SMILES IDX 47 56 62 57 82 58 45 59 46 60 61 62 83 63 48 64 31 65 32 66
REMARK SMILES IDX 41 67 33 68 34 69 40 70 42 71 35 72 36 73 37 74 38 75 39 76
REMARK SMILES IDX 65 77 66 78 75 79 67 80 68 81 74 82 76 83 69 84 70 85 71 86
REMARK SMILES IDX 72 87 73 88 49 89 50 90 59 91 51 92 52 93 58 94 60 95 53 96
REMARK SMILES IDX 54 97 55 98 56 99 57 100
REMARK H PARENT 12 8 19 31 81 50 47 61
REMARK Flexibility Score: inf
ROOT
ATOM      1  C   UNL A   1      31.775  28.928  27.271  1.00  0.00     0.002 C 
ENDROOT
BRANCH   1   2
ATOM      2  C   UNL A   1      31.694  27.469  26.795  1.00  0.00     0.002 C 
BRANCH   2   3
ATOM      3  C   UNL A   1      31.025  27.253  25.438  1.00  0.00     0.021 C 
BRANCH   3   4
ATOM      4  C   UNL A   1      30.228  25.957  25.351  1.00  0.00     0.116 C 
BRANCH   4   5
ATOM      5  N   UNL A   1      30.429  25.047  26.453  1.00  0.00    -0.356 N 
ATOM      6  C   UNL A   1      30.957  23.796  26.433  1.00  0.00     0.224 C 
ATOM      7  O   UNL A   1      31.411  23.370  27.504  1.00  0.00    -0.275 OA
ATOM      8  H   UNL A   1      30.145  25.376  27.336  1.00  0.00     0.163 HD
BRANCH   6   9
ATOM      9  C   UNL A   1      30.974  22.878  25.202  1.00  0.00     0.098 C 
ATOM     10  N   UNL A   1      33.256  22.332  24.377  1.00  0.00    -0.341 N 
ATOM     11  C   UNL A   1      33.060  22.943  23.068  1.00  0.00     0.119 C 
ATOM     12  C   UNL A   1      32.108  21.863  25.138  1.00  0.00     0.133 C 
ATOM     13  C   UNL A   1      31.871  23.906  23.003  1.00  0.00     0.022 C 
ATOM     14  C   UNL A   1      30.665  23.544  23.863  1.00  0.00     0.017 C 
BRANCH  10  15
ATOM     15  C   UNL A   1      34.490  22.311  24.950  1.00  0.00     0.206 A 
ATOM     16  N   UNL A   1      35.035  23.397  25.606  1.00  0.00    -0.310 N 
ATOM     17  C   UNL A   1      36.365  23.122  25.851  1.00  0.00     0.070 A 
ATOM     18  N   UNL A   1      35.352  21.320  24.901  1.00  0.00    -0.213 NA
ATOM     19  C   UNL A   1      36.538  21.830  25.372  1.00  0.00     0.091 A 
ATOM     20  C   UNL A   1      37.415  23.853  26.422  1.00  0.00     0.029 A 
ATOM     21  C   UNL A   1      37.817  21.246  25.403  1.00  0.00     0.034 A 
ATOM     22  C   UNL A   1      38.679  23.250  26.455  1.00  0.00     0.006 A 
ATOM     23  C   UNL A   1      38.897  21.968  25.939  1.00  0.00    -0.049 A 
ATOM     24  C   UNL A   1      40.275  21.369  25.940  1.00  0.00     0.044 C 
BRANCH  16  25
ATOM     25  C   UNL A   1      34.364  24.634  25.955  1.00  0.00     0.122 C 
ATOM     26  C   UNL A   1      34.400  25.700  24.870  1.00  0.00     0.028 C 
ENDBRANCH  16  25
ENDBRANCH  10  15
ENDBRANCH   6   9
ENDBRANCH   4   5
ENDBRANCH   3   4
ENDBRANCH   2   3
ENDBRANCH   1   2
BRANCH   1  27
ATOM     27  C   UNL A   1      32.576  29.899  26.391  1.00  0.00     0.021 C 
BRANCH  27  28
ATOM     28  C   UNL A   1      33.970  30.236  26.913  1.00  0.00     0.116 C 
BRANCH  28  29
ATOM     29  N   UNL A   1      33.970  31.240  27.958  1.00  0.00    -0.352 N 
ATOM     30  C   UNL A   1      34.858  31.686  28.891  1.00  0.00     0.251 C 
ATOM     31  H   UNL A   1      33.114  31.723  28.004  1.00  0.00     0.163 HD
ATOM     32  O   UNL A   1      34.459  32.614  29.603  1.00  0.00    -0.269 OA
BRANCH  30  33
ATOM     33  C   UNL A   1      36.211  31.122  29.146  1.00  0.00     0.039 A 
ATOM     34  C   UNL A   1      37.390  31.853  29.285  1.00  0.00     0.014 A 
ATOM     35  C   UNL A   1      36.280  29.716  29.210  1.00  0.00     0.014 A 
ATOM     36  C   UNL A   1      38.613  31.194  29.380  1.00  0.00     0.010 A 
ATOM     37  C   UNL A   1      37.496  29.055  29.325  1.00  0.00     0.010 A 
ATOM     38  C   UNL A   1      38.670  29.796  29.355  1.00  0.00    -0.014 A 
BRANCH  38  39
ATOM     39  C   UNL A   1      39.977  29.155  29.471  1.00  0.00     0.031 A 
ATOM     40  C   UNL A   1      40.454  28.997  30.874  1.00  0.00     0.074 A 
ATOM     41  C   UNL A   1      40.669  28.661  28.422  1.00  0.00     0.049 A 
ATOM     42  N   UNL A   1      41.455  29.583  31.448  1.00  0.00    -0.248 NA
ATOM     43  C   UNL A   1      39.623  28.205  31.796  1.00  0.00     0.031 C 
ATOM     44  C   UNL A   1      40.228  28.506  27.033  1.00  0.00     0.029 A 
ATOM     45  N   UNL A   1      41.920  28.116  28.400  1.00  0.00    -0.354 N 
ATOM     46  C   UNL A   1      41.511  29.072  32.742  1.00  0.00     0.074 A 
ATOM     47  C   UNL A   1      40.275  28.362  32.949  1.00  0.00     0.031 C 
ATOM     48  C   UNL A   1      41.100  27.713  26.366  1.00  0.00     0.029 A 
ATOM     49  C   UNL A   1      42.235  27.431  27.228  1.00  0.00     0.049 A 
ATOM     50  H   UNL A   1      42.549  28.200  29.152  1.00  0.00     0.167 HD
ATOM     51  C   UNL A   1      42.664  29.085  33.467  1.00  0.00     0.037 A 
ATOM     52  C   UNL A   1      43.334  26.665  27.002  1.00  0.00     0.037 A 
ATOM     53  C   UNL A   1      43.608  30.031  32.927  1.00  0.00     0.049 A 
ATOM     54  C   UNL A   1      44.366  27.098  27.977  1.00  0.00     0.074 A 
ATOM     55  C   UNL A   1      43.635  31.402  32.762  1.00  0.00     0.029 A 
ATOM     56  N   UNL A   1      44.603  29.538  32.122  1.00  0.00    -0.354 N 
ATOM     57  N   UNL A   1      44.929  28.274  27.970  1.00  0.00    -0.248 NA
ATOM     58  C   UNL A   1      44.457  26.370  29.232  1.00  0.00     0.031 C 
ATOM     59  C   UNL A   1      44.317  31.614  31.528  1.00  0.00     0.029 A 
ATOM     60  C   UNL A   1      44.718  30.370  31.039  1.00  0.00     0.049 A 
ATOM     61  H   UNL A   1      45.141  28.731  32.293  1.00  0.00     0.167 HD
ATOM     62  C   UNL A   1      45.060  28.612  29.309  1.00  0.00     0.074 A 
ATOM     63  C   UNL A   1      44.838  27.364  30.036  1.00  0.00     0.031 C 
ATOM     64  C   UNL A   1      45.068  29.918  29.709  1.00  0.00     0.037 A 
BRANCH  51  65
ATOM     65  C   UNL A   1      43.082  27.986  34.419  1.00  0.00     0.058 A 
ATOM     66  C   UNL A   1      43.279  28.285  35.784  1.00  0.00     0.135 A 
ATOM     67  C   UNL A   1      43.576  26.731  33.997  1.00  0.00     0.135 A 
ATOM     68  F   UNL A   1      42.859  29.453  36.296  1.00  0.00    -0.206 F 
ATOM     69  C   UNL A   1      43.979  27.435  36.643  1.00  0.00     0.059 A 
ATOM     70  C   UNL A   1      44.230  25.847  34.848  1.00  0.00     0.059 A 
ATOM     71  F   UNL A   1      43.537  26.340  32.718  1.00  0.00    -0.206 F 
ATOM     72  C   UNL A   1      44.464  26.224  36.160  1.00  0.00     0.060 A 
BRANCH  72  73
ATOM     73  S   UNL A   1      45.456  25.171  37.232  1.00  0.00     0.124 S 
ATOM     74  O   UNL A   1      44.930  25.520  38.550  1.00  0.00    -0.237 OA
ATOM     75  O   UNL A   1      45.112  23.837  36.743  1.00  0.00    -0.237 OA
ATOM     76  O   UNL A   1      46.819  25.600  36.962  1.00  0.00    -0.744 OA
ENDBRANCH  72  73
ENDBRANCH  51  65
BRANCH  52  77
ATOM     77  C   UNL A   1      43.416  25.351  26.301  1.00  0.00     0.058 A 
ATOM     78  C   UNL A   1      44.356  25.132  25.273  1.00  0.00     0.135 A 
ATOM     79  C   UNL A   1      42.806  24.198  26.832  1.00  0.00     0.135 A 
ATOM     80  F   UNL A   1      45.001  26.170  24.718  1.00  0.00    -0.206 F 
ATOM     81  C   UNL A   1      44.714  23.847  24.846  1.00  0.00     0.059 A 
ATOM     82  C   UNL A   1      43.141  22.908  26.417  1.00  0.00     0.059 A 
ATOM     83  F   UNL A   1      41.928  24.285  27.843  1.00  0.00    -0.206 F 
ATOM     84  C   UNL A   1      44.119  22.739  25.443  1.00  0.00     0.060 A 
BRANCH  84  85
ATOM     85  S   UNL A   1      44.711  21.079  25.029  1.00  0.00     0.124 S 
ATOM     86  O   UNL A   1      46.075  21.106  25.548  1.00  0.00    -0.237 OA
ATOM     87  O   UNL A   1      43.771  20.228  25.752  1.00  0.00    -0.237 OA
ATOM     88  O   UNL A   1      44.600  21.031  23.574  1.00  0.00    -0.744 OA
ENDBRANCH  84  85
ENDBRANCH  52  77
BRANCH  64  89
ATOM     89  C   UNL A   1      45.252  30.982  28.655  1.00  0.00     0.058 A 
ATOM     90  C   UNL A   1      44.213  31.543  27.889  1.00  0.00     0.135 A 
ATOM     91  C   UNL A   1      46.526  31.554  28.516  1.00  0.00     0.135 A 
ATOM     92  F   UNL A   1      42.949  31.121  28.028  1.00  0.00    -0.206 F 
ATOM     93  C   UNL A   1      44.440  32.600  27.001  1.00  0.00     0.059 A 
ATOM     94  C   UNL A   1      46.769  32.625  27.660  1.00  0.00     0.059 A 
ATOM     95  F   UNL A   1      47.550  31.103  29.259  1.00  0.00    -0.206 F 
ATOM     96  C   UNL A   1      45.723  33.136  26.895  1.00  0.00     0.060 A 
BRANCH  96  97
ATOM     97  S   UNL A   1      46.009  34.538  25.792  1.00  0.00     0.124 S 
ATOM     98  O   UNL A   1      45.673  35.676  26.642  1.00  0.00    -0.237 OA
ATOM     99  O   UNL A   1      47.423  34.400  25.456  1.00  0.00    -0.237 OA
ATOM    100  O   UNL A   1      45.090  34.297  24.682  1.00  0.00    -0.744 OA
ENDBRANCH  96  97
ENDBRANCH  64  89
ENDBRANCH  38  39
ENDBRANCH  30  33
ENDBRANCH  28  29
ENDBRANCH  27  28
ENDBRANCH   1  27
TORSDOF 18
ENDMDL
MODEL 2
REMARK VINA RESULT:     -12.5      2.719      9.490
REMARK SMILES CCn1c(N2CCC[C@H](C(=O)NCCCCCCNC(=O)c3ccc(-c4c5nc(c(-c6c(F)cc(S(=O)(=O)[O-])cc6F)c6ccc([nH]6)c(-c6c(F)cc(S(=O)(=O)[O-])cc6F)c6nc(c(-c7c(F)cc(S(=O)(=O)[O-])cc7F)c7ccc4[nH]7)C=C6)C=C5)cc3)C2)nc2cc(C)ccc21
REMARK SMILES IDX 16 1 15 2 14 3 13 4 12 5 10 6 11 7 9 9 5 10 6 11 88 12 7 13
REMARK SMILES IDX 8 14 4 15 3 16 96 17 89 18 90 19 95 20 91 21 94 22 92 23
REMARK SMILES IDX 93 24 2 25 1 26 17 27 18 28 19 29 20 30 21 32 22 33 23 34
REMARK SMILES IDX 87 35 24 36 86 37 25 38 26 39 27 40 80 41 28 42 85 43 79 44
REMARK SMILES IDX 81 45 29 46 84 47 78 48 77 49 30 51 64 52 43 53 63 54 44 55
REMARK SMILES IDX 47 56 62 57 82 58 45 59 46 60 61 62 83 63 48 64 31 65 32 66
REMARK SMILES IDX 41 67 33 68 34 69 40 70 42 71 35 72 36 73 37 74 38 75 39 76
REMARK SMILES IDX 65 77 66 78 75 79 67 80 68 81 74 82 76 83 69 84 70 85 71 86
REMARK SMILES IDX 72 87 73 88 49 89 50 90 59 91 51 92 52 93 58 94 60 95 53 96
REMARK SMILES IDX 54 97 55 98 56 99 57 100
REMARK H PARENT 12 8 19 31 81 50 47 61
REMARK Flexibility Score: inf
ROOT
ATOM      1  C   UNL A   1      35.913  21.503  24.642  1.00  0.00     0.002 C 
ENDROOT
BRANCH   1   2
ATOM      2  C   UNL A   1      34.880  20.412  24.963  1.00  0.00     0.002 C 
BRANCH   2   3
ATOM      3  C   UNL A   1      33.689  20.859  25.811  1.00  0.00     0.021 C 
BRANCH   3   4
ATOM      4  C   UNL A   1      32.366  20.855  25.054  1.00  0.00     0.116 C 
BRANCH   4   5
ATOM      5  N   UNL A   1      31.637  22.101  25.102  1.00  0.00    -0.356 N 
ATOM      6  C   UNL A   1      31.773  23.192  24.305  1.00  0.00     0.224 C 
ATOM      7  O   UNL A   1      30.802  23.959  24.248  1.00  0.00    -0.275 OA
ATOM      8  H   UNL A   1      30.952  22.167  25.806  1.00  0.00     0.163 HD
BRANCH   6   9
ATOM      9  C   UNL A   1      33.051  23.552  23.533  1.00  0.00     0.098 C 
ATOM     10  N   UNL A   1      33.651  25.963  23.640  1.00  0.00    -0.341 N 
ATOM     11  C   UNL A   1      33.543  26.179  22.202  1.00  0.00     0.119 C 
ATOM     12  C   UNL A   1      33.927  24.631  24.156  1.00  0.00     0.133 C 
ATOM     13  C   UNL A   1      32.763  25.084  21.467  1.00  0.00     0.022 C 
ATOM     14  C   UNL A   1      32.910  23.669  22.017  1.00  0.00     0.017 C 
BRANCH  10  15
ATOM     15  C   UNL A   1      33.372  26.971  24.510  1.00  0.00     0.206 A 
ATOM     16  N   UNL A   1      32.187  27.681  24.486  1.00  0.00    -0.310 N 
ATOM     17  C   UNL A   1      32.325  28.767  25.326  1.00  0.00     0.070 A 
ATOM     18  N   UNL A   1      34.185  27.460  25.420  1.00  0.00    -0.213 NA
ATOM     19  C   UNL A   1      33.594  28.616  25.871  1.00  0.00     0.091 A 
ATOM     20  C   UNL A   1      31.495  29.846  25.657  1.00  0.00     0.029 A 
ATOM     21  C   UNL A   1      34.096  29.601  26.739  1.00  0.00     0.034 A 
ATOM     22  C   UNL A   1      32.010  30.812  26.533  1.00  0.00     0.006 A 
ATOM     23  C   UNL A   1      33.300  30.713  27.062  1.00  0.00    -0.049 A 
ATOM     24  C   UNL A   1      33.843  31.792  27.955  1.00  0.00     0.044 C 
BRANCH  16  25
ATOM     25  C   UNL A   1      31.007  27.383  23.700  1.00  0.00     0.122 C 
ATOM     26  C   UNL A   1      30.702  28.398  22.608  1.00  0.00     0.028 C 
ENDBRANCH  16  25
ENDBRANCH  10  15
ENDBRANCH   6   9
ENDBRANCH   4   5
ENDBRANCH   3   4
ENDBRANCH   2   3
ENDBRANCH   1   2
BRANCH   1  27
ATOM     27  C   UNL A   1      37.392  21.131  24.830  1.00  0.00     0.021 C 
BRANCH  27  28
ATOM     28  C   UNL A   1      38.134  21.963  25.872  1.00  0.00     0.116 C 
BRANCH  28  29
ATOM     29  N   UNL A   1      39.576  21.904  25.742  1.00  0.00    -0.352 N 
ATOM     30  C   UNL A   1      40.632  22.653  26.168  1.00  0.00     0.251 C 
ATOM     31  H   UNL A   1      39.866  21.126  25.214  1.00  0.00     0.163 HD
ATOM     32  O   UNL A   1      41.747  22.228  25.850  1.00  0.00    -0.269 OA
BRANCH  30  33
ATOM     33  C   UNL A   1      40.545  23.936  26.918  1.00  0.00     0.039 A 
ATOM     34  C   UNL A   1      39.589  24.932  26.727  1.00  0.00     0.014 A 
ATOM     35  C   UNL A   1      41.558  24.150  27.874  1.00  0.00     0.014 A 
ATOM     36  C   UNL A   1      39.704  26.147  27.397  1.00  0.00     0.010 A 
ATOM     37  C   UNL A   1      41.665  25.353  28.560  1.00  0.00     0.010 A 
ATOM     38  C   UNL A   1      40.767  26.374  28.279  1.00  0.00    -0.014 A 
BRANCH  38  39
ATOM     39  C   UNL A   1      40.833  27.662  28.966  1.00  0.00     0.031 A 
ATOM     40  C   UNL A   1      41.912  28.561  28.466  1.00  0.00     0.074 A 
ATOM     41  C   UNL A   1      39.950  28.059  29.907  1.00  0.00     0.049 A 
ATOM     42  N   UNL A   1      42.976  28.952  29.090  1.00  0.00    -0.248 NA
ATOM     43  C   UNL A   1      41.877  28.953  27.048  1.00  0.00     0.031 C 
ATOM     44  C   UNL A   1      38.702  27.409  30.315  1.00  0.00     0.029 A 
ATOM     45  N   UNL A   1      39.956  29.194  30.663  1.00  0.00    -0.354 N 
ATOM     46  C   UNL A   1      43.640  29.811  28.216  1.00  0.00     0.074 A 
ATOM     47  C   UNL A   1      43.012  29.645  26.932  1.00  0.00     0.031 C 
ATOM     48  C   UNL A   1      37.972  28.264  31.070  1.00  0.00     0.029 A 
ATOM     49  C   UNL A   1      38.760  29.456  31.327  1.00  0.00     0.049 A 
ATOM     50  H   UNL A   1      40.742  29.782  30.732  1.00  0.00     0.167 HD
ATOM     51  C   UNL A   1      44.511  30.755  28.668  1.00  0.00     0.037 A 
ATOM     52  C   UNL A   1      38.436  30.586  32.009  1.00  0.00     0.037 A 
ATOM     53  C   UNL A   1      44.954  30.459  30.007  1.00  0.00     0.049 A 
ATOM     54  C   UNL A   1      39.715  31.248  32.373  1.00  0.00     0.074 A 
ATOM     55  C   UNL A   1      45.674  29.438  30.596  1.00  0.00     0.029 A 
ATOM     56  N   UNL A   1      44.339  31.125  31.036  1.00  0.00    -0.354 N 
ATOM     57  N   UNL A   1      40.585  30.745  33.205  1.00  0.00    -0.248 NA
ATOM     58  C   UNL A   1      40.226  32.269  31.475  1.00  0.00     0.031 C 
ATOM     59  C   UNL A   1      45.082  29.260  31.880  1.00  0.00     0.029 A 
ATOM     60  C   UNL A   1      44.076  30.215  32.027  1.00  0.00     0.049 A 
ATOM     61  H   UNL A   1      44.126  32.086  31.059  1.00  0.00     0.167 HD
ATOM     62  C   UNL A   1      41.820  31.060  32.658  1.00  0.00     0.074 A 
ATOM     63  C   UNL A   1      41.535  32.075  31.645  1.00  0.00     0.031 C 
ATOM     64  C   UNL A   1      42.914  30.276  32.888  1.00  0.00     0.037 A 
BRANCH  51  65
ATOM     65  C   UNL A   1      44.666  32.131  28.056  1.00  0.00     0.058 A 
ATOM     66  C   UNL A   1      45.861  32.463  27.384  1.00  0.00     0.135 A 
ATOM     67  C   UNL A   1      43.816  33.220  28.354  1.00  0.00     0.135 A 
ATOM     68  F   UNL A   1      46.750  31.511  27.057  1.00  0.00    -0.206 F 
ATOM     69  C   UNL A   1      46.217  33.783  27.099  1.00  0.00     0.059 A 
ATOM     70  C   UNL A   1      44.127  34.537  28.032  1.00  0.00     0.059 A 
ATOM     71  F   UNL A   1      42.688  33.076  29.059  1.00  0.00    -0.206 F 
ATOM     72  C   UNL A   1      45.348  34.814  27.442  1.00  0.00     0.060 A 
BRANCH  72  73
ATOM     73  S   UNL A   1      45.846  36.524  27.172  1.00  0.00     0.124 S 
ATOM     74  O   UNL A   1      46.799  36.380  26.074  1.00  0.00    -0.237 OA
ATOM     75  O   UNL A   1      44.573  37.155  26.830  1.00  0.00    -0.237 OA
ATOM     76  O   UNL A   1      46.411  36.919  28.452  1.00  0.00    -0.744 OA
ENDBRANCH  72  73
ENDBRANCH  51  65
BRANCH  52  77
ATOM     77  C   UNL A   1      37.140  31.324  32.015  1.00  0.00     0.058 A 
ATOM     78  C   UNL A   1      36.622  31.877  33.203  1.00  0.00     0.135 A 
ATOM     79  C   UNL A   1      36.549  31.774  30.818  1.00  0.00     0.135 A 
ATOM     80  F   UNL A   1      37.134  31.520  34.391  1.00  0.00    -0.206 F 
ATOM     81  C   UNL A   1      35.626  32.862  33.200  1.00  0.00     0.059 A 
ATOM     82  C   UNL A   1      35.551  32.749  30.791  1.00  0.00     0.059 A 
ATOM     83  F   UNL A   1      36.992  31.348  29.626  1.00  0.00    -0.206 F 
ATOM     84  C   UNL A   1      35.115  33.312  31.985  1.00  0.00     0.060 A 
BRANCH  84  85
ATOM     85  S   UNL A   1      33.967  34.712  31.965  1.00  0.00     0.124 S 
ATOM     86  O   UNL A   1      34.829  35.815  32.376  1.00  0.00    -0.237 OA
ATOM     87  O   UNL A   1      33.529  34.730  30.574  1.00  0.00    -0.237 OA
ATOM     88  O   UNL A   1      32.944  34.327  32.934  1.00  0.00    -0.744 OA
ENDBRANCH  84  85
ENDBRANCH  52  77
BRANCH  64  89
ATOM     89  C   UNL A   1      42.833  29.253  33.995  1.00  0.00     0.058 A 
ATOM     90  C   UNL A   1      42.998  29.534  35.364  1.00  0.00     0.135 A 
ATOM     91  C   UNL A   1      42.432  27.952  33.657  1.00  0.00     0.135 A 
ATOM     92  F   UNL A   1      43.288  30.774  35.782  1.00  0.00    -0.206 F 
ATOM     93  C   UNL A   1      42.809  28.557  36.346  1.00  0.00     0.059 A 
ATOM     94  C   UNL A   1      42.210  26.970  34.619  1.00  0.00     0.059 A 
ATOM     95  F   UNL A   1      42.203  27.632  32.373  1.00  0.00    -0.206 F 
ATOM     96  C   UNL A   1      42.413  27.276  35.963  1.00  0.00     0.060 A 
BRANCH  96  97
ATOM     97  S   UNL A   1      42.111  26.025  37.232  1.00  0.00     0.124 S 
ATOM     98  O   UNL A   1      42.342  24.782  36.504  1.00  0.00    -0.237 OA
ATOM     99  O   UNL A   1      43.105  26.352  38.249  1.00  0.00    -0.237 OA
ATOM    100  O   UNL A   1      40.726  26.265  37.630  1.00  0.00    -0.744 OA
ENDBRANCH  96  97
ENDBRANCH  64  89
ENDBRANCH  38  39
ENDBRANCH  30  33
ENDBRANCH  28  29
ENDBRANCH  27  28
ENDBRANCH   1  27
TORSDOF 18
ENDMDL
MODEL 3
REMARK VINA RESULT:     -12.5      2.744      9.414
REMARK SMILES CCn1c(N2CCC[C@H](C(=O)NCCCCCCNC(=O)c3ccc(-c4c5nc(c(-c6c(F)cc(S(=O)(=O)[O-])cc6F)c6ccc([nH]6)c(-c6c(F)cc(S(=O)(=O)[O-])cc6F)c6nc(c(-c7c(F)cc(S(=O)(=O)[O-])cc7F)c7ccc4[nH]7)C=C6)C=C5)cc3)C2)nc2cc(C)ccc21
REMARK SMILES IDX 16 1 15 2 14 3 13 4 12 5 10 6 11 7 9 9 5 10 6 11 88 12 7 13
REMARK SMILES IDX 8 14 4 15 3 16 96 17 89 18 90 19 95 20 91 21 94 22 92 23
REMARK SMILES IDX 93 24 2 25 1 26 17 27 18 28 19 29 20 30 21 32 22 33 23 34
REMARK SMILES IDX 87 35 24 36 86 37 25 38 26 39 27 40 80 41 28 42 85 43 79 44
REMARK SMILES IDX 81 45 29 46 84 47 78 48 77 49 30 51 64 52 43 53 63 54 44 55
REMARK SMILES IDX 47 56 62 57 82 58 45 59 46 60 61 62 83 63 48 64 31 65 32 66
REMARK SMILES IDX 41 67 33 68 34 69 40 70 42 71 35 72 36 73 37 74 38 75 39 76
REMARK SMILES IDX 65 77 66 78 75 79 67 80 68 81 74 82 76 83 69 84 70 85 71 86
REMARK SMILES IDX 72 87 73 88 49 89 50 90 59 91 51 92 52 93 58 94 60 95 53 96
REMARK SMILES IDX 54 97 55 98 56 99 57 100
REMARK H PARENT 12 8 19 31 81 50 47 61
REMARK Flexibility Score: inf
ROOT
ATOM      1  C   UNL A   1      40.345  22.722  27.604  1.00  0.00     0.002 C 
ENDROOT
BRANCH   1   2
ATOM      2  C   UNL A   1      39.209  23.599  27.055  1.00  0.00     0.002 C 
BRANCH   2   3
ATOM      3  C   UNL A   1      38.315  22.941  26.005  1.00  0.00     0.021 C 
BRANCH   3   4
ATOM      4  C   UNL A   1      36.998  23.676  25.779  1.00  0.00     0.116 C 
BRANCH   4   5
ATOM      5  N   UNL A   1      35.872  23.137  26.503  1.00  0.00    -0.356 N 
ATOM      6  C   UNL A   1      35.091  22.073  26.185  1.00  0.00     0.224 C 
ATOM      7  O   UNL A   1      34.471  21.544  27.117  1.00  0.00    -0.275 OA
ATOM      8  H   UNL A   1      35.639  23.604  27.338  1.00  0.00     0.163 HD
BRANCH   6   9
ATOM      9  C   UNL A   1      34.894  21.534  24.760  1.00  0.00     0.098 C 
ATOM     10  N   UNL A   1      33.224  22.801  23.422  1.00  0.00    -0.341 N 
ATOM     11  C   UNL A   1      32.328  21.665  23.239  1.00  0.00     0.119 C 
ATOM     12  C   UNL A   1      34.638  22.576  23.680  1.00  0.00     0.133 C 
ATOM     13  C   UNL A   1      32.578  20.514  24.219  1.00  0.00     0.022 C 
ATOM     14  C   UNL A   1      34.029  20.283  24.629  1.00  0.00     0.017 C 
BRANCH  10  15
ATOM     15  C   UNL A   1      32.728  24.066  23.479  1.00  0.00     0.206 A 
ATOM     16  N   UNL A   1      32.153  24.600  24.616  1.00  0.00    -0.310 N 
ATOM     17  C   UNL A   1      31.550  25.791  24.269  1.00  0.00     0.070 A 
ATOM     18  N   UNL A   1      32.649  24.916  22.480  1.00  0.00    -0.213 NA
ATOM     19  C   UNL A   1      31.852  25.945  22.921  1.00  0.00     0.091 A 
ATOM     20  C   UNL A   1      30.781  26.728  24.972  1.00  0.00     0.029 A 
ATOM     21  C   UNL A   1      31.330  27.043  22.216  1.00  0.00     0.034 A 
ATOM     22  C   UNL A   1      30.278  27.822  24.253  1.00  0.00     0.006 A 
ATOM     23  C   UNL A   1      30.527  27.981  22.886  1.00  0.00    -0.049 A 
ATOM     24  C   UNL A   1      29.930  29.135  22.132  1.00  0.00     0.044 C 
BRANCH  16  25
ATOM     25  C   UNL A   1      32.138  24.017  25.943  1.00  0.00     0.122 C 
ATOM     26  C   UNL A   1      30.888  23.211  26.265  1.00  0.00     0.028 C 
ENDBRANCH  16  25
ENDBRANCH  10  15
ENDBRANCH   6   9
ENDBRANCH   4   5
ENDBRANCH   3   4
ENDBRANCH   2   3
ENDBRANCH   1   2
BRANCH   1  27
ATOM     27  C   UNL A   1      40.830  21.576  26.703  1.00  0.00     0.021 C 
BRANCH  27  28
ATOM     28  C   UNL A   1      42.338  21.342  26.721  1.00  0.00     0.116 C 
BRANCH  28  29
ATOM     29  N   UNL A   1      43.039  21.997  25.635  1.00  0.00    -0.352 N 
ATOM     30  C   UNL A   1      43.310  23.284  25.276  1.00  0.00     0.251 C 
ATOM     31  H   UNL A   1      43.416  21.349  24.997  1.00  0.00     0.163 HD
ATOM     32  O   UNL A   1      43.987  23.417  24.250  1.00  0.00    -0.269 OA
BRANCH  30  33
ATOM     33  C   UNL A   1      42.823  24.504  25.972  1.00  0.00     0.039 A 
ATOM     34  C   UNL A   1      41.921  25.435  25.459  1.00  0.00     0.014 A 
ATOM     35  C   UNL A   1      43.370  24.733  27.251  1.00  0.00     0.014 A 
ATOM     36  C   UNL A   1      41.656  26.610  26.158  1.00  0.00     0.010 A 
ATOM     37  C   UNL A   1      43.092  25.894  27.961  1.00  0.00     0.010 A 
ATOM     38  C   UNL A   1      42.276  26.859  27.387  1.00  0.00    -0.014 A 
BRANCH  38  39
ATOM     39  C   UNL A   1      41.952  28.101  28.085  1.00  0.00     0.031 A 
ATOM     40  C   UNL A   1      43.001  29.155  27.967  1.00  0.00     0.074 A 
ATOM     41  C   UNL A   1      40.778  28.330  28.710  1.00  0.00     0.049 A 
ATOM     42  N   UNL A   1      43.758  29.635  28.900  1.00  0.00    -0.248 NA
ATOM     43  C   UNL A   1      43.352  29.625  26.617  1.00  0.00     0.031 C 
ATOM     44  C   UNL A   1      39.564  27.508  28.693  1.00  0.00     0.029 A 
ATOM     45  N   UNL A   1      40.397  29.410  29.451  1.00  0.00    -0.354 N 
ATOM     46  C   UNL A   1      44.536  30.620  28.296  1.00  0.00     0.074 A 
ATOM     47  C   UNL A   1      44.363  30.456  26.876  1.00  0.00     0.031 C 
ATOM     48  C   UNL A   1      38.528  28.220  29.198  1.00  0.00     0.029 A 
ATOM     49  C   UNL A   1      39.030  29.482  29.712  1.00  0.00     0.049 A 
ATOM     50  H   UNL A   1      41.036  30.084  29.775  1.00  0.00     0.167 HD
ATOM     51  C   UNL A   1      45.090  31.634  29.016  1.00  0.00     0.037 A 
ATOM     52  C   UNL A   1      38.362  30.521  30.280  1.00  0.00     0.037 A 
ATOM     53  C   UNL A   1      45.135  31.313  30.420  1.00  0.00     0.049 A 
ATOM     54  C   UNL A   1      39.365  31.310  31.040  1.00  0.00     0.074 A 
ATOM     55  C   UNL A   1      45.769  30.355  31.185  1.00  0.00     0.029 A 
ATOM     56  N   UNL A   1      44.148  31.835  31.217  1.00  0.00    -0.354 N 
ATOM     57  N   UNL A   1      39.996  30.868  32.092  1.00  0.00    -0.248 NA
ATOM     58  C   UNL A   1      39.985  32.439  30.367  1.00  0.00     0.031 C 
ATOM     59  C   UNL A   1      44.840  30.027  32.215  1.00  0.00     0.029 A 
ATOM     60  C   UNL A   1      43.718  30.841  32.058  1.00  0.00     0.049 A 
ATOM     61  H   UNL A   1      43.811  32.760  31.191  1.00  0.00     0.167 HD
ATOM     62  C   UNL A   1      41.285  31.365  31.966  1.00  0.00     0.074 A 
ATOM     63  C   UNL A   1      41.192  32.397  30.936  1.00  0.00     0.031 C 
ATOM     64  C   UNL A   1      42.350  30.708  32.513  1.00  0.00     0.037 A 
BRANCH  51  65
ATOM     65  C   UNL A   1      45.239  33.053  28.510  1.00  0.00     0.058 A 
ATOM     66  C   UNL A   1      46.512  33.659  28.501  1.00  0.00     0.135 A 
ATOM     67  C   UNL A   1      44.148  33.931  28.313  1.00  0.00     0.135 A 
ATOM     68  F   UNL A   1      47.621  32.924  28.686  1.00  0.00    -0.206 F 
ATOM     69  C   UNL A   1      46.684  35.040  28.380  1.00  0.00     0.059 A 
ATOM     70  C   UNL A   1      44.301  35.303  28.139  1.00  0.00     0.059 A 
ATOM     71  F   UNL A   1      42.877  33.520  28.378  1.00  0.00    -0.206 F 
ATOM     72  C   UNL A   1      45.568  35.854  28.215  1.00  0.00     0.060 A 
BRANCH  72  73
ATOM     73  S   UNL A   1      45.772  37.643  28.164  1.00  0.00     0.124 S 
ATOM     74  O   UNL A   1      45.642  37.992  29.577  1.00  0.00    -0.237 OA
ATOM     75  O   UNL A   1      47.114  37.774  27.597  1.00  0.00    -0.237 OA
ATOM     76  O   UNL A   1      44.688  38.084  27.301  1.00  0.00    -0.744 OA
ENDBRANCH  72  73
ENDBRANCH  51  65
BRANCH  52  77
ATOM     77  C   UNL A   1      37.040  31.092  29.894  1.00  0.00     0.058 A 
ATOM     78  C   UNL A   1      36.225  31.746  30.839  1.00  0.00     0.135 A 
ATOM     79  C   UNL A   1      36.696  31.291  28.542  1.00  0.00     0.135 A 
ATOM     80  F   UNL A   1      36.487  31.628  32.150  1.00  0.00    -0.206 F 
ATOM     81  C   UNL A   1      35.176  32.595  30.466  1.00  0.00     0.059 A 
ATOM     82  C   UNL A   1      35.651  32.127  28.146  1.00  0.00     0.059 A 
ATOM     83  F   UNL A   1      37.429  30.753  27.556  1.00  0.00    -0.206 F 
ATOM     84  C   UNL A   1      34.913  32.801  29.113  1.00  0.00     0.060 A 
BRANCH  84  85
ATOM     85  S   UNL A   1      33.685  34.037  28.622  1.00  0.00     0.124 S 
ATOM     86  O   UNL A   1      34.519  35.063  28.004  1.00  0.00    -0.237 OA
ATOM     87  O   UNL A   1      32.831  33.279  27.715  1.00  0.00    -0.237 OA
ATOM     88  O   UNL A   1      33.063  34.420  29.887  1.00  0.00    -0.744 OA
ENDBRANCH  84  85
ENDBRANCH  52  77
BRANCH  64  89
ATOM     89  C   UNL A   1      42.071  29.617  33.518  1.00  0.00     0.058 A 
ATOM     90  C   UNL A   1      41.858  28.263  33.197  1.00  0.00     0.135 A 
ATOM     91  C   UNL A   1      42.162  29.941  34.879  1.00  0.00     0.135 A 
ATOM     92  F   UNL A   1      41.852  27.850  31.922  1.00  0.00    -0.206 F 
ATOM     93  C   UNL A   1      41.707  27.286  34.186  1.00  0.00     0.059 A 
ATOM     94  C   UNL A   1      42.044  28.981  35.881  1.00  0.00     0.059 A 
ATOM     95  F   UNL A   1      42.419  31.206  35.253  1.00  0.00    -0.206 F 
ATOM     96  C   UNL A   1      41.803  27.655  35.528  1.00  0.00     0.060 A 
BRANCH  96  97
ATOM     97  S   UNL A   1      41.666  26.387  36.808  1.00  0.00     0.124 S 
ATOM     98  O   UNL A   1      41.666  25.156  36.026  1.00  0.00    -0.237 OA
ATOM     99  O   UNL A   1      42.858  26.618  37.618  1.00  0.00    -0.237 OA
ATOM    100  O   UNL A   1      40.404  26.704  37.473  1.00  0.00    -0.744 OA
ENDBRANCH  96  97
ENDBRANCH  64  89
ENDBRANCH  38  39
ENDBRANCH  30  33
ENDBRANCH  28  29
ENDBRANCH  27  28
ENDBRANCH   1  27
TORSDOF 18
ENDMDL
