MODEL 1
REMARK VINA RESULT:      -8.9      0.000      0.000
REMARK SMILES CC(C)C[C@H]([NH2+]C[C@@](C)(O)C#Cc1ccccc1)C(=O)NCCCCCCNC(=O)c1ccc(-c2c3nc(c(-c4c(F)cc(S(=O)(=O)[O-])cc4F)c4ccc([nH]4)c(-c4c(F)cc(S(=O)(=O)[O-])cc4F)c4nc(c(-c5c(F)cc(S(=O)(=O)[O-])cc5F)c5ccc2[nH]5)C=C4)C=C3)cc1
REMARK SMILES IDX 23 1 22 2 21 3 19 4 20 5 5 7 4 8 2 9 1 10 3 11 6 12 7 15
REMARK SMILES IDX 8 16 9 17 10 18 11 20 12 21 13 22 14 23 18 24 15 25 17 26
REMARK SMILES IDX 16 27 24 28 25 29 26 30 27 31 28 32 29 33 30 35 31 36 32 37
REMARK SMILES IDX 96 38 33 39 95 40 34 41 35 42 36 43 89 44 37 45 94 46 88 47
REMARK SMILES IDX 90 48 38 49 93 50 87 51 86 52 39 54 73 55 52 56 72 57 53 58
REMARK SMILES IDX 56 59 71 60 91 61 54 62 55 63 70 65 92 66 57 67 40 68 41 69
REMARK SMILES IDX 50 70 42 71 43 72 49 73 51 74 44 75 45 76 46 77 47 78 48 79
REMARK SMILES IDX 74 80 75 81 84 82 76 83 77 84 83 85 85 86 78 87 79 88 80 89
REMARK SMILES IDX 81 90 82 91 58 92 59 93 68 94 60 95 61 96 67 97 69 98 62 99
REMARK SMILES IDX 63 100 64 101 65 102 66 103
REMARK H PARENT 21 6 6 13 6 14 10 19 28 34 90 53 56 64
REMARK Flexibility Score: inf
ROOT
ATOM      1  C   UNL A   1      39.412  34.492  29.226  1.00  0.00     0.021 C 
ENDROOT
BRANCH   1   2
ATOM      2  C   UNL A   1      40.842  35.004  29.356  1.00  0.00     0.116 C 
BRANCH   2   3
ATOM      3  N   UNL A   1      41.494  35.239  28.083  1.00  0.00    -0.351 N 
ATOM      4  C   UNL A   1      42.741  35.739  27.823  1.00  0.00     0.278 C 
ATOM      5  O   UNL A   1      43.163  35.644  26.666  1.00  0.00    -0.268 OA
ATOM      6  H   UNL A   1      40.962  35.005  27.288  1.00  0.00     0.163 HD
BRANCH   4   7
ATOM      7  C   UNL A   1      43.604  36.418  28.920  1.00  0.00     0.272 C 
BRANCH   7   8
ATOM      8  C   UNL A   1      43.781  35.534  30.178  1.00  0.00     0.078 C 
BRANCH   8   9
ATOM      9  C   UNL A   1      43.627  36.223  31.553  1.00  0.00    -0.011 C 
ATOM     10  C   UNL A   1      42.802  35.379  32.525  1.00  0.00     0.007 C 
ATOM     11  C   UNL A   1      44.998  36.510  32.180  1.00  0.00     0.007 C 
ENDBRANCH   8   9
ENDBRANCH   7   8
BRANCH   7  12
ATOM     12  N   UNL A   1      43.145  37.798  29.111  1.00  0.00    -0.333 N 
ATOM     13  H   UNL A   1      43.920  38.327  29.510  1.00  0.00     0.347 HD
ATOM     14  H   UNL A   1      42.323  37.724  29.710  1.00  0.00     0.347 HD
BRANCH  12  15
ATOM     15  C   UNL A   1      42.689  38.511  27.928  1.00  0.00     0.310 C 
BRANCH  15  16
ATOM     16  C   UNL A   1      42.649  40.045  28.165  1.00  0.00     0.171 C 
ATOM     17  C   UNL A   1      41.456  40.519  28.996  1.00  0.00     0.063 C 
BRANCH  16  18
ATOM     18  O   UNL A   1      43.850  40.421  28.848  1.00  0.00    -0.372 OA
ATOM     19  H   UNL A   1      43.627  40.973  29.614  1.00  0.00     0.212 HD
ENDBRANCH  16  18
BRANCH  16  20
ATOM     20  C   UNL A   1      42.661  40.753  26.820  1.00  0.00    -0.057 C 
ATOM     21  C   UNL A   1      42.672  41.360  25.666  1.00  0.00    -0.064 C 
BRANCH  21  22
ATOM     22  C   UNL A   1      42.715  42.049  24.415  1.00  0.00     0.025 A 
ATOM     23  C   UNL A   1      41.578  42.100  23.605  1.00  0.00     0.017 A 
ATOM     24  C   UNL A   1      43.900  42.655  23.991  1.00  0.00     0.017 A 
ATOM     25  C   UNL A   1      41.627  42.755  22.373  1.00  0.00     0.001 A 
ATOM     26  C   UNL A   1      43.946  43.310  22.759  1.00  0.00     0.001 A 
ATOM     27  C   UNL A   1      42.811  43.360  21.951  1.00  0.00     0.000 A 
ENDBRANCH  21  22
ENDBRANCH  16  20
ENDBRANCH  15  16
ENDBRANCH  12  15
ENDBRANCH   7  12
ENDBRANCH   4   7
ENDBRANCH   2   3
ENDBRANCH   1   2
BRANCH   1  28
ATOM     28  C   UNL A   1      38.925  33.643  30.402  1.00  0.00     0.002 C 
BRANCH  28  29
ATOM     29  C   UNL A   1      37.513  33.952  30.913  1.00  0.00     0.002 C 
BRANCH  29  30
ATOM     30  C   UNL A   1      36.391  33.927  29.872  1.00  0.00     0.021 C 
BRANCH  30  31
ATOM     31  C   UNL A   1      36.115  32.575  29.230  1.00  0.00     0.116 C 
BRANCH  31  32
ATOM     32  N   UNL A   1      35.773  31.547  30.196  1.00  0.00    -0.352 N 
ATOM     33  C   UNL A   1      36.488  30.438  30.585  1.00  0.00     0.251 C 
ATOM     34  H   UNL A   1      34.900  31.660  30.638  1.00  0.00     0.163 HD
ATOM     35  O   UNL A   1      35.978  29.614  31.331  1.00  0.00    -0.269 OA
BRANCH  33  36
ATOM     36  C   UNL A   1      37.861  30.226  30.068  1.00  0.00     0.039 A 
ATOM     37  C   UNL A   1      38.108  30.111  28.699  1.00  0.00     0.014 A 
ATOM     38  C   UNL A   1      38.920  30.136  30.977  1.00  0.00     0.014 A 
ATOM     39  C   UNL A   1      39.375  29.747  28.253  1.00  0.00     0.010 A 
ATOM     40  C   UNL A   1      40.211  29.855  30.519  1.00  0.00     0.010 A 
ATOM     41  C   UNL A   1      40.442  29.613  29.156  1.00  0.00    -0.014 A 
BRANCH  41  42
ATOM     42  C   UNL A   1      41.786  29.233  28.647  1.00  0.00     0.031 A 
ATOM     43  C   UNL A   1      42.926  30.217  28.660  1.00  0.00     0.074 A 
ATOM     44  C   UNL A   1      41.992  27.969  28.226  1.00  0.00     0.049 A 
ATOM     45  N   UNL A   1      44.172  30.037  28.301  1.00  0.00    -0.248 NA
ATOM     46  C   UNL A   1      42.633  31.579  29.136  1.00  0.00     0.031 C 
ATOM     47  C   UNL A   1      40.966  26.926  28.167  1.00  0.00     0.029 A 
ATOM     48  N   UNL A   1      43.133  27.336  27.798  1.00  0.00    -0.354 N 
ATOM     49  C   UNL A   1      44.808  31.260  28.493  1.00  0.00     0.074 A 
ATOM     50  C   UNL A   1      43.802  32.184  28.970  1.00  0.00     0.031 C 
ATOM     51  C   UNL A   1      41.534  25.770  27.791  1.00  0.00     0.029 A 
ATOM     52  C   UNL A   1      42.949  26.002  27.522  1.00  0.00     0.049 A 
ATOM     53  H   UNL A   1      43.998  27.793  27.699  1.00  0.00     0.167 HD
ATOM     54  C   UNL A   1      46.111  31.576  28.303  1.00  0.00     0.037 A 
ATOM     55  C   UNL A   1      43.820  25.067  27.095  1.00  0.00     0.037 A 
ATOM     56  C   UNL A   1      47.111  30.647  27.844  1.00  0.00     0.049 A 
ATOM     57  C   UNL A   1      45.252  25.452  26.859  1.00  0.00     0.074 A 
ATOM     58  C   UNL A   1      48.462  30.870  27.637  1.00  0.00     0.029 A 
ATOM     59  N   UNL A   1      46.873  29.318  27.522  1.00  0.00    -0.354 N 
ATOM     60  N   UNL A   1      45.833  26.610  27.054  1.00  0.00    -0.248 NA
ATOM     61  C   UNL A   1      46.143  24.409  26.333  1.00  0.00     0.031 C 
ATOM     62  C   UNL A   1      49.032  29.688  27.154  1.00  0.00     0.029 A 
ATOM     63  C   UNL A   1      48.047  28.716  27.102  1.00  0.00     0.049 A 
ATOM     64  H   UNL A   1      45.999  28.870  27.584  1.00  0.00     0.167 HD
ATOM     65  C   UNL A   1      47.161  26.435  26.687  1.00  0.00     0.074 A 
ATOM     66  C   UNL A   1      47.302  25.053  26.272  1.00  0.00     0.031 C 
ATOM     67  C   UNL A   1      48.171  27.338  26.690  1.00  0.00     0.037 A 
BRANCH  54  68
ATOM     68  C   UNL A   1      46.539  32.990  28.587  1.00  0.00     0.058 A 
ATOM     69  C   UNL A   1      46.471  33.990  27.605  1.00  0.00     0.135 A 
ATOM     70  C   UNL A   1      46.969  33.363  29.871  1.00  0.00     0.135 A 
ATOM     71  F   UNL A   1      46.080  33.686  26.357  1.00  0.00    -0.206 F 
ATOM     72  C   UNL A   1      46.833  35.305  27.879  1.00  0.00     0.059 A 
ATOM     73  C   UNL A   1      47.314  34.677  30.175  1.00  0.00     0.059 A 
ATOM     74  F   UNL A   1      47.052  32.446  30.849  1.00  0.00    -0.206 F 
ATOM     75  C   UNL A   1      47.254  35.639  29.168  1.00  0.00     0.060 A 
BRANCH  75  76
ATOM     76  S   UNL A   1      47.714  37.353  29.505  1.00  0.00     0.124 S 
ATOM     77  O   UNL A   1      48.588  37.646  28.373  1.00  0.00    -0.237 OA
ATOM     78  O   UNL A   1      46.422  38.029  29.497  1.00  0.00    -0.237 OA
ATOM     79  O   UNL A   1      48.374  37.279  30.804  1.00  0.00    -0.744 OA
ENDBRANCH  75  76
ENDBRANCH  54  68
BRANCH  55  80
ATOM     80  C   UNL A   1      43.350  23.673  26.880  1.00  0.00     0.058 A 
ATOM     81  C   UNL A   1      43.124  23.182  25.586  1.00  0.00     0.135 A 
ATOM     82  C   UNL A   1      43.169  22.791  27.956  1.00  0.00     0.135 A 
ATOM     83  F   UNL A   1      43.278  23.988  24.525  1.00  0.00    -0.206 F 
ATOM     84  C   UNL A   1      42.739  21.863  25.366  1.00  0.00     0.059 A 
ATOM     85  C   UNL A   1      42.809  21.463  27.761  1.00  0.00     0.059 A 
ATOM     86  F   UNL A   1      43.386  23.211  29.213  1.00  0.00    -0.206 F 
ATOM     87  C   UNL A   1      42.593  21.008  26.461  1.00  0.00     0.060 A 
BRANCH  87  88
ATOM     88  S   UNL A   1      42.170  19.279  26.158  1.00  0.00     0.124 S 
ATOM     89  O   UNL A   1      43.008  18.971  25.004  1.00  0.00    -0.237 OA
ATOM     90  O   UNL A   1      42.556  18.645  27.415  1.00  0.00    -0.237 OA
ATOM     91  O   UNL A   1      40.734  19.324  25.903  1.00  0.00    -0.744 OA
ENDBRANCH  87  88
ENDBRANCH  55  80
BRANCH  67  92
ATOM     92  C   UNL A   1      49.526  26.869  26.244  1.00  0.00     0.058 A 
ATOM     93  C   UNL A   1      50.435  26.296  27.146  1.00  0.00     0.135 A 
ATOM     94  C   UNL A   1      49.886  26.916  24.888  1.00  0.00     0.135 A 
ATOM     95  F   UNL A   1      50.141  26.236  28.455  1.00  0.00    -0.206 F 
ATOM     96  C   UNL A   1      51.658  25.790  26.720  1.00  0.00     0.059 A 
ATOM     97  C   UNL A   1      51.095  26.396  24.435  1.00  0.00     0.059 A 
ATOM     98  F   UNL A   1      49.047  27.449  23.983  1.00  0.00    -0.206 F 
ATOM     99  C   UNL A   1      51.976  25.837  25.361  1.00  0.00     0.060 A 
BRANCH  99 100
ATOM    100  S   UNL A   1      53.541  25.121  24.815  1.00  0.00     0.124 S 
ATOM    101  O   UNL A   1      53.375  23.724  25.197  1.00  0.00    -0.237 OA
ATOM    102  O   UNL A   1      53.522  25.394  23.381  1.00  0.00    -0.237 OA
ATOM    103  O   UNL A   1      54.539  25.866  25.576  1.00  0.00    -0.744 OA
ENDBRANCH  99 100
ENDBRANCH  67  92
ENDBRANCH  41  42
ENDBRANCH  33  36
ENDBRANCH  31  32
ENDBRANCH  30  31
ENDBRANCH  29  30
ENDBRANCH  28  29
ENDBRANCH   1  28
TORSDOF 24
ENDMDL
MODEL 2
REMARK VINA RESULT:      -8.6      4.681     11.651
REMARK SMILES CC(C)C[C@H]([NH2+]C[C@@](C)(O)C#Cc1ccccc1)C(=O)NCCCCCCNC(=O)c1ccc(-c2c3nc(c(-c4c(F)cc(S(=O)(=O)[O-])cc4F)c4ccc([nH]4)c(-c4c(F)cc(S(=O)(=O)[O-])cc4F)c4nc(c(-c5c(F)cc(S(=O)(=O)[O-])cc5F)c5ccc2[nH]5)C=C4)C=C3)cc1
REMARK SMILES IDX 23 1 22 2 21 3 19 4 20 5 5 7 4 8 2 9 1 10 3 11 6 12 7 15
REMARK SMILES IDX 8 16 9 17 10 18 11 20 12 21 13 22 14 23 18 24 15 25 17 26
REMARK SMILES IDX 16 27 24 28 25 29 26 30 27 31 28 32 29 33 30 35 31 36 32 37
REMARK SMILES IDX 96 38 33 39 95 40 34 41 35 42 36 43 89 44 37 45 94 46 88 47
REMARK SMILES IDX 90 48 38 49 93 50 87 51 86 52 39 54 73 55 52 56 72 57 53 58
REMARK SMILES IDX 56 59 71 60 91 61 54 62 55 63 70 65 92 66 57 67 40 68 41 69
REMARK SMILES IDX 50 70 42 71 43 72 49 73 51 74 44 75 45 76 46 77 47 78 48 79
REMARK SMILES IDX 74 80 75 81 84 82 76 83 77 84 83 85 85 86 78 87 79 88 80 89
REMARK SMILES IDX 81 90 82 91 58 92 59 93 68 94 60 95 61 96 67 97 69 98 62 99
REMARK SMILES IDX 63 100 64 101 65 102 66 103
REMARK H PARENT 21 6 6 13 6 14 10 19 28 34 90 53 56 64
REMARK Flexibility Score: inf
ROOT
ATOM      1  C   UNL A   1      44.983  24.593  29.916  1.00  0.00     0.021 C 
ENDROOT
BRANCH   1   2
ATOM      2  C   UNL A   1      44.286  23.852  28.782  1.00  0.00     0.116 C 
BRANCH   2   3
ATOM      3  N   UNL A   1      45.199  23.204  27.861  1.00  0.00    -0.351 N 
ATOM      4  C   UNL A   1      44.932  22.517  26.709  1.00  0.00     0.278 C 
ATOM      5  O   UNL A   1      45.887  22.241  25.974  1.00  0.00    -0.268 OA
ATOM      6  H   UNL A   1      46.153  23.267  28.100  1.00  0.00     0.163 HD
BRANCH   4   7
ATOM      7  C   UNL A   1      43.494  22.075  26.325  1.00  0.00     0.272 C 
BRANCH   7   8
ATOM      8  C   UNL A   1      43.446  20.660  25.701  1.00  0.00     0.078 C 
BRANCH   8   9
ATOM      9  C   UNL A   1      42.291  19.732  26.141  1.00  0.00    -0.011 C 
ATOM     10  C   UNL A   1      42.773  18.306  26.403  1.00  0.00     0.007 C 
ATOM     11  C   UNL A   1      41.607  20.269  27.406  1.00  0.00     0.007 C 
ENDBRANCH   8   9
ENDBRANCH   7   8
BRANCH   7  12
ATOM     12  N   UNL A   1      42.829  23.166  25.605  1.00  0.00    -0.333 N 
ATOM     13  H   UNL A   1      42.373  22.762  24.787  1.00  0.00     0.347 HD
ATOM     14  H   UNL A   1      43.569  23.836  25.396  1.00  0.00     0.347 HD
BRANCH  12  15
ATOM     15  C   UNL A   1      41.828  23.927  26.336  1.00  0.00     0.310 C 
BRANCH  15  16
ATOM     16  C   UNL A   1      41.940  25.448  26.047  1.00  0.00     0.171 C 
ATOM     17  C   UNL A   1      43.363  25.926  25.757  1.00  0.00     0.063 C 
BRANCH  16  18
ATOM     18  O   UNL A   1      41.125  25.746  24.907  1.00  0.00    -0.372 OA
ATOM     19  H   UNL A   1      41.572  26.407  24.355  1.00  0.00     0.212 HD
ENDBRANCH  16  18
BRANCH  16  20
ATOM     20  C   UNL A   1      41.360  26.218  27.221  1.00  0.00    -0.057 C 
ATOM     21  C   UNL A   1      40.864  26.879  28.229  1.00  0.00    -0.064 C 
BRANCH  21  22
ATOM     22  C   UNL A   1      40.280  27.594  29.321  1.00  0.00     0.025 A 
ATOM     23  C   UNL A   1      40.773  28.851  29.677  1.00  0.00     0.017 A 
ATOM     24  C   UNL A   1      39.230  27.027  30.047  1.00  0.00     0.017 A 
ATOM     25  C   UNL A   1      40.217  29.539  30.757  1.00  0.00     0.001 A 
ATOM     26  C   UNL A   1      38.675  27.717  31.126  1.00  0.00     0.001 A 
ATOM     27  C   UNL A   1      39.169  28.972  31.480  1.00  0.00     0.000 A 
ENDBRANCH  21  22
ENDBRANCH  16  20
ENDBRANCH  15  16
ENDBRANCH  12  15
ENDBRANCH   7  12
ENDBRANCH   4   7
ENDBRANCH   2   3
ENDBRANCH   1   2
BRANCH   1  28
ATOM     28  C   UNL A   1      44.108  24.861  31.142  1.00  0.00     0.002 C 
BRANCH  28  29
ATOM     29  C   UNL A   1      44.796  24.713  32.503  1.00  0.00     0.002 C 
BRANCH  29  30
ATOM     30  C   UNL A   1      44.284  23.587  33.406  1.00  0.00     0.021 C 
BRANCH  30  31
ATOM     31  C   UNL A   1      44.487  23.794  34.900  1.00  0.00     0.116 C 
BRANCH  31  32
ATOM     32  N   UNL A   1      43.252  23.701  35.658  1.00  0.00    -0.352 N 
ATOM     33  C   UNL A   1      42.322  24.675  35.940  1.00  0.00     0.251 C 
ATOM     34  H   UNL A   1      43.052  22.810  36.027  1.00  0.00     0.163 HD
ATOM     35  O   UNL A   1      41.398  24.433  36.704  1.00  0.00    -0.269 OA
BRANCH  33  36
ATOM     36  C   UNL A   1      42.463  26.025  35.345  1.00  0.00     0.039 A 
ATOM     37  C   UNL A   1      41.434  26.595  34.593  1.00  0.00     0.014 A 
ATOM     38  C   UNL A   1      43.655  26.729  35.539  1.00  0.00     0.014 A 
ATOM     39  C   UNL A   1      41.655  27.786  33.909  1.00  0.00     0.010 A 
ATOM     40  C   UNL A   1      43.844  27.969  34.920  1.00  0.00     0.010 A 
ATOM     41  C   UNL A   1      42.862  28.488  34.062  1.00  0.00    -0.014 A 
BRANCH  41  42
ATOM     42  C   UNL A   1      43.063  29.763  33.325  1.00  0.00     0.031 A 
ATOM     43  C   UNL A   1      42.776  31.089  33.979  1.00  0.00     0.074 A 
ATOM     44  C   UNL A   1      43.568  29.723  32.075  1.00  0.00     0.049 A 
ATOM     45  N   UNL A   1      42.942  32.296  33.499  1.00  0.00    -0.248 NA
ATOM     46  C   UNL A   1      42.230  31.060  35.345  1.00  0.00     0.031 C 
ATOM     47  C   UNL A   1      43.887  28.499  31.337  1.00  0.00     0.029 A 
ATOM     48  N   UNL A   1      43.931  30.732  31.218  1.00  0.00    -0.354 N 
ATOM     49  C   UNL A   1      42.512  33.168  34.494  1.00  0.00     0.074 A 
ATOM     50  C   UNL A   1      42.046  32.350  35.593  1.00  0.00     0.031 C 
ATOM     51  C   UNL A   1      44.455  28.826  30.166  1.00  0.00     0.029 A 
ATOM     52  C   UNL A   1      44.485  30.280  30.043  1.00  0.00     0.049 A 
ATOM     53  H   UNL A   1      43.806  31.685  31.423  1.00  0.00     0.167 HD
ATOM     54  C   UNL A   1      42.520  34.522  34.496  1.00  0.00     0.037 A 
ATOM     55  C   UNL A   1      44.960  30.957  28.980  1.00  0.00     0.037 A 
ATOM     56  C   UNL A   1      43.002  35.330  33.405  1.00  0.00     0.049 A 
ATOM     57  C   UNL A   1      44.926  32.458  28.992  1.00  0.00     0.074 A 
ATOM     58  C   UNL A   1      43.067  36.710  33.320  1.00  0.00     0.029 A 
ATOM     59  N   UNL A   1      43.504  34.834  32.210  1.00  0.00    -0.354 N 
ATOM     60  N   UNL A   1      44.522  33.262  29.946  1.00  0.00    -0.248 NA
ATOM     61  C   UNL A   1      45.398  33.144  27.782  1.00  0.00     0.031 C 
ATOM     62  C   UNL A   1      43.571  37.049  32.060  1.00  0.00     0.029 A 
ATOM     63  C   UNL A   1      43.863  35.880  31.376  1.00  0.00     0.049 A 
ATOM     64  H   UNL A   1      43.593  33.879  31.988  1.00  0.00     0.167 HD
ATOM     65  C   UNL A   1      44.702  34.550  29.457  1.00  0.00     0.074 A 
ATOM     66  C   UNL A   1      45.265  34.419  28.128  1.00  0.00     0.031 C 
ATOM     67  C   UNL A   1      44.422  35.733  30.055  1.00  0.00     0.037 A 
BRANCH  54  68
ATOM     68  C   UNL A   1      41.988  35.226  35.714  1.00  0.00     0.058 A 
ATOM     69  C   UNL A   1      40.642  35.610  35.811  1.00  0.00     0.135 A 
ATOM     70  C   UNL A   1      42.820  35.471  36.820  1.00  0.00     0.135 A 
ATOM     71  F   UNL A   1      39.806  35.414  34.779  1.00  0.00    -0.206 F 
ATOM     72  C   UNL A   1      40.143  36.230  36.953  1.00  0.00     0.059 A 
ATOM     73  C   UNL A   1      42.337  36.067  37.981  1.00  0.00     0.059 A 
ATOM     74  F   UNL A   1      44.116  35.122  36.779  1.00  0.00    -0.206 F 
ATOM     75  C   UNL A   1      40.999  36.454  38.033  1.00  0.00     0.060 A 
BRANCH  75  76
ATOM     76  S   UNL A   1      40.330  37.253  39.508  1.00  0.00     0.124 S 
ATOM     77  O   UNL A   1      41.277  38.348  39.699  1.00  0.00    -0.237 OA
ATOM     78  O   UNL A   1      38.994  37.642  39.072  1.00  0.00    -0.237 OA
ATOM     79  O   UNL A   1      40.377  36.200  40.518  1.00  0.00    -0.744 OA
ENDBRANCH  75  76
ENDBRANCH  54  68
BRANCH  55  80
ATOM     80  C   UNL A   1      45.520  30.207  27.826  1.00  0.00     0.058 A 
ATOM     81  C   UNL A   1      46.903  30.013  27.696  1.00  0.00     0.135 A 
ATOM     82  C   UNL A   1      44.684  29.625  26.861  1.00  0.00     0.135 A 
ATOM     83  F   UNL A   1      47.744  30.555  28.589  1.00  0.00    -0.206 F 
ATOM     84  C   UNL A   1      47.437  29.265  26.652  1.00  0.00     0.059 A 
ATOM     85  C   UNL A   1      45.191  28.852  25.822  1.00  0.00     0.059 A 
ATOM     86  F   UNL A   1      43.352  29.771  26.950  1.00  0.00    -0.206 F 
ATOM     87  C   UNL A   1      46.571  28.680  25.724  1.00  0.00     0.060 A 
BRANCH  87  88
ATOM     88  S   UNL A   1      47.271  27.646  24.420  1.00  0.00     0.124 S 
ATOM     89  O   UNL A   1      46.765  28.305  23.221  1.00  0.00    -0.237 OA
ATOM     90  O   UNL A   1      48.704  27.775  24.664  1.00  0.00    -0.237 OA
ATOM     91  O   UNL A   1      46.711  26.327  24.701  1.00  0.00    -0.744 OA
ENDBRANCH  87  88
ENDBRANCH  55  80
BRANCH  67  92
ATOM     92  C   UNL A   1      44.727  36.989  29.289  1.00  0.00     0.058 A 
ATOM     93  C   UNL A   1      43.743  37.638  28.528  1.00  0.00     0.135 A 
ATOM     94  C   UNL A   1      45.991  37.592  29.384  1.00  0.00     0.135 A 
ATOM     95  F   UNL A   1      42.522  37.096  28.398  1.00  0.00    -0.206 F 
ATOM     96  C   UNL A   1      44.004  38.842  27.882  1.00  0.00     0.059 A 
ATOM     97  C   UNL A   1      46.268  38.807  28.764  1.00  0.00     0.059 A 
ATOM     98  F   UNL A   1      46.965  37.013  30.106  1.00  0.00    -0.206 F 
ATOM     99  C   UNL A   1      45.267  39.422  28.013  1.00  0.00     0.060 A 
BRANCH  99 100
ATOM    100  S   UNL A   1      45.571  41.015  27.219  1.00  0.00     0.124 S 
ATOM    101  O   UNL A   1      44.217  41.537  27.075  1.00  0.00    -0.237 OA
ATOM    102  O   UNL A   1      46.412  41.695  28.199  1.00  0.00    -0.237 OA
ATOM    103  O   UNL A   1      46.239  40.653  25.973  1.00  0.00    -0.744 OA
ENDBRANCH  99 100
ENDBRANCH  67  92
ENDBRANCH  41  42
ENDBRANCH  33  36
ENDBRANCH  31  32
ENDBRANCH  30  31
ENDBRANCH  29  30
ENDBRANCH  28  29
ENDBRANCH   1  28
TORSDOF 24
ENDMDL
MODEL 3
REMARK VINA RESULT:      -8.6      1.340      2.950
REMARK SMILES CC(C)C[C@H]([NH2+]C[C@@](C)(O)C#Cc1ccccc1)C(=O)NCCCCCCNC(=O)c1ccc(-c2c3nc(c(-c4c(F)cc(S(=O)(=O)[O-])cc4F)c4ccc([nH]4)c(-c4c(F)cc(S(=O)(=O)[O-])cc4F)c4nc(c(-c5c(F)cc(S(=O)(=O)[O-])cc5F)c5ccc2[nH]5)C=C4)C=C3)cc1
REMARK SMILES IDX 23 1 22 2 21 3 19 4 20 5 5 7 4 8 2 9 1 10 3 11 6 12 7 15
REMARK SMILES IDX 8 16 9 17 10 18 11 20 12 21 13 22 14 23 18 24 15 25 17 26
REMARK SMILES IDX 16 27 24 28 25 29 26 30 27 31 28 32 29 33 30 35 31 36 32 37
REMARK SMILES IDX 96 38 33 39 95 40 34 41 35 42 36 43 89 44 37 45 94 46 88 47
REMARK SMILES IDX 90 48 38 49 93 50 87 51 86 52 39 54 73 55 52 56 72 57 53 58
REMARK SMILES IDX 56 59 71 60 91 61 54 62 55 63 70 65 92 66 57 67 40 68 41 69
REMARK SMILES IDX 50 70 42 71 43 72 49 73 51 74 44 75 45 76 46 77 47 78 48 79
REMARK SMILES IDX 74 80 75 81 84 82 76 83 77 84 83 85 85 86 78 87 79 88 80 89
REMARK SMILES IDX 81 90 82 91 58 92 59 93 68 94 60 95 61 96 67 97 69 98 62 99
REMARK SMILES IDX 63 100 64 101 65 102 66 103
REMARK H PARENT 21 6 6 13 6 14 10 19 28 34 90 53 56 64
REMARK Flexibility Score: inf
ROOT
ATOM      1  C   UNL A   1      39.695  34.504  29.451  1.00  0.00     0.021 C 
ENDROOT
BRANCH   1   2
ATOM      2  C   UNL A   1      41.076  35.132  29.304  1.00  0.00     0.116 C 
BRANCH   2   3
ATOM      3  N   UNL A   1      41.489  35.316  27.928  1.00  0.00    -0.351 N 
ATOM      4  C   UNL A   1      42.569  35.989  27.425  1.00  0.00     0.278 C 
ATOM      5  O   UNL A   1      42.838  35.824  26.230  1.00  0.00    -0.268 OA
ATOM      6  H   UNL A   1      40.908  34.894  27.253  1.00  0.00     0.163 HD
BRANCH   4   7
ATOM      7  C   UNL A   1      43.429  36.941  28.300  1.00  0.00     0.272 C 
BRANCH   7   8
ATOM      8  C   UNL A   1      44.112  36.216  29.484  1.00  0.00     0.078 C 
BRANCH   8   9
ATOM      9  C   UNL A   1      43.721  36.666  30.909  1.00  0.00    -0.011 C 
ATOM     10  C   UNL A   1      43.802  35.517  31.914  1.00  0.00     0.007 C 
ATOM     11  C   UNL A   1      44.619  37.814  31.389  1.00  0.00     0.007 C 
ENDBRANCH   8   9
ENDBRANCH   7   8
BRANCH   7  12
ATOM     12  N   UNL A   1      42.660  38.155  28.590  1.00  0.00    -0.333 N 
ATOM     13  H   UNL A   1      43.293  38.820  29.035  1.00  0.00     0.347 HD
ATOM     14  H   UNL A   1      41.884  37.845  29.175  1.00  0.00     0.347 HD
BRANCH  12  15
ATOM     15  C   UNL A   1      42.037  38.829  27.462  1.00  0.00     0.310 C 
BRANCH  15  16
ATOM     16  C   UNL A   1      42.264  40.363  27.514  1.00  0.00     0.171 C 
ATOM     17  C   UNL A   1      43.354  40.867  26.567  1.00  0.00     0.063 C 
BRANCH  16  18
ATOM     18  O   UNL A   1      41.034  41.008  27.164  1.00  0.00    -0.372 OA
ATOM     19  H   UNL A   1      40.302  40.377  27.254  1.00  0.00     0.212 HD
ENDBRANCH  16  18
BRANCH  16  20
ATOM     20  C   UNL A   1      42.587  40.767  28.943  1.00  0.00    -0.057 C 
ATOM     21  C   UNL A   1      42.864  41.113  30.169  1.00  0.00    -0.064 C 
BRANCH  21  22
ATOM     22  C   UNL A   1      43.151  41.530  31.506  1.00  0.00     0.025 A 
ATOM     23  C   UNL A   1      42.112  41.695  32.425  1.00  0.00     0.017 A 
ATOM     24  C   UNL A   1      44.467  41.795  31.889  1.00  0.00     0.017 A 
ATOM     25  C   UNL A   1      42.390  42.123  33.724  1.00  0.00     0.001 A 
ATOM     26  C   UNL A   1      44.744  42.223  33.188  1.00  0.00     0.001 A 
ATOM     27  C   UNL A   1      43.706  42.387  34.105  1.00  0.00     0.000 A 
ENDBRANCH  21  22
ENDBRANCH  16  20
ENDBRANCH  15  16
ENDBRANCH  12  15
ENDBRANCH   7  12
ENDBRANCH   4   7
ENDBRANCH   2   3
ENDBRANCH   1   2
BRANCH   1  28
ATOM     28  C   UNL A   1      39.485  33.708  30.740  1.00  0.00     0.002 C 
BRANCH  28  29
ATOM     29  C   UNL A   1      38.187  33.996  31.503  1.00  0.00     0.002 C 
BRANCH  29  30
ATOM     30  C   UNL A   1      36.918  34.136  30.659  1.00  0.00     0.021 C 
BRANCH  30  31
ATOM     31  C   UNL A   1      36.507  32.899  29.873  1.00  0.00     0.116 C 
BRANCH  31  32
ATOM     32  N   UNL A   1      36.124  31.787  30.725  1.00  0.00    -0.352 N 
ATOM     33  C   UNL A   1      36.785  30.606  30.972  1.00  0.00     0.251 C 
ATOM     34  H   UNL A   1      35.265  31.894  31.193  1.00  0.00     0.163 HD
ATOM     35  O   UNL A   1      36.242  29.730  31.631  1.00  0.00    -0.269 OA
BRANCH  33  36
ATOM     36  C   UNL A   1      38.138  30.385  30.409  1.00  0.00     0.039 A 
ATOM     37  C   UNL A   1      38.351  30.363  29.029  1.00  0.00     0.014 A 
ATOM     38  C   UNL A   1      39.212  30.189  31.282  1.00  0.00     0.014 A 
ATOM     39  C   UNL A   1      39.593  29.988  28.527  1.00  0.00     0.010 A 
ATOM     40  C   UNL A   1      40.482  29.896  30.774  1.00  0.00     0.010 A 
ATOM     41  C   UNL A   1      40.674  29.749  29.392  1.00  0.00    -0.014 A 
BRANCH  41  42
ATOM     42  C   UNL A   1      41.992  29.360  28.823  1.00  0.00     0.031 A 
ATOM     43  C   UNL A   1      43.138  30.336  28.787  1.00  0.00     0.074 A 
ATOM     44  C   UNL A   1      42.170  28.095  28.393  1.00  0.00     0.049 A 
ATOM     45  N   UNL A   1      44.365  30.148  28.373  1.00  0.00    -0.248 NA
ATOM     46  C   UNL A   1      42.875  31.699  29.276  1.00  0.00     0.031 C 
ATOM     47  C   UNL A   1      41.135  27.059  28.379  1.00  0.00     0.029 A 
ATOM     48  N   UNL A   1      43.286  27.455  27.916  1.00  0.00    -0.354 N 
ATOM     49  C   UNL A   1      45.017  31.366  28.538  1.00  0.00     0.074 A 
ATOM     50  C   UNL A   1      44.040  32.297  29.059  1.00  0.00     0.031 C 
ATOM     51  C   UNL A   1      41.678  25.899  27.978  1.00  0.00     0.029 A 
ATOM     52  C   UNL A   1      43.082  26.122  27.647  1.00  0.00     0.049 A 
ATOM     53  H   UNL A   1      44.149  27.906  27.779  1.00  0.00     0.167 HD
ATOM     54  C   UNL A   1      46.313  31.674  28.291  1.00  0.00     0.037 A 
ATOM     55  C   UNL A   1      43.926  25.181  27.182  1.00  0.00     0.037 A 
ATOM     56  C   UNL A   1      47.286  30.738  27.788  1.00  0.00     0.049 A 
ATOM     57  C   UNL A   1      45.349  25.556  26.884  1.00  0.00     0.074 A 
ATOM     58  C   UNL A   1      48.627  30.952  27.522  1.00  0.00     0.029 A 
ATOM     59  N   UNL A   1      47.024  29.411  27.477  1.00  0.00    -0.354 N 
ATOM     60  N   UNL A   1      45.946  26.711  27.053  1.00  0.00    -0.248 NA
ATOM     61  C   UNL A   1      46.209  24.508  26.318  1.00  0.00     0.031 C 
ATOM     62  C   UNL A   1      49.168  29.766  27.014  1.00  0.00     0.029 A 
ATOM     63  C   UNL A   1      48.175  28.801  27.004  1.00  0.00     0.049 A 
ATOM     64  H   UNL A   1      46.151  28.969  27.576  1.00  0.00     0.167 HD
ATOM     65  C   UNL A   1      47.256  26.526  26.628  1.00  0.00     0.074 A 
ATOM     66  C   UNL A   1      47.368  25.145  26.206  1.00  0.00     0.031 C 
ATOM     67  C   UNL A   1      48.271  27.423  26.587  1.00  0.00     0.037 A 
BRANCH  54  68
ATOM     68  C   UNL A   1      46.763  33.085  28.557  1.00  0.00     0.058 A 
ATOM     69  C   UNL A   1      46.675  34.082  27.573  1.00  0.00     0.135 A 
ATOM     70  C   UNL A   1      47.235  33.458  29.826  1.00  0.00     0.135 A 
ATOM     71  F   UNL A   1      46.245  33.777  26.338  1.00  0.00    -0.206 F 
ATOM     72  C   UNL A   1      47.059  35.394  27.831  1.00  0.00     0.059 A 
ATOM     73  C   UNL A   1      47.601  34.770  30.114  1.00  0.00     0.059 A 
ATOM     74  F   UNL A   1      47.338  32.544  30.804  1.00  0.00    -0.206 F 
ATOM     75  C   UNL A   1      47.521  35.729  29.105  1.00  0.00     0.060 A 
BRANCH  75  76
ATOM     76  S   UNL A   1      48.007  37.439  29.422  1.00  0.00     0.124 S 
ATOM     77  O   UNL A   1      46.863  38.170  28.885  1.00  0.00    -0.237 OA
ATOM     78  O   UNL A   1      48.145  37.459  30.874  1.00  0.00    -0.237 OA
ATOM     79  O   UNL A   1      49.251  37.583  28.673  1.00  0.00    -0.744 OA
ENDBRANCH  75  76
ENDBRANCH  54  68
BRANCH  55  80
ATOM     80  C   UNL A   1      43.437  23.791  26.987  1.00  0.00     0.058 A 
ATOM     81  C   UNL A   1      43.254  22.933  28.080  1.00  0.00     0.135 A 
ATOM     82  C   UNL A   1      43.093  23.312  25.713  1.00  0.00     0.135 A 
ATOM     83  F   UNL A   1      43.574  23.343  29.317  1.00  0.00    -0.206 F 
ATOM     84  C   UNL A   1      42.742  21.649  27.918  1.00  0.00     0.059 A 
ATOM     85  C   UNL A   1      42.558  22.043  25.528  1.00  0.00     0.059 A 
ATOM     86  F   UNL A   1      43.238  24.102  24.637  1.00  0.00    -0.206 F 
ATOM     87  C   UNL A   1      42.389  21.216  26.639  1.00  0.00     0.060 A 
BRANCH  87  88
ATOM     88  S   UNL A   1      41.653  19.578  26.452  1.00  0.00     0.124 S 
ATOM     89  O   UNL A   1      40.253  19.911  26.210  1.00  0.00    -0.237 OA
ATOM     90  O   UNL A   1      42.388  19.041  25.310  1.00  0.00    -0.237 OA
ATOM     91  O   UNL A   1      41.938  18.934  27.730  1.00  0.00    -0.744 OA
ENDBRANCH  87  88
ENDBRANCH  55  80
BRANCH  67  92
ATOM     92  C   UNL A   1      49.601  26.945  26.081  1.00  0.00     0.058 A 
ATOM     93  C   UNL A   1      49.987  27.135  24.745  1.00  0.00     0.135 A 
ATOM     94  C   UNL A   1      50.531  26.365  26.958  1.00  0.00     0.135 A 
ATOM     95  F   UNL A   1      49.130  27.677  23.866  1.00  0.00    -0.206 F 
ATOM     96  C   UNL A   1      51.248  26.763  24.295  1.00  0.00     0.059 A 
ATOM     97  C   UNL A   1      51.807  26.004  26.534  1.00  0.00     0.059 A 
ATOM     98  F   UNL A   1      50.213  26.167  28.248  1.00  0.00    -0.206 F 
ATOM     99  C   UNL A   1      52.155  26.205  25.199  1.00  0.00     0.060 A 
BRANCH  99 100
ATOM    100  S   UNL A   1      53.809  25.782  24.613  1.00  0.00     0.124 S 
ATOM    101  O   UNL A   1      54.650  26.557  25.518  1.00  0.00    -0.237 OA
ATOM    102  O   UNL A   1      53.844  24.335  24.798  1.00  0.00    -0.237 OA
ATOM    103  O   UNL A   1      53.803  26.231  23.224  1.00  0.00    -0.744 OA
ENDBRANCH  99 100
ENDBRANCH  67  92
ENDBRANCH  41  42
ENDBRANCH  33  36
ENDBRANCH  31  32
ENDBRANCH  30  31
ENDBRANCH  29  30
ENDBRANCH  28  29
ENDBRANCH   1  28
TORSDOF 24
ENDMDL
