MODEL 1
REMARK VINA RESULT:     -11.8      0.000      0.000
REMARK SMILES CCc1c(Cl)ccc2c1C=C(C(=O)NCCCCCCNC(=O)c1ccc(-c3c4nc(c(-c5c(F)cc(S(=O)(=O)[O-])cc5F)c5ccc([nH]5)c(-c5c(F)cc(S(=O)(=O)[O-])cc5F)c5nc(c(-c6c(F)cc(S(=O)(=O)[O-])cc6F)c6ccc3[nH]6)C=C5)C=C4)cc1)[C@@H](C(F)(F)F)O2
REMARK SMILES IDX 18 1 17 2 16 3 15 4 14 5 12 6 13 7 11 9 3 10 4 11 9 12 5 13
REMARK SMILES IDX 6 14 8 15 10 16 7 17 95 18 90 19 2 20 1 21 91 22 92 23 93 24
REMARK SMILES IDX 94 25 19 26 20 27 21 28 22 29 23 31 24 32 25 33 89 34 26 35
REMARK SMILES IDX 88 36 27 37 28 38 29 39 82 40 30 41 87 42 81 43 83 44 31 45
REMARK SMILES IDX 86 46 80 47 79 48 32 50 66 51 45 52 65 53 46 54 49 55 64 56
REMARK SMILES IDX 84 57 47 58 48 59 63 61 85 62 50 63 33 64 34 65 43 66 35 67
REMARK SMILES IDX 36 68 42 69 44 70 37 71 38 72 39 73 40 74 41 75 67 76 68 77
REMARK SMILES IDX 77 78 69 79 70 80 76 81 78 82 71 83 72 84 73 85 74 86 75 87
REMARK SMILES IDX 51 88 52 89 61 90 53 91 54 92 60 93 62 94 55 95 56 96 57 97
REMARK SMILES IDX 58 98 59 99
REMARK H PARENT 14 8 21 30 83 49 49 60
REMARK Flexibility Score: inf
ROOT
ATOM      1  C   UNL A   1      39.796  21.838  26.555  1.00  0.00     0.002 C 
ENDROOT
BRANCH   1   2
ATOM      2  C   UNL A   1      38.539  22.647  26.210  1.00  0.00     0.002 C 
BRANCH   2   3
ATOM      3  C   UNL A   1      37.740  22.162  24.995  1.00  0.00     0.021 C 
BRANCH   3   4
ATOM      4  C   UNL A   1      36.826  20.970  25.261  1.00  0.00     0.116 C 
BRANCH   4   5
ATOM      5  N   UNL A   1      35.727  21.316  26.145  1.00  0.00    -0.352 N 
ATOM      6  C   UNL A   1      34.644  22.122  26.110  1.00  0.00     0.251 C 
ATOM      7  O   UNL A   1      33.930  22.071  27.118  1.00  0.00    -0.270 OA
ATOM      8  H   UNL A   1      35.788  20.832  26.999  1.00  0.00     0.163 HD
BRANCH   6   9
ATOM      9  C   UNL A   1      34.273  23.043  24.990  1.00  0.00     0.067 C 
ATOM     10  C   UNL A   1      33.632  26.723  24.667  1.00  0.00    -0.019 A 
ATOM     11  C   UNL A   1      33.389  27.633  23.614  1.00  0.00     0.045 A 
ATOM     12  C   UNL A   1      33.843  25.358  24.339  1.00  0.00     0.022 A 
ATOM     13  Cl  UNL A   1      33.181  29.331  23.884  1.00  0.00    -0.084 Cl
ATOM     14  C   UNL A   1      33.326  27.202  22.286  1.00  0.00     0.024 A 
ATOM     15  C   UNL A   1      33.771  24.949  23.002  1.00  0.00     0.128 A 
ATOM     16  C   UNL A   1      34.194  24.341  25.333  1.00  0.00     0.026 C 
ATOM     17  C   UNL A   1      33.514  25.861  21.982  1.00  0.00     0.048 A 
ATOM     18  O   UNL A   1      33.993  23.668  22.590  1.00  0.00    -0.475 OA
ATOM     19  C   UNL A   1      33.964  22.614  23.586  1.00  0.00     0.314 C 
BRANCH  10  20
ATOM     20  C   UNL A   1      33.687  27.203  26.106  1.00  0.00     0.034 C 
ATOM     21  C   UNL A   1      32.311  27.256  26.756  1.00  0.00     0.009 C 
ENDBRANCH  10  20
BRANCH  19  22
ATOM     22  C   UNL A   1      32.629  21.859  23.475  1.00  0.00     0.429 C 
ATOM     23  F   UNL A   1      32.707  20.659  24.100  1.00  0.00    -0.167 F 
ATOM     24  F   UNL A   1      31.608  22.530  24.057  1.00  0.00    -0.167 F 
ATOM     25  F   UNL A   1      32.275  21.633  22.191  1.00  0.00    -0.167 F 
ENDBRANCH  19  22
ENDBRANCH   6   9
ENDBRANCH   4   5
ENDBRANCH   3   4
ENDBRANCH   2   3
ENDBRANCH   1   2
BRANCH   1  26
ATOM     26  C   UNL A   1      40.666  22.398  27.682  1.00  0.00     0.021 C 
BRANCH  26  27
ATOM     27  C   UNL A   1      41.956  23.070  27.234  1.00  0.00     0.116 C 
BRANCH  27  28
ATOM     28  N   UNL A   1      41.765  23.955  26.097  1.00  0.00    -0.352 N 
ATOM     29  C   UNL A   1      41.441  25.293  26.097  1.00  0.00     0.251 C 
ATOM     30  H   UNL A   1      41.882  23.544  25.210  1.00  0.00     0.163 HD
ATOM     31  O   UNL A   1      41.188  25.874  25.047  1.00  0.00    -0.269 OA
BRANCH  29  32
ATOM     32  C   UNL A   1      41.366  26.010  27.389  1.00  0.00     0.039 A 
ATOM     33  C   UNL A   1      40.230  25.896  28.193  1.00  0.00     0.014 A 
ATOM     34  C   UNL A   1      42.415  26.855  27.757  1.00  0.00     0.014 A 
ATOM     35  C   UNL A   1      40.076  26.745  29.285  1.00  0.00     0.010 A 
ATOM     36  C   UNL A   1      42.286  27.656  28.895  1.00  0.00     0.010 A 
ATOM     37  C   UNL A   1      41.095  27.643  29.640  1.00  0.00    -0.014 A 
BRANCH  37  38
ATOM     38  C   UNL A   1      40.893  28.576  30.778  1.00  0.00     0.031 A 
ATOM     39  C   UNL A   1      41.790  28.517  31.986  1.00  0.00     0.074 A 
ATOM     40  C   UNL A   1      39.927  29.511  30.701  1.00  0.00     0.049 A 
ATOM     41  N   UNL A   1      41.745  29.230  33.082  1.00  0.00    -0.248 NA
ATOM     42  C   UNL A   1      42.879  27.527  31.961  1.00  0.00     0.031 C 
ATOM     43  C   UNL A   1      39.009  29.683  29.572  1.00  0.00     0.029 A 
ATOM     44  N   UNL A   1      39.567  30.503  31.576  1.00  0.00    -0.354 N 
ATOM     45  C   UNL A   1      42.779  28.763  33.886  1.00  0.00     0.074 A 
ATOM     46  C   UNL A   1      43.426  27.693  33.159  1.00  0.00     0.031 C 
ATOM     47  C   UNL A   1      38.221  30.743  29.804  1.00  0.00     0.029 A 
ATOM     48  C   UNL A   1      38.535  31.289  31.122  1.00  0.00     0.049 A 
ATOM     49  H   UNL A   1      40.006  30.638  32.447  1.00  0.00     0.167 HD
ATOM     50  C   UNL A   1      43.158  29.194  35.113  1.00  0.00     0.037 A 
ATOM     51  C   UNL A   1      37.900  32.323  31.705  1.00  0.00     0.037 A 
ATOM     52  C   UNL A   1      42.526  30.276  35.824  1.00  0.00     0.049 A 
ATOM     53  C   UNL A   1      38.320  32.762  33.077  1.00  0.00     0.074 A 
ATOM     54  C   UNL A   1      42.841  30.790  37.070  1.00  0.00     0.029 A 
ATOM     55  N   UNL A   1      41.453  31.017  35.348  1.00  0.00    -0.354 N 
ATOM     56  N   UNL A   1      39.281  32.289  33.834  1.00  0.00    -0.248 NA
ATOM     57  C   UNL A   1      37.561  33.866  33.681  1.00  0.00     0.031 C 
ATOM     58  C   UNL A   1      41.942  31.823  37.360  1.00  0.00     0.029 A 
ATOM     59  C   UNL A   1      41.089  31.976  36.279  1.00  0.00     0.049 A 
ATOM     60  H   UNL A   1      41.017  30.882  34.476  1.00  0.00     0.167 HD
ATOM     61  C   UNL A   1      39.245  33.038  35.003  1.00  0.00     0.074 A 
ATOM     62  C   UNL A   1      38.181  34.010  34.845  1.00  0.00     0.031 C 
ATOM     63  C   UNL A   1      40.020  32.927  36.109  1.00  0.00     0.037 A 
BRANCH  50  64
ATOM     64  C   UNL A   1      44.305  28.487  35.779  1.00  0.00     0.058 A 
ATOM     65  C   UNL A   1      45.633  28.906  35.599  1.00  0.00     0.135 A 
ATOM     66  C   UNL A   1      44.070  27.404  36.642  1.00  0.00     0.135 A 
ATOM     67  F   UNL A   1      45.914  29.923  34.770  1.00  0.00    -0.206 F 
ATOM     68  C   UNL A   1      46.690  28.267  36.241  1.00  0.00     0.059 A 
ATOM     69  C   UNL A   1      45.110  26.763  37.311  1.00  0.00     0.059 A 
ATOM     70  F   UNL A   1      42.819  26.962  36.847  1.00  0.00    -0.206 F 
ATOM     71  C   UNL A   1      46.418  27.195  37.094  1.00  0.00     0.060 A 
BRANCH  71  72
ATOM     72  S   UNL A   1      47.799  26.380  37.923  1.00  0.00     0.124 S 
ATOM     73  O   UNL A   1      48.916  26.750  37.059  1.00  0.00    -0.237 OA
ATOM     74  O   UNL A   1      47.784  27.005  39.242  1.00  0.00    -0.237 OA
ATOM     75  O   UNL A   1      47.428  24.969  37.898  1.00  0.00    -0.744 OA
ENDBRANCH  71  72
ENDBRANCH  50  64
BRANCH  51  76
ATOM     76  C   UNL A   1      36.798  33.004  30.981  1.00  0.00     0.058 A 
ATOM     77  C   UNL A   1      37.069  33.944  29.978  1.00  0.00     0.135 A 
ATOM     78  C   UNL A   1      35.455  32.686  31.239  1.00  0.00     0.135 A 
ATOM     79  F   UNL A   1      38.337  34.283  29.701  1.00  0.00    -0.206 F 
ATOM     80  C   UNL A   1      36.047  34.543  29.249  1.00  0.00     0.059 A 
ATOM     81  C   UNL A   1      34.417  33.255  30.511  1.00  0.00     0.059 A 
ATOM     82  F   UNL A   1      35.148  31.780  32.182  1.00  0.00    -0.206 F 
ATOM     83  C   UNL A   1      34.723  34.185  29.517  1.00  0.00     0.060 A 
BRANCH  83  84
ATOM     84  S   UNL A   1      33.409  34.901  28.508  1.00  0.00     0.124 S 
ATOM     85  O   UNL A   1      32.603  35.582  29.515  1.00  0.00    -0.237 OA
ATOM     86  O   UNL A   1      34.157  35.765  27.598  1.00  0.00    -0.237 OA
ATOM     87  O   UNL A   1      32.791  33.735  27.885  1.00  0.00    -0.744 OA
ENDBRANCH  83  84
ENDBRANCH  51  76
BRANCH  63  88
ATOM     88  C   UNL A   1      39.747  33.884  37.234  1.00  0.00     0.058 A 
ATOM     89  C   UNL A   1      38.916  33.531  38.307  1.00  0.00     0.135 A 
ATOM     90  C   UNL A   1      40.347  35.153  37.253  1.00  0.00     0.135 A 
ATOM     91  F   UNL A   1      38.312  32.332  38.329  1.00  0.00    -0.206 F 
ATOM     92  C   UNL A   1      38.670  34.412  39.354  1.00  0.00     0.059 A 
ATOM     93  C   UNL A   1      40.133  36.042  38.301  1.00  0.00     0.059 A 
ATOM     94  F   UNL A   1      41.157  35.534  36.253  1.00  0.00    -0.206 F 
ATOM     95  C   UNL A   1      39.283  35.668  39.341  1.00  0.00     0.060 A 
BRANCH  95  96
ATOM     96  S   UNL A   1      38.974  36.797  40.716  1.00  0.00     0.124 S 
ATOM     97  O   UNL A   1      38.111  35.988  41.571  1.00  0.00    -0.237 OA
ATOM     98  O   UNL A   1      40.320  37.045  41.227  1.00  0.00    -0.237 OA
ATOM     99  O   UNL A   1      38.333  37.941  40.077  1.00  0.00    -0.744 OA
ENDBRANCH  95  96
ENDBRANCH  63  88
ENDBRANCH  37  38
ENDBRANCH  29  32
ENDBRANCH  27  28
ENDBRANCH  26  27
ENDBRANCH   1  26
TORSDOF 18
ENDMDL
MODEL 2
REMARK VINA RESULT:     -11.4      0.510      8.144
REMARK SMILES CCc1c(Cl)ccc2c1C=C(C(=O)NCCCCCCNC(=O)c1ccc(-c3c4nc(c(-c5c(F)cc(S(=O)(=O)[O-])cc5F)c5ccc([nH]5)c(-c5c(F)cc(S(=O)(=O)[O-])cc5F)c5nc(c(-c6c(F)cc(S(=O)(=O)[O-])cc6F)c6ccc3[nH]6)C=C5)C=C4)cc1)[C@@H](C(F)(F)F)O2
REMARK SMILES IDX 18 1 17 2 16 3 15 4 14 5 12 6 13 7 11 9 3 10 4 11 9 12 5 13
REMARK SMILES IDX 6 14 8 15 10 16 7 17 95 18 90 19 2 20 1 21 91 22 92 23 93 24
REMARK SMILES IDX 94 25 19 26 20 27 21 28 22 29 23 31 24 32 25 33 89 34 26 35
REMARK SMILES IDX 88 36 27 37 28 38 29 39 82 40 30 41 87 42 81 43 83 44 31 45
REMARK SMILES IDX 86 46 80 47 79 48 32 50 66 51 45 52 65 53 46 54 49 55 64 56
REMARK SMILES IDX 84 57 47 58 48 59 63 61 85 62 50 63 33 64 34 65 43 66 35 67
REMARK SMILES IDX 36 68 42 69 44 70 37 71 38 72 39 73 40 74 41 75 67 76 68 77
REMARK SMILES IDX 77 78 69 79 70 80 76 81 78 82 71 83 72 84 73 85 74 86 75 87
REMARK SMILES IDX 51 88 52 89 61 90 53 91 54 92 60 93 62 94 55 95 56 96 57 97
REMARK SMILES IDX 58 98 59 99
REMARK H PARENT 14 8 21 30 83 49 49 60
REMARK Flexibility Score: inf
ROOT
ATOM      1  C   UNL A   1      39.656  22.728  27.175  1.00  0.00     0.002 C 
ENDROOT
BRANCH   1   2
ATOM      2  C   UNL A   1      38.773  23.817  26.552  1.00  0.00     0.002 C 
BRANCH   2   3
ATOM      3  C   UNL A   1      37.866  23.370  25.400  1.00  0.00     0.021 C 
BRANCH   3   4
ATOM      4  C   UNL A   1      37.419  21.912  25.463  1.00  0.00     0.116 C 
BRANCH   4   5
ATOM      5  N   UNL A   1      36.141  21.766  26.136  1.00  0.00    -0.352 N 
ATOM      6  C   UNL A   1      34.873  22.194  25.957  1.00  0.00     0.251 C 
ATOM      7  O   UNL A   1      34.063  21.774  26.793  1.00  0.00    -0.270 OA
ATOM      8  H   UNL A   1      36.220  21.201  26.938  1.00  0.00     0.163 HD
BRANCH   6   9
ATOM      9  C   UNL A   1      34.403  23.114  24.874  1.00  0.00     0.067 C 
ATOM     10  C   UNL A   1      33.574  26.763  24.649  1.00  0.00    -0.019 A 
ATOM     11  C   UNL A   1      33.236  27.677  23.625  1.00  0.00     0.045 A 
ATOM     12  C   UNL A   1      33.832  25.415  24.287  1.00  0.00     0.022 A 
ATOM     13  Cl  UNL A   1      32.962  29.359  23.936  1.00  0.00    -0.084 Cl
ATOM     14  C   UNL A   1      33.126  27.264  22.295  1.00  0.00     0.024 A 
ATOM     15  C   UNL A   1      33.712  25.024  22.947  1.00  0.00     0.128 A 
ATOM     16  C   UNL A   1      34.280  24.402  25.243  1.00  0.00     0.026 C 
ATOM     17  C   UNL A   1      33.362  25.938  21.958  1.00  0.00     0.048 A 
ATOM     18  O   UNL A   1      33.973  23.762  22.502  1.00  0.00    -0.475 OA
ATOM     19  C   UNL A   1      34.045  22.692  23.480  1.00  0.00     0.314 C 
BRANCH  10  20
ATOM     20  C   UNL A   1      33.679  27.223  26.091  1.00  0.00     0.034 C 
ATOM     21  C   UNL A   1      32.320  27.337  26.767  1.00  0.00     0.009 C 
ENDBRANCH  10  20
BRANCH  19  22
ATOM     22  C   UNL A   1      32.742  21.876  23.422  1.00  0.00     0.429 C 
ATOM     23  F   UNL A   1      32.989  20.567  23.670  1.00  0.00    -0.167 F 
ATOM     24  F   UNL A   1      31.839  22.280  24.346  1.00  0.00    -0.167 F 
ATOM     25  F   UNL A   1      32.140  21.960  22.215  1.00  0.00    -0.167 F 
ENDBRANCH  19  22
ENDBRANCH   6   9
ENDBRANCH   4   5
ENDBRANCH   3   4
ENDBRANCH   2   3
ENDBRANCH   1   2
BRANCH   1  26
ATOM     26  C   UNL A   1      41.010  22.497  26.503  1.00  0.00     0.021 C 
BRANCH  26  27
ATOM     27  C   UNL A   1      42.082  23.529  26.830  1.00  0.00     0.116 C 
BRANCH  27  28
ATOM     28  N   UNL A   1      42.264  24.507  25.770  1.00  0.00    -0.352 N 
ATOM     29  C   UNL A   1      42.224  25.880  25.855  1.00  0.00     0.251 C 
ATOM     30  H   UNL A   1      42.438  24.139  24.873  1.00  0.00     0.163 HD
ATOM     31  O   UNL A   1      42.270  26.570  24.842  1.00  0.00    -0.269 OA
BRANCH  29  32
ATOM     32  C   UNL A   1      42.086  26.510  27.186  1.00  0.00     0.039 A 
ATOM     33  C   UNL A   1      40.945  26.283  27.959  1.00  0.00     0.014 A 
ATOM     34  C   UNL A   1      43.079  27.389  27.627  1.00  0.00     0.014 A 
ATOM     35  C   UNL A   1      40.724  27.052  29.098  1.00  0.00     0.010 A 
ATOM     36  C   UNL A   1      42.884  28.109  28.808  1.00  0.00     0.010 A 
ATOM     37  C   UNL A   1      41.684  27.983  29.527  1.00  0.00    -0.014 A 
BRANCH  37  38
ATOM     38  C   UNL A   1      41.410  28.830  30.716  1.00  0.00     0.031 A 
ATOM     39  C   UNL A   1      40.254  29.795  30.718  1.00  0.00     0.074 A 
ATOM     40  C   UNL A   1      42.177  28.694  31.813  1.00  0.00     0.049 A 
ATOM     41  N   UNL A   1      39.882  30.633  31.651  1.00  0.00    -0.248 NA
ATOM     42  C   UNL A   1      39.407  29.826  29.515  1.00  0.00     0.031 C 
ATOM     43  C   UNL A   1      43.312  27.776  31.940  1.00  0.00     0.029 A 
ATOM     44  N   UNL A   1      42.110  29.311  33.036  1.00  0.00    -0.354 N 
ATOM     45  C   UNL A   1      38.775  31.305  31.144  1.00  0.00     0.074 A 
ATOM     46  C   UNL A   1      38.545  30.791  29.812  1.00  0.00     0.031 C 
ATOM     47  C   UNL A   1      43.807  27.859  33.184  1.00  0.00     0.029 A 
ATOM     48  C   UNL A   1      43.066  28.877  33.924  1.00  0.00     0.049 A 
ATOM     49  H   UNL A   1      41.442  30.000  33.256  1.00  0.00     0.167 HD
ATOM     50  C   UNL A   1      38.017  32.258  31.738  1.00  0.00     0.037 A 
ATOM     51  C   UNL A   1      43.328  29.265  35.186  1.00  0.00     0.037 A 
ATOM     52  C   UNL A   1      38.235  32.751  33.075  1.00  0.00     0.049 A 
ATOM     53  C   UNL A   1      42.492  30.342  35.811  1.00  0.00     0.074 A 
ATOM     54  C   UNL A   1      37.518  33.711  33.767  1.00  0.00     0.029 A 
ATOM     55  N   UNL A   1      39.243  32.317  33.925  1.00  0.00    -0.354 N 
ATOM     56  N   UNL A   1      41.468  30.987  35.305  1.00  0.00    -0.248 NA
ATOM     57  C   UNL A   1      42.854  30.755  37.174  1.00  0.00     0.031 C 
ATOM     58  C   UNL A   1      38.108  33.878  35.026  1.00  0.00     0.029 A 
ATOM     59  C   UNL A   1      39.172  32.996  35.130  1.00  0.00     0.049 A 
ATOM     60  H   UNL A   1      39.909  31.628  33.704  1.00  0.00     0.167 HD
ATOM     61  C   UNL A   1      41.062  31.881  36.287  1.00  0.00     0.074 A 
ATOM     62  C   UNL A   1      41.936  31.679  37.425  1.00  0.00     0.031 C 
ATOM     63  C   UNL A   1      40.058  32.791  36.248  1.00  0.00     0.037 A 
BRANCH  50  64
ATOM     64  C   UNL A   1      36.883  32.844  30.945  1.00  0.00     0.058 A 
ATOM     65  C   UNL A   1      37.103  33.802  29.943  1.00  0.00     0.135 A 
ATOM     66  C   UNL A   1      35.564  32.410  31.159  1.00  0.00     0.135 A 
ATOM     67  F   UNL A   1      38.342  34.265  29.711  1.00  0.00    -0.206 F 
ATOM     68  C   UNL A   1      36.054  34.320  29.190  1.00  0.00     0.059 A 
ATOM     69  C   UNL A   1      34.502  32.900  30.404  1.00  0.00     0.059 A 
ATOM     70  F   UNL A   1      35.299  31.497  32.107  1.00  0.00    -0.206 F 
ATOM     71  C   UNL A   1      34.756  33.864  29.429  1.00  0.00     0.060 A 
BRANCH  71  72
ATOM     72  S   UNL A   1      33.406  34.542  28.441  1.00  0.00     0.124 S 
ATOM     73  O   UNL A   1      34.090  35.600  27.702  1.00  0.00    -0.237 OA
ATOM     74  O   UNL A   1      32.987  33.388  27.652  1.00  0.00    -0.237 OA
ATOM     75  O   UNL A   1      32.445  34.997  29.441  1.00  0.00    -0.744 OA
ENDBRANCH  71  72
ENDBRANCH  50  64
BRANCH  51  76
ATOM     76  C   UNL A   1      44.440  28.621  35.930  1.00  0.00     0.058 A 
ATOM     77  C   UNL A   1      44.209  27.505  36.745  1.00  0.00     0.135 A 
ATOM     78  C   UNL A   1      45.761  29.076  35.796  1.00  0.00     0.135 A 
ATOM     79  F   UNL A   1      42.961  27.040  36.907  1.00  0.00    -0.206 F 
ATOM     80  C   UNL A   1      45.251  26.855  37.398  1.00  0.00     0.059 A 
ATOM     81  C   UNL A   1      46.822  28.431  36.421  1.00  0.00     0.059 A 
ATOM     82  F   UNL A   1      46.032  30.134  35.014  1.00  0.00    -0.206 F 
ATOM     83  C   UNL A   1      46.556  27.321  37.223  1.00  0.00     0.060 A 
BRANCH  83  84
ATOM     84  S   UNL A   1      47.912  26.419  38.003  1.00  0.00     0.124 S 
ATOM     85  O   UNL A   1      49.075  27.110  37.460  1.00  0.00    -0.237 OA
ATOM     86  O   UNL A   1      47.646  26.633  39.423  1.00  0.00    -0.237 OA
ATOM     87  O   UNL A   1      47.715  25.050  37.538  1.00  0.00    -0.744 OA
ENDBRANCH  83  84
ENDBRANCH  51  76
BRANCH  63  88
ATOM     88  C   UNL A   1      39.850  33.633  37.473  1.00  0.00     0.058 A 
ATOM     89  C   UNL A   1      40.567  34.822  37.672  1.00  0.00     0.135 A 
ATOM     90  C   UNL A   1      38.902  33.265  38.440  1.00  0.00     0.135 A 
ATOM     91  F   UNL A   1      41.491  35.212  36.778  1.00  0.00    -0.206 F 
ATOM     92  C   UNL A   1      40.368  35.609  38.801  1.00  0.00     0.059 A 
ATOM     93  C   UNL A   1      38.671  34.047  39.567  1.00  0.00     0.059 A 
ATOM     94  F   UNL A   1      38.184  32.140  38.291  1.00  0.00    -0.206 F 
ATOM     95  C   UNL A   1      39.418  35.212  39.745  1.00  0.00     0.060 A 
BRANCH  95  96
ATOM     96  S   UNL A   1      39.152  36.251  41.197  1.00  0.00     0.124 S 
ATOM     97  O   UNL A   1      38.880  37.547  40.583  1.00  0.00    -0.237 OA
ATOM     98  O   UNL A   1      38.013  35.603  41.842  1.00  0.00    -0.237 OA
ATOM     99  O   UNL A   1      40.415  36.150  41.920  1.00  0.00    -0.744 OA
ENDBRANCH  95  96
ENDBRANCH  63  88
ENDBRANCH  37  38
ENDBRANCH  29  32
ENDBRANCH  27  28
ENDBRANCH  26  27
ENDBRANCH   1  26
TORSDOF 18
ENDMDL
MODEL 3
REMARK VINA RESULT:     -11.2      1.450      2.213
REMARK SMILES CCc1c(Cl)ccc2c1C=C(C(=O)NCCCCCCNC(=O)c1ccc(-c3c4nc(c(-c5c(F)cc(S(=O)(=O)[O-])cc5F)c5ccc([nH]5)c(-c5c(F)cc(S(=O)(=O)[O-])cc5F)c5nc(c(-c6c(F)cc(S(=O)(=O)[O-])cc6F)c6ccc3[nH]6)C=C5)C=C4)cc1)[C@@H](C(F)(F)F)O2
REMARK SMILES IDX 18 1 17 2 16 3 15 4 14 5 12 6 13 7 11 9 3 10 4 11 9 12 5 13
REMARK SMILES IDX 6 14 8 15 10 16 7 17 95 18 90 19 2 20 1 21 91 22 92 23 93 24
REMARK SMILES IDX 94 25 19 26 20 27 21 28 22 29 23 31 24 32 25 33 89 34 26 35
REMARK SMILES IDX 88 36 27 37 28 38 29 39 82 40 30 41 87 42 81 43 83 44 31 45
REMARK SMILES IDX 86 46 80 47 79 48 32 50 66 51 45 52 65 53 46 54 49 55 64 56
REMARK SMILES IDX 84 57 47 58 48 59 63 61 85 62 50 63 33 64 34 65 43 66 35 67
REMARK SMILES IDX 36 68 42 69 44 70 37 71 38 72 39 73 40 74 41 75 67 76 68 77
REMARK SMILES IDX 77 78 69 79 70 80 76 81 78 82 71 83 72 84 73 85 74 86 75 87
REMARK SMILES IDX 51 88 52 89 61 90 53 91 54 92 60 93 62 94 55 95 56 96 57 97
REMARK SMILES IDX 58 98 59 99
REMARK H PARENT 14 8 21 30 83 49 49 60
REMARK Flexibility Score: inf
ROOT
ATOM      1  C   UNL A   1      38.532  22.371  25.732  1.00  0.00     0.002 C 
ENDROOT
BRANCH   1   2
ATOM      2  C   UNL A   1      37.565  23.498  26.118  1.00  0.00     0.002 C 
BRANCH   2   3
ATOM      3  C   UNL A   1      36.366  23.704  25.186  1.00  0.00     0.021 C 
BRANCH   3   4
ATOM      4  C   UNL A   1      36.369  22.833  23.933  1.00  0.00     0.116 C 
BRANCH   4   5
ATOM      5  N   UNL A   1      35.617  21.607  24.123  1.00  0.00    -0.352 N 
ATOM      6  C   UNL A   1      34.374  21.260  24.521  1.00  0.00     0.251 C 
ATOM      7  O   UNL A   1      34.144  20.044  24.495  1.00  0.00    -0.270 OA
ATOM      8  H   UNL A   1      36.158  20.816  23.902  1.00  0.00     0.163 HD
BRANCH   6   9
ATOM      9  C   UNL A   1      33.307  22.201  24.985  1.00  0.00     0.067 C 
ATOM     10  C   UNL A   1      31.631  25.239  23.564  1.00  0.00    -0.019 A 
ATOM     11  C   UNL A   1      30.554  26.080  23.925  1.00  0.00     0.045 A 
ATOM     12  C   UNL A   1      31.942  24.145  24.412  1.00  0.00     0.022 A 
ATOM     13  Cl  UNL A   1      30.041  27.407  22.937  1.00  0.00    -0.084 Cl
ATOM     14  C   UNL A   1      29.830  25.862  25.100  1.00  0.00     0.024 A 
ATOM     15  C   UNL A   1      31.205  23.950  25.587  1.00  0.00     0.128 A 
ATOM     16  C   UNL A   1      32.973  23.155  24.096  1.00  0.00     0.026 C 
ATOM     17  C   UNL A   1      30.158  24.800  25.931  1.00  0.00     0.048 A 
ATOM     18  O   UNL A   1      31.409  22.909  26.444  1.00  0.00    -0.475 OA
ATOM     19  C   UNL A   1      32.649  22.163  26.332  1.00  0.00     0.314 C 
BRANCH  10  20
ATOM     20  C   UNL A   1      32.416  25.493  22.290  1.00  0.00     0.034 C 
ATOM     21  C   UNL A   1      33.611  26.410  22.514  1.00  0.00     0.009 C 
ENDBRANCH  10  20
BRANCH  19  22
ATOM     22  C   UNL A   1      33.594  22.595  27.467  1.00  0.00     0.429 C 
ATOM     23  F   UNL A   1      33.994  23.877  27.292  1.00  0.00    -0.167 F 
ATOM     24  F   UNL A   1      32.998  22.539  28.682  1.00  0.00    -0.167 F 
ATOM     25  F   UNL A   1      34.701  21.822  27.532  1.00  0.00    -0.167 F 
ENDBRANCH  19  22
ENDBRANCH   6   9
ENDBRANCH   4   5
ENDBRANCH   3   4
ENDBRANCH   2   3
ENDBRANCH   1   2
BRANCH   1  26
ATOM     26  C   UNL A   1      39.639  22.061  26.741  1.00  0.00     0.021 C 
BRANCH  26  27
ATOM     27  C   UNL A   1      40.458  23.261  27.196  1.00  0.00     0.116 C 
BRANCH  27  28
ATOM     28  N   UNL A   1      41.269  23.827  26.131  1.00  0.00    -0.352 N 
ATOM     29  C   UNL A   1      41.625  25.141  25.930  1.00  0.00     0.251 C 
ATOM     30  H   UNL A   1      41.607  23.186  25.464  1.00  0.00     0.163 HD
ATOM     31  O   UNL A   1      42.211  25.480  24.907  1.00  0.00    -0.269 OA
BRANCH  29  32
ATOM     32  C   UNL A   1      41.256  26.145  26.952  1.00  0.00     0.039 A 
ATOM     33  C   UNL A   1      41.978  27.337  27.061  1.00  0.00     0.014 A 
ATOM     34  C   UNL A   1      40.225  25.855  27.848  1.00  0.00     0.014 A 
ATOM     35  C   UNL A   1      41.771  28.164  28.161  1.00  0.00     0.010 A 
ATOM     36  C   UNL A   1      39.974  26.724  28.912  1.00  0.00     0.010 A 
ATOM     37  C   UNL A   1      40.777  27.860  29.105  1.00  0.00    -0.014 A 
BRANCH  37  38
ATOM     38  C   UNL A   1      40.603  28.728  30.298  1.00  0.00     0.031 A 
ATOM     39  C   UNL A   1      41.529  28.601  31.479  1.00  0.00     0.074 A 
ATOM     40  C   UNL A   1      39.637  29.665  30.297  1.00  0.00     0.049 A 
ATOM     41  N   UNL A   1      41.511  29.251  32.614  1.00  0.00    -0.248 NA
ATOM     42  C   UNL A   1      42.615  27.613  31.373  1.00  0.00     0.031 C 
ATOM     43  C   UNL A   1      38.693  29.901  29.201  1.00  0.00     0.029 A 
ATOM     44  N   UNL A   1      39.300  30.607  31.235  1.00  0.00    -0.354 N 
ATOM     45  C   UNL A   1      42.563  28.740  33.366  1.00  0.00     0.074 A 
ATOM     46  C   UNL A   1      43.191  27.711  32.565  1.00  0.00     0.031 C 
ATOM     47  C   UNL A   1      37.912  30.946  29.512  1.00  0.00     0.029 A 
ATOM     48  C   UNL A   1      38.258  31.418  30.850  1.00  0.00     0.049 A 
ATOM     49  H   UNL A   1      39.759  30.693  32.101  1.00  0.00     0.167 HD
ATOM     50  C   UNL A   1      42.972  29.100  34.606  1.00  0.00     0.037 A 
ATOM     51  C   UNL A   1      37.640  32.418  31.505  1.00  0.00     0.037 A 
ATOM     52  C   UNL A   1      42.359  30.141  35.391  1.00  0.00     0.049 A 
ATOM     53  C   UNL A   1      38.093  32.778  32.889  1.00  0.00     0.074 A 
ATOM     54  C   UNL A   1      42.704  30.584  36.656  1.00  0.00     0.029 A 
ATOM     55  N   UNL A   1      41.276  30.908  34.983  1.00  0.00    -0.354 N 
ATOM     56  N   UNL A   1      39.071  32.264  33.595  1.00  0.00    -0.248 NA
ATOM     57  C   UNL A   1      37.350  33.847  33.572  1.00  0.00     0.031 C 
ATOM     58  C   UNL A   1      41.814  31.600  37.025  1.00  0.00     0.029 A 
ATOM     59  C   UNL A   1      40.936  31.813  35.975  1.00  0.00     0.049 A 
ATOM     60  H   UNL A   1      40.819  30.822  34.116  1.00  0.00     0.167 HD
ATOM     61  C   UNL A   1      39.064  32.946  34.805  1.00  0.00     0.074 A 
ATOM     62  C   UNL A   1      37.998  33.925  34.727  1.00  0.00     0.031 C 
ATOM     63  C   UNL A   1      39.864  32.773  35.885  1.00  0.00     0.037 A 
BRANCH  50  64
ATOM     64  C   UNL A   1      44.134  28.356  35.203  1.00  0.00     0.058 A 
ATOM     65  C   UNL A   1      45.454  28.811  35.056  1.00  0.00     0.135 A 
ATOM     66  C   UNL A   1      43.920  27.199  35.970  1.00  0.00     0.135 A 
ATOM     67  F   UNL A   1      45.714  29.901  34.318  1.00  0.00    -0.206 F 
ATOM     68  C   UNL A   1      46.523  28.135  35.636  1.00  0.00     0.059 A 
ATOM     69  C   UNL A   1      44.973  26.519  36.576  1.00  0.00     0.059 A 
ATOM     70  F   UNL A   1      42.677  26.721  36.140  1.00  0.00    -0.206 F 
ATOM     71  C   UNL A   1      46.273  26.990  36.393  1.00  0.00     0.060 A 
BRANCH  71  72
ATOM     72  S   UNL A   1      47.671  26.127  37.143  1.00  0.00     0.124 S 
ATOM     73  O   UNL A   1      48.764  27.058  36.875  1.00  0.00    -0.237 OA
ATOM     74  O   UNL A   1      47.259  26.021  38.539  1.00  0.00    -0.237 OA
ATOM     75  O   UNL A   1      47.727  24.866  36.411  1.00  0.00    -0.744 OA
ENDBRANCH  71  72
ENDBRANCH  50  64
BRANCH  51  76
ATOM     76  C   UNL A   1      36.521  33.138  30.847  1.00  0.00     0.058 A 
ATOM     77  C   UNL A   1      35.194  32.923  31.244  1.00  0.00     0.135 A 
ATOM     78  C   UNL A   1      36.763  34.095  29.848  1.00  0.00     0.135 A 
ATOM     79  F   UNL A   1      34.916  32.014  32.190  1.00  0.00    -0.206 F 
ATOM     80  C   UNL A   1      34.143  33.637  30.678  1.00  0.00     0.059 A 
ATOM     81  C   UNL A   1      35.731  34.835  29.283  1.00  0.00     0.059 A 
ATOM     82  F   UNL A   1      38.019  34.344  29.446  1.00  0.00    -0.206 F 
ATOM     83  C   UNL A   1      34.423  34.598  29.704  1.00  0.00     0.060 A 
BRANCH  83  84
ATOM     84  S   UNL A   1      33.062  35.580  29.038  1.00  0.00     0.124 S 
ATOM     85  O   UNL A   1      32.391  34.610  28.182  1.00  0.00    -0.237 OA
ATOM     86  O   UNL A   1      32.343  35.969  30.249  1.00  0.00    -0.237 OA
ATOM     87  O   UNL A   1      33.743  36.670  28.347  1.00  0.00    -0.744 OA
ENDBRANCH  83  84
ENDBRANCH  51  76
BRANCH  63  88
ATOM     88  C   UNL A   1      39.620  33.665  37.067  1.00  0.00     0.058 A 
ATOM     89  C   UNL A   1      38.771  33.275  38.113  1.00  0.00     0.135 A 
ATOM     90  C   UNL A   1      40.266  34.907  37.170  1.00  0.00     0.135 A 
ATOM     91  F   UNL A   1      38.124  32.099  38.056  1.00  0.00    -0.206 F 
ATOM     92  C   UNL A   1      38.551  34.096  39.214  1.00  0.00     0.059 A 
ATOM     93  C   UNL A   1      40.078  35.735  38.272  1.00  0.00     0.059 A 
ATOM     94  F   UNL A   1      41.095  35.321  36.199  1.00  0.00    -0.206 F 
ATOM     95  C   UNL A   1      39.209  35.326  39.284  1.00  0.00     0.060 A 
BRANCH  95  96
ATOM     96  S   UNL A   1      38.934  36.375  40.727  1.00  0.00     0.124 S 
ATOM     97  O   UNL A   1      40.257  36.379  41.342  1.00  0.00    -0.237 OA
ATOM     98  O   UNL A   1      38.513  37.636  40.122  1.00  0.00    -0.237 OA
ATOM     99  O   UNL A   1      37.897  35.665  41.468  1.00  0.00    -0.744 OA
ENDBRANCH  95  96
ENDBRANCH  63  88
ENDBRANCH  37  38
ENDBRANCH  29  32
ENDBRANCH  27  28
ENDBRANCH  26  27
ENDBRANCH   1  26
TORSDOF 18
ENDMDL
