MODEL 1
REMARK VINA RESULT:     -11.7      0.000      0.000
REMARK SMILES Cc1cc(Br)cc2c1O[C@H](C(F)(F)F)C(C(=O)NCCCCCCNC(=O)c1ccc(-c3c4nc(c(-c5c(F)cc(S(=O)(=O)[O-])cc5F)c5ccc([nH]5)c(-c5c(F)cc(S(=O)(=O)[O-])cc5F)c5nc(c(-c6c(F)cc(S(=O)(=O)[O-])cc6F)c6ccc3[nH]6)C=C5)C=C4)cc1)=C2
REMARK SMILES IDX 22 1 21 2 20 3 19 4 18 5 16 6 17 7 15 9 1 10 2 11 3 12 8 13
REMARK SMILES IDX 4 14 7 15 9 16 5 17 6 18 94 19 10 20 11 21 12 22 13 23 14 24
REMARK SMILES IDX 23 25 24 26 25 27 26 28 27 30 28 31 29 32 93 33 30 34 92 35
REMARK SMILES IDX 31 36 32 37 33 38 86 39 34 40 91 41 85 42 87 43 35 44 90 45
REMARK SMILES IDX 84 46 83 47 36 49 70 50 49 51 69 52 50 53 53 54 68 55 88 56
REMARK SMILES IDX 51 57 52 58 67 60 89 61 54 62 37 63 38 64 47 65 39 66 40 67
REMARK SMILES IDX 46 68 48 69 41 70 42 71 43 72 44 73 45 74 71 75 72 76 81 77
REMARK SMILES IDX 73 78 74 79 80 80 82 81 75 82 76 83 77 84 78 85 79 86 55 87
REMARK SMILES IDX 56 88 65 89 57 90 58 91 64 92 66 93 59 94 60 95 61 96 62 97
REMARK SMILES IDX 63 98
REMARK H PARENT 18 8 25 29 87 48 53 59
REMARK Flexibility Score: inf
ROOT
ATOM      1  C   UNL A   1      33.301  29.167  24.868  1.00  0.00     0.002 C 
ENDROOT
BRANCH   1   2
ATOM      2  C   UNL A   1      32.885  28.832  23.430  1.00  0.00     0.002 C 
BRANCH   2   3
ATOM      3  C   UNL A   1      31.377  28.852  23.157  1.00  0.00     0.021 C 
BRANCH   3   4
ATOM      4  C   UNL A   1      30.823  27.536  22.619  1.00  0.00     0.116 C 
BRANCH   4   5
ATOM      5  N   UNL A   1      31.757  26.885  21.717  1.00  0.00    -0.352 N 
ATOM      6  C   UNL A   1      32.669  25.888  21.785  1.00  0.00     0.251 C 
ATOM      7  O   UNL A   1      33.252  25.642  20.723  1.00  0.00    -0.270 OA
ATOM      8  H   UNL A   1      31.716  27.274  20.814  1.00  0.00     0.163 HD
BRANCH   6   9
ATOM      9  C   UNL A   1      33.006  25.099  23.009  1.00  0.00     0.067 C 
ATOM     10  C   UNL A   1      33.280  22.776  27.616  1.00  0.00     0.048 C 
ATOM     11  C   UNL A   1      34.217  23.006  26.463  1.00  0.00    -0.007 A 
ATOM     12  C   UNL A   1      35.497  22.435  26.495  1.00  0.00     0.023 A 
ATOM     13  C   UNL A   1      33.828  23.727  25.324  1.00  0.00     0.130 A 
ATOM     14  C   UNL A   1      36.372  22.613  25.424  1.00  0.00     0.019 A 
ATOM     15  C   UNL A   1      34.708  23.912  24.254  1.00  0.00     0.019 A 
ATOM     16  O   UNL A   1      32.581  24.279  25.333  1.00  0.00    -0.475 OA
ATOM     17  Br  UNL A   1      38.100  21.849  25.492  1.00  0.00    -0.051 Br
ATOM     18  C   UNL A   1      35.987  23.351  24.305  1.00  0.00     0.027 A 
ATOM     19  C   UNL A   1      34.292  24.716  23.110  1.00  0.00     0.025 C 
ATOM     20  C   UNL A   1      32.015  24.689  24.061  1.00  0.00     0.314 C 
BRANCH  20  21
ATOM     21  C   UNL A   1      31.042  23.601  23.574  1.00  0.00     0.429 C 
ATOM     22  F   UNL A   1      30.606  22.852  24.615  1.00  0.00    -0.167 F 
ATOM     23  F   UNL A   1      29.939  24.118  22.984  1.00  0.00    -0.167 F 
ATOM     24  F   UNL A   1      31.613  22.764  22.678  1.00  0.00    -0.167 F 
ENDBRANCH  20  21
ENDBRANCH   6   9
ENDBRANCH   4   5
ENDBRANCH   3   4
ENDBRANCH   2   3
ENDBRANCH   1   2
BRANCH   1  25
ATOM     25  C   UNL A   1      33.740  27.977  25.726  1.00  0.00     0.021 C 
BRANCH  25  26
ATOM     26  C   UNL A   1      33.751  28.238  27.229  1.00  0.00     0.116 C 
BRANCH  26  27
ATOM     27  N   UNL A   1      33.633  29.654  27.539  1.00  0.00    -0.352 N 
ATOM     28  C   UNL A   1      34.558  30.493  28.109  1.00  0.00     0.251 C 
ATOM     29  H   UNL A   1      32.770  30.067  27.310  1.00  0.00     0.163 HD
ATOM     30  O   UNL A   1      34.228  31.618  28.470  1.00  0.00    -0.269 OA
BRANCH  28  31
ATOM     31  C   UNL A   1      35.946  30.025  28.302  1.00  0.00     0.039 A 
ATOM     32  C   UNL A   1      36.846  30.121  27.239  1.00  0.00     0.014 A 
ATOM     33  C   UNL A   1      36.356  29.501  29.533  1.00  0.00     0.014 A 
ATOM     34  C   UNL A   1      38.176  29.743  27.427  1.00  0.00     0.010 A 
ATOM     35  C   UNL A   1      37.697  29.183  29.736  1.00  0.00     0.010 A 
ATOM     36  C   UNL A   1      38.618  29.297  28.685  1.00  0.00    -0.014 A 
BRANCH  36  37
ATOM     37  C   UNL A   1      40.041  28.940  28.905  1.00  0.00     0.031 A 
ATOM     38  C   UNL A   1      40.985  29.942  29.509  1.00  0.00     0.074 A 
ATOM     39  C   UNL A   1      40.487  27.723  28.534  1.00  0.00     0.049 A 
ATOM     40  N   UNL A   1      42.260  29.817  29.772  1.00  0.00    -0.248 NA
ATOM     41  C   UNL A   1      40.430  31.264  29.841  1.00  0.00     0.031 C 
ATOM     42  C   UNL A   1      39.673  26.683  27.899  1.00  0.00     0.029 A 
ATOM     43  N   UNL A   1      41.729  27.152  28.641  1.00  0.00    -0.354 N 
ATOM     44  C   UNL A   1      42.658  31.039  30.301  1.00  0.00     0.074 A 
ATOM     45  C   UNL A   1      41.506  31.912  30.266  1.00  0.00     0.031 C 
ATOM     46  C   UNL A   1      40.429  25.590  27.707  1.00  0.00     0.029 A 
ATOM     47  C   UNL A   1      41.785  25.858  28.178  1.00  0.00     0.049 A 
ATOM     48  H   UNL A   1      42.509  27.624  29.014  1.00  0.00     0.167 HD
ATOM     49  C   UNL A   1      43.865  31.390  30.802  1.00  0.00     0.037 A 
ATOM     50  C   UNL A   1      42.810  24.985  28.146  1.00  0.00     0.037 A 
ATOM     51  C   UNL A   1      45.000  30.508  30.858  1.00  0.00     0.049 A 
ATOM     52  C   UNL A   1      44.146  25.401  28.695  1.00  0.00     0.074 A 
ATOM     53  C   UNL A   1      46.254  30.754  31.387  1.00  0.00     0.029 A 
ATOM     54  N   UNL A   1      45.018  29.209  30.373  1.00  0.00    -0.354 N 
ATOM     55  N   UNL A   1      44.490  26.543  29.241  1.00  0.00    -0.248 NA
ATOM     56  C   UNL A   1      45.235  24.415  28.627  1.00  0.00     0.031 C 
ATOM     57  C   UNL A   1      47.041  29.616  31.192  1.00  0.00     0.029 A 
ATOM     58  C   UNL A   1      46.266  28.646  30.576  1.00  0.00     0.049 A 
ATOM     59  H   UNL A   1      44.255  28.754  29.949  1.00  0.00     0.167 HD
ATOM     60  C   UNL A   1      45.825  26.406  29.601  1.00  0.00     0.074 A 
ATOM     61  C   UNL A   1      46.228  25.068  29.217  1.00  0.00     0.031 C 
ATOM     62  C   UNL A   1      46.644  27.309  30.195  1.00  0.00     0.037 A 
BRANCH  49  63
ATOM     63  C   UNL A   1      44.014  32.781  31.351  1.00  0.00     0.058 A 
ATOM     64  C   UNL A   1      43.864  33.042  32.722  1.00  0.00     0.135 A 
ATOM     65  C   UNL A   1      44.351  33.854  30.511  1.00  0.00     0.135 A 
ATOM     66  F   UNL A   1      43.526  32.054  33.565  1.00  0.00    -0.206 F 
ATOM     67  C   UNL A   1      44.020  34.323  33.239  1.00  0.00     0.059 A 
ATOM     68  C   UNL A   1      44.537  35.140  31.010  1.00  0.00     0.059 A 
ATOM     69  F   UNL A   1      44.505  33.658  29.192  1.00  0.00    -0.206 F 
ATOM     70  C   UNL A   1      44.357  35.366  32.374  1.00  0.00     0.060 A 
BRANCH  70  71
ATOM     71  S   UNL A   1      44.562  37.022  33.065  1.00  0.00     0.124 S 
ATOM     72  O   UNL A   1      44.061  36.834  34.423  1.00  0.00    -0.237 OA
ATOM     73  O   UNL A   1      46.001  37.233  32.945  1.00  0.00    -0.237 OA
ATOM     74  O   UNL A   1      43.734  37.856  32.200  1.00  0.00    -0.744 OA
ENDBRANCH  70  71
ENDBRANCH  49  63
BRANCH  50  75
ATOM     75  C   UNL A   1      42.595  23.613  27.613  1.00  0.00     0.058 A 
ATOM     76  C   UNL A   1      42.723  23.349  26.243  1.00  0.00     0.135 A 
ATOM     77  C   UNL A   1      42.294  22.537  28.462  1.00  0.00     0.135 A 
ATOM     78  F   UNL A   1      43.005  24.347  25.391  1.00  0.00    -0.206 F 
ATOM     79  C   UNL A   1      42.556  22.068  25.728  1.00  0.00     0.059 A 
ATOM     80  C   UNL A   1      42.142  21.242  27.975  1.00  0.00     0.059 A 
ATOM     81  F   UNL A   1      42.176  22.736  29.785  1.00  0.00    -0.206 F 
ATOM     82  C   UNL A   1      42.270  21.019  26.604  1.00  0.00     0.060 A 
BRANCH  82  83
ATOM     83  S   UNL A   1      42.116  19.349  25.932  1.00  0.00     0.124 S 
ATOM     84  O   UNL A   1      42.643  18.543  27.027  1.00  0.00    -0.237 OA
ATOM     85  O   UNL A   1      40.680  19.246  25.696  1.00  0.00    -0.237 OA
ATOM     86  O   UNL A   1      42.941  19.395  24.728  1.00  0.00    -0.744 OA
ENDBRANCH  82  83
ENDBRANCH  50  75
BRANCH  62  87
ATOM     87  C   UNL A   1      48.056  26.889  30.486  1.00  0.00     0.058 A 
ATOM     88  C   UNL A   1      49.108  27.225  29.620  1.00  0.00     0.135 A 
ATOM     89  C   UNL A   1      48.374  26.250  31.695  1.00  0.00     0.135 A 
ATOM     90  F   UNL A   1      48.852  27.828  28.448  1.00  0.00    -0.206 F 
ATOM     91  C   UNL A   1      50.430  26.947  29.947  1.00  0.00     0.059 A 
ATOM     92  C   UNL A   1      49.692  25.983  32.051  1.00  0.00     0.059 A 
ATOM     93  F   UNL A   1      47.403  25.916  32.559  1.00  0.00    -0.206 F 
ATOM     94  C   UNL A   1      50.714  26.336  31.170  1.00  0.00     0.060 A 
BRANCH  94  95
ATOM     95  S   UNL A   1      52.441  26.063  31.617  1.00  0.00     0.124 S 
ATOM     96  O   UNL A   1      53.108  26.222  30.329  1.00  0.00    -0.237 OA
ATOM     97  O   UNL A   1      52.682  27.122  32.591  1.00  0.00    -0.237 OA
ATOM     98  O   UNL A   1      52.442  24.708  32.160  1.00  0.00    -0.744 OA
ENDBRANCH  94  95
ENDBRANCH  62  87
ENDBRANCH  36  37
ENDBRANCH  28  31
ENDBRANCH  26  27
ENDBRANCH  25  26
ENDBRANCH   1  25
TORSDOF 17
ENDMDL
MODEL 2
REMARK VINA RESULT:     -11.5      2.982      9.028
REMARK SMILES Cc1cc(Br)cc2c1O[C@H](C(F)(F)F)C(C(=O)NCCCCCCNC(=O)c1ccc(-c3c4nc(c(-c5c(F)cc(S(=O)(=O)[O-])cc5F)c5ccc([nH]5)c(-c5c(F)cc(S(=O)(=O)[O-])cc5F)c5nc(c(-c6c(F)cc(S(=O)(=O)[O-])cc6F)c6ccc3[nH]6)C=C5)C=C4)cc1)=C2
REMARK SMILES IDX 22 1 21 2 20 3 19 4 18 5 16 6 17 7 15 9 1 10 2 11 3 12 8 13
REMARK SMILES IDX 4 14 7 15 9 16 5 17 6 18 94 19 10 20 11 21 12 22 13 23 14 24
REMARK SMILES IDX 23 25 24 26 25 27 26 28 27 30 28 31 29 32 93 33 30 34 92 35
REMARK SMILES IDX 31 36 32 37 33 38 86 39 34 40 91 41 85 42 87 43 35 44 90 45
REMARK SMILES IDX 84 46 83 47 36 49 70 50 49 51 69 52 50 53 53 54 68 55 88 56
REMARK SMILES IDX 51 57 52 58 67 60 89 61 54 62 37 63 38 64 47 65 39 66 40 67
REMARK SMILES IDX 46 68 48 69 41 70 42 71 43 72 44 73 45 74 71 75 72 76 81 77
REMARK SMILES IDX 73 78 74 79 80 80 82 81 75 82 76 83 77 84 78 85 79 86 55 87
REMARK SMILES IDX 56 88 65 89 57 90 58 91 64 92 66 93 59 94 60 95 61 96 62 97
REMARK SMILES IDX 63 98
REMARK H PARENT 18 8 25 29 87 48 53 59
REMARK Flexibility Score: inf
ROOT
ATOM      1  C   UNL A   1      35.148  22.231  26.198  1.00  0.00     0.002 C 
ENDROOT
BRANCH   1   2
ATOM      2  C   UNL A   1      34.665  21.420  24.988  1.00  0.00     0.002 C 
BRANCH   2   3
ATOM      3  C   UNL A   1      33.429  20.547  25.230  1.00  0.00     0.021 C 
BRANCH   3   4
ATOM      4  C   UNL A   1      32.113  21.202  24.821  1.00  0.00     0.116 C 
BRANCH   4   5
ATOM      5  N   UNL A   1      31.485  21.894  25.934  1.00  0.00    -0.352 N 
ATOM      6  C   UNL A   1      31.348  23.171  26.356  1.00  0.00     0.251 C 
ATOM      7  O   UNL A   1      30.689  23.310  27.393  1.00  0.00    -0.270 OA
ATOM      8  H   UNL A   1      31.041  21.262  26.545  1.00  0.00     0.163 HD
BRANCH   6   9
ATOM      9  C   UNL A   1      31.917  24.377  25.681  1.00  0.00     0.067 C 
ATOM     10  C   UNL A   1      34.045  27.890  22.545  1.00  0.00     0.048 C 
ATOM     11  C   UNL A   1      33.702  27.811  24.007  1.00  0.00    -0.007 A 
ATOM     12  C   UNL A   1      33.897  28.937  24.818  1.00  0.00     0.023 A 
ATOM     13  C   UNL A   1      33.135  26.660  24.574  1.00  0.00     0.130 A 
ATOM     14  C   UNL A   1      33.561  28.894  26.171  1.00  0.00     0.019 A 
ATOM     15  C   UNL A   1      32.805  26.615  25.932  1.00  0.00     0.019 A 
ATOM     16  O   UNL A   1      32.972  25.579  23.758  1.00  0.00    -0.475 OA
ATOM     17  Br  UNL A   1      33.846  30.417  27.254  1.00  0.00    -0.051 Br
ATOM     18  C   UNL A   1      33.020  27.738  26.734  1.00  0.00     0.027 A 
ATOM     19  C   UNL A   1      32.272  25.382  26.503  1.00  0.00     0.025 C 
ATOM     20  C   UNL A   1      32.063  24.535  24.195  1.00  0.00     0.314 C 
BRANCH  20  21
ATOM     21  C   UNL A   1      30.714  24.717  23.478  1.00  0.00     0.429 C 
ATOM     22  F   UNL A   1      30.184  23.514  23.148  1.00  0.00    -0.167 F 
ATOM     23  F   UNL A   1      29.796  25.341  24.251  1.00  0.00    -0.167 F 
ATOM     24  F   UNL A   1      30.829  25.439  22.340  1.00  0.00    -0.167 F 
ENDBRANCH  20  21
ENDBRANCH   6   9
ENDBRANCH   4   5
ENDBRANCH   3   4
ENDBRANCH   2   3
ENDBRANCH   1   2
BRANCH   1  25
ATOM     25  C   UNL A   1      35.487  23.699  25.921  1.00  0.00     0.021 C 
BRANCH  25  26
ATOM     26  C   UNL A   1      36.780  23.923  25.144  1.00  0.00     0.116 C 
BRANCH  26  27
ATOM     27  N   UNL A   1      37.755  22.873  25.388  1.00  0.00    -0.352 N 
ATOM     28  C   UNL A   1      38.966  22.950  26.029  1.00  0.00     0.251 C 
ATOM     29  H   UNL A   1      37.512  21.983  25.045  1.00  0.00     0.163 HD
ATOM     30  O   UNL A   1      39.748  22.005  25.984  1.00  0.00    -0.269 OA
BRANCH  28  31
ATOM     31  C   UNL A   1      39.330  24.184  26.754  1.00  0.00     0.039 A 
ATOM     32  C   UNL A   1      38.887  24.352  28.068  1.00  0.00     0.014 A 
ATOM     33  C   UNL A   1      40.112  25.168  26.140  1.00  0.00     0.014 A 
ATOM     34  C   UNL A   1      39.276  25.483  28.786  1.00  0.00     0.010 A 
ATOM     35  C   UNL A   1      40.550  26.265  26.878  1.00  0.00     0.010 A 
ATOM     36  C   UNL A   1      40.133  26.434  28.206  1.00  0.00    -0.014 A 
BRANCH  36  37
ATOM     37  C   UNL A   1      40.591  27.614  28.980  1.00  0.00     0.031 A 
ATOM     38  C   UNL A   1      41.969  27.633  29.582  1.00  0.00     0.074 A 
ATOM     39  C   UNL A   1      39.754  28.655  29.165  1.00  0.00     0.049 A 
ATOM     40  N   UNL A   1      42.543  28.568  30.293  1.00  0.00    -0.248 NA
ATOM     41  C   UNL A   1      42.802  26.438  29.376  1.00  0.00     0.031 C 
ATOM     42  C   UNL A   1      38.379  28.731  28.665  1.00  0.00     0.029 A 
ATOM     43  N   UNL A   1      39.936  29.848  29.816  1.00  0.00    -0.354 N 
ATOM     44  C   UNL A   1      43.802  28.077  30.617  1.00  0.00     0.074 A 
ATOM     45  C   UNL A   1      43.887  26.738  30.077  1.00  0.00     0.031 C 
ATOM     46  C   UNL A   1      37.856  29.923  28.997  1.00  0.00     0.029 A 
ATOM     47  C   UNL A   1      38.845  30.684  29.755  1.00  0.00     0.049 A 
ATOM     48  H   UNL A   1      40.770  30.085  30.285  1.00  0.00     0.167 HD
ATOM     49  C   UNL A   1      44.809  28.698  31.275  1.00  0.00     0.037 A 
ATOM     50  C   UNL A   1      38.667  31.925  30.246  1.00  0.00     0.037 A 
ATOM     51  C   UNL A   1      44.728  30.039  31.787  1.00  0.00     0.049 A 
ATOM     52  C   UNL A   1      39.794  32.591  30.986  1.00  0.00     0.074 A 
ATOM     53  C   UNL A   1      45.708  30.775  32.429  1.00  0.00     0.029 A 
ATOM     54  N   UNL A   1      43.604  30.849  31.710  1.00  0.00    -0.354 N 
ATOM     55  N   UNL A   1      40.997  32.131  31.235  1.00  0.00    -0.248 NA
ATOM     56  C   UNL A   1      39.545  33.942  31.511  1.00  0.00     0.031 C 
ATOM     57  C   UNL A   1      45.167  32.018  32.771  1.00  0.00     0.029 A 
ATOM     58  C   UNL A   1      43.861  32.071  32.308  1.00  0.00     0.049 A 
ATOM     59  H   UNL A   1      42.751  30.593  31.292  1.00  0.00     0.167 HD
ATOM     60  C   UNL A   1      41.654  33.142  31.926  1.00  0.00     0.074 A 
ATOM     61  C   UNL A   1      40.720  34.242  32.051  1.00  0.00     0.031 C 
ATOM     62  C   UNL A   1      42.920  33.157  32.413  1.00  0.00     0.037 A 
BRANCH  49  63
ATOM     63  C   UNL A   1      46.093  27.940  31.458  1.00  0.00     0.058 A 
ATOM     64  C   UNL A   1      46.323  27.165  32.606  1.00  0.00     0.135 A 
ATOM     65  C   UNL A   1      47.083  27.950  30.464  1.00  0.00     0.135 A 
ATOM     66  F   UNL A   1      45.415  27.134  33.594  1.00  0.00    -0.206 F 
ATOM     67  C   UNL A   1      47.501  26.445  32.773  1.00  0.00     0.059 A 
ATOM     68  C   UNL A   1      48.259  27.217  30.598  1.00  0.00     0.059 A 
ATOM     69  F   UNL A   1      46.913  28.676  29.347  1.00  0.00    -0.206 F 
ATOM     70  C   UNL A   1      48.464  26.478  31.763  1.00  0.00     0.060 A 
BRANCH  70  71
ATOM     71  S   UNL A   1      49.984  25.531  31.994  1.00  0.00     0.124 S 
ATOM     72  O   UNL A   1      50.872  26.542  32.560  1.00  0.00    -0.237 OA
ATOM     73  O   UNL A   1      49.558  24.479  32.911  1.00  0.00    -0.237 OA
ATOM     74  O   UNL A   1      50.317  25.087  30.644  1.00  0.00    -0.744 OA
ENDBRANCH  70  71
ENDBRANCH  49  63
BRANCH  50  75
ATOM     75  C   UNL A   1      37.382  32.635  30.011  1.00  0.00     0.058 A 
ATOM     76  C   UNL A   1      37.274  33.608  29.007  1.00  0.00     0.135 A 
ATOM     77  C   UNL A   1      36.231  32.333  30.756  1.00  0.00     0.135 A 
ATOM     78  F   UNL A   1      38.348  33.934  28.272  1.00  0.00    -0.206 F 
ATOM     79  C   UNL A   1      36.074  34.262  28.751  1.00  0.00     0.059 A 
ATOM     80  C   UNL A   1      35.013  32.959  30.506  1.00  0.00     0.059 A 
ATOM     81  F   UNL A   1      36.279  31.398  31.718  1.00  0.00    -0.206 F 
ATOM     82  C   UNL A   1      34.946  33.926  29.504  1.00  0.00     0.060 A 
BRANCH  82  83
ATOM     83  S   UNL A   1      33.379  34.738  29.120  1.00  0.00     0.124 S 
ATOM     84  O   UNL A   1      33.834  36.000  28.548  1.00  0.00    -0.237 OA
ATOM     85  O   UNL A   1      32.769  33.797  28.185  1.00  0.00    -0.237 OA
ATOM     86  O   UNL A   1      32.723  34.833  30.420  1.00  0.00    -0.744 OA
ENDBRANCH  82  83
ENDBRANCH  50  75
BRANCH  62  87
ATOM     87  C   UNL A   1      43.385  34.398  33.117  1.00  0.00     0.058 A 
ATOM     88  C   UNL A   1      43.928  35.478  32.405  1.00  0.00     0.135 A 
ATOM     89  C   UNL A   1      43.180  34.553  34.498  1.00  0.00     0.135 A 
ATOM     90  F   UNL A   1      44.151  35.374  31.086  1.00  0.00    -0.206 F 
ATOM     91  C   UNL A   1      44.245  36.676  33.038  1.00  0.00     0.059 A 
ATOM     92  C   UNL A   1      43.470  35.750  35.146  1.00  0.00     0.059 A 
ATOM     93  F   UNL A   1      42.656  33.550  35.220  1.00  0.00    -0.206 F 
ATOM     94  C   UNL A   1      44.001  36.806  34.407  1.00  0.00     0.060 A 
BRANCH  94  95
ATOM     95  S   UNL A   1      44.336  38.395  35.194  1.00  0.00     0.124 S 
ATOM     96  O   UNL A   1      45.782  38.505  35.035  1.00  0.00    -0.237 OA
ATOM     97  O   UNL A   1      43.538  39.315  34.389  1.00  0.00    -0.237 OA
ATOM     98  O   UNL A   1      43.868  38.202  36.563  1.00  0.00    -0.744 OA
ENDBRANCH  94  95
ENDBRANCH  62  87
ENDBRANCH  36  37
ENDBRANCH  28  31
ENDBRANCH  26  27
ENDBRANCH  25  26
ENDBRANCH   1  25
TORSDOF 17
ENDMDL
MODEL 3
REMARK VINA RESULT:     -11.3      3.041      4.084
REMARK SMILES Cc1cc(Br)cc2c1O[C@H](C(F)(F)F)C(C(=O)NCCCCCCNC(=O)c1ccc(-c3c4nc(c(-c5c(F)cc(S(=O)(=O)[O-])cc5F)c5ccc([nH]5)c(-c5c(F)cc(S(=O)(=O)[O-])cc5F)c5nc(c(-c6c(F)cc(S(=O)(=O)[O-])cc6F)c6ccc3[nH]6)C=C5)C=C4)cc1)=C2
REMARK SMILES IDX 22 1 21 2 20 3 19 4 18 5 16 6 17 7 15 9 1 10 2 11 3 12 8 13
REMARK SMILES IDX 4 14 7 15 9 16 5 17 6 18 94 19 10 20 11 21 12 22 13 23 14 24
REMARK SMILES IDX 23 25 24 26 25 27 26 28 27 30 28 31 29 32 93 33 30 34 92 35
REMARK SMILES IDX 31 36 32 37 33 38 86 39 34 40 91 41 85 42 87 43 35 44 90 45
REMARK SMILES IDX 84 46 83 47 36 49 70 50 49 51 69 52 50 53 53 54 68 55 88 56
REMARK SMILES IDX 51 57 52 58 67 60 89 61 54 62 37 63 38 64 47 65 39 66 40 67
REMARK SMILES IDX 46 68 48 69 41 70 42 71 43 72 44 73 45 74 71 75 72 76 81 77
REMARK SMILES IDX 73 78 74 79 80 80 82 81 75 82 76 83 77 84 78 85 79 86 55 87
REMARK SMILES IDX 56 88 65 89 57 90 58 91 64 92 66 93 59 94 60 95 61 96 62 97
REMARK SMILES IDX 63 98
REMARK H PARENT 18 8 25 29 87 48 53 59
REMARK Flexibility Score: inf
ROOT
ATOM      1  C   UNL A   1      34.686  33.013  29.275  1.00  0.00     0.002 C 
ENDROOT
BRANCH   1   2
ATOM      2  C   UNL A   1      34.240  32.478  27.907  1.00  0.00     0.002 C 
BRANCH   2   3
ATOM      3  C   UNL A   1      34.455  30.977  27.684  1.00  0.00     0.021 C 
BRANCH   3   4
ATOM      4  C   UNL A   1      33.225  30.244  27.157  1.00  0.00     0.116 C 
BRANCH   4   5
ATOM      5  N   UNL A   1      33.303  30.017  25.724  1.00  0.00    -0.352 N 
ATOM      6  C   UNL A   1      33.079  28.994  24.869  1.00  0.00     0.251 C 
ATOM      7  O   UNL A   1      33.263  29.262  23.676  1.00  0.00    -0.270 OA
ATOM      8  H   UNL A   1      33.600  30.826  25.248  1.00  0.00     0.163 HD
BRANCH   6   9
ATOM      9  C   UNL A   1      32.644  27.617  25.254  1.00  0.00     0.067 C 
ATOM     10  C   UNL A   1      30.253  23.334  26.879  1.00  0.00     0.048 C 
ATOM     11  C   UNL A   1      31.659  23.712  26.503  1.00  0.00    -0.007 A 
ATOM     12  C   UNL A   1      32.652  22.723  26.480  1.00  0.00     0.023 A 
ATOM     13  C   UNL A   1      31.997  25.017  26.115  1.00  0.00     0.130 A 
ATOM     14  C   UNL A   1      33.956  23.046  26.108  1.00  0.00     0.019 A 
ATOM     15  C   UNL A   1      33.307  25.343  25.750  1.00  0.00     0.019 A 
ATOM     16  O   UNL A   1      31.009  25.956  26.162  1.00  0.00    -0.475 OA
ATOM     17  Br  UNL A   1      35.286  21.702  26.100  1.00  0.00    -0.051 Br
ATOM     18  C   UNL A   1      34.291  24.351  25.747  1.00  0.00     0.027 A 
ATOM     19  C   UNL A   1      33.637  26.722  25.408  1.00  0.00     0.025 C 
ATOM     20  C   UNL A   1      31.214  27.189  25.424  1.00  0.00     0.314 C 
BRANCH  20  21
ATOM     21  C   UNL A   1      30.454  27.103  24.088  1.00  0.00     0.429 C 
ATOM     22  F   UNL A   1      29.361  26.312  24.213  1.00  0.00    -0.167 F 
ATOM     23  F   UNL A   1      30.009  28.310  23.667  1.00  0.00    -0.167 F 
ATOM     24  F   UNL A   1      31.216  26.594  23.094  1.00  0.00    -0.167 F 
ENDBRANCH  20  21
ENDBRANCH   6   9
ENDBRANCH   4   5
ENDBRANCH   3   4
ENDBRANCH   2   3
ENDBRANCH   1   2
BRANCH   1  25
ATOM     25  C   UNL A   1      36.137  33.497  29.358  1.00  0.00     0.021 C 
BRANCH  25  26
ATOM     26  C   UNL A   1      36.910  33.003  30.576  1.00  0.00     0.116 C 
BRANCH  26  27
ATOM     27  N   UNL A   1      36.317  31.807  31.153  1.00  0.00    -0.352 N 
ATOM     28  C   UNL A   1      36.747  30.506  31.076  1.00  0.00     0.251 C 
ATOM     29  H   UNL A   1      35.492  31.951  31.670  1.00  0.00     0.163 HD
ATOM     30  O   UNL A   1      36.026  29.594  31.467  1.00  0.00    -0.269 OA
BRANCH  28  31
ATOM     31  C   UNL A   1      38.075  30.211  30.500  1.00  0.00     0.039 A 
ATOM     32  C   UNL A   1      39.142  29.948  31.361  1.00  0.00     0.014 A 
ATOM     33  C   UNL A   1      38.262  30.186  29.113  1.00  0.00     0.014 A 
ATOM     34  C   UNL A   1      40.387  29.604  30.831  1.00  0.00     0.010 A 
ATOM     35  C   UNL A   1      39.487  29.782  28.587  1.00  0.00     0.010 A 
ATOM     36  C   UNL A   1      40.561  29.491  29.441  1.00  0.00    -0.014 A 
BRANCH  36  37
ATOM     37  C   UNL A   1      41.868  29.079  28.871  1.00  0.00     0.031 A 
ATOM     38  C   UNL A   1      42.989  30.075  28.762  1.00  0.00     0.074 A 
ATOM     39  C   UNL A   1      42.032  27.818  28.427  1.00  0.00     0.049 A 
ATOM     40  N   UNL A   1      44.196  29.904  28.288  1.00  0.00    -0.248 NA
ATOM     41  C   UNL A   1      42.713  31.444  29.224  1.00  0.00     0.031 C 
ATOM     42  C   UNL A   1      41.002  26.776  28.442  1.00  0.00     0.029 A 
ATOM     43  N   UNL A   1      43.125  27.193  27.882  1.00  0.00    -0.354 N 
ATOM     44  C   UNL A   1      44.822  31.140  28.398  1.00  0.00     0.074 A 
ATOM     45  C   UNL A   1      43.845  32.066  28.925  1.00  0.00     0.031 C 
ATOM     46  C   UNL A   1      41.523  25.634  27.964  1.00  0.00     0.029 A 
ATOM     47  C   UNL A   1      42.914  25.867  27.583  1.00  0.00     0.049 A 
ATOM     48  H   UNL A   1      43.981  27.652  27.719  1.00  0.00     0.167 HD
ATOM     49  C   UNL A   1      46.106  31.465  28.116  1.00  0.00     0.037 A 
ATOM     50  C   UNL A   1      43.748  24.943  27.070  1.00  0.00     0.037 A 
ATOM     51  C   UNL A   1      47.081  30.534  27.617  1.00  0.00     0.049 A 
ATOM     52  C   UNL A   1      45.165  25.330  26.751  1.00  0.00     0.074 A 
ATOM     53  C   UNL A   1      48.419  30.754  27.342  1.00  0.00     0.029 A 
ATOM     54  N   UNL A   1      46.825  29.203  27.321  1.00  0.00    -0.354 N 
ATOM     55  N   UNL A   1      45.756  26.491  26.913  1.00  0.00    -0.248 NA
ATOM     56  C   UNL A   1      46.033  24.288  26.184  1.00  0.00     0.031 C 
ATOM     57  C   UNL A   1      48.965  29.566  26.849  1.00  0.00     0.029 A 
ATOM     58  C   UNL A   1      47.976  28.594  26.852  1.00  0.00     0.049 A 
ATOM     59  H   UNL A   1      45.954  28.757  27.431  1.00  0.00     0.167 HD
ATOM     60  C   UNL A   1      47.066  26.313  26.487  1.00  0.00     0.074 A 
ATOM     61  C   UNL A   1      47.188  24.932  26.067  1.00  0.00     0.031 C 
ATOM     62  C   UNL A   1      48.079  27.214  26.448  1.00  0.00     0.037 A 
BRANCH  49  63
ATOM     63  C   UNL A   1      46.535  32.884  28.364  1.00  0.00     0.058 A 
ATOM     64  C   UNL A   1      46.456  33.855  27.354  1.00  0.00     0.135 A 
ATOM     65  C   UNL A   1      46.987  33.288  29.630  1.00  0.00     0.135 A 
ATOM     66  F   UNL A   1      46.045  33.517  26.122  1.00  0.00    -0.206 F 
ATOM     67  C   UNL A   1      46.833  35.174  27.583  1.00  0.00     0.059 A 
ATOM     68  C   UNL A   1      47.346  34.608  29.889  1.00  0.00     0.059 A 
ATOM     69  F   UNL A   1      47.083  32.399  30.630  1.00  0.00    -0.206 F 
ATOM     70  C   UNL A   1      47.277  35.541  28.854  1.00  0.00     0.060 A 
BRANCH  70  71
ATOM     71  S   UNL A   1      47.755  37.260  29.134  1.00  0.00     0.124 S 
ATOM     72  O   UNL A   1      46.460  37.932  29.090  1.00  0.00    -0.237 OA
ATOM     73  O   UNL A   1      48.391  37.196  30.446  1.00  0.00    -0.237 OA
ATOM     74  O   UNL A   1      48.651  37.549  28.019  1.00  0.00    -0.744 OA
ENDBRANCH  70  71
ENDBRANCH  49  63
BRANCH  50  75
ATOM     75  C   UNL A   1      43.272  23.549  26.870  1.00  0.00     0.058 A 
ATOM     76  C   UNL A   1      43.033  23.051  25.581  1.00  0.00     0.135 A 
ATOM     77  C   UNL A   1      43.082  22.678  27.954  1.00  0.00     0.135 A 
ATOM     78  F   UNL A   1      43.197  23.849  24.514  1.00  0.00    -0.206 F 
ATOM     79  C   UNL A   1      42.617  21.741  25.371  1.00  0.00     0.059 A 
ATOM     80  C   UNL A   1      42.685  21.356  27.768  1.00  0.00     0.059 A 
ATOM     81  F   UNL A   1      43.312  23.102  29.206  1.00  0.00    -0.206 F 
ATOM     82  C   UNL A   1      42.451  20.899  26.472  1.00  0.00     0.060 A 
BRANCH  82  83
ATOM     83  S   UNL A   1      41.970  19.182  26.181  1.00  0.00     0.124 S 
ATOM     84  O   UNL A   1      42.777  18.845  25.014  1.00  0.00    -0.237 OA
ATOM     85  O   UNL A   1      42.359  18.540  27.433  1.00  0.00    -0.237 OA
ATOM     86  O   UNL A   1      40.531  19.270  25.951  1.00  0.00    -0.744 OA
ENDBRANCH  82  83
ENDBRANCH  50  75
BRANCH  62  87
ATOM     87  C   UNL A   1      49.415  26.747  25.948  1.00  0.00     0.058 A 
ATOM     88  C   UNL A   1      49.801  26.939  24.613  1.00  0.00     0.135 A 
ATOM     89  C   UNL A   1      50.358  26.208  26.837  1.00  0.00     0.135 A 
ATOM     90  F   UNL A   1      48.930  27.442  23.724  1.00  0.00    -0.206 F 
ATOM     91  C   UNL A   1      51.082  26.620  24.178  1.00  0.00     0.059 A 
ATOM     92  C   UNL A   1      51.652  25.902  26.428  1.00  0.00     0.059 A 
ATOM     93  F   UNL A   1      50.038  26.012  28.126  1.00  0.00    -0.206 F 
ATOM     94  C   UNL A   1      52.005  26.113  25.095  1.00  0.00     0.060 A 
BRANCH  94  95
ATOM     95  S   UNL A   1      53.689  25.788  24.533  1.00  0.00     0.124 S 
ATOM     96  O   UNL A   1      53.551  25.934  23.088  1.00  0.00    -0.237 OA
ATOM     97  O   UNL A   1      54.450  26.836  25.206  1.00  0.00    -0.237 OA
ATOM     98  O   UNL A   1      53.949  24.431  25.005  1.00  0.00    -0.744 OA
ENDBRANCH  94  95
ENDBRANCH  62  87
ENDBRANCH  36  37
ENDBRANCH  28  31
ENDBRANCH  26  27
ENDBRANCH  25  26
ENDBRANCH   1  25
TORSDOF 17
ENDMDL
