MODEL 1
REMARK VINA RESULT:     -10.8      0.000      0.000
REMARK SMILES O=C(CCN1C(=O)/C(=C/C=C/c2ccco2)SC1=S)Nc1ccc(C(=O)NCCCCCCNC(=O)c2ccc(-c3c4nc(c(-c5c(F)cc(S(=O)(=O)[O-])cc5F)c5ccc([nH]5)c(-c5c(F)cc(S(=O)(=O)[O-])cc5F)c5nc(c(-c6c(F)cc(S(=O)(=O)[O-])cc6F)c6ccc3[nH]6)C=C5)C=C4)cc2)c(O)c1
REMARK SMILES IDX 29 1 28 2 27 3 25 4 26 5 24 7 21 8 22 9 105 10 23 11 103 12
REMARK SMILES IDX 20 13 1 14 2 15 3 17 4 18 5 19 6 20 18 21 7 22 8 23 17 24
REMARK SMILES IDX 19 25 9 26 10 27 11 28 12 29 13 30 16 31 14 32 15 33 104 34
REMARK SMILES IDX 30 36 31 37 32 38 33 39 34 40 35 41 36 43 37 44 38 45 102 46
REMARK SMILES IDX 39 47 101 48 40 49 41 50 42 51 95 52 43 53 100 54 94 55
REMARK SMILES IDX 96 56 44 57 99 58 93 59 92 60 45 62 79 63 58 64 78 65 59 66
REMARK SMILES IDX 62 67 77 68 97 69 60 70 61 71 76 73 98 74 63 75 46 76 47 77
REMARK SMILES IDX 56 78 48 79 49 80 55 81 57 82 50 83 51 84 52 85 53 86 54 87
REMARK SMILES IDX 80 88 81 89 90 90 82 91 83 92 89 93 91 94 84 95 85 96 86 97
REMARK SMILES IDX 87 98 88 99 64 100 65 101 74 102 66 103 67 104 73 105 75 106
REMARK SMILES IDX 68 107 69 108 70 109 71 110 72 111
REMARK H PARENT 27 6 20 16 104 35 34 42 96 61 62 72
REMARK Flexibility Score: inf
ROOT
ATOM      1  C   UNL A   1      35.833  30.721  27.718  1.00  0.00     0.021 C 
ENDROOT
BRANCH   1   2
ATOM      2  C   UNL A   1      34.571  29.933  27.375  1.00  0.00     0.116 C 
BRANCH   2   3
ATOM      3  N   UNL A   1      33.363  30.743  27.316  1.00  0.00    -0.352 N 
ATOM      4  C   UNL A   1      32.145  30.481  26.733  1.00  0.00     0.255 C 
ATOM      5  O   UNL A   1      31.272  31.345  26.760  1.00  0.00    -0.269 OA
ATOM      6  H   UNL A   1      33.429  31.618  27.763  1.00  0.00     0.163 HD
BRANCH   4   7
ATOM      7  C   UNL A   1      31.867  29.195  26.048  1.00  0.00     0.081 A 
ATOM      8  C   UNL A   1      31.495  26.804  24.602  1.00  0.00     0.044 A 
ATOM      9  C   UNL A   1      31.861  27.969  23.934  1.00  0.00     0.027 A 
ATOM     10  C   UNL A   1      31.256  26.855  25.979  1.00  0.00     0.073 A 
ATOM     11  C   UNL A   1      32.041  29.159  24.654  1.00  0.00     0.020 A 
ATOM     12  C   UNL A   1      31.407  28.045  26.689  1.00  0.00     0.130 A 
BRANCH   8  13
ATOM     13  N   UNL A   1      31.303  25.560  23.982  1.00  0.00    -0.326 N 
ATOM     14  O   UNL A   1      31.270  24.057  25.755  1.00  0.00    -0.275 OA
ATOM     15  C   UNL A   1      31.206  24.311  24.558  1.00  0.00     0.226 C 
ATOM     16  H   UNL A   1      31.226  25.582  23.001  1.00  0.00     0.169 HD
BRANCH  15  17
ATOM     17  C   UNL A   1      31.054  23.202  23.527  1.00  0.00     0.122 C 
BRANCH  17  18
ATOM     18  C   UNL A   1      32.372  22.612  23.005  1.00  0.00     0.137 C 
BRANCH  18  19
ATOM     19  N   UNL A   1      33.433  22.446  24.016  1.00  0.00    -0.292 N 
ATOM     20  C   UNL A   1      34.378  23.453  24.174  1.00  0.00     0.266 C 
ATOM     21  C   UNL A   1      33.533  21.368  24.879  1.00  0.00     0.148 C 
ATOM     22  O   UNL A   1      34.412  24.502  23.551  1.00  0.00    -0.268 OA
ATOM     23  C   UNL A   1      35.427  23.025  25.139  1.00  0.00     0.080 C 
ATOM     24  S   UNL A   1      34.965  21.547  25.883  1.00  0.00    -0.054 SA
ATOM     25  S   UNL A   1      32.545  20.033  24.988  1.00  0.00    -0.052 S 
ATOM     26  C   UNL A   1      36.575  23.700  25.296  1.00  0.00     0.021 C 
BRANCH  26  27
ATOM     27  C   UNL A   1      37.697  23.283  26.116  1.00  0.00     0.005 C 
ATOM     28  C   UNL A   1      38.640  22.419  25.705  1.00  0.00     0.047 C 
BRANCH  28  29
ATOM     29  C   UNL A   1      39.726  22.072  26.554  1.00  0.00     0.126 A 
ATOM     30  C   UNL A   1      40.650  22.876  27.216  1.00  0.00     0.050 A 
ATOM     31  O   UNL A   1      40.030  20.763  26.856  1.00  0.00    -0.465 OA
ATOM     32  C   UNL A   1      41.560  22.029  27.891  1.00  0.00     0.042 A 
ATOM     33  C   UNL A   1      41.148  20.749  27.624  1.00  0.00     0.195 A 
ENDBRANCH  28  29
ENDBRANCH  26  27
ENDBRANCH  18  19
ENDBRANCH  17  18
ENDBRANCH  15  17
ENDBRANCH   8  13
BRANCH  12  34
ATOM     34  O   UNL A   1      31.030  27.988  28.001  1.00  0.00    -0.507 OA
ATOM     35  H   UNL A   1      31.023  28.769  28.520  1.00  0.00     0.293 HD
ENDBRANCH  12  34
ENDBRANCH   4   7
ENDBRANCH   2   3
ENDBRANCH   1   2
BRANCH   1  36
ATOM     36  C   UNL A   1      35.679  31.838  28.755  1.00  0.00     0.002 C 
BRANCH  36  37
ATOM     37  C   UNL A   1      36.706  32.973  28.708  1.00  0.00     0.002 C 
BRANCH  37  38
ATOM     38  C   UNL A   1      38.023  32.734  29.447  1.00  0.00     0.021 C 
BRANCH  38  39
ATOM     39  C   UNL A   1      37.908  32.404  30.931  1.00  0.00     0.116 C 
BRANCH  39  40
ATOM     40  N   UNL A   1      37.161  31.184  31.185  1.00  0.00    -0.352 N 
ATOM     41  C   UNL A   1      37.487  29.882  30.894  1.00  0.00     0.251 C 
ATOM     42  H   UNL A   1      36.292  31.310  31.629  1.00  0.00     0.163 HD
ATOM     43  O   UNL A   1      36.653  28.995  31.064  1.00  0.00    -0.269 OA
BRANCH  41  44
ATOM     44  C   UNL A   1      38.823  29.547  30.352  1.00  0.00     0.039 A 
ATOM     45  C   UNL A   1      39.012  29.576  28.967  1.00  0.00     0.014 A 
ATOM     46  C   UNL A   1      39.883  29.201  31.194  1.00  0.00     0.014 A 
ATOM     47  C   UNL A   1      40.278  29.317  28.434  1.00  0.00     0.010 A 
ATOM     48  C   UNL A   1      41.161  29.021  30.666  1.00  0.00     0.010 A 
ATOM     49  C   UNL A   1      41.371  29.072  29.279  1.00  0.00    -0.014 A 
BRANCH  49  50
ATOM     50  C   UNL A   1      42.739  28.879  28.729  1.00  0.00     0.031 A 
ATOM     51  C   UNL A   1      43.713  30.025  28.686  1.00  0.00     0.074 A 
ATOM     52  C   UNL A   1      43.083  27.685  28.207  1.00  0.00     0.049 A 
ATOM     53  N   UNL A   1      44.929  30.059  28.204  1.00  0.00    -0.248 NA
ATOM     54  C   UNL A   1      43.249  31.311  29.231  1.00  0.00     0.031 C 
ATOM     55  C   UNL A   1      42.207  26.513  28.134  1.00  0.00     0.029 A 
ATOM     56  N   UNL A   1      44.252  27.262  27.625  1.00  0.00    -0.354 N 
ATOM     57  C   UNL A   1      45.368  31.368  28.368  1.00  0.00     0.074 A 
ATOM     58  C   UNL A   1      44.268  32.109  28.947  1.00  0.00     0.031 C 
ATOM     59  C   UNL A   1      42.874  25.501  27.557  1.00  0.00     0.029 A 
ATOM     60  C   UNL A   1      44.208  25.960  27.182  1.00  0.00     0.049 A 
ATOM     61  H   UNL A   1      45.047  27.835  27.533  1.00  0.00     0.167 HD
ATOM     62  C   UNL A   1      46.581  31.898  28.080  1.00  0.00     0.037 A 
ATOM     63  C   UNL A   1      45.129  25.221  26.533  1.00  0.00     0.037 A 
ATOM     64  C   UNL A   1      47.675  31.147  27.517  1.00  0.00     0.049 A 
ATOM     65  C   UNL A   1      46.474  25.823  26.232  1.00  0.00     0.074 A 
ATOM     66  C   UNL A   1      48.967  31.570  27.262  1.00  0.00     0.029 A 
ATOM     67  N   UNL A   1      47.600  29.822  27.105  1.00  0.00    -0.354 N 
ATOM     68  N   UNL A   1      46.903  27.039  26.477  1.00  0.00    -0.248 NA
ATOM     69  C   UNL A   1      47.462  24.955  25.579  1.00  0.00     0.031 C 
ATOM     70  C   UNL A   1      49.655  30.524  26.637  1.00  0.00     0.029 A 
ATOM     71  C   UNL A   1      48.813  29.425  26.565  1.00  0.00     0.049 A 
ATOM     72  H   UNL A   1      46.804  29.250  27.186  1.00  0.00     0.167 HD
ATOM     73  C   UNL A   1      48.218  27.076  26.026  1.00  0.00     0.074 A 
ATOM     74  C   UNL A   1      48.517  25.756  25.507  1.00  0.00     0.031 C 
ATOM     75  C   UNL A   1      49.098  28.109  26.043  1.00  0.00     0.037 A 
BRANCH  62  76
ATOM     76  C   UNL A   1      46.782  33.367  28.350  1.00  0.00     0.058 A 
ATOM     77  C   UNL A   1      46.527  34.347  27.376  1.00  0.00     0.135 A 
ATOM     78  C   UNL A   1      47.225  33.804  29.610  1.00  0.00     0.135 A 
ATOM     79  F   UNL A   1      46.111  33.990  26.150  1.00  0.00    -0.206 F 
ATOM     80  C   UNL A   1      46.753  35.698  27.623  1.00  0.00     0.059 A 
ATOM     81  C   UNL A   1      47.424  35.152  29.891  1.00  0.00     0.059 A 
ATOM     82  F   UNL A   1      47.479  32.914  30.583  1.00  0.00    -0.206 F 
ATOM     83  C   UNL A   1      47.206  36.090  28.883  1.00  0.00     0.060 A 
BRANCH  83  84
ATOM     84  S   UNL A   1      47.517  37.843  29.181  1.00  0.00     0.124 S 
ATOM     85  O   UNL A   1      46.444  38.172  30.115  1.00  0.00    -0.237 OA
ATOM     86  O   UNL A   1      48.864  37.831  29.743  1.00  0.00    -0.237 OA
ATOM     87  O   UNL A   1      47.399  38.440  27.855  1.00  0.00    -0.744 OA
ENDBRANCH  83  84
ENDBRANCH  62  76
BRANCH  63  88
ATOM     88  C   UNL A   1      44.800  23.824  26.142  1.00  0.00     0.058 A 
ATOM     89  C   UNL A   1      44.051  23.547  24.989  1.00  0.00     0.135 A 
ATOM     90  C   UNL A   1      45.284  22.735  26.884  1.00  0.00     0.135 A 
ATOM     91  F   UNL A   1      43.558  24.553  24.251  1.00  0.00    -0.206 F 
ATOM     92  C   UNL A   1      43.797  22.241  24.583  1.00  0.00     0.059 A 
ATOM     93  C   UNL A   1      45.065  21.421  26.484  1.00  0.00     0.059 A 
ATOM     94  F   UNL A   1      46.020  22.946  27.987  1.00  0.00    -0.206 F 
ATOM     95  C   UNL A   1      44.319  21.184  25.331  1.00  0.00     0.060 A 
BRANCH  95  96
ATOM     96  S   UNL A   1      44.069  19.495  24.741  1.00  0.00     0.124 S 
ATOM     97  O   UNL A   1      44.442  19.614  23.338  1.00  0.00    -0.237 OA
ATOM     98  O   UNL A   1      44.987  18.738  25.587  1.00  0.00    -0.237 OA
ATOM     99  O   UNL A   1      42.651  19.255  25.001  1.00  0.00    -0.744 OA
ENDBRANCH  95  96
ENDBRANCH  63  88
BRANCH  75 100
ATOM    100  C   UNL A   1      50.481  27.853  25.507  1.00  0.00     0.058 A 
ATOM    101  C   UNL A   1      50.758  27.863  24.130  1.00  0.00     0.135 A 
ATOM    102  C   UNL A   1      51.557  27.648  26.388  1.00  0.00     0.135 A 
ATOM    103  F   UNL A   1      49.768  28.047  23.244  1.00  0.00    -0.206 F 
ATOM    104  C   UNL A   1      52.046  27.652  23.646  1.00  0.00     0.059 A 
ATOM    105  C   UNL A   1      52.857  27.467  25.927  1.00  0.00     0.059 A 
ATOM    106  F   UNL A   1      51.352  27.639  27.715  1.00  0.00    -0.206 F 
ATOM    107  C   UNL A   1      53.089  27.458  24.554  1.00  0.00     0.060 A 
BRANCH 107 108
ATOM    108  S   UNL A   1      54.759  27.216  23.911  1.00  0.00     0.124 S 
ATOM    109  O   UNL A   1      55.005  25.818  24.251  1.00  0.00    -0.237 OA
ATOM    110  O   UNL A   1      54.591  27.504  22.490  1.00  0.00    -0.237 OA
ATOM    111  O   UNL A   1      55.554  28.190  24.653  1.00  0.00    -0.744 OA
ENDBRANCH 107 108
ENDBRANCH  75 100
ENDBRANCH  49  50
ENDBRANCH  41  44
ENDBRANCH  39  40
ENDBRANCH  38  39
ENDBRANCH  37  38
ENDBRANCH  36  37
ENDBRANCH   1  36
TORSDOF 23
ENDMDL
MODEL 2
REMARK VINA RESULT:     -10.1      4.724     10.946
REMARK SMILES O=C(CCN1C(=O)/C(=C/C=C/c2ccco2)SC1=S)Nc1ccc(C(=O)NCCCCCCNC(=O)c2ccc(-c3c4nc(c(-c5c(F)cc(S(=O)(=O)[O-])cc5F)c5ccc([nH]5)c(-c5c(F)cc(S(=O)(=O)[O-])cc5F)c5nc(c(-c6c(F)cc(S(=O)(=O)[O-])cc6F)c6ccc3[nH]6)C=C5)C=C4)cc2)c(O)c1
REMARK SMILES IDX 29 1 28 2 27 3 25 4 26 5 24 7 21 8 22 9 105 10 23 11 103 12
REMARK SMILES IDX 20 13 1 14 2 15 3 17 4 18 5 19 6 20 18 21 7 22 8 23 17 24
REMARK SMILES IDX 19 25 9 26 10 27 11 28 12 29 13 30 16 31 14 32 15 33 104 34
REMARK SMILES IDX 30 36 31 37 32 38 33 39 34 40 35 41 36 43 37 44 38 45 102 46
REMARK SMILES IDX 39 47 101 48 40 49 41 50 42 51 95 52 43 53 100 54 94 55
REMARK SMILES IDX 96 56 44 57 99 58 93 59 92 60 45 62 79 63 58 64 78 65 59 66
REMARK SMILES IDX 62 67 77 68 97 69 60 70 61 71 76 73 98 74 63 75 46 76 47 77
REMARK SMILES IDX 56 78 48 79 49 80 55 81 57 82 50 83 51 84 52 85 53 86 54 87
REMARK SMILES IDX 80 88 81 89 90 90 82 91 83 92 89 93 91 94 84 95 85 96 86 97
REMARK SMILES IDX 87 98 88 99 64 100 65 101 74 102 66 103 67 104 73 105 75 106
REMARK SMILES IDX 68 107 69 108 70 109 71 110 72 111
REMARK H PARENT 27 6 20 16 104 35 34 42 96 61 62 72
REMARK Flexibility Score: inf
ROOT
ATOM      1  C   UNL A   1      40.266  23.323  27.150  1.00  0.00     0.021 C 
ENDROOT
BRANCH   1   2
ATOM      2  C   UNL A   1      38.938  23.049  26.449  1.00  0.00     0.116 C 
BRANCH   2   3
ATOM      3  N   UNL A   1      38.820  21.705  25.904  1.00  0.00    -0.352 N 
ATOM      4  C   UNL A   1      37.809  21.130  25.170  1.00  0.00     0.255 C 
ATOM      5  O   UNL A   1      37.899  19.944  24.856  1.00  0.00    -0.269 OA
ATOM      6  H   UNL A   1      39.585  21.114  26.091  1.00  0.00     0.163 HD
BRANCH   4   7
ATOM      7  C   UNL A   1      36.600  21.892  24.771  1.00  0.00     0.081 A 
ATOM      8  C   UNL A   1      34.356  23.296  23.804  1.00  0.00     0.044 A 
ATOM      9  C   UNL A   1      35.535  23.279  23.065  1.00  0.00     0.027 A 
ATOM     10  C   UNL A   1      34.325  22.663  25.051  1.00  0.00     0.073 A 
ATOM     11  C   UNL A   1      36.652  22.585  23.550  1.00  0.00     0.020 A 
ATOM     12  C   UNL A   1      35.445  21.997  25.545  1.00  0.00     0.130 A 
BRANCH   8  13
ATOM     13  N   UNL A   1      33.177  23.945  23.406  1.00  0.00    -0.326 N 
ATOM     14  O   UNL A   1      33.914  25.555  21.898  1.00  0.00    -0.275 OA
ATOM     15  C   UNL A   1      33.021  24.990  22.520  1.00  0.00     0.226 C 
ATOM     16  H   UNL A   1      32.348  23.609  23.815  1.00  0.00     0.169 HD
BRANCH  15  17
ATOM     17  C   UNL A   1      31.574  25.446  22.403  1.00  0.00     0.122 C 
BRANCH  17  18
ATOM     18  C   UNL A   1      30.926  25.903  23.719  1.00  0.00     0.137 C 
BRANCH  18  19
ATOM     19  N   UNL A   1      31.487  27.135  24.302  1.00  0.00    -0.292 N 
ATOM     20  C   UNL A   1      32.463  27.033  25.287  1.00  0.00     0.266 C 
ATOM     21  C   UNL A   1      31.152  28.417  23.901  1.00  0.00     0.148 C 
ATOM     22  O   UNL A   1      32.930  25.992  25.720  1.00  0.00    -0.268 OA
ATOM     23  C   UNL A   1      32.785  28.380  25.831  1.00  0.00     0.080 C 
ATOM     24  S   UNL A   1      32.013  29.589  24.887  1.00  0.00    -0.054 SA
ATOM     25  S   UNL A   1      30.070  28.885  22.725  1.00  0.00    -0.052 S 
ATOM     26  C   UNL A   1      33.514  28.547  26.945  1.00  0.00     0.021 C 
BRANCH  26  27
ATOM     27  C   UNL A   1      33.764  29.812  27.610  1.00  0.00     0.005 C 
ATOM     28  C   UNL A   1      34.957  30.428  27.615  1.00  0.00     0.047 C 
BRANCH  28  29
ATOM     29  C   UNL A   1      35.125  31.679  28.270  1.00  0.00     0.126 A 
ATOM     30  C   UNL A   1      35.857  32.803  27.898  1.00  0.00     0.050 A 
ATOM     31  O   UNL A   1      34.525  31.960  29.477  1.00  0.00    -0.465 OA
ATOM     32  C   UNL A   1      35.734  33.764  28.930  1.00  0.00     0.042 A 
ATOM     33  C   UNL A   1      34.925  33.193  29.878  1.00  0.00     0.195 A 
ENDBRANCH  28  29
ENDBRANCH  26  27
ENDBRANCH  18  19
ENDBRANCH  17  18
ENDBRANCH  15  17
ENDBRANCH   8  13
BRANCH  12  34
ATOM     34  O   UNL A   1      35.322  21.525  26.822  1.00  0.00    -0.507 OA
ATOM     35  H   UNL A   1      35.593  22.056  27.545  1.00  0.00     0.293 HD
ENDBRANCH  12  34
ENDBRANCH   4   7
ENDBRANCH   2   3
ENDBRANCH   1   2
BRANCH   1  36
ATOM     36  C   UNL A   1      41.019  22.102  27.686  1.00  0.00     0.002 C 
BRANCH  36  37
ATOM     37  C   UNL A   1      42.469  22.320  28.127  1.00  0.00     0.002 C 
BRANCH  37  38
ATOM     38  C   UNL A   1      42.700  23.356  29.228  1.00  0.00     0.021 C 
BRANCH  38  39
ATOM     39  C   UNL A   1      42.985  24.779  28.758  1.00  0.00     0.116 C 
BRANCH  39  40
ATOM     40  N   UNL A   1      44.019  24.844  27.740  1.00  0.00    -0.352 N 
ATOM     41  C   UNL A   1      44.728  25.927  27.281  1.00  0.00     0.251 C 
ATOM     42  H   UNL A   1      44.244  23.985  27.316  1.00  0.00     0.163 HD
ATOM     43  O   UNL A   1      45.468  25.800  26.309  1.00  0.00    -0.269 OA
BRANCH  41  44
ATOM     44  C   UNL A   1      44.583  27.249  27.933  1.00  0.00     0.039 A 
ATOM     45  C   UNL A   1      45.446  27.578  28.982  1.00  0.00     0.014 A 
ATOM     46  C   UNL A   1      43.603  28.157  27.524  1.00  0.00     0.014 A 
ATOM     47  C   UNL A   1      45.365  28.839  29.578  1.00  0.00     0.010 A 
ATOM     48  C   UNL A   1      43.576  29.442  28.065  1.00  0.00     0.010 A 
ATOM     49  C   UNL A   1      44.453  29.795  29.102  1.00  0.00    -0.014 A 
BRANCH  49  50
ATOM     50  C   UNL A   1      44.415  31.169  29.670  1.00  0.00     0.031 A 
ATOM     51  C   UNL A   1      45.356  32.230  29.166  1.00  0.00     0.074 A 
ATOM     52  C   UNL A   1      43.575  31.444  30.688  1.00  0.00     0.049 A 
ATOM     53  N   UNL A   1      45.499  33.466  29.569  1.00  0.00    -0.248 NA
ATOM     54  C   UNL A   1      46.277  31.841  28.087  1.00  0.00     0.031 C 
ATOM     55  C   UNL A   1      42.657  30.484  31.305  1.00  0.00     0.029 A 
ATOM     56  N   UNL A   1      43.366  32.604  31.392  1.00  0.00    -0.354 N 
ATOM     57  C   UNL A   1      46.536  33.997  28.810  1.00  0.00     0.074 A 
ATOM     58  C   UNL A   1      47.020  32.931  27.959  1.00  0.00     0.031 C 
ATOM     59  C   UNL A   1      41.972  31.098  32.284  1.00  0.00     0.029 A 
ATOM     60  C   UNL A   1      42.430  32.480  32.392  1.00  0.00     0.049 A 
ATOM     61  H   UNL A   1      43.842  33.444  31.200  1.00  0.00     0.167 HD
ATOM     62  C   UNL A   1      47.027  35.260  28.809  1.00  0.00     0.037 A 
ATOM     63  C   UNL A   1      41.997  33.371  33.305  1.00  0.00     0.037 A 
ATOM     64  C   UNL A   1      46.528  36.318  29.651  1.00  0.00     0.049 A 
ATOM     65  C   UNL A   1      42.545  34.771  33.282  1.00  0.00     0.074 A 
ATOM     66  C   UNL A   1      46.901  37.650  29.670  1.00  0.00     0.029 A 
ATOM     67  N   UNL A   1      45.559  36.161  30.634  1.00  0.00    -0.354 N 
ATOM     68  N   UNL A   1      43.463  35.282  32.495  1.00  0.00    -0.248 NA
ATOM     69  C   UNL A   1      41.994  35.719  34.259  1.00  0.00     0.031 C 
ATOM     70  C   UNL A   1      46.208  38.284  30.707  1.00  0.00     0.029 A 
ATOM     71  C   UNL A   1      45.350  37.364  31.290  1.00  0.00     0.049 A 
ATOM     72  H   UNL A   1      45.090  35.320  30.835  1.00  0.00     0.167 HD
ATOM     73  C   UNL A   1      43.586  36.615  32.868  1.00  0.00     0.074 A 
ATOM     74  C   UNL A   1      42.637  36.835  33.941  1.00  0.00     0.031 C 
ATOM     75  C   UNL A   1      44.407  37.570  32.365  1.00  0.00     0.037 A 
BRANCH  62  76
ATOM     76  C   UNL A   1      48.177  35.560  27.882  1.00  0.00     0.058 A 
ATOM     77  C   UNL A   1      47.977  36.030  26.573  1.00  0.00     0.135 A 
ATOM     78  C   UNL A   1      49.502  35.386  28.315  1.00  0.00     0.135 A 
ATOM     79  F   UNL A   1      46.733  36.207  26.100  1.00  0.00    -0.206 F 
ATOM     80  C   UNL A   1      49.044  36.268  25.712  1.00  0.00     0.059 A 
ATOM     81  C   UNL A   1      50.586  35.651  27.482  1.00  0.00     0.059 A 
ATOM     82  F   UNL A   1      49.756  34.945  29.556  1.00  0.00    -0.206 F 
ATOM     83  C   UNL A   1      50.345  36.070  26.175  1.00  0.00     0.060 A 
BRANCH  83  84
ATOM     84  S   UNL A   1      51.718  36.359  25.039  1.00  0.00     0.124 S 
ATOM     85  O   UNL A   1      52.230  37.638  25.524  1.00  0.00    -0.237 OA
ATOM     86  O   UNL A   1      52.574  35.202  25.281  1.00  0.00    -0.237 OA
ATOM     87  O   UNL A   1      51.075  36.398  23.730  1.00  0.00    -0.744 OA
ENDBRANCH  83  84
ENDBRANCH  62  76
BRANCH  63  88
ATOM     88  C   UNL A   1      40.978  32.954  34.306  1.00  0.00     0.058 A 
ATOM     89  C   UNL A   1      41.352  32.409  35.543  1.00  0.00     0.135 A 
ATOM     90  C   UNL A   1      39.609  33.152  34.066  1.00  0.00     0.135 A 
ATOM     91  F   UNL A   1      42.647  32.191  35.817  1.00  0.00    -0.206 F 
ATOM     92  C   UNL A   1      40.406  32.079  36.508  1.00  0.00     0.059 A 
ATOM     93  C   UNL A   1      38.647  32.854  35.025  1.00  0.00     0.059 A 
ATOM     94  F   UNL A   1      39.200  33.685  32.904  1.00  0.00    -0.206 F 
ATOM     95  C   UNL A   1      39.056  32.316  36.244  1.00  0.00     0.060 A 
BRANCH  95  96
ATOM     96  S   UNL A   1      37.844  31.978  37.541  1.00  0.00     0.124 S 
ATOM     97  O   UNL A   1      38.595  32.316  38.743  1.00  0.00    -0.237 OA
ATOM     98  O   UNL A   1      36.758  32.886  37.186  1.00  0.00    -0.237 OA
ATOM     99  O   UNL A   1      37.546  30.559  37.359  1.00  0.00    -0.744 OA
ENDBRANCH  95  96
ENDBRANCH  63  88
BRANCH  75 100
ATOM    100  C   UNL A   1      44.305  38.954  32.949  1.00  0.00     0.058 A 
ATOM    101  C   UNL A   1      43.500  39.948  32.369  1.00  0.00     0.135 A 
ATOM    102  C   UNL A   1      44.981  39.274  34.140  1.00  0.00     0.135 A 
ATOM    103  F   UNL A   1      42.838  39.700  31.228  1.00  0.00    -0.206 F 
ATOM    104  C   UNL A   1      43.392  41.216  32.932  1.00  0.00     0.059 A 
ATOM    105  C   UNL A   1      44.861  40.524  34.737  1.00  0.00     0.059 A 
ATOM    106  F   UNL A   1      45.756  38.359  34.744  1.00  0.00    -0.206 F 
ATOM    107  C   UNL A   1      44.074  41.493  34.119  1.00  0.00     0.060 A 
BRANCH 107 108
ATOM    108  S   UNL A   1      43.899  43.133  34.853  1.00  0.00     0.124 S 
ATOM    109  O   UNL A   1      44.831  43.055  35.973  1.00  0.00    -0.237 OA
ATOM    110  O   UNL A   1      44.295  44.010  33.756  1.00  0.00    -0.237 OA
ATOM    111  O   UNL A   1      42.486  43.195  35.217  1.00  0.00    -0.744 OA
ENDBRANCH 107 108
ENDBRANCH  75 100
ENDBRANCH  49  50
ENDBRANCH  41  44
ENDBRANCH  39  40
ENDBRANCH  38  39
ENDBRANCH  37  38
ENDBRANCH  36  37
ENDBRANCH   1  36
TORSDOF 23
ENDMDL
MODEL 3
REMARK VINA RESULT:      -9.6      6.661     10.600
REMARK SMILES O=C(CCN1C(=O)/C(=C/C=C/c2ccco2)SC1=S)Nc1ccc(C(=O)NCCCCCCNC(=O)c2ccc(-c3c4nc(c(-c5c(F)cc(S(=O)(=O)[O-])cc5F)c5ccc([nH]5)c(-c5c(F)cc(S(=O)(=O)[O-])cc5F)c5nc(c(-c6c(F)cc(S(=O)(=O)[O-])cc6F)c6ccc3[nH]6)C=C5)C=C4)cc2)c(O)c1
REMARK SMILES IDX 29 1 28 2 27 3 25 4 26 5 24 7 21 8 22 9 105 10 23 11 103 12
REMARK SMILES IDX 20 13 1 14 2 15 3 17 4 18 5 19 6 20 18 21 7 22 8 23 17 24
REMARK SMILES IDX 19 25 9 26 10 27 11 28 12 29 13 30 16 31 14 32 15 33 104 34
REMARK SMILES IDX 30 36 31 37 32 38 33 39 34 40 35 41 36 43 37 44 38 45 102 46
REMARK SMILES IDX 39 47 101 48 40 49 41 50 42 51 95 52 43 53 100 54 94 55
REMARK SMILES IDX 96 56 44 57 99 58 93 59 92 60 45 62 79 63 58 64 78 65 59 66
REMARK SMILES IDX 62 67 77 68 97 69 60 70 61 71 76 73 98 74 63 75 46 76 47 77
REMARK SMILES IDX 56 78 48 79 49 80 55 81 57 82 50 83 51 84 52 85 53 86 54 87
REMARK SMILES IDX 80 88 81 89 90 90 82 91 83 92 89 93 91 94 84 95 85 96 86 97
REMARK SMILES IDX 87 98 88 99 64 100 65 101 74 102 66 103 67 104 73 105 75 106
REMARK SMILES IDX 68 107 69 108 70 109 71 110 72 111
REMARK H PARENT 27 6 20 16 104 35 34 42 96 61 62 72
REMARK Flexibility Score: inf
ROOT
ATOM      1  C   UNL A   1      35.523  33.677  32.682  1.00  0.00     0.021 C 
ENDROOT
BRANCH   1   2
ATOM      2  C   UNL A   1      36.185  32.571  33.501  1.00  0.00     0.116 C 
BRANCH   2   3
ATOM      3  N   UNL A   1      37.618  32.447  33.282  1.00  0.00    -0.352 N 
ATOM      4  C   UNL A   1      38.660  32.473  34.180  1.00  0.00     0.255 C 
ATOM      5  O   UNL A   1      39.813  32.402  33.760  1.00  0.00    -0.269 OA
ATOM      6  H   UNL A   1      37.885  32.326  32.342  1.00  0.00     0.163 HD
BRANCH   4   7
ATOM      7  C   UNL A   1      38.431  32.612  35.639  1.00  0.00     0.081 A 
ATOM      8  C   UNL A   1      37.935  33.086  38.373  1.00  0.00     0.044 A 
ATOM      9  C   UNL A   1      38.408  34.116  37.565  1.00  0.00     0.027 A 
ATOM     10  C   UNL A   1      37.772  31.810  37.823  1.00  0.00     0.073 A 
ATOM     11  C   UNL A   1      38.659  33.877  36.207  1.00  0.00     0.020 A 
ATOM     12  C   UNL A   1      38.050  31.567  36.479  1.00  0.00     0.130 A 
BRANCH   8  13
ATOM     13  N   UNL A   1      37.638  33.218  39.738  1.00  0.00    -0.326 N 
ATOM     14  O   UNL A   1      39.408  32.148  40.798  1.00  0.00    -0.275 OA
ATOM     15  C   UNL A   1      38.351  32.766  40.828  1.00  0.00     0.226 C 
ATOM     16  H   UNL A   1      36.806  33.702  39.946  1.00  0.00     0.169 HD
BRANCH  15  17
ATOM     17  C   UNL A   1      37.655  33.068  42.148  1.00  0.00     0.122 C 
BRANCH  17  18
ATOM     18  C   UNL A   1      36.800  31.924  42.711  1.00  0.00     0.137 C 
BRANCH  18  19
ATOM     19  N   UNL A   1      35.448  32.309  43.157  1.00  0.00    -0.292 N 
ATOM     20  C   UNL A   1      34.500  32.667  42.205  1.00  0.00     0.266 C 
ATOM     21  C   UNL A   1      35.019  32.288  44.473  1.00  0.00     0.148 C 
ATOM     22  O   UNL A   1      34.675  32.682  40.997  1.00  0.00    -0.268 OA
ATOM     23  C   UNL A   1      33.260  33.149  42.873  1.00  0.00     0.080 C 
ATOM     24  S   UNL A   1      33.362  32.865  44.563  1.00  0.00    -0.054 SA
ATOM     25  S   UNL A   1      35.877  31.862  45.835  1.00  0.00    -0.052 S 
ATOM     26  C   UNL A   1      32.282  33.774  42.202  1.00  0.00     0.021 C 
BRANCH  26  27
ATOM     27  C   UNL A   1      31.107  34.385  42.793  1.00  0.00     0.005 C 
ATOM     28  C   UNL A   1      29.944  33.739  42.980  1.00  0.00     0.047 C 
BRANCH  28  29
ATOM     29  C   UNL A   1      28.838  34.394  43.587  1.00  0.00     0.126 A 
ATOM     30  C   UNL A   1      28.761  35.137  44.762  1.00  0.00     0.050 A 
ATOM     31  O   UNL A   1      27.578  34.371  43.032  1.00  0.00    -0.465 OA
ATOM     32  C   UNL A   1      27.413  35.526  44.943  1.00  0.00     0.042 A 
ATOM     33  C   UNL A   1      26.729  35.019  43.869  1.00  0.00     0.195 A 
ENDBRANCH  28  29
ENDBRANCH  26  27
ENDBRANCH  18  19
ENDBRANCH  17  18
ENDBRANCH  15  17
ENDBRANCH   8  13
BRANCH  12  34
ATOM     34  O   UNL A   1      37.963  30.258  36.097  1.00  0.00    -0.507 OA
ATOM     35  H   UNL A   1      38.122  30.020  35.205  1.00  0.00     0.293 HD
ENDBRANCH  12  34
ENDBRANCH   4   7
ENDBRANCH   2   3
ENDBRANCH   1   2
BRANCH   1  36
ATOM     36  C   UNL A   1      36.451  34.524  31.805  1.00  0.00     0.002 C 
BRANCH  36  37
ATOM     37  C   UNL A   1      37.293  33.779  30.766  1.00  0.00     0.002 C 
BRANCH  37  38
ATOM     38  C   UNL A   1      36.788  33.817  29.323  1.00  0.00     0.021 C 
BRANCH  38  39
ATOM     39  C   UNL A   1      36.239  32.505  28.772  1.00  0.00     0.116 C 
BRANCH  39  40
ATOM     40  N   UNL A   1      35.830  31.579  29.813  1.00  0.00    -0.352 N 
ATOM     41  C   UNL A   1      36.488  30.484  30.319  1.00  0.00     0.251 C 
ATOM     42  H   UNL A   1      34.950  31.762  30.215  1.00  0.00     0.163 HD
ATOM     43  O   UNL A   1      35.910  29.740  31.107  1.00  0.00    -0.269 OA
BRANCH  41  44
ATOM     44  C   UNL A   1      37.875  30.184  29.897  1.00  0.00     0.039 A 
ATOM     45  C   UNL A   1      38.867  30.084  30.877  1.00  0.00     0.014 A 
ATOM     46  C   UNL A   1      38.204  30.007  28.551  1.00  0.00     0.014 A 
ATOM     47  C   UNL A   1      40.173  29.748  30.511  1.00  0.00     0.010 A 
ATOM     48  C   UNL A   1      39.488  29.595  28.197  1.00  0.00     0.010 A 
ATOM     49  C   UNL A   1      40.488  29.465  29.172  1.00  0.00    -0.014 A 
BRANCH  49  50
ATOM     50  C   UNL A   1      41.853  29.024  28.781  1.00  0.00     0.031 A 
ATOM     51  C   UNL A   1      42.983  30.015  28.705  1.00  0.00     0.074 A 
ATOM     52  C   UNL A   1      42.061  27.739  28.432  1.00  0.00     0.049 A 
ATOM     53  N   UNL A   1      44.225  29.825  28.341  1.00  0.00    -0.248 NA
ATOM     54  C   UNL A   1      42.668  31.409  29.054  1.00  0.00     0.031 C 
ATOM     55  C   UNL A   1      41.033  26.695  28.407  1.00  0.00     0.029 A 
ATOM     56  N   UNL A   1      43.200  27.093  28.018  1.00  0.00    -0.354 N 
ATOM     57  C   UNL A   1      44.835  31.073  28.399  1.00  0.00     0.074 A 
ATOM     58  C   UNL A   1      43.810  32.021  28.781  1.00  0.00     0.031 C 
ATOM     59  C   UNL A   1      41.591  25.538  28.015  1.00  0.00     0.029 A 
ATOM     60  C   UNL A   1      43.003  25.765  27.721  1.00  0.00     0.049 A 
ATOM     61  H   UNL A   1      44.074  27.539  27.939  1.00  0.00     0.167 HD
ATOM     62  C   UNL A   1      46.131  31.396  28.171  1.00  0.00     0.037 A 
ATOM     63  C   UNL A   1      43.856  24.833  27.252  1.00  0.00     0.037 A 
ATOM     64  C   UNL A   1      47.145  30.441  27.804  1.00  0.00     0.049 A 
ATOM     65  C   UNL A   1      45.294  25.208  27.016  1.00  0.00     0.074 A 
ATOM     66  C   UNL A   1      48.501  30.651  27.630  1.00  0.00     0.029 A 
ATOM     67  N   UNL A   1      46.914  29.097  27.539  1.00  0.00    -0.354 N 
ATOM     68  N   UNL A   1      45.874  26.376  27.163  1.00  0.00    -0.248 NA
ATOM     69  C   UNL A   1      46.194  24.140  26.563  1.00  0.00     0.031 C 
ATOM     70  C   UNL A   1      49.078  29.453  27.196  1.00  0.00     0.029 A 
ATOM     71  C   UNL A   1      48.095  28.476  27.167  1.00  0.00     0.049 A 
ATOM     72  H   UNL A   1      46.039  28.652  27.607  1.00  0.00     0.167 HD
ATOM     73  C   UNL A   1      47.212  26.180  26.840  1.00  0.00     0.074 A 
ATOM     74  C   UNL A   1      47.356  24.777  26.504  1.00  0.00     0.031 C 
ATOM     75  C   UNL A   1      48.227  27.079  26.825  1.00  0.00     0.037 A 
BRANCH  62  76
ATOM     76  C   UNL A   1      46.519  32.847  28.293  1.00  0.00     0.058 A 
ATOM     77  C   UNL A   1      46.462  33.729  27.201  1.00  0.00     0.135 A 
ATOM     78  C   UNL A   1      46.947  33.367  29.527  1.00  0.00     0.135 A 
ATOM     79  F   UNL A   1      46.071  33.288  25.995  1.00  0.00    -0.206 F 
ATOM     80  C   UNL A   1      46.860  35.058  27.314  1.00  0.00     0.059 A 
ATOM     81  C   UNL A   1      47.316  34.701  29.672  1.00  0.00     0.059 A 
ATOM     82  F   UNL A   1      47.017  32.574  30.607  1.00  0.00    -0.206 F 
ATOM     83  C   UNL A   1      47.290  35.533  28.554  1.00  0.00     0.060 A 
BRANCH  83  84
ATOM     84  S   UNL A   1      47.827  37.252  28.680  1.00  0.00     0.124 S 
ATOM     85  O   UNL A   1      47.131  37.855  27.546  1.00  0.00    -0.237 OA
ATOM     86  O   UNL A   1      47.337  37.636  30.000  1.00  0.00    -0.237 OA
ATOM     87  O   UNL A   1      49.278  37.167  28.552  1.00  0.00    -0.744 OA
ENDBRANCH  83  84
ENDBRANCH  62  76
BRANCH  63  88
ATOM     88  C   UNL A   1      43.361  23.455  26.990  1.00  0.00     0.058 A 
ATOM     89  C   UNL A   1      43.197  22.976  25.683  1.00  0.00     0.135 A 
ATOM     90  C   UNL A   1      43.101  22.570  28.049  1.00  0.00     0.135 A 
ATOM     91  F   UNL A   1      43.424  23.785  24.638  1.00  0.00    -0.206 F 
ATOM     92  C   UNL A   1      42.798  21.667  25.432  1.00  0.00     0.059 A 
ATOM     93  C   UNL A   1      42.725  21.250  27.824  1.00  0.00     0.059 A 
ATOM     94  F   UNL A   1      43.257  22.975  29.319  1.00  0.00    -0.206 F 
ATOM     95  C   UNL A   1      42.576  20.807  26.510  1.00  0.00     0.060 A 
BRANCH  95  96
ATOM     96  S   UNL A   1      42.155  19.083  26.175  1.00  0.00     0.124 S 
ATOM     97  O   UNL A   1      42.424  18.457  27.462  1.00  0.00    -0.237 OA
ATOM     98  O   UNL A   1      40.749  19.182  25.791  1.00  0.00    -0.237 OA
ATOM     99  O   UNL A   1      43.065  18.720  25.091  1.00  0.00    -0.744 OA
ENDBRANCH  95  96
ENDBRANCH  63  88
BRANCH  75 100
ATOM    100  C   UNL A   1      49.597  26.575  26.458  1.00  0.00     0.058 A 
ATOM    101  C   UNL A   1      50.095  26.666  25.148  1.00  0.00     0.135 A 
ATOM    102  C   UNL A   1      50.446  26.042  27.444  1.00  0.00     0.135 A 
ATOM    103  F   UNL A   1      49.326  27.160  24.166  1.00  0.00    -0.206 F 
ATOM    104  C   UNL A   1      51.374  26.221  24.824  1.00  0.00     0.059 A 
ATOM    105  C   UNL A   1      51.738  25.622  27.149  1.00  0.00     0.059 A 
ATOM    106  F   UNL A   1      50.026  25.942  28.715  1.00  0.00    -0.206 F 
ATOM    107  C   UNL A   1      52.189  25.704  25.833  1.00  0.00     0.060 A 
BRANCH 107 108
ATOM    108  S   UNL A   1      53.856  25.160  25.402  1.00  0.00     0.124 S 
ATOM    109  O   UNL A   1      54.265  26.188  24.451  1.00  0.00    -0.237 OA
ATOM    110  O   UNL A   1      54.535  25.183  26.694  1.00  0.00    -0.237 OA
ATOM    111  O   UNL A   1      53.645  23.830  24.837  1.00  0.00    -0.744 OA
ENDBRANCH 107 108
ENDBRANCH  75 100
ENDBRANCH  49  50
ENDBRANCH  41  44
ENDBRANCH  39  40
ENDBRANCH  38  39
ENDBRANCH  37  38
ENDBRANCH  36  37
ENDBRANCH   1  36
TORSDOF 23
ENDMDL
