MODEL 1
REMARK VINA RESULT:     -10.6      0.000      0.000
REMARK SMILES O=C(NCCCCCCNC(=O)c1cc2ccccc2cc1OCCO)c1ccc(-c2c3nc(c(-c4c(F)cc(S(=O)(=O)[O-])cc4F)c4ccc([nH]4)c(-c4c(F)cc(S(=O)(=O)[O-])cc4F)c4nc(c(-c5c(F)cc(S(=O)(=O)[O-])cc5F)c5ccc2[nH]5)C=C4)C=C3)cc1
REMARK SMILES IDX 7 1 6 2 5 3 4 4 3 5 1 6 2 7 27 9 28 10 92 11 29 12 91 13
REMARK SMILES IDX 30 14 31 15 32 16 85 17 33 18 90 19 84 20 86 21 34 22 89 23
REMARK SMILES IDX 83 24 82 25 35 27 69 28 48 29 68 30 49 31 52 32 67 33 87 34
REMARK SMILES IDX 50 35 51 36 66 38 88 39 53 40 36 41 37 42 46 43 38 44 39 45
REMARK SMILES IDX 45 46 47 47 40 48 41 49 42 50 43 51 44 52 70 53 71 54 80 55
REMARK SMILES IDX 72 56 73 57 79 58 81 59 74 60 75 61 76 62 77 63 78 64 54 65
REMARK SMILES IDX 55 66 64 67 56 68 57 69 63 70 65 71 58 72 59 73 60 74 61 75
REMARK SMILES IDX 62 76 8 77 9 78 10 79 11 80 12 82 13 83 14 84 22 85 15 86
REMARK SMILES IDX 21 87 16 88 20 89 17 90 19 91 18 92 23 93 24 94 25 95 26 96
REMARK H PARENT 3 8 86 26 52 37 10 81 26 97
REMARK Flexibility Score: inf
ROOT
ATOM      1  C   UNL A   1      30.979  27.124  24.836  1.00  0.00     0.002 C 
ENDROOT
BRANCH   1   2
ATOM      2  C   UNL A   1      31.497  28.122  25.872  1.00  0.00     0.002 C 
BRANCH   2   3
ATOM      3  C   UNL A   1      32.548  27.615  26.855  1.00  0.00     0.021 C 
BRANCH   3   4
ATOM      4  C   UNL A   1      33.856  28.398  26.894  1.00  0.00     0.116 C 
BRANCH   4   5
ATOM      5  N   UNL A   1      33.730  29.733  27.460  1.00  0.00    -0.352 N 
ATOM      6  O   UNL A   1      34.338  31.590  28.582  1.00  0.00    -0.269 OA
ATOM      7  C   UNL A   1      34.664  30.498  28.121  1.00  0.00     0.251 C 
ATOM      8  H   UNL A   1      32.845  30.151  27.355  1.00  0.00     0.163 HD
BRANCH   7   9
ATOM      9  C   UNL A   1      36.045  29.994  28.319  1.00  0.00     0.039 A 
ATOM     10  C   UNL A   1      36.438  29.414  29.526  1.00  0.00     0.014 A 
ATOM     11  C   UNL A   1      36.968  30.119  27.276  1.00  0.00     0.014 A 
ATOM     12  C   UNL A   1      37.781  29.125  29.750  1.00  0.00     0.010 A 
ATOM     13  C   UNL A   1      38.302  29.745  27.474  1.00  0.00     0.010 A 
ATOM     14  C   UNL A   1      38.732  29.293  28.731  1.00  0.00    -0.014 A 
BRANCH  14  15
ATOM     15  C   UNL A   1      40.160  28.979  29.005  1.00  0.00     0.031 A 
ATOM     16  C   UNL A   1      40.753  27.650  28.614  1.00  0.00     0.074 A 
ATOM     17  C   UNL A   1      40.942  29.924  29.567  1.00  0.00     0.049 A 
ATOM     18  N   UNL A   1      41.989  27.232  28.732  1.00  0.00    -0.248 NA
ATOM     19  C   UNL A   1      39.842  26.656  28.025  1.00  0.00     0.031 C 
ATOM     20  C   UNL A   1      40.482  31.245  30.002  1.00  0.00     0.029 A 
ATOM     21  N   UNL A   1      42.283  29.932  29.846  1.00  0.00    -0.354 N 
ATOM     22  C   UNL A   1      41.999  25.924  28.259  1.00  0.00     0.074 A 
ATOM     23  C   UNL A   1      40.641  25.608  27.872  1.00  0.00     0.031 C 
ATOM     24  C   UNL A   1      41.533  31.953  30.440  1.00  0.00     0.029 A 
ATOM     25  C   UNL A   1      42.730  31.122  30.369  1.00  0.00     0.049 A 
ATOM     26  H   UNL A   1      42.872  29.158  29.689  1.00  0.00     0.167 HD
ATOM     27  C   UNL A   1      43.045  25.068  28.150  1.00  0.00     0.037 A 
ATOM     28  C   UNL A   1      43.963  31.506  30.751  1.00  0.00     0.037 A 
ATOM     29  C   UNL A   1      44.403  25.398  28.507  1.00  0.00     0.049 A 
ATOM     30  C   UNL A   1      45.107  30.542  30.608  1.00  0.00     0.074 A 
ATOM     31  C   UNL A   1      45.538  24.613  28.393  1.00  0.00     0.029 A 
ATOM     32  N   UNL A   1      44.810  26.609  29.046  1.00  0.00    -0.354 N 
ATOM     33  N   UNL A   1      45.101  29.322  30.130  1.00  0.00    -0.248 NA
ATOM     34  C   UNL A   1      46.425  31.010  31.055  1.00  0.00     0.031 C 
ATOM     35  C   UNL A   1      46.625  25.337  28.897  1.00  0.00     0.029 A 
ATOM     36  C   UNL A   1      46.175  26.589  29.283  1.00  0.00     0.049 A 
ATOM     37  H   UNL A   1      44.216  27.372  29.232  1.00  0.00     0.167 HD
ATOM     38  C   UNL A   1      46.417  28.883  30.194  1.00  0.00     0.074 A 
ATOM     39  C   UNL A   1      47.194  29.974  30.748  1.00  0.00     0.031 C 
ATOM     40  C   UNL A   1      46.937  27.685  29.827  1.00  0.00     0.037 A 
BRANCH  27  41
ATOM     41  C   UNL A   1      42.763  23.679  27.642  1.00  0.00     0.058 A 
ATOM     42  C   UNL A   1      42.506  22.607  28.510  1.00  0.00     0.135 A 
ATOM     43  C   UNL A   1      42.712  23.427  26.260  1.00  0.00     0.135 A 
ATOM     44  F   UNL A   1      42.552  22.788  29.840  1.00  0.00    -0.206 F 
ATOM     45  C   UNL A   1      42.240  21.328  28.029  1.00  0.00     0.059 A 
ATOM     46  C   UNL A   1      42.424  22.161  25.757  1.00  0.00     0.059 A 
ATOM     47  F   UNL A   1      42.945  24.416  25.383  1.00  0.00    -0.206 F 
ATOM     48  C   UNL A   1      42.205  21.114  26.651  1.00  0.00     0.060 A 
BRANCH  48  49
ATOM     49  S   UNL A   1      41.864  19.449  26.040  1.00  0.00     0.124 S 
ATOM     50  O   UNL A   1      42.736  19.385  24.871  1.00  0.00    -0.237 OA
ATOM     51  O   UNL A   1      42.258  18.613  27.169  1.00  0.00    -0.237 OA
ATOM     52  O   UNL A   1      40.433  19.478  25.754  1.00  0.00    -0.744 OA
ENDBRANCH  48  49
ENDBRANCH  27  41
BRANCH  28  53
ATOM     53  C   UNL A   1      44.177  32.876  31.285  1.00  0.00     0.058 A 
ATOM     54  C   UNL A   1      44.478  33.944  30.429  1.00  0.00     0.135 A 
ATOM     55  C   UNL A   1      44.051  33.149  32.656  1.00  0.00     0.135 A 
ATOM     56  F   UNL A   1      44.611  33.730  29.110  1.00  0.00    -0.206 F 
ATOM     57  C   UNL A   1      44.661  35.234  30.912  1.00  0.00     0.059 A 
ATOM     58  C   UNL A   1      44.204  34.436  33.160  1.00  0.00     0.059 A 
ATOM     59  F   UNL A   1      43.745  32.163  33.513  1.00  0.00    -0.206 F 
ATOM     60  C   UNL A   1      44.518  35.472  32.281  1.00  0.00     0.060 A 
BRANCH  60  61
ATOM     61  S   UNL A   1      44.698  37.161  32.893  1.00  0.00     0.124 S 
ATOM     62  O   UNL A   1      43.827  37.895  31.983  1.00  0.00    -0.237 OA
ATOM     63  O   UNL A   1      44.230  37.042  34.270  1.00  0.00    -0.237 OA
ATOM     64  O   UNL A   1      46.128  37.419  32.745  1.00  0.00    -0.744 OA
ENDBRANCH  60  61
ENDBRANCH  28  53
BRANCH  40  65
ATOM     65  C   UNL A   1      48.423  27.510  29.970  1.00  0.00     0.058 A 
ATOM     66  C   UNL A   1      49.316  27.922  28.970  1.00  0.00     0.135 A 
ATOM     67  C   UNL A   1      48.958  26.941  31.137  1.00  0.00     0.135 A 
ATOM     68  F   UNL A   1      48.854  28.465  27.833  1.00  0.00    -0.206 F 
ATOM     69  C   UNL A   1      50.689  27.747  29.107  1.00  0.00     0.059 A 
ATOM     70  C   UNL A   1      50.330  26.779  31.306  1.00  0.00     0.059 A 
ATOM     71  F   UNL A   1      48.147  26.539  32.129  1.00  0.00    -0.206 F 
ATOM     72  C   UNL A   1      51.186  27.170  30.277  1.00  0.00     0.060 A 
BRANCH  72  73
ATOM     73  S   UNL A   1      52.971  26.956  30.452  1.00  0.00     0.124 S 
ATOM     74  O   UNL A   1      53.363  26.639  29.083  1.00  0.00    -0.237 OA
ATOM     75  O   UNL A   1      53.398  28.260  30.948  1.00  0.00    -0.237 OA
ATOM     76  O   UNL A   1      53.088  25.860  31.409  1.00  0.00    -0.744 OA
ENDBRANCH  72  73
ENDBRANCH  40  65
ENDBRANCH  14  15
ENDBRANCH   7   9
ENDBRANCH   4   5
ENDBRANCH   3   4
ENDBRANCH   2   3
ENDBRANCH   1   2
BRANCH   1  77
ATOM     77  C   UNL A   1      31.974  26.127  24.221  1.00  0.00     0.021 C 
BRANCH  77  78
ATOM     78  C   UNL A   1      31.634  24.635  24.273  1.00  0.00     0.116 C 
BRANCH  78  79
ATOM     79  N   UNL A   1      31.208  24.173  25.581  1.00  0.00    -0.352 N 
ATOM     80  C   UNL A   1      31.931  23.451  26.499  1.00  0.00     0.255 C 
ATOM     81  H   UNL A   1      30.288  24.404  25.842  1.00  0.00     0.163 HD
ATOM     82  O   UNL A   1      31.481  23.246  27.622  1.00  0.00    -0.269 OA
BRANCH  80  83
ATOM     83  C   UNL A   1      33.212  22.837  26.113  1.00  0.00     0.082 A 
ATOM     84  C   UNL A   1      34.345  23.627  26.397  1.00  0.00     0.026 A 
ATOM     85  C   UNL A   1      33.365  21.603  25.482  1.00  0.00     0.132 A 
ATOM     86  C   UNL A   1      35.644  23.182  26.093  1.00  0.00    -0.017 A 
ATOM     87  C   UNL A   1      34.667  21.152  25.201  1.00  0.00     0.056 A 
ATOM     88  C   UNL A   1      36.784  23.953  26.371  1.00  0.00     0.009 A 
ATOM     89  C   UNL A   1      35.805  21.917  25.494  1.00  0.00    -0.015 A 
ATOM     90  C   UNL A   1      38.062  23.475  26.069  1.00  0.00     0.001 A 
ATOM     91  C   UNL A   1      37.094  21.445  25.201  1.00  0.00     0.009 A 
ATOM     92  C   UNL A   1      38.217  22.219  25.489  1.00  0.00     0.001 A 
BRANCH  85  93
ATOM     93  O   UNL A   1      32.446  20.666  25.131  1.00  0.00    -0.490 OA
BRANCH  93  94
ATOM     94  C   UNL A   1      32.801  19.436  24.504  1.00  0.00     0.257 C 
BRANCH  94  95
ATOM     95  C   UNL A   1      32.248  18.290  25.341  1.00  0.00     0.197 C 
BRANCH  95  96
ATOM     96  O   UNL A   1      32.953  18.154  26.574  1.00  0.00    -0.393 OA
ATOM     97  H   UNL A   1      33.879  17.926  26.394  1.00  0.00     0.210 HD
ENDBRANCH  95  96
ENDBRANCH  94  95
ENDBRANCH  93  94
ENDBRANCH  85  93
ENDBRANCH  80  83
ENDBRANCH  78  79
ENDBRANCH  77  78
ENDBRANCH   1  77
TORSDOF 20
ENDMDL
MODEL 2
REMARK VINA RESULT:     -10.4      3.279      8.624
REMARK SMILES O=C(NCCCCCCNC(=O)c1cc2ccccc2cc1OCCO)c1ccc(-c2c3nc(c(-c4c(F)cc(S(=O)(=O)[O-])cc4F)c4ccc([nH]4)c(-c4c(F)cc(S(=O)(=O)[O-])cc4F)c4nc(c(-c5c(F)cc(S(=O)(=O)[O-])cc5F)c5ccc2[nH]5)C=C4)C=C3)cc1
REMARK SMILES IDX 7 1 6 2 5 3 4 4 3 5 1 6 2 7 27 9 28 10 92 11 29 12 91 13
REMARK SMILES IDX 30 14 31 15 32 16 85 17 33 18 90 19 84 20 86 21 34 22 89 23
REMARK SMILES IDX 83 24 82 25 35 27 69 28 48 29 68 30 49 31 52 32 67 33 87 34
REMARK SMILES IDX 50 35 51 36 66 38 88 39 53 40 36 41 37 42 46 43 38 44 39 45
REMARK SMILES IDX 45 46 47 47 40 48 41 49 42 50 43 51 44 52 70 53 71 54 80 55
REMARK SMILES IDX 72 56 73 57 79 58 81 59 74 60 75 61 76 62 77 63 78 64 54 65
REMARK SMILES IDX 55 66 64 67 56 68 57 69 63 70 65 71 58 72 59 73 60 74 61 75
REMARK SMILES IDX 62 76 8 77 9 78 10 79 11 80 12 82 13 83 14 84 22 85 15 86
REMARK SMILES IDX 21 87 16 88 20 89 17 90 19 91 18 92 23 93 24 94 25 95 26 96
REMARK H PARENT 3 8 86 26 52 37 10 81 26 97
REMARK Flexibility Score: inf
ROOT
ATOM      1  C   UNL A   1      33.447  22.929  23.845  1.00  0.00     0.002 C 
ENDROOT
BRANCH   1   2
ATOM      2  C   UNL A   1      34.233  23.809  24.817  1.00  0.00     0.002 C 
BRANCH   2   3
ATOM      3  C   UNL A   1      35.419  23.164  25.529  1.00  0.00     0.021 C 
BRANCH   3   4
ATOM      4  C   UNL A   1      36.773  23.826  25.299  1.00  0.00     0.116 C 
BRANCH   4   5
ATOM      5  N   UNL A   1      37.906  22.923  25.443  1.00  0.00    -0.352 N 
ATOM      6  O   UNL A   1      39.960  22.233  26.062  1.00  0.00    -0.269 OA
ATOM      7  C   UNL A   1      39.094  23.105  26.113  1.00  0.00     0.251 C 
ATOM      8  H   UNL A   1      37.808  22.053  24.993  1.00  0.00     0.163 HD
BRANCH   7   9
ATOM      9  C   UNL A   1      39.354  24.362  26.855  1.00  0.00     0.039 A 
ATOM     10  C   UNL A   1      40.067  25.412  26.275  1.00  0.00     0.014 A 
ATOM     11  C   UNL A   1      38.882  24.485  28.166  1.00  0.00     0.014 A 
ATOM     12  C   UNL A   1      40.459  26.497  27.055  1.00  0.00     0.010 A 
ATOM     13  C   UNL A   1      39.202  25.619  28.922  1.00  0.00     0.010 A 
ATOM     14  C   UNL A   1      40.037  26.612  28.389  1.00  0.00    -0.014 A 
BRANCH  14  15
ATOM     15  C   UNL A   1      40.477  27.782  29.196  1.00  0.00     0.031 A 
ATOM     16  C   UNL A   1      41.867  27.849  29.774  1.00  0.00     0.074 A 
ATOM     17  C   UNL A   1      39.628  28.817  29.365  1.00  0.00     0.049 A 
ATOM     18  N   UNL A   1      42.431  28.816  30.457  1.00  0.00    -0.248 NA
ATOM     19  C   UNL A   1      42.735  26.679  29.572  1.00  0.00     0.031 C 
ATOM     20  C   UNL A   1      38.252  28.866  28.866  1.00  0.00     0.029 A 
ATOM     21  N   UNL A   1      39.801  30.030  29.979  1.00  0.00    -0.354 N 
ATOM     22  C   UNL A   1      43.703  28.362  30.786  1.00  0.00     0.074 A 
ATOM     23  C   UNL A   1      43.823  27.024  30.249  1.00  0.00     0.031 C 
ATOM     24  C   UNL A   1      37.727  30.068  29.143  1.00  0.00     0.029 A 
ATOM     25  C   UNL A   1      38.705  30.855  29.886  1.00  0.00     0.049 A 
ATOM     26  H   UNL A   1      40.631  30.287  30.443  1.00  0.00     0.167 HD
ATOM     27  C   UNL A   1      44.684  29.004  31.468  1.00  0.00     0.037 A 
ATOM     28  C   UNL A   1      38.505  32.104  30.347  1.00  0.00     0.037 A 
ATOM     29  C   UNL A   1      44.572  30.350  31.975  1.00  0.00     0.049 A 
ATOM     30  C   UNL A   1      39.612  32.798  31.088  1.00  0.00     0.074 A 
ATOM     31  C   UNL A   1      45.525  31.102  32.640  1.00  0.00     0.029 A 
ATOM     32  N   UNL A   1      43.440  31.144  31.872  1.00  0.00    -0.354 N 
ATOM     33  N   UNL A   1      40.818  32.363  31.362  1.00  0.00    -0.248 NA
ATOM     34  C   UNL A   1      39.331  34.153  31.580  1.00  0.00     0.031 C 
ATOM     35  C   UNL A   1      44.957  32.337  32.972  1.00  0.00     0.029 A 
ATOM     36  C   UNL A   1      43.665  32.372  32.474  1.00  0.00     0.049 A 
ATOM     37  H   UNL A   1      42.599  30.875  31.435  1.00  0.00     0.167 HD
ATOM     38  C   UNL A   1      41.450  33.400  32.037  1.00  0.00     0.074 A 
ATOM     39  C   UNL A   1      40.496  34.487  32.120  1.00  0.00     0.031 C 
ATOM     40  C   UNL A   1      42.708  33.448  32.542  1.00  0.00     0.037 A 
BRANCH  27  41
ATOM     41  C   UNL A   1      45.963  28.253  31.727  1.00  0.00     0.058 A 
ATOM     42  C   UNL A   1      47.047  28.302  30.836  1.00  0.00     0.135 A 
ATOM     43  C   UNL A   1      46.119  27.501  32.903  1.00  0.00     0.135 A 
ATOM     44  F   UNL A   1      46.950  28.997  29.691  1.00  0.00    -0.206 F 
ATOM     45  C   UNL A   1      48.228  27.609  31.088  1.00  0.00     0.059 A 
ATOM     46  C   UNL A   1      47.299  26.820  33.186  1.00  0.00     0.059 A 
ATOM     47  F   UNL A   1      45.116  27.423  33.793  1.00  0.00    -0.206 F 
ATOM     48  C   UNL A   1      48.343  26.867  32.264  1.00  0.00     0.060 A 
BRANCH  48  49
ATOM     49  S   UNL A   1      49.878  25.968  32.575  1.00  0.00     0.124 S 
ATOM     50  O   UNL A   1      50.875  27.012  32.355  1.00  0.00    -0.237 OA
ATOM     51  O   UNL A   1      49.714  25.534  33.959  1.00  0.00    -0.237 OA
ATOM     52  O   UNL A   1      49.856  24.901  31.580  1.00  0.00    -0.744 OA
ENDBRANCH  48  49
ENDBRANCH  27  41
BRANCH  28  53
ATOM     53  C   UNL A   1      37.206  32.782  30.099  1.00  0.00     0.058 A 
ATOM     54  C   UNL A   1      36.150  32.675  31.014  1.00  0.00     0.135 A 
ATOM     55  C   UNL A   1      37.008  33.576  28.958  1.00  0.00     0.135 A 
ATOM     56  F   UNL A   1      36.291  31.924  32.117  1.00  0.00    -0.206 F 
ATOM     57  C   UNL A   1      34.936  33.320  30.803  1.00  0.00     0.059 A 
ATOM     58  C   UNL A   1      35.812  34.252  28.739  1.00  0.00     0.059 A 
ATOM     59  F   UNL A   1      37.995  33.725  28.062  1.00  0.00    -0.206 F 
ATOM     60  C   UNL A   1      34.778  34.110  29.664  1.00  0.00     0.060 A 
BRANCH  60  61
ATOM     61  S   UNL A   1      33.221  34.993  29.428  1.00  0.00     0.124 S 
ATOM     62  O   UNL A   1      32.596  34.206  28.371  1.00  0.00    -0.237 OA
ATOM     63  O   UNL A   1      32.607  34.893  30.748  1.00  0.00    -0.237 OA
ATOM     64  O   UNL A   1      33.652  36.335  29.046  1.00  0.00    -0.744 OA
ENDBRANCH  60  61
ENDBRANCH  28  53
BRANCH  40  65
ATOM     65  C   UNL A   1      43.138  34.735  33.188  1.00  0.00     0.058 A 
ATOM     66  C   UNL A   1      43.702  35.784  32.445  1.00  0.00     0.135 A 
ATOM     67  C   UNL A   1      42.963  34.927  34.568  1.00  0.00     0.135 A 
ATOM     68  F   UNL A   1      43.896  35.648  31.124  1.00  0.00    -0.206 F 
ATOM     69  C   UNL A   1      44.105  36.968  33.053  1.00  0.00     0.059 A 
ATOM     70  C   UNL A   1      43.337  36.112  35.193  1.00  0.00     0.059 A 
ATOM     71  F   UNL A   1      42.419  33.958  35.323  1.00  0.00    -0.206 F 
ATOM     72  C   UNL A   1      43.923  37.121  34.429  1.00  0.00     0.060 A 
BRANCH  72  73
ATOM     73  S   UNL A   1      44.440  38.665  35.209  1.00  0.00     0.124 S 
ATOM     74  O   UNL A   1      45.874  38.662  34.943  1.00  0.00    -0.237 OA
ATOM     75  O   UNL A   1      43.662  39.662  34.481  1.00  0.00    -0.237 OA
ATOM     76  O   UNL A   1      44.061  38.482  36.607  1.00  0.00    -0.744 OA
ENDBRANCH  72  73
ENDBRANCH  40  65
ENDBRANCH  14  15
ENDBRANCH   7   9
ENDBRANCH   4   5
ENDBRANCH   3   4
ENDBRANCH   2   3
ENDBRANCH   1   2
BRANCH   1  77
ATOM     77  C   UNL A   1      31.918  23.080  23.796  1.00  0.00     0.021 C 
BRANCH  77  78
ATOM     78  C   UNL A   1      31.333  24.356  23.185  1.00  0.00     0.116 C 
BRANCH  78  79
ATOM     79  N   UNL A   1      32.130  24.913  22.107  1.00  0.00    -0.352 N 
ATOM     80  C   UNL A   1      32.763  26.130  22.067  1.00  0.00     0.255 C 
ATOM     81  H   UNL A   1      32.227  24.348  21.307  1.00  0.00     0.163 HD
ATOM     82  O   UNL A   1      33.514  26.410  21.137  1.00  0.00    -0.269 OA
BRANCH  80  83
ATOM     83  C   UNL A   1      32.475  27.148  23.091  1.00  0.00     0.082 A 
ATOM     84  C   UNL A   1      33.442  27.238  24.112  1.00  0.00     0.026 A 
ATOM     85  C   UNL A   1      31.343  27.962  23.132  1.00  0.00     0.132 A 
ATOM     86  C   UNL A   1      33.315  28.163  25.162  1.00  0.00    -0.017 A 
ATOM     87  C   UNL A   1      31.231  28.901  24.172  1.00  0.00     0.056 A 
ATOM     88  C   UNL A   1      34.271  28.269  26.187  1.00  0.00     0.009 A 
ATOM     89  C   UNL A   1      32.194  29.016  25.184  1.00  0.00    -0.015 A 
ATOM     90  C   UNL A   1      34.122  29.210  27.209  1.00  0.00     0.001 A 
ATOM     91  C   UNL A   1      32.059  29.961  26.214  1.00  0.00     0.009 A 
ATOM     92  C   UNL A   1      33.018  30.059  27.220  1.00  0.00     0.001 A 
BRANCH  85  93
ATOM     93  O   UNL A   1      30.299  28.076  22.268  1.00  0.00    -0.490 OA
BRANCH  93  94
ATOM     94  C   UNL A   1      29.075  28.715  22.620  1.00  0.00     0.257 C 
BRANCH  94  95
ATOM     95  C   UNL A   1      29.008  30.058  21.906  1.00  0.00     0.197 C 
BRANCH  95  96
ATOM     96  O   UNL A   1      30.137  30.257  21.057  1.00  0.00    -0.393 OA
ATOM     97  H   UNL A   1      30.828  29.614  21.281  1.00  0.00     0.210 HD
ENDBRANCH  95  96
ENDBRANCH  94  95
ENDBRANCH  93  94
ENDBRANCH  85  93
ENDBRANCH  80  83
ENDBRANCH  78  79
ENDBRANCH  77  78
ENDBRANCH   1  77
TORSDOF 20
ENDMDL
MODEL 3
REMARK VINA RESULT:     -10.4      5.036     10.014
REMARK SMILES O=C(NCCCCCCNC(=O)c1cc2ccccc2cc1OCCO)c1ccc(-c2c3nc(c(-c4c(F)cc(S(=O)(=O)[O-])cc4F)c4ccc([nH]4)c(-c4c(F)cc(S(=O)(=O)[O-])cc4F)c4nc(c(-c5c(F)cc(S(=O)(=O)[O-])cc5F)c5ccc2[nH]5)C=C4)C=C3)cc1
REMARK SMILES IDX 7 1 6 2 5 3 4 4 3 5 1 6 2 7 27 9 28 10 92 11 29 12 91 13
REMARK SMILES IDX 30 14 31 15 32 16 85 17 33 18 90 19 84 20 86 21 34 22 89 23
REMARK SMILES IDX 83 24 82 25 35 27 69 28 48 29 68 30 49 31 52 32 67 33 87 34
REMARK SMILES IDX 50 35 51 36 66 38 88 39 53 40 36 41 37 42 46 43 38 44 39 45
REMARK SMILES IDX 45 46 47 47 40 48 41 49 42 50 43 51 44 52 70 53 71 54 80 55
REMARK SMILES IDX 72 56 73 57 79 58 81 59 74 60 75 61 76 62 77 63 78 64 54 65
REMARK SMILES IDX 55 66 64 67 56 68 57 69 63 70 65 71 58 72 59 73 60 74 61 75
REMARK SMILES IDX 62 76 8 77 9 78 10 79 11 80 12 82 13 83 14 84 22 85 15 86
REMARK SMILES IDX 21 87 16 88 20 89 17 90 19 91 18 92 23 93 24 94 25 95 26 96
REMARK H PARENT 3 8 86 26 52 37 10 81 26 97
REMARK Flexibility Score: inf
ROOT
ATOM      1  C   UNL A   1      38.414  21.867  25.754  1.00  0.00     0.002 C 
ENDROOT
BRANCH   1   2
ATOM      2  C   UNL A   1      39.850  21.547  26.170  1.00  0.00     0.002 C 
BRANCH   2   3
ATOM      3  C   UNL A   1      40.394  22.278  27.393  1.00  0.00     0.021 C 
BRANCH   3   4
ATOM      4  C   UNL A   1      41.685  23.061  27.181  1.00  0.00     0.116 C 
BRANCH   4   5
ATOM      5  N   UNL A   1      41.639  23.987  26.058  1.00  0.00    -0.352 N 
ATOM      6  O   UNL A   1      41.399  25.952  24.982  1.00  0.00    -0.269 OA
ATOM      7  C   UNL A   1      41.472  25.353  26.053  1.00  0.00     0.251 C 
ATOM      8  H   UNL A   1      41.742  23.574  25.171  1.00  0.00     0.163 HD
BRANCH   7   9
ATOM      9  C   UNL A   1      41.334  26.098  27.328  1.00  0.00     0.039 A 
ATOM     10  C   UNL A   1      40.206  25.949  28.136  1.00  0.00     0.014 A 
ATOM     11  C   UNL A   1      42.352  26.976  27.712  1.00  0.00     0.014 A 
ATOM     12  C   UNL A   1      40.016  26.798  29.223  1.00  0.00     0.010 A 
ATOM     13  C   UNL A   1      42.199  27.767  28.858  1.00  0.00     0.010 A 
ATOM     14  C   UNL A   1      41.006  27.722  29.595  1.00  0.00    -0.014 A 
BRANCH  14  15
ATOM     15  C   UNL A   1      40.769  28.617  30.759  1.00  0.00     0.031 A 
ATOM     16  C   UNL A   1      41.647  28.549  31.983  1.00  0.00     0.074 A 
ATOM     17  C   UNL A   1      39.783  29.535  30.689  1.00  0.00     0.049 A 
ATOM     18  N   UNL A   1      41.613  29.290  33.063  1.00  0.00    -0.248 NA
ATOM     19  C   UNL A   1      42.689  27.512  32.004  1.00  0.00     0.031 C 
ATOM     20  C   UNL A   1      38.858  29.691  29.564  1.00  0.00     0.029 A 
ATOM     21  N   UNL A   1      39.409  30.521  31.565  1.00  0.00    -0.354 N 
ATOM     22  C   UNL A   1      42.606  28.793  33.900  1.00  0.00     0.074 A 
ATOM     23  C   UNL A   1      43.212  27.673  33.212  1.00  0.00     0.031 C 
ATOM     24  C   UNL A   1      38.063  30.746  29.793  1.00  0.00     0.029 A 
ATOM     25  C   UNL A   1      38.382  31.308  31.100  1.00  0.00     0.049 A 
ATOM     26  H   UNL A   1      39.836  30.654  32.442  1.00  0.00     0.167 HD
ATOM     27  C   UNL A   1      42.983  29.234  35.126  1.00  0.00     0.037 A 
ATOM     28  C   UNL A   1      37.761  32.363  31.663  1.00  0.00     0.037 A 
ATOM     29  C   UNL A   1      42.398  30.370  35.794  1.00  0.00     0.049 A 
ATOM     30  C   UNL A   1      38.208  32.840  33.015  1.00  0.00     0.074 A 
ATOM     31  C   UNL A   1      42.741  30.921  37.018  1.00  0.00     0.029 A 
ATOM     32  N   UNL A   1      41.350  31.131  35.296  1.00  0.00    -0.354 N 
ATOM     33  N   UNL A   1      39.169  32.376  33.776  1.00  0.00    -0.248 NA
ATOM     34  C   UNL A   1      37.485  33.985  33.585  1.00  0.00     0.031 C 
ATOM     35  C   UNL A   1      41.876  31.990  37.276  1.00  0.00     0.029 A 
ATOM     36  C   UNL A   1      41.024  32.135  36.193  1.00  0.00     0.049 A 
ATOM     37  H   UNL A   1      40.904  30.979  34.432  1.00  0.00     0.167 HD
ATOM     38  C   UNL A   1      39.185  33.187  34.904  1.00  0.00     0.074 A 
ATOM     39  C   UNL A   1      38.143  34.178  34.720  1.00  0.00     0.031 C 
ATOM     40  C   UNL A   1      39.990  33.119  35.993  1.00  0.00     0.037 A 
BRANCH  27  41
ATOM     41  C   UNL A   1      44.070  28.474  35.839  1.00  0.00     0.058 A 
ATOM     42  C   UNL A   1      45.430  28.766  35.647  1.00  0.00     0.135 A 
ATOM     43  C   UNL A   1      43.743  27.462  36.757  1.00  0.00     0.135 A 
ATOM     44  F   UNL A   1      45.801  29.716  34.773  1.00  0.00    -0.206 F 
ATOM     45  C   UNL A   1      46.427  28.062  36.316  1.00  0.00     0.059 A 
ATOM     46  C   UNL A   1      44.723  26.761  37.454  1.00  0.00     0.059 A 
ATOM     47  F   UNL A   1      42.459  27.145  36.983  1.00  0.00    -0.206 F 
ATOM     48  C   UNL A   1      46.063  27.058  37.215  1.00  0.00     0.060 A 
BRANCH  48  49
ATOM     49  S   UNL A   1      47.367  26.148  38.072  1.00  0.00     0.124 S 
ATOM     50  O   UNL A   1      46.685  25.754  39.301  1.00  0.00    -0.237 OA
ATOM     51  O   UNL A   1      47.662  25.066  37.138  1.00  0.00    -0.237 OA
ATOM     52  O   UNL A   1      48.426  27.140  38.232  1.00  0.00    -0.744 OA
ENDBRANCH  48  49
ENDBRANCH  27  41
BRANCH  28  53
ATOM     53  C   UNL A   1      36.666  33.050  30.931  1.00  0.00     0.058 A 
ATOM     54  C   UNL A   1      35.323  32.741  31.187  1.00  0.00     0.135 A 
ATOM     55  C   UNL A   1      36.941  34.050  29.985  1.00  0.00     0.135 A 
ATOM     56  F   UNL A   1      35.012  31.789  32.081  1.00  0.00    -0.206 F 
ATOM     57  C   UNL A   1      34.288  33.390  30.524  1.00  0.00     0.059 A 
ATOM     58  C   UNL A   1      35.921  34.731  29.327  1.00  0.00     0.059 A 
ATOM     59  F   UNL A   1      38.209  34.394  29.718  1.00  0.00    -0.206 F 
ATOM     60  C   UNL A   1      34.597  34.387  29.597  1.00  0.00     0.060 A 
BRANCH  60  61
ATOM     61  S   UNL A   1      33.246  35.267  28.784  1.00  0.00     0.124 S 
ATOM     62  O   UNL A   1      33.975  36.225  27.962  1.00  0.00    -0.237 OA
ATOM     63  O   UNL A   1      32.567  34.193  28.065  1.00  0.00    -0.237 OA
ATOM     64  O   UNL A   1      32.496  35.834  29.902  1.00  0.00    -0.744 OA
ENDBRANCH  60  61
ENDBRANCH  28  53
BRANCH  40  65
ATOM     65  C   UNL A   1      39.805  34.173  37.049  1.00  0.00     0.058 A 
ATOM     66  C   UNL A   1      38.993  33.959  38.173  1.00  0.00     0.135 A 
ATOM     67  C   UNL A   1      40.468  35.407  36.940  1.00  0.00     0.135 A 
ATOM     68  F   UNL A   1      38.333  32.800  38.320  1.00  0.00    -0.206 F 
ATOM     69  C   UNL A   1      38.820  34.944  39.141  1.00  0.00     0.059 A 
ATOM     70  C   UNL A   1      40.328  36.397  37.908  1.00  0.00     0.059 A 
ATOM     71  F   UNL A   1      41.263  35.658  35.888  1.00  0.00    -0.206 F 
ATOM     72  C   UNL A   1      39.488  36.162  38.996  1.00  0.00     0.060 A 
BRANCH  72  73
ATOM     73  S   UNL A   1      39.266  37.431  40.261  1.00  0.00     0.124 S 
ATOM     74  O   UNL A   1      38.354  38.353  39.594  1.00  0.00    -0.237 OA
ATOM     75  O   UNL A   1      38.701  36.673  41.373  1.00  0.00    -0.237 OA
ATOM     76  O   UNL A   1      40.620  37.933  40.478  1.00  0.00    -0.744 OA
ENDBRANCH  72  73
ENDBRANCH  40  65
ENDBRANCH  14  15
ENDBRANCH   7   9
ENDBRANCH   4   5
ENDBRANCH   3   4
ENDBRANCH   2   3
ENDBRANCH   1   2
BRANCH   1  77
ATOM     77  C   UNL A   1      37.996  23.342  25.645  1.00  0.00     0.021 C 
BRANCH  77  78
ATOM     78  C   UNL A   1      36.526  23.701  25.874  1.00  0.00     0.116 C 
BRANCH  78  79
ATOM     79  N   UNL A   1      35.864  22.871  26.865  1.00  0.00    -0.352 N 
ATOM     80  C   UNL A   1      34.578  22.392  26.840  1.00  0.00     0.255 C 
ATOM     81  H   UNL A   1      36.403  22.622  27.649  1.00  0.00     0.163 HD
ATOM     82  O   UNL A   1      34.197  21.588  27.687  1.00  0.00    -0.269 OA
BRANCH  80  83
ATOM     83  C   UNL A   1      33.614  22.907  25.854  1.00  0.00     0.082 A 
ATOM     84  C   UNL A   1      33.050  24.156  26.188  1.00  0.00     0.026 A 
ATOM     85  C   UNL A   1      33.215  22.254  24.688  1.00  0.00     0.132 A 
ATOM     86  C   UNL A   1      32.115  24.785  25.348  1.00  0.00    -0.017 A 
ATOM     87  C   UNL A   1      32.297  22.898  23.841  1.00  0.00     0.056 A 
ATOM     88  C   UNL A   1      31.545  26.030  25.663  1.00  0.00     0.009 A 
ATOM     89  C   UNL A   1      31.742  24.148  24.149  1.00  0.00    -0.015 A 
ATOM     90  C   UNL A   1      30.629  26.636  24.799  1.00  0.00     0.001 A 
ATOM     91  C   UNL A   1      30.824  24.769  23.287  1.00  0.00     0.009 A 
ATOM     92  C   UNL A   1      30.272  26.008  23.609  1.00  0.00     0.001 A 
BRANCH  85  93
ATOM     93  O   UNL A   1      33.623  21.075  24.148  1.00  0.00    -0.490 OA
BRANCH  93  94
ATOM     94  C   UNL A   1      32.714  20.035  23.795  1.00  0.00     0.257 C 
BRANCH  94  95
ATOM     95  C   UNL A   1      32.374  19.243  25.050  1.00  0.00     0.197 C 
BRANCH  95  96
ATOM     96  O   UNL A   1      33.471  19.208  25.961  1.00  0.00    -0.393 OA
ATOM     97  H   UNL A   1      34.070  18.484  25.719  1.00  0.00     0.210 HD
ENDBRANCH  95  96
ENDBRANCH  94  95
ENDBRANCH  93  94
ENDBRANCH  85  93
ENDBRANCH  80  83
ENDBRANCH  78  79
ENDBRANCH  77  78
ENDBRANCH   1  77
TORSDOF 20
ENDMDL
