MODEL 1
REMARK VINA RESULT:     -11.1      0.000      0.000
REMARK SMILES COc1ccc(NC(=O)C[C@@H](C[NH+]2CCOCC2)C(=O)NCCCCCCNC(=O)c2ccc(-c3c4nc(c(-c5c(F)cc(S(=O)(=O)[O-])cc5F)c5ccc([nH]5)c(-c5c(F)cc(S(=O)(=O)[O-])cc5F)c5nc(c(-c6c(F)cc(S(=O)(=O)[O-])cc6F)c6ccc3[nH]6)C=C5)C=C4)cc2)cc1
REMARK SMILES IDX 24 1 23 2 22 3 21 4 19 5 20 6 11 8 10 9 8 10 7 11 9 13 6 14
REMARK SMILES IDX 3 15 4 16 98 17 5 18 97 19 2 20 1 21 12 22 13 23 14 24 18 25
REMARK SMILES IDX 15 27 17 28 16 29 25 30 26 31 27 32 28 33 29 34 30 36 31 37
REMARK SMILES IDX 32 38 96 39 33 40 95 41 34 42 35 43 36 44 89 45 37 46 94 47
REMARK SMILES IDX 88 48 90 49 38 50 93 51 87 52 86 53 39 55 73 56 52 57 72 58
REMARK SMILES IDX 53 59 56 60 71 61 91 62 54 63 55 64 70 66 92 67 57 68 40 69
REMARK SMILES IDX 41 70 50 71 42 72 43 73 49 74 51 75 44 76 45 77 46 78 47 79
REMARK SMILES IDX 48 80 74 81 75 82 84 83 76 84 77 85 83 86 85 87 78 88 79 89
REMARK SMILES IDX 80 90 81 91 82 92 58 93 59 94 68 95 60 96 61 97 67 98 69 99
REMARK SMILES IDX 62 100 63 101 64 102 65 103 66 104
REMARK H PARENT 21 7 7 12 13 26 28 35 90 54 56 65
REMARK Flexibility Score: inf
ROOT
ATOM      1  C   UNL A   1      39.178  21.777  26.091  1.00  0.00     0.002 C 
ENDROOT
BRANCH   1   2
ATOM      2  C   UNL A   1      38.673  23.196  26.370  1.00  0.00     0.021 C 
BRANCH   2   3
ATOM      3  C   UNL A   1      37.283  23.432  25.799  1.00  0.00     0.116 C 
BRANCH   3   4
ATOM      4  N   UNL A   1      37.167  23.005  24.417  1.00  0.00    -0.356 N 
ATOM      5  C   UNL A   1      36.105  23.155  23.570  1.00  0.00     0.229 C 
ATOM      6  O   UNL A   1      36.292  22.955  22.366  1.00  0.00    -0.275 OA
ATOM      7  H   UNL A   1      37.954  22.549  24.041  1.00  0.00     0.163 HD
BRANCH   5   8
ATOM      8  C   UNL A   1      34.710  23.509  24.091  1.00  0.00     0.142 C 
BRANCH   8   9
ATOM      9  C   UNL A   1      34.300  24.869  23.470  1.00  0.00     0.119 C 
BRANCH   9  10
ATOM     10  C   UNL A   1      33.293  24.827  22.337  1.00  0.00     0.225 C 
ATOM     11  N   UNL A   1      32.365  25.809  22.125  1.00  0.00    -0.326 N 
ATOM     12  H   UNL A   1      31.745  25.628  21.382  1.00  0.00     0.169 HD
ATOM     13  O   UNL A   1      33.330  23.897  21.523  1.00  0.00    -0.275 OA
BRANCH  11  14
ATOM     14  C   UNL A   1      32.144  27.029  22.780  1.00  0.00     0.041 A 
ATOM     15  C   UNL A   1      32.215  29.186  24.542  1.00  0.00     0.119 A 
ATOM     16  C   UNL A   1      31.096  28.358  24.501  1.00  0.00     0.048 A 
ATOM     17  C   UNL A   1      33.223  29.044  23.593  1.00  0.00     0.048 A 
ATOM     18  C   UNL A   1      31.052  27.288  23.605  1.00  0.00     0.030 A 
ATOM     19  C   UNL A   1      33.167  27.981  22.685  1.00  0.00     0.030 A 
BRANCH  15  20
ATOM     20  O   UNL A   1      32.379  29.925  25.679  1.00  0.00    -0.497 OA
ATOM     21  C   UNL A   1      31.930  29.292  26.869  1.00  0.00     0.278 C 
ENDBRANCH  15  20
ENDBRANCH  11  14
ENDBRANCH   9  10
ENDBRANCH   8   9
BRANCH   8  22
ATOM     22  C   UNL A   1      33.688  22.335  24.031  1.00  0.00     0.276 C 
BRANCH  22  23
ATOM     23  N   UNL A   1      33.331  21.717  25.314  1.00  0.00    -0.330 N 
ATOM     24  C   UNL A   1      31.911  21.340  25.453  1.00  0.00     0.291 C 
ATOM     25  C   UNL A   1      33.749  22.476  26.504  1.00  0.00     0.291 C 
ATOM     26  H   UNL A   1      33.880  20.858  25.277  1.00  0.00     0.348 HD
ATOM     27  C   UNL A   1      30.982  22.491  25.843  1.00  0.00     0.221 C 
ATOM     28  C   UNL A   1      32.772  23.592  26.909  1.00  0.00     0.221 C 
ATOM     29  O   UNL A   1      31.431  23.108  27.058  1.00  0.00    -0.370 OA
ENDBRANCH  22  23
ENDBRANCH   8  22
ENDBRANCH   5   8
ENDBRANCH   3   4
ENDBRANCH   2   3
ENDBRANCH   1   2
BRANCH   1  30
ATOM     30  C   UNL A   1      40.491  21.404  26.800  1.00  0.00     0.002 C 
BRANCH  30  31
ATOM     31  C   UNL A   1      40.952  22.373  27.893  1.00  0.00     0.021 C 
BRANCH  31  32
ATOM     32  C   UNL A   1      42.222  23.152  27.564  1.00  0.00     0.116 C 
BRANCH  32  33
ATOM     33  N   UNL A   1      42.061  23.998  26.393  1.00  0.00    -0.352 N 
ATOM     34  C   UNL A   1      41.661  25.303  26.303  1.00  0.00     0.251 C 
ATOM     35  H   UNL A   1      42.272  23.567  25.534  1.00  0.00     0.163 HD
ATOM     36  O   UNL A   1      41.427  25.791  25.196  1.00  0.00    -0.269 OA
BRANCH  34  37
ATOM     37  C   UNL A   1      41.484  26.117  27.522  1.00  0.00     0.039 A 
ATOM     38  C   UNL A   1      42.485  27.027  27.867  1.00  0.00     0.014 A 
ATOM     39  C   UNL A   1      40.350  25.981  28.330  1.00  0.00     0.014 A 
ATOM     40  C   UNL A   1      42.327  27.836  28.991  1.00  0.00     0.010 A 
ATOM     41  C   UNL A   1      40.159  26.842  29.410  1.00  0.00     0.010 A 
ATOM     42  C   UNL A   1      41.147  27.776  29.753  1.00  0.00    -0.014 A 
BRANCH  42  43
ATOM     43  C   UNL A   1      40.936  28.711  30.886  1.00  0.00     0.031 A 
ATOM     44  C   UNL A   1      41.775  28.617  32.130  1.00  0.00     0.074 A 
ATOM     45  C   UNL A   1      39.957  29.634  30.796  1.00  0.00     0.049 A 
ATOM     46  N   UNL A   1      41.743  29.366  33.203  1.00  0.00    -0.248 NA
ATOM     47  C   UNL A   1      42.762  27.527  32.190  1.00  0.00     0.031 C 
ATOM     48  C   UNL A   1      39.037  29.781  29.665  1.00  0.00     0.029 A 
ATOM     49  N   UNL A   1      39.573  30.625  31.665  1.00  0.00    -0.354 N 
ATOM     50  C   UNL A   1      42.700  28.840  34.063  1.00  0.00     0.074 A 
ATOM     51  C   UNL A   1      43.254  27.673  33.412  1.00  0.00     0.031 C 
ATOM     52  C   UNL A   1      38.223  30.823  29.892  1.00  0.00     0.029 A 
ATOM     53  C   UNL A   1      38.537  31.397  31.196  1.00  0.00     0.049 A 
ATOM     54  H   UNL A   1      40.000  30.769  32.540  1.00  0.00     0.167 HD
ATOM     55  C   UNL A   1      43.098  29.303  35.272  1.00  0.00     0.037 A 
ATOM     56  C   UNL A   1      37.909  32.451  31.753  1.00  0.00     0.037 A 
ATOM     57  C   UNL A   1      42.548  30.475  35.907  1.00  0.00     0.049 A 
ATOM     58  C   UNL A   1      38.373  32.950  33.094  1.00  0.00     0.074 A 
ATOM     59  C   UNL A   1      42.921  31.062  37.102  1.00  0.00     0.029 A 
ATOM     60  N   UNL A   1      41.501  31.234  35.401  1.00  0.00    -0.354 N 
ATOM     61  N   UNL A   1      39.334  32.487  33.858  1.00  0.00    -0.248 NA
ATOM     62  C   UNL A   1      37.673  34.117  33.644  1.00  0.00     0.031 C 
ATOM     63  C   UNL A   1      42.069  32.144  37.346  1.00  0.00     0.029 A 
ATOM     64  C   UNL A   1      41.199  32.267  36.274  1.00  0.00     0.049 A 
ATOM     65  H   UNL A   1      41.042  31.064  34.548  1.00  0.00     0.167 HD
ATOM     66  C   UNL A   1      39.368  33.320  34.971  1.00  0.00     0.074 A 
ATOM     67  C   UNL A   1      38.345  34.327  34.768  1.00  0.00     0.031 C 
ATOM     68  C   UNL A   1      40.170  33.255  36.064  1.00  0.00     0.037 A 
BRANCH  55  69
ATOM     69  C   UNL A   1      44.182  28.544  35.990  1.00  0.00     0.058 A 
ATOM     70  C   UNL A   1      45.539  28.874  35.838  1.00  0.00     0.135 A 
ATOM     71  C   UNL A   1      43.861  27.499  36.872  1.00  0.00     0.135 A 
ATOM     72  F   UNL A   1      45.907  29.854  34.997  1.00  0.00    -0.206 F 
ATOM     73  C   UNL A   1      46.538  28.176  36.509  1.00  0.00     0.059 A 
ATOM     74  C   UNL A   1      44.842  26.808  37.577  1.00  0.00     0.059 A 
ATOM     75  F   UNL A   1      42.580  27.141  37.057  1.00  0.00    -0.206 F 
ATOM     76  C   UNL A   1      46.180  27.145  37.378  1.00  0.00     0.060 A 
BRANCH  76  77
ATOM     77  S   UNL A   1      47.490  26.256  38.245  1.00  0.00     0.124 S 
ATOM     78  O   UNL A   1      47.709  25.120  37.355  1.00  0.00    -0.237 OA
ATOM     79  O   UNL A   1      48.562  27.244  38.288  1.00  0.00    -0.237 OA
ATOM     80  O   UNL A   1      46.886  25.933  39.535  1.00  0.00    -0.744 OA
ENDBRANCH  76  77
ENDBRANCH  55  69
BRANCH  56  81
ATOM     81  C   UNL A   1      36.795  33.118  31.028  1.00  0.00     0.058 A 
ATOM     82  C   UNL A   1      37.044  33.993  29.963  1.00  0.00     0.135 A 
ATOM     83  C   UNL A   1      35.456  32.874  31.374  1.00  0.00     0.135 A 
ATOM     84  F   UNL A   1      38.308  34.263  29.597  1.00  0.00    -0.206 F 
ATOM     85  C   UNL A   1      36.010  34.618  29.273  1.00  0.00     0.059 A 
ATOM     86  C   UNL A   1      34.404  33.464  30.683  1.00  0.00     0.059 A 
ATOM     87  F   UNL A   1      35.161  32.028  32.374  1.00  0.00    -0.206 F 
ATOM     88  C   UNL A   1      34.691  34.343  29.640  1.00  0.00     0.060 A 
BRANCH  88  89
ATOM     89  S   UNL A   1      33.352  35.114  28.705  1.00  0.00     0.124 S 
ATOM     90  O   UNL A   1      34.083  36.063  27.874  1.00  0.00    -0.237 OA
ATOM     91  O   UNL A   1      32.767  33.972  28.009  1.00  0.00    -0.237 OA
ATOM     92  O   UNL A   1      32.512  35.700  29.746  1.00  0.00    -0.744 OA
ENDBRANCH  88  89
ENDBRANCH  56  81
BRANCH  68  93
ATOM     93  C   UNL A   1      39.981  34.316  37.115  1.00  0.00     0.058 A 
ATOM     94  C   UNL A   1      40.732  35.503  37.107  1.00  0.00     0.135 A 
ATOM     95  C   UNL A   1      39.024  34.154  38.129  1.00  0.00     0.135 A 
ATOM     96  F   UNL A   1      41.665  35.706  36.162  1.00  0.00    -0.206 F 
ATOM     97  C   UNL A   1      40.567  36.474  38.089  1.00  0.00     0.059 A 
ATOM     98  C   UNL A   1      38.820  35.127  39.103  1.00  0.00     0.059 A 
ATOM     99  F   UNL A   1      38.270  33.044  38.178  1.00  0.00    -0.206 F 
ATOM    100  C   UNL A   1      39.609  36.275  39.085  1.00  0.00     0.060 A 
BRANCH 100 101
ATOM    101  S   UNL A   1      39.401  37.546  40.349  1.00  0.00     0.124 S 
ATOM    102  O   UNL A   1      40.600  38.355  40.153  1.00  0.00    -0.237 OA
ATOM    103  O   UNL A   1      38.142  38.173  39.958  1.00  0.00    -0.237 OA
ATOM    104  O   UNL A   1      39.355  36.783  41.594  1.00  0.00    -0.744 OA
ENDBRANCH 100 101
ENDBRANCH  68  93
ENDBRANCH  42  43
ENDBRANCH  34  37
ENDBRANCH  32  33
ENDBRANCH  31  32
ENDBRANCH  30  31
ENDBRANCH   1  30
TORSDOF 22
ENDMDL
MODEL 2
REMARK VINA RESULT:     -11.0      5.005      6.907
REMARK SMILES COc1ccc(NC(=O)C[C@@H](C[NH+]2CCOCC2)C(=O)NCCCCCCNC(=O)c2ccc(-c3c4nc(c(-c5c(F)cc(S(=O)(=O)[O-])cc5F)c5ccc([nH]5)c(-c5c(F)cc(S(=O)(=O)[O-])cc5F)c5nc(c(-c6c(F)cc(S(=O)(=O)[O-])cc6F)c6ccc3[nH]6)C=C5)C=C4)cc2)cc1
REMARK SMILES IDX 24 1 23 2 22 3 21 4 19 5 20 6 11 8 10 9 8 10 7 11 9 13 6 14
REMARK SMILES IDX 3 15 4 16 98 17 5 18 97 19 2 20 1 21 12 22 13 23 14 24 18 25
REMARK SMILES IDX 15 27 17 28 16 29 25 30 26 31 27 32 28 33 29 34 30 36 31 37
REMARK SMILES IDX 32 38 96 39 33 40 95 41 34 42 35 43 36 44 89 45 37 46 94 47
REMARK SMILES IDX 88 48 90 49 38 50 93 51 87 52 86 53 39 55 73 56 52 57 72 58
REMARK SMILES IDX 53 59 56 60 71 61 91 62 54 63 55 64 70 66 92 67 57 68 40 69
REMARK SMILES IDX 41 70 50 71 42 72 43 73 49 74 51 75 44 76 45 77 46 78 47 79
REMARK SMILES IDX 48 80 74 81 75 82 84 83 76 84 77 85 83 86 85 87 78 88 79 89
REMARK SMILES IDX 80 90 81 91 82 92 58 93 59 94 68 95 60 96 61 97 67 98 69 99
REMARK SMILES IDX 62 100 63 101 64 102 65 103 66 104
REMARK H PARENT 21 7 7 12 13 26 28 35 90 54 56 65
REMARK Flexibility Score: inf
ROOT
ATOM      1  C   UNL A   1      34.445  22.904  22.844  1.00  0.00     0.002 C 
ENDROOT
BRANCH   1   2
ATOM      2  C   UNL A   1      33.099  22.792  23.566  1.00  0.00     0.021 C 
BRANCH   2   3
ATOM      3  C   UNL A   1      32.052  23.724  22.975  1.00  0.00     0.116 C 
BRANCH   3   4
ATOM      4  N   UNL A   1      32.606  24.632  21.988  1.00  0.00    -0.356 N 
ATOM      5  C   UNL A   1      32.969  25.939  22.148  1.00  0.00     0.229 C 
ATOM      6  O   UNL A   1      33.653  26.462  21.263  1.00  0.00    -0.275 OA
ATOM      7  H   UNL A   1      32.736  24.257  21.087  1.00  0.00     0.163 HD
BRANCH   5   8
ATOM      8  C   UNL A   1      32.506  26.755  23.357  1.00  0.00     0.142 C 
BRANCH   8   9
ATOM      9  C   UNL A   1      33.627  26.701  24.426  1.00  0.00     0.119 C 
BRANCH   9  10
ATOM     10  C   UNL A   1      33.208  26.347  25.840  1.00  0.00     0.225 C 
ATOM     11  N   UNL A   1      33.217  27.247  26.870  1.00  0.00    -0.326 N 
ATOM     12  H   UNL A   1      32.966  26.867  27.742  1.00  0.00     0.169 HD
ATOM     13  O   UNL A   1      32.785  25.212  26.082  1.00  0.00    -0.275 OA
BRANCH  11  14
ATOM     14  C   UNL A   1      33.520  28.615  26.899  1.00  0.00     0.041 A 
ATOM     15  C   UNL A   1      34.157  31.212  27.683  1.00  0.00     0.119 A 
ATOM     16  C   UNL A   1      32.887  30.926  27.186  1.00  0.00     0.048 A 
ATOM     17  C   UNL A   1      35.159  30.247  27.631  1.00  0.00     0.048 A 
ATOM     18  C   UNL A   1      32.573  29.630  26.775  1.00  0.00     0.030 A 
ATOM     19  C   UNL A   1      34.845  28.953  27.202  1.00  0.00     0.030 A 
BRANCH  15  20
ATOM     20  O   UNL A   1      34.271  32.348  28.434  1.00  0.00    -0.497 OA
ATOM     21  C   UNL A   1      33.477  33.438  27.988  1.00  0.00     0.278 C 
ENDBRANCH  15  20
ENDBRANCH  11  14
ENDBRANCH   9  10
ENDBRANCH   8   9
BRANCH   8  22
ATOM     22  C   UNL A   1      31.900  28.144  22.997  1.00  0.00     0.276 C 
BRANCH  22  23
ATOM     23  N   UNL A   1      30.833  28.636  23.876  1.00  0.00    -0.330 N 
ATOM     24  C   UNL A   1      29.958  27.592  24.443  1.00  0.00     0.291 C 
ATOM     25  C   UNL A   1      30.000  29.704  23.299  1.00  0.00     0.291 C 
ATOM     26  H   UNL A   1      31.377  29.037  24.640  1.00  0.00     0.348 HD
ATOM     27  C   UNL A   1      28.850  27.110  23.504  1.00  0.00     0.221 C 
ATOM     28  C   UNL A   1      28.859  29.192  22.403  1.00  0.00     0.221 C 
ATOM     29  O   UNL A   1      28.048  28.215  23.067  1.00  0.00    -0.370 OA
ENDBRANCH  22  23
ENDBRANCH   8  22
ENDBRANCH   5   8
ENDBRANCH   3   4
ENDBRANCH   2   3
ENDBRANCH   1   2
BRANCH   1  30
ATOM     30  C   UNL A   1      35.663  23.086  23.764  1.00  0.00     0.002 C 
BRANCH  30  31
ATOM     31  C   UNL A   1      35.350  23.236  25.256  1.00  0.00     0.021 C 
BRANCH  31  32
ATOM     32  C   UNL A   1      36.522  23.705  26.112  1.00  0.00     0.116 C 
BRANCH  32  33
ATOM     33  N   UNL A   1      37.562  22.695  26.223  1.00  0.00    -0.352 N 
ATOM     34  C   UNL A   1      38.893  22.835  26.505  1.00  0.00     0.251 C 
ATOM     35  H   UNL A   1      37.263  21.770  26.073  1.00  0.00     0.163 HD
ATOM     36  O   UNL A   1      39.643  21.865  26.388  1.00  0.00    -0.269 OA
BRANCH  34  37
ATOM     37  C   UNL A   1      39.436  24.143  26.923  1.00  0.00     0.039 A 
ATOM     38  C   UNL A   1      39.542  24.416  28.288  1.00  0.00     0.014 A 
ATOM     39  C   UNL A   1      39.826  25.103  25.983  1.00  0.00     0.014 A 
ATOM     40  C   UNL A   1      40.088  25.627  28.711  1.00  0.00     0.010 A 
ATOM     41  C   UNL A   1      40.439  26.282  26.406  1.00  0.00     0.010 A 
ATOM     42  C   UNL A   1      40.573  26.556  27.774  1.00  0.00    -0.014 A 
BRANCH  42  43
ATOM     43  C   UNL A   1      41.248  27.798  28.228  1.00  0.00     0.031 A 
ATOM     44  C   UNL A   1      42.732  27.975  28.059  1.00  0.00     0.074 A 
ATOM     45  C   UNL A   1      40.514  28.760  28.822  1.00  0.00     0.049 A 
ATOM     46  N   UNL A   1      43.479  29.002  28.374  1.00  0.00    -0.248 NA
ATOM     47  C   UNL A   1      43.479  26.845  27.484  1.00  0.00     0.031 C 
ATOM     48  C   UNL A   1      39.077  28.674  29.098  1.00  0.00     0.029 A 
ATOM     49  N   UNL A   1      40.869  29.997  29.298  1.00  0.00    -0.354 N 
ATOM     50  C   UNL A   1      44.780  28.644  28.038  1.00  0.00     0.074 A 
ATOM     51  C   UNL A   1      44.728  27.283  27.550  1.00  0.00     0.031 C 
ATOM     52  C   UNL A   1      38.668  29.823  29.658  1.00  0.00     0.029 A 
ATOM     53  C   UNL A   1      39.813  30.712  29.814  1.00  0.00     0.049 A 
ATOM     54  H   UNL A   1      41.791  30.340  29.272  1.00  0.00     0.167 HD
ATOM     55  C   UNL A   1      45.908  29.391  28.106  1.00  0.00     0.037 A 
ATOM     56  C   UNL A   1      39.773  31.946  30.352  1.00  0.00     0.037 A 
ATOM     57  C   UNL A   1      45.947  30.750  28.582  1.00  0.00     0.049 A 
ATOM     58  C   UNL A   1      41.038  32.757  30.411  1.00  0.00     0.074 A 
ATOM     59  C   UNL A   1      47.026  31.614  28.636  1.00  0.00     0.029 A 
ATOM     60  N   UNL A   1      44.858  31.444  29.094  1.00  0.00    -0.354 N 
ATOM     61  N   UNL A   1      42.245  32.431  30.015  1.00  0.00    -0.248 NA
ATOM     62  C   UNL A   1      40.933  34.106  30.982  1.00  0.00     0.031 C 
ATOM     63  C   UNL A   1      46.604  32.810  29.227  1.00  0.00     0.029 A 
ATOM     64  C   UNL A   1      45.247  32.713  29.491  1.00  0.00     0.049 A 
ATOM     65  H   UNL A   1      43.944  31.086  29.165  1.00  0.00     0.167 HD
ATOM     66  C   UNL A   1      43.041  33.542  30.271  1.00  0.00     0.074 A 
ATOM     67  C   UNL A   1      42.172  34.556  30.834  1.00  0.00     0.031 C 
ATOM     68  C   UNL A   1      44.372  33.708  30.061  1.00  0.00     0.037 A 
BRANCH  55  69
ATOM     69  C   UNL A   1      47.196  28.756  27.653  1.00  0.00     0.058 A 
ATOM     70  C   UNL A   1      47.580  28.747  26.302  1.00  0.00     0.135 A 
ATOM     71  C   UNL A   1      48.077  28.182  28.584  1.00  0.00     0.135 A 
ATOM     72  F   UNL A   1      46.770  29.267  25.365  1.00  0.00    -0.206 F 
ATOM     73  C   UNL A   1      48.775  28.167  25.887  1.00  0.00     0.059 A 
ATOM     74  C   UNL A   1      49.292  27.623  28.195  1.00  0.00     0.059 A 
ATOM     75  F   UNL A   1      47.763  28.162  29.889  1.00  0.00    -0.206 F 
ATOM     76  C   UNL A   1      49.625  27.608  26.842  1.00  0.00     0.060 A 
BRANCH  76  77
ATOM     77  S   UNL A   1      51.174  26.866  26.286  1.00  0.00     0.124 S 
ATOM     78  O   UNL A   1      50.764  26.242  25.032  1.00  0.00    -0.237 OA
ATOM     79  O   UNL A   1      52.048  28.028  26.160  1.00  0.00    -0.237 OA
ATOM     80  O   UNL A   1      51.515  25.941  27.363  1.00  0.00    -0.744 OA
ENDBRANCH  76  77
ENDBRANCH  55  69
BRANCH  56  81
ATOM     81  C   UNL A   1      38.484  32.495  30.850  1.00  0.00     0.058 A 
ATOM     82  C   UNL A   1      38.059  32.269  32.166  1.00  0.00     0.135 A 
ATOM     83  C   UNL A   1      37.661  33.277  30.024  1.00  0.00     0.135 A 
ATOM     84  F   UNL A   1      38.809  31.524  32.994  1.00  0.00    -0.206 F 
ATOM     85  C   UNL A   1      36.859  32.783  32.645  1.00  0.00     0.059 A 
ATOM     86  C   UNL A   1      36.470  33.826  30.487  1.00  0.00     0.059 A 
ATOM     87  F   UNL A   1      38.030  33.541  28.760  1.00  0.00    -0.206 F 
ATOM     88  C   UNL A   1      36.072  33.565  31.797  1.00  0.00     0.060 A 
BRANCH  88  89
ATOM     89  S   UNL A   1      34.542  34.275  32.442  1.00  0.00     0.124 S 
ATOM     90  O   UNL A   1      34.213  33.342  33.512  1.00  0.00    -0.237 OA
ATOM     91  O   UNL A   1      34.975  35.604  32.862  1.00  0.00    -0.237 OA
ATOM     92  O   UNL A   1      33.649  34.252  31.286  1.00  0.00    -0.744 OA
ENDBRANCH  88  89
ENDBRANCH  56  81
BRANCH  68  93
ATOM     93  C   UNL A   1      44.962  35.042  30.429  1.00  0.00     0.058 A 
ATOM     94  C   UNL A   1      45.500  35.284  31.704  1.00  0.00     0.135 A 
ATOM     95  C   UNL A   1      45.011  36.085  29.490  1.00  0.00     0.135 A 
ATOM     96  F   UNL A   1      45.475  34.323  32.642  1.00  0.00    -0.206 F 
ATOM     97  C   UNL A   1      46.030  36.524  32.046  1.00  0.00     0.059 A 
ATOM     98  C   UNL A   1      45.565  37.323  29.800  1.00  0.00     0.059 A 
ATOM     99  F   UNL A   1      44.522  35.905  28.252  1.00  0.00    -0.206 F 
ATOM    100  C   UNL A   1      46.056  37.538  31.087  1.00  0.00     0.060 A 
BRANCH 100 101
ATOM    101  S   UNL A   1      46.752  39.140  31.542  1.00  0.00     0.124 S 
ATOM    102  O   UNL A   1      47.226  38.880  32.898  1.00  0.00    -0.237 OA
ATOM    103  O   UNL A   1      47.790  39.328  30.533  1.00  0.00    -0.237 OA
ATOM    104  O   UNL A   1      45.613  40.047  31.438  1.00  0.00    -0.744 OA
ENDBRANCH 100 101
ENDBRANCH  68  93
ENDBRANCH  42  43
ENDBRANCH  34  37
ENDBRANCH  32  33
ENDBRANCH  31  32
ENDBRANCH  30  31
ENDBRANCH   1  30
TORSDOF 22
ENDMDL
MODEL 3
REMARK VINA RESULT:     -10.9      6.312     12.014
REMARK SMILES COc1ccc(NC(=O)C[C@@H](C[NH+]2CCOCC2)C(=O)NCCCCCCNC(=O)c2ccc(-c3c4nc(c(-c5c(F)cc(S(=O)(=O)[O-])cc5F)c5ccc([nH]5)c(-c5c(F)cc(S(=O)(=O)[O-])cc5F)c5nc(c(-c6c(F)cc(S(=O)(=O)[O-])cc6F)c6ccc3[nH]6)C=C5)C=C4)cc2)cc1
REMARK SMILES IDX 24 1 23 2 22 3 21 4 19 5 20 6 11 8 10 9 8 10 7 11 9 13 6 14
REMARK SMILES IDX 3 15 4 16 98 17 5 18 97 19 2 20 1 21 12 22 13 23 14 24 18 25
REMARK SMILES IDX 15 27 17 28 16 29 25 30 26 31 27 32 28 33 29 34 30 36 31 37
REMARK SMILES IDX 32 38 96 39 33 40 95 41 34 42 35 43 36 44 89 45 37 46 94 47
REMARK SMILES IDX 88 48 90 49 38 50 93 51 87 52 86 53 39 55 73 56 52 57 72 58
REMARK SMILES IDX 53 59 56 60 71 61 91 62 54 63 55 64 70 66 92 67 57 68 40 69
REMARK SMILES IDX 41 70 50 71 42 72 43 73 49 74 51 75 44 76 45 77 46 78 47 79
REMARK SMILES IDX 48 80 74 81 75 82 84 83 76 84 77 85 83 86 85 87 78 88 79 89
REMARK SMILES IDX 80 90 81 91 82 92 58 93 59 94 68 95 60 96 61 97 67 98 69 99
REMARK SMILES IDX 62 100 63 101 64 102 65 103 66 104
REMARK H PARENT 21 7 7 12 13 26 28 35 90 54 56 65
REMARK Flexibility Score: inf
ROOT
ATOM      1  C   UNL A   1      34.442  28.912  27.223  1.00  0.00     0.002 C 
ENDROOT
BRANCH   1   2
ATOM      2  C   UNL A   1      33.470  28.882  26.040  1.00  0.00     0.021 C 
BRANCH   2   3
ATOM      3  C   UNL A   1      33.086  27.463  25.649  1.00  0.00     0.116 C 
BRANCH   3   4
ATOM      4  N   UNL A   1      31.650  27.277  25.561  1.00  0.00    -0.356 N 
ATOM      5  C   UNL A   1      30.871  27.207  24.440  1.00  0.00     0.229 C 
ATOM      6  O   UNL A   1      29.716  26.791  24.563  1.00  0.00    -0.275 OA
ATOM      7  H   UNL A   1      31.176  27.188  26.419  1.00  0.00     0.163 HD
BRANCH   5   8
ATOM      8  C   UNL A   1      31.388  27.675  23.077  1.00  0.00     0.142 C 
BRANCH   8   9
ATOM      9  C   UNL A   1      31.599  26.421  22.191  1.00  0.00     0.119 C 
BRANCH   9  10
ATOM     10  C   UNL A   1      33.025  25.932  22.024  1.00  0.00     0.225 C 
ATOM     11  N   UNL A   1      33.454  24.712  22.468  1.00  0.00    -0.326 N 
ATOM     12  H   UNL A   1      34.416  24.547  22.334  1.00  0.00     0.169 HD
ATOM     13  O   UNL A   1      33.840  26.632  21.412  1.00  0.00    -0.275 OA
BRANCH  11  14
ATOM     14  C   UNL A   1      32.764  23.656  23.079  1.00  0.00     0.041 A 
ATOM     15  C   UNL A   1      32.040  21.459  24.632  1.00  0.00     0.119 A 
ATOM     16  C   UNL A   1      32.170  21.324  23.252  1.00  0.00     0.048 A 
ATOM     17  C   UNL A   1      32.105  22.720  25.218  1.00  0.00     0.048 A 
ATOM     18  C   UNL A   1      32.514  22.428  22.470  1.00  0.00     0.030 A 
ATOM     19  C   UNL A   1      32.433  23.828  24.429  1.00  0.00     0.030 A 
BRANCH  15  20
ATOM     20  O   UNL A   1      32.117  20.307  25.362  1.00  0.00    -0.497 OA
ATOM     21  C   UNL A   1      32.933  19.293  24.790  1.00  0.00     0.278 C 
ENDBRANCH  15  20
ENDBRANCH  11  14
ENDBRANCH   9  10
ENDBRANCH   8   9
BRANCH   8  22
ATOM     22  C   UNL A   1      30.603  28.877  22.474  1.00  0.00     0.276 C 
BRANCH  22  23
ATOM     23  N   UNL A   1      29.380  29.276  23.181  1.00  0.00    -0.330 N 
ATOM     24  C   UNL A   1      28.143  29.209  22.379  1.00  0.00     0.291 C 
ATOM     25  C   UNL A   1      29.452  30.585  23.850  1.00  0.00     0.291 C 
ATOM     26  H   UNL A   1      29.326  28.555  23.901  1.00  0.00     0.348 HD
ATOM     27  C   UNL A   1      27.910  30.414  21.466  1.00  0.00     0.221 C 
ATOM     28  C   UNL A   1      29.160  31.777  22.924  1.00  0.00     0.221 C 
ATOM     29  O   UNL A   1      27.916  31.628  22.228  1.00  0.00    -0.370 OA
ENDBRANCH  22  23
ENDBRANCH   8  22
ENDBRANCH   5   8
ENDBRANCH   3   4
ENDBRANCH   2   3
ENDBRANCH   1   2
BRANCH   1  30
ATOM     30  C   UNL A   1      35.336  30.161  27.298  1.00  0.00     0.002 C 
BRANCH  30  31
ATOM     31  C   UNL A   1      34.883  31.243  28.281  1.00  0.00     0.021 C 
BRANCH  31  32
ATOM     32  C   UNL A   1      35.988  31.801  29.173  1.00  0.00     0.116 C 
BRANCH  32  33
ATOM     33  N   UNL A   1      35.870  31.344  30.548  1.00  0.00    -0.352 N 
ATOM     34  C   UNL A   1      36.664  30.487  31.258  1.00  0.00     0.251 C 
ATOM     35  H   UNL A   1      35.101  31.707  31.043  1.00  0.00     0.163 HD
ATOM     36  O   UNL A   1      36.296  30.096  32.367  1.00  0.00    -0.269 OA
BRANCH  34  37
ATOM     37  C   UNL A   1      37.943  30.011  30.694  1.00  0.00     0.039 A 
ATOM     38  C   UNL A   1      38.151  30.128  29.318  1.00  0.00     0.014 A 
ATOM     39  C   UNL A   1      38.930  29.440  31.506  1.00  0.00     0.014 A 
ATOM     40  C   UNL A   1      39.364  29.723  28.765  1.00  0.00     0.010 A 
ATOM     41  C   UNL A   1      40.168  29.104  30.964  1.00  0.00     0.010 A 
ATOM     42  C   UNL A   1      40.397  29.240  29.587  1.00  0.00    -0.014 A 
BRANCH  42  43
ATOM     43  C   UNL A   1      41.724  28.907  29.010  1.00  0.00     0.031 A 
ATOM     44  C   UNL A   1      42.801  29.951  28.901  1.00  0.00     0.074 A 
ATOM     45  C   UNL A   1      41.943  27.656  28.557  1.00  0.00     0.049 A 
ATOM     46  N   UNL A   1      44.022  29.829  28.448  1.00  0.00    -0.248 NA
ATOM     47  C   UNL A   1      42.457  31.315  29.334  1.00  0.00     0.031 C 
ATOM     48  C   UNL A   1      40.953  26.576  28.551  1.00  0.00     0.029 A 
ATOM     49  N   UNL A   1      43.065  27.080  28.017  1.00  0.00    -0.354 N 
ATOM     50  C   UNL A   1      44.591  31.093  28.539  1.00  0.00     0.074 A 
ATOM     51  C   UNL A   1      43.562  31.982  29.035  1.00  0.00     0.031 C 
ATOM     52  C   UNL A   1      41.523  25.460  28.071  1.00  0.00     0.029 A 
ATOM     53  C   UNL A   1      42.903  25.751  27.701  1.00  0.00     0.049 A 
ATOM     54  H   UNL A   1      43.905  27.570  27.871  1.00  0.00     0.167 HD
ATOM     55  C   UNL A   1      45.861  31.473  28.260  1.00  0.00     0.037 A 
ATOM     56  C   UNL A   1      43.770  24.866  27.174  1.00  0.00     0.037 A 
ATOM     57  C   UNL A   1      46.882  30.578  27.778  1.00  0.00     0.049 A 
ATOM     58  C   UNL A   1      45.177  25.310  26.877  1.00  0.00     0.074 A 
ATOM     59  C   UNL A   1      48.214  30.849  27.521  1.00  0.00     0.029 A 
ATOM     60  N   UNL A   1      46.683  29.238  27.473  1.00  0.00    -0.354 N 
ATOM     61  N   UNL A   1      45.719  26.493  27.045  1.00  0.00    -0.248 NA
ATOM     62  C   UNL A   1      46.089  24.300  26.329  1.00  0.00     0.031 C 
ATOM     63  C   UNL A   1      48.808  29.689  27.012  1.00  0.00     0.029 A 
ATOM     64  C   UNL A   1      47.861  28.678  27.004  1.00  0.00     0.049 A 
ATOM     65  H   UNL A   1      45.831  28.757  27.574  1.00  0.00     0.167 HD
ATOM     66  C   UNL A   1      47.043  26.363  26.641  1.00  0.00     0.074 A 
ATOM     67  C   UNL A   1      47.223  24.981  26.243  1.00  0.00     0.031 C 
ATOM     68  C   UNL A   1      48.021  27.303  26.600  1.00  0.00     0.037 A 
BRANCH  55  69
ATOM     69  C   UNL A   1      46.221  32.920  28.470  1.00  0.00     0.058 A 
ATOM     70  C   UNL A   1      46.096  33.869  27.442  1.00  0.00     0.135 A 
ATOM     71  C   UNL A   1      46.659  33.374  29.725  1.00  0.00     0.135 A 
ATOM     72  F   UNL A   1      45.696  33.491  26.217  1.00  0.00    -0.206 F 
ATOM     73  C   UNL A   1      46.421  35.208  27.641  1.00  0.00     0.059 A 
ATOM     74  C   UNL A   1      46.960  34.714  29.955  1.00  0.00     0.059 A 
ATOM     75  F   UNL A   1      46.797  32.512  30.745  1.00  0.00    -0.206 F 
ATOM     76  C   UNL A   1      46.852  35.621  28.902  1.00  0.00     0.060 A 
BRANCH  76  77
ATOM     77  S   UNL A   1      47.262  37.362  29.144  1.00  0.00     0.124 S 
ATOM     78  O   UNL A   1      48.518  37.264  29.882  1.00  0.00    -0.237 OA
ATOM     79  O   UNL A   1      47.369  37.850  27.773  1.00  0.00    -0.237 OA
ATOM     80  O   UNL A   1      46.128  37.877  29.905  1.00  0.00    -0.744 OA
ENDBRANCH  76  77
ENDBRANCH  55  69
BRANCH  56  81
ATOM     81  C   UNL A   1      43.338  23.466  26.920  1.00  0.00     0.058 A 
ATOM     82  C   UNL A   1      43.145  22.992  25.615  1.00  0.00     0.135 A 
ATOM     83  C   UNL A   1      43.130  22.567  27.979  1.00  0.00     0.135 A 
ATOM     84  F   UNL A   1      43.327  23.814  24.569  1.00  0.00    -0.206 F 
ATOM     85  C   UNL A   1      42.747  21.683  25.365  1.00  0.00     0.059 A 
ATOM     86  C   UNL A   1      42.759  21.246  27.754  1.00  0.00     0.059 A 
ATOM     87  F   UNL A   1      43.320  22.964  29.247  1.00  0.00    -0.206 F 
ATOM     88  C   UNL A   1      42.560  20.815  26.443  1.00  0.00     0.060 A 
BRANCH  88  89
ATOM     89  S   UNL A   1      42.097  19.102  26.109  1.00  0.00     0.124 S 
ATOM     90  O   UNL A   1      42.995  18.764  25.012  1.00  0.00    -0.237 OA
ATOM     91  O   UNL A   1      42.375  18.455  27.387  1.00  0.00    -0.237 OA
ATOM     92  O   UNL A   1      40.682  19.200  25.761  1.00  0.00    -0.744 OA
ENDBRANCH  88  89
ENDBRANCH  56  81
BRANCH  68  93
ATOM     93  C   UNL A   1      49.378  26.859  26.122  1.00  0.00     0.058 A 
ATOM     94  C   UNL A   1      50.280  26.201  26.974  1.00  0.00     0.135 A 
ATOM     95  C   UNL A   1      49.772  27.073  24.792  1.00  0.00     0.135 A 
ATOM     96  F   UNL A   1      49.956  25.975  28.258  1.00  0.00    -0.206 F 
ATOM     97  C   UNL A   1      51.540  25.806  26.534  1.00  0.00     0.059 A 
ATOM     98  C   UNL A   1      51.014  26.659  24.322  1.00  0.00     0.059 A 
ATOM     99  F   UNL A   1      48.944  27.687  23.931  1.00  0.00    -0.206 F 
ATOM    100  C   UNL A   1      51.898  26.042  25.206  1.00  0.00     0.060 A 
BRANCH 100 101
ATOM    101  S   UNL A   1      53.532  25.520  24.646  1.00  0.00     0.124 S 
ATOM    102  O   UNL A   1      53.595  24.154  25.157  1.00  0.00    -0.237 OA
ATOM    103  O   UNL A   1      53.423  25.650  23.196  1.00  0.00    -0.237 OA
ATOM    104  O   UNL A   1      54.432  26.473  25.289  1.00  0.00    -0.744 OA
ENDBRANCH 100 101
ENDBRANCH  68  93
ENDBRANCH  42  43
ENDBRANCH  34  37
ENDBRANCH  32  33
ENDBRANCH  31  32
ENDBRANCH  30  31
ENDBRANCH   1  30
TORSDOF 22
ENDMDL
