MODEL 1
REMARK VINA RESULT:     -10.4      0.000      0.000
REMARK SMILES COc1ccc(OCCNc2c(Cl)cccc2C(=O)NCCCCCCNC(=O)c2ccc(-c3c4nc(c(-c5c(F)cc(S(=O)(=O)[O-])cc5F)c5ccc([nH]5)c(-c5c(F)cc(S(=O)(=O)[O-])cc5F)c5nc(c(-c6c(F)cc(S(=O)(=O)[O-])cc6F)c6ccc3[nH]6)C=C5)C=C4)cc2)cc1
REMARK SMILES IDX 22 1 21 2 20 3 18 4 19 5 17 7 11 8 12 9 13 10 14 11 16 12
REMARK SMILES IDX 15 13 10 14 9 16 8 17 7 18 6 19 3 20 4 21 97 22 5 23 96 24
REMARK SMILES IDX 2 25 1 26 23 27 24 28 25 29 26 30 27 31 28 32 29 34 30 35
REMARK SMILES IDX 31 36 95 37 32 38 94 39 33 40 34 41 35 42 88 43 36 44 93 45
REMARK SMILES IDX 87 46 89 47 37 48 92 49 86 50 85 51 38 53 72 54 51 55 71 56
REMARK SMILES IDX 52 57 55 58 70 59 90 60 53 61 54 62 69 64 91 65 56 66 39 67
REMARK SMILES IDX 40 68 49 69 41 70 42 71 48 72 50 73 43 74 44 75 45 76 46 77
REMARK SMILES IDX 47 78 73 79 74 80 83 81 75 82 76 83 82 84 84 85 77 86 78 87
REMARK SMILES IDX 79 88 80 89 81 90 57 91 58 92 67 93 59 94 60 95 66 96 68 97
REMARK SMILES IDX 61 98 62 99 63 100 64 101 65 102
REMARK H PARENT 20 6 10 15 27 33 89 52 55 63
REMARK Flexibility Score: inf
ROOT
ATOM      1  C   UNL A   1      36.949  23.147  25.546  1.00  0.00     0.021 C 
ENDROOT
BRANCH   1   2
ATOM      2  C   UNL A   1      35.833  24.158  25.289  1.00  0.00     0.116 C 
BRANCH   2   3
ATOM      3  N   UNL A   1      35.157  23.983  24.021  1.00  0.00    -0.352 N 
ATOM      4  C   UNL A   1      34.214  24.755  23.390  1.00  0.00     0.253 C 
ATOM      5  O   UNL A   1      33.830  24.392  22.275  1.00  0.00    -0.269 OA
ATOM      6  H   UNL A   1      35.418  23.171  23.527  1.00  0.00     0.163 HD
BRANCH   4   7
ATOM      7  C   UNL A   1      33.551  25.937  24.000  1.00  0.00     0.064 A 
ATOM      8  C   UNL A   1      32.626  25.923  25.062  1.00  0.00     0.066 A 
ATOM      9  C   UNL A   1      32.173  27.188  25.532  1.00  0.00     0.065 A 
ATOM     10  Cl  UNL A   1      31.029  27.312  26.833  1.00  0.00    -0.082 Cl
ATOM     11  C   UNL A   1      32.627  28.399  25.003  1.00  0.00     0.023 A 
ATOM     12  C   UNL A   1      34.019  27.172  23.489  1.00  0.00     0.016 A 
ATOM     13  C   UNL A   1      33.554  28.392  23.976  1.00  0.00     0.003 A 
BRANCH   8  14
ATOM     14  N   UNL A   1      31.988  24.790  25.531  1.00  0.00    -0.380 N 
ATOM     15  H   UNL A   1      31.209  24.479  25.014  1.00  0.00     0.160 HD
BRANCH  14  16
ATOM     16  C   UNL A   1      32.344  24.011  26.704  1.00  0.00     0.154 C 
BRANCH  16  17
ATOM     17  C   UNL A   1      32.465  22.503  26.355  1.00  0.00     0.250 C 
BRANCH  17  18
ATOM     18  O   UNL A   1      32.923  22.228  25.019  1.00  0.00    -0.492 OA
BRANCH  18  19
ATOM     19  C   UNL A   1      33.298  20.958  24.670  1.00  0.00     0.119 A 
ATOM     20  C   UNL A   1      33.681  18.207  24.231  1.00  0.00     0.119 A 
ATOM     21  C   UNL A   1      32.532  18.837  23.759  1.00  0.00     0.050 A 
ATOM     22  C   UNL A   1      34.684  18.973  24.814  1.00  0.00     0.050 A 
ATOM     23  C   UNL A   1      32.340  20.205  23.986  1.00  0.00     0.050 A 
ATOM     24  C   UNL A   1      34.505  20.348  24.998  1.00  0.00     0.050 A 
BRANCH  20  25
ATOM     25  O   UNL A   1      33.781  16.862  24.009  1.00  0.00    -0.497 OA
ATOM     26  C   UNL A   1      34.768  16.204  24.801  1.00  0.00     0.278 C 
ENDBRANCH  20  25
ENDBRANCH  18  19
ENDBRANCH  17  18
ENDBRANCH  16  17
ENDBRANCH  14  16
ENDBRANCH   8  14
ENDBRANCH   4   7
ENDBRANCH   2   3
ENDBRANCH   1   2
BRANCH   1  27
ATOM     27  C   UNL A   1      38.263  23.694  26.127  1.00  0.00     0.002 C 
BRANCH  27  28
ATOM     28  C   UNL A   1      39.362  22.691  26.490  1.00  0.00     0.002 C 
BRANCH  28  29
ATOM     29  C   UNL A   1      39.386  21.380  25.710  1.00  0.00     0.021 C 
BRANCH  29  30
ATOM     30  C   UNL A   1      39.455  20.084  26.510  1.00  0.00     0.116 C 
BRANCH  30  31
ATOM     31  N   UNL A   1      40.552  19.220  26.126  1.00  0.00    -0.352 N 
ATOM     32  C   UNL A   1      41.897  19.483  26.013  1.00  0.00     0.251 C 
ATOM     33  H   UNL A   1      40.293  18.295  25.912  1.00  0.00     0.163 HD
ATOM     34  O   UNL A   1      42.634  18.598  25.587  1.00  0.00    -0.269 OA
BRANCH  32  35
ATOM     35  C   UNL A   1      42.470  20.813  26.355  1.00  0.00     0.039 A 
ATOM     36  C   UNL A   1      42.926  21.618  25.306  1.00  0.00     0.014 A 
ATOM     37  C   UNL A   1      42.608  21.266  27.671  1.00  0.00     0.014 A 
ATOM     38  C   UNL A   1      43.461  22.883  25.567  1.00  0.00     0.010 A 
ATOM     39  C   UNL A   1      43.078  22.560  27.927  1.00  0.00     0.010 A 
ATOM     40  C   UNL A   1      43.511  23.385  26.877  1.00  0.00    -0.014 A 
BRANCH  40  41
ATOM     41  C   UNL A   1      43.986  24.773  27.136  1.00  0.00     0.031 A 
ATOM     42  C   UNL A   1      45.433  25.151  26.947  1.00  0.00     0.074 A 
ATOM     43  C   UNL A   1      43.106  25.702  27.561  1.00  0.00     0.049 A 
ATOM     44  N   UNL A   1      46.007  26.319  27.094  1.00  0.00    -0.248 NA
ATOM     45  C   UNL A   1      46.359  24.075  26.564  1.00  0.00     0.031 C 
ATOM     46  C   UNL A   1      41.689  25.455  27.841  1.00  0.00     0.029 A 
ATOM     47  N   UNL A   1      43.265  27.040  27.830  1.00  0.00    -0.354 N 
ATOM     48  C   UNL A   1      47.356  26.121  26.825  1.00  0.00     0.074 A 
ATOM     49  C   UNL A   1      47.525  24.709  26.558  1.00  0.00     0.031 C 
ATOM     50  C   UNL A   1      41.104  26.606  28.206  1.00  0.00     0.029 A 
ATOM     51  C   UNL A   1      42.105  27.668  28.220  1.00  0.00     0.049 A 
ATOM     52  H   UNL A   1      44.129  27.505  27.751  1.00  0.00     0.167 HD
ATOM     53  C   UNL A   1      48.359  27.032  26.781  1.00  0.00     0.037 A 
ATOM     54  C   UNL A   1      41.870  28.952  28.550  1.00  0.00     0.037 A 
ATOM     55  C   UNL A   1      48.187  28.442  27.036  1.00  0.00     0.049 A 
ATOM     56  C   UNL A   1      42.996  29.947  28.484  1.00  0.00     0.074 A 
ATOM     57  C   UNL A   1      49.130  29.453  26.959  1.00  0.00     0.029 A 
ATOM     58  N   UNL A   1      46.996  29.040  27.423  1.00  0.00    -0.354 N 
ATOM     59  N   UNL A   1      44.251  29.752  28.153  1.00  0.00    -0.248 NA
ATOM     60  C   UNL A   1      42.672  31.338  28.826  1.00  0.00     0.031 C 
ATOM     61  C   UNL A   1      48.522  30.653  27.345  1.00  0.00     0.029 A 
ATOM     62  C   UNL A   1      47.187  30.401  27.613  1.00  0.00     0.049 A 
ATOM     63  H   UNL A   1      46.141  28.568  27.547  1.00  0.00     0.167 HD
ATOM     64  C   UNL A   1      44.862  30.999  28.230  1.00  0.00     0.074 A 
ATOM     65  C   UNL A   1      43.831  31.944  28.613  1.00  0.00     0.031 C 
ATOM     66  C   UNL A   1      46.158  31.331  28.009  1.00  0.00     0.037 A 
BRANCH  53  67
ATOM     67  C   UNL A   1      49.741  26.537  26.441  1.00  0.00     0.058 A 
ATOM     68  C   UNL A   1      50.614  26.049  27.427  1.00  0.00     0.135 A 
ATOM     69  C   UNL A   1      50.183  26.507  25.108  1.00  0.00     0.135 A 
ATOM     70  F   UNL A   1      50.249  26.063  28.719  1.00  0.00    -0.206 F 
ATOM     71  C   UNL A   1      51.884  25.579  27.109  1.00  0.00     0.059 A 
ATOM     72  C   UNL A   1      51.440  26.015  24.764  1.00  0.00     0.059 A 
ATOM     73  F   UNL A   1      49.392  26.956  24.122  1.00  0.00    -0.206 F 
ATOM     74  C   UNL A   1      52.290  25.566  25.774  1.00  0.00     0.060 A 
BRANCH  74  75
ATOM     75  S   UNL A   1      53.940  24.948  25.380  1.00  0.00     0.124 S 
ATOM     76  O   UNL A   1      54.307  25.799  24.252  1.00  0.00    -0.237 OA
ATOM     77  O   UNL A   1      54.668  25.190  26.620  1.00  0.00    -0.237 OA
ATOM     78  O   UNL A   1      53.708  23.543  25.055  1.00  0.00    -0.744 OA
ENDBRANCH  74  75
ENDBRANCH  53  67
BRANCH  54  79
ATOM     79  C   UNL A   1      40.499  29.378  28.947  1.00  0.00     0.058 A 
ATOM     80  C   UNL A   1      40.180  29.634  30.288  1.00  0.00     0.135 A 
ATOM     81  C   UNL A   1      39.486  29.546  27.990  1.00  0.00     0.135 A 
ATOM     82  F   UNL A   1      41.113  29.481  31.240  1.00  0.00    -0.206 F 
ATOM     83  C   UNL A   1      38.902  30.028  30.671  1.00  0.00     0.059 A 
ATOM     84  C   UNL A   1      38.207  29.965  28.345  1.00  0.00     0.059 A 
ATOM     85  F   UNL A   1      39.743  29.327  26.691  1.00  0.00    -0.206 F 
ATOM     86  C   UNL A   1      37.922  30.194  29.690  1.00  0.00     0.060 A 
BRANCH  86  87
ATOM     87  S   UNL A   1      36.281  30.757  30.192  1.00  0.00     0.124 S 
ATOM     88  O   UNL A   1      35.539  30.651  28.940  1.00  0.00    -0.237 OA
ATOM     89  O   UNL A   1      35.928  29.791  31.228  1.00  0.00    -0.237 OA
ATOM     90  O   UNL A   1      36.524  32.115  30.670  1.00  0.00    -0.744 OA
ENDBRANCH  86  87
ENDBRANCH  54  79
BRANCH  66  91
ATOM     91  C   UNL A   1      46.528  32.783  28.161  1.00  0.00     0.058 A 
ATOM     92  C   UNL A   1      47.031  33.293  29.369  1.00  0.00     0.135 A 
ATOM     93  C   UNL A   1      46.376  33.676  27.088  1.00  0.00     0.135 A 
ATOM     94  F   UNL A   1      47.192  32.485  30.428  1.00  0.00    -0.206 F 
ATOM     95  C   UNL A   1      47.328  34.645  29.521  1.00  0.00     0.059 A 
ATOM     96  C   UNL A   1      46.696  35.025  27.209  1.00  0.00     0.059 A 
ATOM     97  F   UNL A   1      45.913  33.241  25.905  1.00  0.00    -0.206 F 
ATOM     98  C   UNL A   1      47.150  35.504  28.437  1.00  0.00     0.060 A 
BRANCH  98  99
ATOM     99  S   UNL A   1      47.526  37.257  28.649  1.00  0.00     0.124 S 
ATOM    100  O   UNL A   1      46.537  37.876  27.771  1.00  0.00    -0.237 OA
ATOM    101  O   UNL A   1      47.313  37.453  30.080  1.00  0.00    -0.237 OA
ATOM    102  O   UNL A   1      48.913  37.364  28.207  1.00  0.00    -0.744 OA
ENDBRANCH  98  99
ENDBRANCH  66  91
ENDBRANCH  40  41
ENDBRANCH  32  35
ENDBRANCH  30  31
ENDBRANCH  29  30
ENDBRANCH  28  29
ENDBRANCH  27  28
ENDBRANCH   1  27
TORSDOF 22
ENDMDL
MODEL 2
REMARK VINA RESULT:     -10.1      2.504      8.376
REMARK SMILES COc1ccc(OCCNc2c(Cl)cccc2C(=O)NCCCCCCNC(=O)c2ccc(-c3c4nc(c(-c5c(F)cc(S(=O)(=O)[O-])cc5F)c5ccc([nH]5)c(-c5c(F)cc(S(=O)(=O)[O-])cc5F)c5nc(c(-c6c(F)cc(S(=O)(=O)[O-])cc6F)c6ccc3[nH]6)C=C5)C=C4)cc2)cc1
REMARK SMILES IDX 22 1 21 2 20 3 18 4 19 5 17 7 11 8 12 9 13 10 14 11 16 12
REMARK SMILES IDX 15 13 10 14 9 16 8 17 7 18 6 19 3 20 4 21 97 22 5 23 96 24
REMARK SMILES IDX 2 25 1 26 23 27 24 28 25 29 26 30 27 31 28 32 29 34 30 35
REMARK SMILES IDX 31 36 95 37 32 38 94 39 33 40 34 41 35 42 88 43 36 44 93 45
REMARK SMILES IDX 87 46 89 47 37 48 92 49 86 50 85 51 38 53 72 54 51 55 71 56
REMARK SMILES IDX 52 57 55 58 70 59 90 60 53 61 54 62 69 64 91 65 56 66 39 67
REMARK SMILES IDX 40 68 49 69 41 70 42 71 48 72 50 73 43 74 44 75 45 76 46 77
REMARK SMILES IDX 47 78 73 79 74 80 83 81 75 82 76 83 82 84 84 85 77 86 78 87
REMARK SMILES IDX 79 88 80 89 81 90 57 91 58 92 67 93 59 94 60 95 66 96 68 97
REMARK SMILES IDX 61 98 62 99 63 100 64 101 65 102
REMARK H PARENT 20 6 10 15 27 33 89 52 55 63
REMARK Flexibility Score: inf
ROOT
ATOM      1  C   UNL A   1      31.359  27.310  27.428  1.00  0.00     0.021 C 
ENDROOT
BRANCH   1   2
ATOM      2  C   UNL A   1      31.066  26.111  26.526  1.00  0.00     0.116 C 
BRANCH   2   3
ATOM      3  N   UNL A   1      29.952  26.310  25.624  1.00  0.00    -0.352 N 
ATOM      4  C   UNL A   1      29.873  26.210  24.258  1.00  0.00     0.253 C 
ATOM      5  O   UNL A   1      28.770  26.391  23.734  1.00  0.00    -0.269 OA
ATOM      6  H   UNL A   1      29.108  26.559  26.065  1.00  0.00     0.163 HD
BRANCH   4   7
ATOM      7  C   UNL A   1      31.040  26.001  23.361  1.00  0.00     0.064 A 
ATOM      8  C   UNL A   1      31.445  24.783  22.784  1.00  0.00     0.066 A 
ATOM      9  C   UNL A   1      32.557  24.833  21.896  1.00  0.00     0.065 A 
ATOM     10  Cl  UNL A   1      33.162  23.401  21.121  1.00  0.00    -0.082 Cl
ATOM     11  C   UNL A   1      33.214  26.024  21.574  1.00  0.00     0.023 A 
ATOM     12  C   UNL A   1      31.701  27.202  23.007  1.00  0.00     0.016 A 
ATOM     13  C   UNL A   1      32.786  27.215  22.132  1.00  0.00     0.003 A 
BRANCH   8  14
ATOM     14  N   UNL A   1      30.980  23.540  23.171  1.00  0.00    -0.380 N 
ATOM     15  H   UNL A   1      30.353  23.095  22.556  1.00  0.00     0.160 HD
BRANCH  14  16
ATOM     16  C   UNL A   1      31.319  22.821  24.387  1.00  0.00     0.154 C 
BRANCH  16  17
ATOM     17  C   UNL A   1      32.630  22.010  24.208  1.00  0.00     0.250 C 
BRANCH  17  18
ATOM     18  O   UNL A   1      32.534  20.901  23.296  1.00  0.00    -0.492 OA
BRANCH  18  19
ATOM     19  C   UNL A   1      32.580  19.617  23.769  1.00  0.00     0.119 A 
ATOM     20  C   UNL A   1      33.107  17.117  24.944  1.00  0.00     0.119 A 
ATOM     21  C   UNL A   1      32.894  18.236  25.746  1.00  0.00     0.050 A 
ATOM     22  C   UNL A   1      32.940  17.227  23.569  1.00  0.00     0.050 A 
ATOM     23  C   UNL A   1      32.640  19.481  25.159  1.00  0.00     0.050 A 
ATOM     24  C   UNL A   1      32.642  18.466  22.991  1.00  0.00     0.050 A 
BRANCH  20  25
ATOM     25  O   UNL A   1      33.391  15.945  25.586  1.00  0.00    -0.497 OA
ATOM     26  C   UNL A   1      32.291  15.043  25.684  1.00  0.00     0.278 C 
ENDBRANCH  20  25
ENDBRANCH  18  19
ENDBRANCH  17  18
ENDBRANCH  16  17
ENDBRANCH  14  16
ENDBRANCH   8  14
ENDBRANCH   4   7
ENDBRANCH   2   3
ENDBRANCH   1   2
BRANCH   1  27
ATOM     27  C   UNL A   1      31.730  28.630  26.732  1.00  0.00     0.002 C 
BRANCH  27  28
ATOM     28  C   UNL A   1      33.153  28.779  26.184  1.00  0.00     0.002 C 
BRANCH  28  29
ATOM     29  C   UNL A   1      34.042  29.829  26.846  1.00  0.00     0.021 C 
BRANCH  29  30
ATOM     30  C   UNL A   1      35.247  29.334  27.638  1.00  0.00     0.116 C 
BRANCH  30  31
ATOM     31  N   UNL A   1      35.310  29.855  28.988  1.00  0.00    -0.352 N 
ATOM     32  C   UNL A   1      36.389  30.063  29.814  1.00  0.00     0.251 C 
ATOM     33  H   UNL A   1      34.440  30.099  29.377  1.00  0.00     0.163 HD
ATOM     34  O   UNL A   1      36.183  30.445  30.964  1.00  0.00    -0.269 OA
BRANCH  32  35
ATOM     35  C   UNL A   1      37.784  29.804  29.367  1.00  0.00     0.039 A 
ATOM     36  C   UNL A   1      38.750  29.556  30.349  1.00  0.00     0.014 A 
ATOM     37  C   UNL A   1      38.172  29.840  28.025  1.00  0.00     0.014 A 
ATOM     38  C   UNL A   1      40.074  29.292  29.987  1.00  0.00     0.010 A 
ATOM     39  C   UNL A   1      39.482  29.507  27.658  1.00  0.00     0.010 A 
ATOM     40  C   UNL A   1      40.449  29.228  28.635  1.00  0.00    -0.014 A 
BRANCH  40  41
ATOM     41  C   UNL A   1      41.838  28.844  28.256  1.00  0.00     0.031 A 
ATOM     42  C   UNL A   1      42.949  29.862  28.227  1.00  0.00     0.074 A 
ATOM     43  C   UNL A   1      42.098  27.566  27.917  1.00  0.00     0.049 A 
ATOM     44  N   UNL A   1      44.219  29.691  27.953  1.00  0.00    -0.248 NA
ATOM     45  C   UNL A   1      42.586  31.256  28.524  1.00  0.00     0.031 C 
ATOM     46  C   UNL A   1      41.103  26.494  27.845  1.00  0.00     0.029 A 
ATOM     47  N   UNL A   1      43.275  26.945  27.572  1.00  0.00    -0.354 N 
ATOM     48  C   UNL A   1      44.805  30.949  28.043  1.00  0.00     0.074 A 
ATOM     49  C   UNL A   1      43.741  31.883  28.343  1.00  0.00     0.031 C 
ATOM     50  C   UNL A   1      41.714  25.345  27.516  1.00  0.00     0.029 A 
ATOM     51  C   UNL A   1      43.137  25.600  27.319  1.00  0.00     0.049 A 
ATOM     52  H   UNL A   1      44.136  27.419  27.512  1.00  0.00     0.167 HD
ATOM     53  C   UNL A   1      46.109  31.293  27.909  1.00  0.00     0.037 A 
ATOM     54  C   UNL A   1      44.051  24.674  26.971  1.00  0.00     0.037 A 
ATOM     55  C   UNL A   1      47.170  30.358  27.621  1.00  0.00     0.049 A 
ATOM     56  C   UNL A   1      45.494  25.077  26.840  1.00  0.00     0.074 A 
ATOM     57  C   UNL A   1      48.530  30.600  27.525  1.00  0.00     0.029 A 
ATOM     58  N   UNL A   1      46.991  29.004  27.377  1.00  0.00    -0.354 N 
ATOM     59  N   UNL A   1      46.039  26.260  27.003  1.00  0.00    -0.248 NA
ATOM     60  C   UNL A   1      46.449  24.018  26.487  1.00  0.00     0.031 C 
ATOM     61  C   UNL A   1      49.167  29.404  27.176  1.00  0.00     0.029 A 
ATOM     62  C   UNL A   1      48.212  28.404  27.106  1.00  0.00     0.049 A 
ATOM     63  H   UNL A   1      46.124  28.536  27.392  1.00  0.00     0.167 HD
ATOM     64  C   UNL A   1      47.402  26.083  26.789  1.00  0.00     0.074 A 
ATOM     65  C   UNL A   1      47.600  24.674  26.512  1.00  0.00     0.031 C 
ATOM     66  C   UNL A   1      48.398  27.003  26.816  1.00  0.00     0.037 A 
BRANCH  53  67
ATOM     67  C   UNL A   1      46.471  32.746  28.077  1.00  0.00     0.058 A 
ATOM     68  C   UNL A   1      47.000  33.240  29.281  1.00  0.00     0.135 A 
ATOM     69  C   UNL A   1      46.330  33.647  27.008  1.00  0.00     0.135 A 
ATOM     70  F   UNL A   1      47.146  32.427  30.338  1.00  0.00    -0.206 F 
ATOM     71  C   UNL A   1      47.347  34.580  29.429  1.00  0.00     0.059 A 
ATOM     72  C   UNL A   1      46.698  34.985  27.126  1.00  0.00     0.059 A 
ATOM     73  F   UNL A   1      45.834  33.231  25.833  1.00  0.00    -0.206 F 
ATOM     74  C   UNL A   1      47.192  35.446  28.346  1.00  0.00     0.060 A 
BRANCH  74  75
ATOM     75  S   UNL A   1      47.652  37.179  28.556  1.00  0.00     0.124 S 
ATOM     76  O   UNL A   1      47.396  37.378  29.979  1.00  0.00    -0.237 OA
ATOM     77  O   UNL A   1      49.055  37.180  28.157  1.00  0.00    -0.237 OA
ATOM     78  O   UNL A   1      46.746  37.884  27.653  1.00  0.00    -0.744 OA
ENDBRANCH  74  75
ENDBRANCH  53  67
BRANCH  54  79
ATOM     79  C   UNL A   1      43.630  23.263  26.750  1.00  0.00     0.058 A 
ATOM     80  C   UNL A   1      43.661  22.690  25.470  1.00  0.00     0.135 A 
ATOM     81  C   UNL A   1      43.201  22.458  27.815  1.00  0.00     0.135 A 
ATOM     82  F   UNL A   1      44.058  23.422  24.417  1.00  0.00    -0.206 F 
ATOM     83  C   UNL A   1      43.267  21.375  25.250  1.00  0.00     0.059 A 
ATOM     84  C   UNL A   1      42.827  21.131  27.625  1.00  0.00     0.059 A 
ATOM     85  F   UNL A   1      43.166  22.952  29.062  1.00  0.00    -0.206 F 
ATOM     86  C   UNL A   1      42.853  20.601  26.336  1.00  0.00     0.060 A 
BRANCH  86  87
ATOM     87  S   UNL A   1      42.394  18.878  26.048  1.00  0.00     0.124 S 
ATOM     88  O   UNL A   1      40.970  18.998  25.758  1.00  0.00    -0.237 OA
ATOM     89  O   UNL A   1      43.248  18.516  24.921  1.00  0.00    -0.237 OA
ATOM     90  O   UNL A   1      42.729  18.226  27.311  1.00  0.00    -0.744 OA
ENDBRANCH  86  87
ENDBRANCH  54  79
BRANCH  66  91
ATOM     91  C   UNL A   1      49.795  26.506  26.553  1.00  0.00     0.058 A 
ATOM     92  C   UNL A   1      50.648  26.118  27.599  1.00  0.00     0.135 A 
ATOM     93  C   UNL A   1      50.288  26.418  25.241  1.00  0.00     0.135 A 
ATOM     94  F   UNL A   1      50.230  26.186  28.873  1.00  0.00    -0.206 F 
ATOM     95  C   UNL A   1      51.955  25.704  27.357  1.00  0.00     0.059 A 
ATOM     96  C   UNL A   1      51.580  25.978  24.975  1.00  0.00     0.059 A 
ATOM     97  F   UNL A   1      49.511  26.763  24.202  1.00  0.00    -0.206 F 
ATOM     98  C   UNL A   1      52.414  25.644  26.041  1.00  0.00     0.060 A 
BRANCH  98  99
ATOM     99  S   UNL A   1      54.115  25.118  25.739  1.00  0.00     0.124 S 
ATOM    100  O   UNL A   1      53.910  23.882  24.990  1.00  0.00    -0.237 OA
ATOM    101  O   UNL A   1      54.659  26.238  24.977  1.00  0.00    -0.237 OA
ATOM    102  O   UNL A   1      54.664  24.956  27.082  1.00  0.00    -0.744 OA
ENDBRANCH  98  99
ENDBRANCH  66  91
ENDBRANCH  40  41
ENDBRANCH  32  35
ENDBRANCH  30  31
ENDBRANCH  29  30
ENDBRANCH  28  29
ENDBRANCH  27  28
ENDBRANCH   1  27
TORSDOF 22
ENDMDL
MODEL 3
REMARK VINA RESULT:     -10.0      6.073     11.146
REMARK SMILES COc1ccc(OCCNc2c(Cl)cccc2C(=O)NCCCCCCNC(=O)c2ccc(-c3c4nc(c(-c5c(F)cc(S(=O)(=O)[O-])cc5F)c5ccc([nH]5)c(-c5c(F)cc(S(=O)(=O)[O-])cc5F)c5nc(c(-c6c(F)cc(S(=O)(=O)[O-])cc6F)c6ccc3[nH]6)C=C5)C=C4)cc2)cc1
REMARK SMILES IDX 22 1 21 2 20 3 18 4 19 5 17 7 11 8 12 9 13 10 14 11 16 12
REMARK SMILES IDX 15 13 10 14 9 16 8 17 7 18 6 19 3 20 4 21 97 22 5 23 96 24
REMARK SMILES IDX 2 25 1 26 23 27 24 28 25 29 26 30 27 31 28 32 29 34 30 35
REMARK SMILES IDX 31 36 95 37 32 38 94 39 33 40 34 41 35 42 88 43 36 44 93 45
REMARK SMILES IDX 87 46 89 47 37 48 92 49 86 50 85 51 38 53 72 54 51 55 71 56
REMARK SMILES IDX 52 57 55 58 70 59 90 60 53 61 54 62 69 64 91 65 56 66 39 67
REMARK SMILES IDX 40 68 49 69 41 70 42 71 48 72 50 73 43 74 44 75 45 76 46 77
REMARK SMILES IDX 47 78 73 79 74 80 83 81 75 82 76 83 82 84 84 85 77 86 78 87
REMARK SMILES IDX 79 88 80 89 81 90 57 91 58 92 67 93 59 94 60 95 66 96 68 97
REMARK SMILES IDX 61 98 62 99 63 100 64 101 65 102
REMARK H PARENT 20 6 10 15 27 33 89 52 55 63
REMARK Flexibility Score: inf
ROOT
ATOM      1  C   UNL A   1      36.574  23.725  26.027  1.00  0.00     0.021 C 
ENDROOT
BRANCH   1   2
ATOM      2  C   UNL A   1      35.324  24.142  25.252  1.00  0.00     0.116 C 
BRANCH   2   3
ATOM      3  N   UNL A   1      34.135  24.260  26.069  1.00  0.00    -0.352 N 
ATOM      4  C   UNL A   1      33.050  23.431  26.203  1.00  0.00     0.253 C 
ATOM      5  O   UNL A   1      32.180  23.753  27.017  1.00  0.00    -0.269 OA
ATOM      6  H   UNL A   1      34.098  25.074  26.622  1.00  0.00     0.163 HD
BRANCH   4   7
ATOM      7  C   UNL A   1      32.802  22.228  25.364  1.00  0.00     0.064 A 
ATOM      8  C   UNL A   1      32.399  22.217  24.016  1.00  0.00     0.066 A 
ATOM      9  C   UNL A   1      32.291  20.942  23.391  1.00  0.00     0.065 A 
ATOM     10  Cl  UNL A   1      31.800  20.786  21.732  1.00  0.00    -0.082 Cl
ATOM     11  C   UNL A   1      32.592  19.748  24.052  1.00  0.00     0.023 A 
ATOM     12  C   UNL A   1      33.124  21.012  26.014  1.00  0.00     0.016 A 
ATOM     13  C   UNL A   1      33.009  19.782  25.370  1.00  0.00     0.003 A 
BRANCH   8  14
ATOM     14  N   UNL A   1      31.914  23.317  23.333  1.00  0.00    -0.380 N 
ATOM     15  H   UNL A   1      32.500  23.696  22.638  1.00  0.00     0.160 HD
BRANCH  14  16
ATOM     16  C   UNL A   1      30.633  23.973  23.533  1.00  0.00     0.154 C 
BRANCH  16  17
ATOM     17  C   UNL A   1      30.704  25.469  23.125  1.00  0.00     0.250 C 
BRANCH  17  18
ATOM     18  O   UNL A   1      30.453  26.398  24.195  1.00  0.00    -0.492 OA
BRANCH  18  19
ATOM     19  C   UNL A   1      31.492  26.880  24.944  1.00  0.00     0.119 A 
ATOM     20  C   UNL A   1      33.325  28.255  26.576  1.00  0.00     0.119 A 
ATOM     21  C   UNL A   1      32.135  27.771  27.114  1.00  0.00     0.050 A 
ATOM     22  C   UNL A   1      33.647  27.949  25.259  1.00  0.00     0.050 A 
ATOM     23  C   UNL A   1      31.221  27.095  26.298  1.00  0.00     0.050 A 
ATOM     24  C   UNL A   1      32.748  27.233  24.460  1.00  0.00     0.050 A 
BRANCH  20  25
ATOM     25  O   UNL A   1      34.150  28.942  27.422  1.00  0.00    -0.497 OA
ATOM     26  C   UNL A   1      34.022  30.360  27.350  1.00  0.00     0.278 C 
ENDBRANCH  20  25
ENDBRANCH  18  19
ENDBRANCH  17  18
ENDBRANCH  16  17
ENDBRANCH  14  16
ENDBRANCH   8  14
ENDBRANCH   4   7
ENDBRANCH   2   3
ENDBRANCH   1   2
BRANCH   1  27
ATOM     27  C   UNL A   1      37.691  23.038  25.225  1.00  0.00     0.002 C 
BRANCH  27  28
ATOM     28  C   UNL A   1      38.245  21.712  25.755  1.00  0.00     0.002 C 
BRANCH  28  29
ATOM     29  C   UNL A   1      39.637  21.745  26.381  1.00  0.00     0.021 C 
BRANCH  29  30
ATOM     30  C   UNL A   1      40.131  23.078  26.932  1.00  0.00     0.116 C 
BRANCH  30  31
ATOM     31  N   UNL A   1      40.968  23.815  26.008  1.00  0.00    -0.352 N 
ATOM     32  C   UNL A   1      41.517  25.071  26.108  1.00  0.00     0.251 C 
ATOM     33  H   UNL A   1      41.179  23.338  25.172  1.00  0.00     0.163 HD
ATOM     34  O   UNL A   1      42.136  25.520  25.146  1.00  0.00    -0.269 OA
BRANCH  32  35
ATOM     35  C   UNL A   1      41.350  25.908  27.327  1.00  0.00     0.039 A 
ATOM     36  C   UNL A   1      42.337  26.859  27.607  1.00  0.00     0.014 A 
ATOM     37  C   UNL A   1      40.281  25.754  28.215  1.00  0.00     0.014 A 
ATOM     38  C   UNL A   1      42.225  27.683  28.731  1.00  0.00     0.010 A 
ATOM     39  C   UNL A   1      40.133  26.625  29.301  1.00  0.00     0.010 A 
ATOM     40  C   UNL A   1      41.104  27.601  29.572  1.00  0.00    -0.014 A 
BRANCH  40  41
ATOM     41  C   UNL A   1      40.942  28.553  30.707  1.00  0.00     0.031 A 
ATOM     42  C   UNL A   1      39.878  29.620  30.687  1.00  0.00     0.074 A 
ATOM     43  C   UNL A   1      41.776  28.465  31.763  1.00  0.00     0.049 A 
ATOM     44  N   UNL A   1      39.579  30.505  31.604  1.00  0.00    -0.248 NA
ATOM     45  C   UNL A   1      39.055  29.719  29.471  1.00  0.00     0.031 C 
ATOM     46  C   UNL A   1      42.887  27.518  31.883  1.00  0.00     0.029 A 
ATOM     47  N   UNL A   1      41.822  29.176  32.938  1.00  0.00    -0.354 N 
ATOM     48  C   UNL A   1      38.540  31.266  31.080  1.00  0.00     0.074 A 
ATOM     49  C   UNL A   1      38.296  30.772  29.742  1.00  0.00     0.031 C 
ATOM     50  C   UNL A   1      43.479  27.682  33.076  1.00  0.00     0.029 A 
ATOM     51  C   UNL A   1      42.816  28.765  33.795  1.00  0.00     0.049 A 
ATOM     52  H   UNL A   1      41.201  29.911  33.147  1.00  0.00     0.167 HD
ATOM     53  C   UNL A   1      37.838  32.268  31.665  1.00  0.00     0.037 A 
ATOM     54  C   UNL A   1      43.158  29.207  35.021  1.00  0.00     0.037 A 
ATOM     55  C   UNL A   1      38.075  32.751  33.004  1.00  0.00     0.049 A 
ATOM     56  C   UNL A   1      42.358  30.312  35.653  1.00  0.00     0.074 A 
ATOM     57  C   UNL A   1      37.380  33.721  33.706  1.00  0.00     0.029 A 
ATOM     58  N   UNL A   1      39.088  32.307  33.842  1.00  0.00    -0.354 N 
ATOM     59  N   UNL A   1      41.329  30.968  35.170  1.00  0.00    -0.248 NA
ATOM     60  C   UNL A   1      42.758  30.731  37.003  1.00  0.00     0.031 C 
ATOM     61  C   UNL A   1      38.001  33.897  34.948  1.00  0.00     0.029 A 
ATOM     62  C   UNL A   1      39.051  33.000  35.043  1.00  0.00     0.049 A 
ATOM     63  H   UNL A   1      39.739  31.602  33.617  1.00  0.00     0.167 HD
ATOM     64  C   UNL A   1      40.949  31.864  36.163  1.00  0.00     0.074 A 
ATOM     65  C   UNL A   1      41.842  31.647  37.284  1.00  0.00     0.031 C 
ATOM     66  C   UNL A   1      39.954  32.787  36.147  1.00  0.00     0.037 A 
BRANCH  53  67
ATOM     67  C   UNL A   1      36.738  32.914  30.863  1.00  0.00     0.058 A 
ATOM     68  C   UNL A   1      37.009  33.898  29.898  1.00  0.00     0.135 A 
ATOM     69  C   UNL A   1      35.402  32.513  31.028  1.00  0.00     0.135 A 
ATOM     70  F   UNL A   1      38.266  34.327  29.705  1.00  0.00    -0.206 F 
ATOM     71  C   UNL A   1      35.993  34.483  29.148  1.00  0.00     0.059 A 
ATOM     72  C   UNL A   1      34.373  33.065  30.269  1.00  0.00     0.059 A 
ATOM     73  F   UNL A   1      35.083  31.575  31.932  1.00  0.00    -0.206 F 
ATOM     74  C   UNL A   1      34.677  34.061  29.341  1.00  0.00     0.060 A 
BRANCH  74  75
ATOM     75  S   UNL A   1      33.373  34.828  28.355  1.00  0.00     0.124 S 
ATOM     76  O   UNL A   1      32.553  35.450  29.391  1.00  0.00    -0.237 OA
ATOM     77  O   UNL A   1      34.122  35.744  27.504  1.00  0.00    -0.237 OA
ATOM     78  O   UNL A   1      32.757  33.696  27.666  1.00  0.00    -0.744 OA
ENDBRANCH  74  75
ENDBRANCH  53  67
BRANCH  54  79
ATOM     79  C   UNL A   1      44.298  28.581  35.744  1.00  0.00     0.058 A 
ATOM     80  C   UNL A   1      44.094  27.515  36.633  1.00  0.00     0.135 A 
ATOM     81  C   UNL A   1      45.614  29.029  35.552  1.00  0.00     0.135 A 
ATOM     82  F   UNL A   1      42.854  27.055  36.856  1.00  0.00    -0.206 F 
ATOM     83  C   UNL A   1      45.152  26.925  37.318  1.00  0.00     0.059 A 
ATOM     84  C   UNL A   1      46.691  28.437  36.205  1.00  0.00     0.059 A 
ATOM     85  F   UNL A   1      45.865  30.036  34.702  1.00  0.00    -0.206 F 
ATOM     86  C   UNL A   1      46.448  27.391  37.095  1.00  0.00     0.060 A 
BRANCH  86  87
ATOM     87  S   UNL A   1      47.820  26.583  37.948  1.00  0.00     0.124 S 
ATOM     88  O   UNL A   1      47.472  25.175  37.796  1.00  0.00    -0.237 OA
ATOM     89  O   UNL A   1      48.973  27.044  37.182  1.00  0.00    -0.237 OA
ATOM     90  O   UNL A   1      47.728  27.114  39.306  1.00  0.00    -0.744 OA
ENDBRANCH  86  87
ENDBRANCH  54  79
BRANCH  66  91
ATOM     91  C   UNL A   1      39.773  33.618  37.390  1.00  0.00     0.058 A 
ATOM     92  C   UNL A   1      40.491  34.807  37.592  1.00  0.00     0.135 A 
ATOM     93  C   UNL A   1      38.871  33.221  38.390  1.00  0.00     0.135 A 
ATOM     94  F   UNL A   1      41.369  35.232  36.670  1.00  0.00    -0.206 F 
ATOM     95  C   UNL A   1      40.356  35.549  38.762  1.00  0.00     0.059 A 
ATOM     96  C   UNL A   1      38.697  33.963  39.554  1.00  0.00     0.059 A 
ATOM     97  F   UNL A   1      38.147  32.099  38.243  1.00  0.00    -0.206 F 
ATOM     98  C   UNL A   1      39.461  35.115  39.741  1.00  0.00     0.060 A 
BRANCH  98  99
ATOM     99  S   UNL A   1      39.303  36.077  41.260  1.00  0.00     0.124 S 
ATOM    100  O   UNL A   1      38.570  35.151  42.118  1.00  0.00    -0.237 OA
ATOM    101  O   UNL A   1      40.695  36.314  41.628  1.00  0.00    -0.237 OA
ATOM    102  O   UNL A   1      38.562  37.262  40.837  1.00  0.00    -0.744 OA
ENDBRANCH  98  99
ENDBRANCH  66  91
ENDBRANCH  40  41
ENDBRANCH  32  35
ENDBRANCH  30  31
ENDBRANCH  29  30
ENDBRANCH  28  29
ENDBRANCH  27  28
ENDBRANCH   1  27
TORSDOF 22
ENDMDL
