MODEL 1
REMARK VINA RESULT:     -11.3      0.000      0.000
REMARK SMILES O=C(Cc1ccccc1Nc1c(Cl)cccc1Cl)NCCCCCCNC(=O)c1ccc(-c2c3nc(c(-c4c(F)cc(S(=O)(=O)[O-])cc4F)c4ccc([nH]4)c(-c4c(F)cc(S(=O)(=O)[O-])cc4F)c4nc(c(-c5c(F)cc(S(=O)(=O)[O-])cc5F)c5ccc2[nH]5)C=C4)C=C3)cc1
REMARK SMILES IDX 22 1 21 2 20 3 19 4 1 5 2 6 3 8 4 9 5 10 9 11 6 12 8 13 7 14
REMARK SMILES IDX 10 15 11 17 12 18 17 19 13 20 14 21 16 22 18 23 15 24 23 25
REMARK SMILES IDX 24 26 25 27 26 28 27 29 28 31 29 32 30 33 94 34 31 35 93 36
REMARK SMILES IDX 32 37 33 38 34 39 87 40 35 41 92 42 86 43 88 44 36 45 91 46
REMARK SMILES IDX 85 47 84 48 37 50 71 51 50 52 70 53 51 54 54 55 69 56 89 57
REMARK SMILES IDX 52 58 53 59 68 61 90 62 55 63 38 64 39 65 48 66 40 67 41 68
REMARK SMILES IDX 47 69 49 70 42 71 43 72 44 73 45 74 46 75 72 76 73 77 82 78
REMARK SMILES IDX 74 79 75 80 81 81 83 82 76 83 77 84 78 85 79 86 80 87 56 88
REMARK SMILES IDX 57 89 66 90 58 91 59 92 65 93 67 94 60 95 61 96 62 97 63 98
REMARK SMILES IDX 64 99
REMARK H PARENT 19 7 10 16 26 30 88 49 54 60
REMARK Flexibility Score: inf
ROOT
ATOM      1  C   UNL A   1      33.662  27.882  23.390  1.00  0.00     0.002 C 
ENDROOT
BRANCH   1   2
ATOM      2  C   UNL A   1      32.694  26.696  23.306  1.00  0.00     0.021 C 
BRANCH   2   3
ATOM      3  C   UNL A   1      33.343  25.380  22.874  1.00  0.00     0.116 C 
BRANCH   3   4
ATOM      4  N   UNL A   1      32.924  24.284  23.723  1.00  0.00    -0.356 N 
ATOM      5  O   UNL A   1      33.403  22.611  22.226  1.00  0.00    -0.275 OA
ATOM      6  C   UNL A   1      32.970  22.972  23.319  1.00  0.00     0.224 C 
ATOM      7  H   UNL A   1      32.591  24.488  24.627  1.00  0.00     0.163 HD
BRANCH   6   8
ATOM      8  C   UNL A   1      32.330  21.985  24.274  1.00  0.00     0.137 C 
BRANCH   8   9
ATOM      9  C   UNL A   1      32.790  20.551  24.116  1.00  0.00    -0.015 A 
ATOM     10  C   UNL A   1      32.198  19.795  23.083  1.00  0.00     0.006 A 
ATOM     11  C   UNL A   1      33.770  19.956  24.942  1.00  0.00     0.042 A 
ATOM     12  C   UNL A   1      32.540  18.461  22.884  1.00  0.00     0.000 A 
ATOM     13  C   UNL A   1      34.084  18.604  24.726  1.00  0.00     0.026 A 
ATOM     14  C   UNL A   1      33.477  17.861  23.713  1.00  0.00     0.002 A 
BRANCH  11  15
ATOM     15  N   UNL A   1      34.452  20.718  25.920  1.00  0.00    -0.353 N 
ATOM     16  H   UNL A   1      34.089  20.647  26.833  1.00  0.00     0.167 HD
BRANCH  15  17
ATOM     17  C   UNL A   1      35.581  21.569  25.784  1.00  0.00     0.076 A 
ATOM     18  C   UNL A   1      35.470  22.920  26.185  1.00  0.00     0.066 A 
ATOM     19  C   UNL A   1      36.849  21.130  25.349  1.00  0.00     0.066 A 
ATOM     20  Cl  UNL A   1      33.948  23.560  26.712  1.00  0.00    -0.082 Cl
ATOM     21  C   UNL A   1      36.573  23.780  26.184  1.00  0.00     0.023 A 
ATOM     22  C   UNL A   1      37.952  21.995  25.349  1.00  0.00     0.023 A 
ATOM     23  Cl  UNL A   1      37.109  19.542  24.713  1.00  0.00    -0.082 Cl
ATOM     24  C   UNL A   1      37.818  23.314  25.776  1.00  0.00     0.003 A 
ENDBRANCH  15  17
ENDBRANCH  11  15
ENDBRANCH   8   9
ENDBRANCH   6   8
ENDBRANCH   3   4
ENDBRANCH   2   3
ENDBRANCH   1   2
BRANCH   1  25
ATOM     25  C   UNL A   1      33.626  28.661  24.708  1.00  0.00     0.002 C 
BRANCH  25  26
ATOM     26  C   UNL A   1      32.922  27.956  25.868  1.00  0.00     0.021 C 
BRANCH  26  27
ATOM     27  C   UNL A   1      33.452  28.309  27.253  1.00  0.00     0.116 C 
BRANCH  27  28
ATOM     28  N   UNL A   1      33.406  29.740  27.517  1.00  0.00    -0.352 N 
ATOM     29  C   UNL A   1      34.368  30.557  28.059  1.00  0.00     0.251 C 
ATOM     30  H   UNL A   1      32.563  30.186  27.273  1.00  0.00     0.163 HD
ATOM     31  O   UNL A   1      34.086  31.712  28.369  1.00  0.00    -0.269 OA
BRANCH  29  32
ATOM     32  C   UNL A   1      35.733  30.038  28.291  1.00  0.00     0.039 A 
ATOM     33  C   UNL A   1      36.646  30.034  27.234  1.00  0.00     0.014 A 
ATOM     34  C   UNL A   1      36.118  29.565  29.549  1.00  0.00     0.014 A 
ATOM     35  C   UNL A   1      37.964  29.626  27.457  1.00  0.00     0.010 A 
ATOM     36  C   UNL A   1      37.449  29.229  29.787  1.00  0.00     0.010 A 
ATOM     37  C   UNL A   1      38.388  29.259  28.745  1.00  0.00    -0.014 A 
BRANCH  37  38
ATOM     38  C   UNL A   1      39.809  28.926  29.026  1.00  0.00     0.031 A 
ATOM     39  C   UNL A   1      40.740  29.971  29.580  1.00  0.00     0.074 A 
ATOM     40  C   UNL A   1      40.280  27.700  28.715  1.00  0.00     0.049 A 
ATOM     41  N   UNL A   1      42.024  29.890  29.817  1.00  0.00    -0.248 NA
ATOM     42  C   UNL A   1      40.156  31.287  29.882  1.00  0.00     0.031 C 
ATOM     43  C   UNL A   1      39.490  26.616  28.128  1.00  0.00     0.029 A 
ATOM     44  N   UNL A   1      41.538  27.164  28.834  1.00  0.00    -0.354 N 
ATOM     45  C   UNL A   1      42.403  31.143  30.285  1.00  0.00     0.074 A 
ATOM     46  C   UNL A   1      41.224  31.981  30.247  1.00  0.00     0.031 C 
ATOM     47  C   UNL A   1      40.276  25.542  27.954  1.00  0.00     0.029 A 
ATOM     48  C   UNL A   1      41.634  25.871  28.374  1.00  0.00     0.049 A 
ATOM     49  H   UNL A   1      42.301  27.659  29.212  1.00  0.00     0.167 HD
ATOM     50  C   UNL A   1      43.618  31.552  30.726  1.00  0.00     0.037 A 
ATOM     51  C   UNL A   1      42.697  25.048  28.285  1.00  0.00     0.037 A 
ATOM     52  C   UNL A   1      44.784  30.707  30.774  1.00  0.00     0.049 A 
ATOM     53  C   UNL A   1      44.040  25.529  28.766  1.00  0.00     0.074 A 
ATOM     54  C   UNL A   1      46.044  31.009  31.259  1.00  0.00     0.029 A 
ATOM     55  N   UNL A   1      44.837  29.398  30.315  1.00  0.00    -0.354 N 
ATOM     56  N   UNL A   1      44.364  26.694  29.272  1.00  0.00    -0.248 NA
ATOM     57  C   UNL A   1      45.161  24.583  28.668  1.00  0.00     0.031 C 
ATOM     58  C   UNL A   1      46.873  29.904  31.042  1.00  0.00     0.029 A 
ATOM     59  C   UNL A   1      46.115  28.889  30.478  1.00  0.00     0.049 A 
ATOM     60  H   UNL A   1      44.077  28.904  29.930  1.00  0.00     0.167 HD
ATOM     61  C   UNL A   1      45.718  26.613  29.578  1.00  0.00     0.074 A 
ATOM     62  C   UNL A   1      46.149  25.279  29.212  1.00  0.00     0.031 C 
ATOM     63  C   UNL A   1      46.532  27.557  30.115  1.00  0.00     0.037 A 
BRANCH  50  64
ATOM     64  C   UNL A   1      43.751  32.978  31.189  1.00  0.00     0.058 A 
ATOM     65  C   UNL A   1      43.561  33.340  32.534  1.00  0.00     0.135 A 
ATOM     66  C   UNL A   1      44.109  33.992  30.286  1.00  0.00     0.135 A 
ATOM     67  F   UNL A   1      43.205  32.414  33.439  1.00  0.00    -0.206 F 
ATOM     68  C   UNL A   1      43.690  34.657  32.959  1.00  0.00     0.059 A 
ATOM     69  C   UNL A   1      44.275  35.313  30.696  1.00  0.00     0.059 A 
ATOM     70  F   UNL A   1      44.305  33.705  28.990  1.00  0.00    -0.206 F 
ATOM     71  C   UNL A   1      44.047  35.638  32.031  1.00  0.00     0.060 A 
BRANCH  71  72
ATOM     72  S   UNL A   1      44.211  37.343  32.602  1.00  0.00     0.124 S 
ATOM     73  O   UNL A   1      45.568  37.342  33.137  1.00  0.00    -0.237 OA
ATOM     74  O   UNL A   1      44.015  38.103  31.372  1.00  0.00    -0.237 OA
ATOM     75  O   UNL A   1      43.148  37.474  33.593  1.00  0.00    -0.744 OA
ENDBRANCH  71  72
ENDBRANCH  50  64
BRANCH  51  76
ATOM     76  C   UNL A   1      42.531  23.678  27.725  1.00  0.00     0.058 A 
ATOM     77  C   UNL A   1      42.570  23.453  26.341  1.00  0.00     0.135 A 
ATOM     78  C   UNL A   1      42.345  22.567  28.562  1.00  0.00     0.135 A 
ATOM     79  F   UNL A   1      42.737  24.482  25.498  1.00  0.00    -0.206 F 
ATOM     80  C   UNL A   1      42.415  22.177  25.805  1.00  0.00     0.059 A 
ATOM     81  C   UNL A   1      42.217  21.279  28.053  1.00  0.00     0.059 A 
ATOM     82  F   UNL A   1      42.317  22.726  29.895  1.00  0.00    -0.206 F 
ATOM     83  C   UNL A   1      42.243  21.095  26.671  1.00  0.00     0.060 A 
BRANCH  83  84
ATOM     84  S   UNL A   1      42.094  19.440  25.966  1.00  0.00     0.124 S 
ATOM     85  O   UNL A   1      42.928  19.549  24.776  1.00  0.00    -0.237 OA
ATOM     86  O   UNL A   1      42.619  18.602  27.040  1.00  0.00    -0.237 OA
ATOM     87  O   UNL A   1      40.660  19.307  25.723  1.00  0.00    -0.744 OA
ENDBRANCH  83  84
ENDBRANCH  51  76
BRANCH  63  88
ATOM     88  C   UNL A   1      47.965  27.178  30.373  1.00  0.00     0.058 A 
ATOM     89  C   UNL A   1      48.996  27.534  29.489  1.00  0.00     0.135 A 
ATOM     90  C   UNL A   1      48.318  26.501  31.552  1.00  0.00     0.135 A 
ATOM     91  F   UNL A   1      48.714  28.174  28.343  1.00  0.00    -0.206 F 
ATOM     92  C   UNL A   1      50.324  27.214  29.756  1.00  0.00     0.059 A 
ATOM     93  C   UNL A   1      49.642  26.200  31.853  1.00  0.00     0.059 A 
ATOM     94  F   UNL A   1      47.372  26.145  32.437  1.00  0.00    -0.206 F 
ATOM     95  C   UNL A   1      50.638  26.551  30.944  1.00  0.00     0.060 A 
BRANCH  95  96
ATOM     96  S   UNL A   1      52.369  26.183  31.296  1.00  0.00     0.124 S 
ATOM     97  O   UNL A   1      52.950  26.186  29.958  1.00  0.00    -0.237 OA
ATOM     98  O   UNL A   1      52.756  27.295  32.158  1.00  0.00    -0.237 OA
ATOM     99  O   UNL A   1      52.313  24.880  31.953  1.00  0.00    -0.744 OA
ENDBRANCH  95  96
ENDBRANCH  63  88
ENDBRANCH  37  38
ENDBRANCH  29  32
ENDBRANCH  27  28
ENDBRANCH  26  27
ENDBRANCH  25  26
ENDBRANCH   1  25
TORSDOF 19
ENDMDL
MODEL 2
REMARK VINA RESULT:     -11.2      1.148      2.150
REMARK SMILES O=C(Cc1ccccc1Nc1c(Cl)cccc1Cl)NCCCCCCNC(=O)c1ccc(-c2c3nc(c(-c4c(F)cc(S(=O)(=O)[O-])cc4F)c4ccc([nH]4)c(-c4c(F)cc(S(=O)(=O)[O-])cc4F)c4nc(c(-c5c(F)cc(S(=O)(=O)[O-])cc5F)c5ccc2[nH]5)C=C4)C=C3)cc1
REMARK SMILES IDX 22 1 21 2 20 3 19 4 1 5 2 6 3 8 4 9 5 10 9 11 6 12 8 13 7 14
REMARK SMILES IDX 10 15 11 17 12 18 17 19 13 20 14 21 16 22 18 23 15 24 23 25
REMARK SMILES IDX 24 26 25 27 26 28 27 29 28 31 29 32 30 33 94 34 31 35 93 36
REMARK SMILES IDX 32 37 33 38 34 39 87 40 35 41 92 42 86 43 88 44 36 45 91 46
REMARK SMILES IDX 85 47 84 48 37 50 71 51 50 52 70 53 51 54 54 55 69 56 89 57
REMARK SMILES IDX 52 58 53 59 68 61 90 62 55 63 38 64 39 65 48 66 40 67 41 68
REMARK SMILES IDX 47 69 49 70 42 71 43 72 44 73 45 74 46 75 72 76 73 77 82 78
REMARK SMILES IDX 74 79 75 80 81 81 83 82 76 83 77 84 78 85 79 86 80 87 56 88
REMARK SMILES IDX 57 89 66 90 58 91 59 92 65 93 67 94 60 95 61 96 62 97 63 98
REMARK SMILES IDX 64 99
REMARK H PARENT 19 7 10 16 26 30 88 49 54 60
REMARK Flexibility Score: inf
ROOT
ATOM      1  C   UNL A   1      31.891  27.156  23.971  1.00  0.00     0.002 C 
ENDROOT
BRANCH   1   2
ATOM      2  C   UNL A   1      32.815  27.974  23.060  1.00  0.00     0.021 C 
BRANCH   2   3
ATOM      3  C   UNL A   1      33.526  27.156  21.983  1.00  0.00     0.116 C 
BRANCH   3   4
ATOM      4  N   UNL A   1      33.586  25.753  22.341  1.00  0.00    -0.356 N 
ATOM      5  O   UNL A   1      33.057  24.940  20.260  1.00  0.00    -0.275 OA
ATOM      6  C   UNL A   1      33.324  24.746  21.444  1.00  0.00     0.224 C 
ATOM      7  H   UNL A   1      33.823  25.513  23.266  1.00  0.00     0.163 HD
BRANCH   6   8
ATOM      8  C   UNL A   1      33.265  23.356  22.044  1.00  0.00     0.137 C 
BRANCH   8   9
ATOM      9  C   UNL A   1      32.624  23.277  23.414  1.00  0.00    -0.015 A 
ATOM     10  C   UNL A   1      31.319  23.792  23.544  1.00  0.00     0.006 A 
ATOM     11  C   UNL A   1      33.269  22.716  24.539  1.00  0.00     0.042 A 
ATOM     12  C   UNL A   1      30.663  23.787  24.772  1.00  0.00     0.000 A 
ATOM     13  C   UNL A   1      32.588  22.738  25.769  1.00  0.00     0.026 A 
ATOM     14  C   UNL A   1      31.304  23.269  25.889  1.00  0.00     0.002 A 
BRANCH  11  15
ATOM     15  N   UNL A   1      34.537  22.102  24.416  1.00  0.00    -0.353 N 
ATOM     16  H   UNL A   1      34.568  21.324  23.813  1.00  0.00     0.167 HD
BRANCH  15  17
ATOM     17  C   UNL A   1      35.772  22.437  25.032  1.00  0.00     0.076 A 
ATOM     18  C   UNL A   1      36.748  21.429  25.201  1.00  0.00     0.066 A 
ATOM     19  C   UNL A   1      36.130  23.747  25.416  1.00  0.00     0.066 A 
ATOM     20  Cl  UNL A   1      36.395  19.785  24.781  1.00  0.00    -0.082 Cl
ATOM     21  C   UNL A   1      38.025  21.715  25.694  1.00  0.00     0.023 A 
ATOM     22  C   UNL A   1      37.410  24.031  25.911  1.00  0.00     0.023 A 
ATOM     23  Cl  UNL A   1      35.002  25.060  25.385  1.00  0.00    -0.082 Cl
ATOM     24  C   UNL A   1      38.360  23.020  26.039  1.00  0.00     0.003 A 
ENDBRANCH  15  17
ENDBRANCH  11  15
ENDBRANCH   8   9
ENDBRANCH   6   8
ENDBRANCH   3   4
ENDBRANCH   2   3
ENDBRANCH   1   2
BRANCH   1  25
ATOM     25  C   UNL A   1      32.299  27.116  25.446  1.00  0.00     0.002 C 
BRANCH  25  26
ATOM     26  C   UNL A   1      33.398  28.100  25.850  1.00  0.00     0.021 C 
BRANCH  26  27
ATOM     27  C   UNL A   1      33.486  28.387  27.345  1.00  0.00     0.116 C 
BRANCH  27  28
ATOM     28  N   UNL A   1      33.436  29.812  27.641  1.00  0.00    -0.352 N 
ATOM     29  C   UNL A   1      34.397  30.620  28.197  1.00  0.00     0.251 C 
ATOM     30  H   UNL A   1      32.591  30.260  27.410  1.00  0.00     0.163 HD
ATOM     31  O   UNL A   1      34.113  31.767  28.534  1.00  0.00    -0.269 OA
BRANCH  29  32
ATOM     32  C   UNL A   1      35.765  30.101  28.412  1.00  0.00     0.039 A 
ATOM     33  C   UNL A   1      36.664  30.095  27.343  1.00  0.00     0.014 A 
ATOM     34  C   UNL A   1      36.166  29.629  29.666  1.00  0.00     0.014 A 
ATOM     35  C   UNL A   1      37.984  29.687  27.550  1.00  0.00     0.010 A 
ATOM     36  C   UNL A   1      37.500  29.293  29.887  1.00  0.00     0.010 A 
ATOM     37  C   UNL A   1      38.425  29.322  28.833  1.00  0.00    -0.014 A 
BRANCH  37  38
ATOM     38  C   UNL A   1      39.850  28.989  29.096  1.00  0.00     0.031 A 
ATOM     39  C   UNL A   1      40.787  30.033  29.640  1.00  0.00     0.074 A 
ATOM     40  C   UNL A   1      40.317  27.764  28.777  1.00  0.00     0.049 A 
ATOM     41  N   UNL A   1      42.074  29.952  29.862  1.00  0.00    -0.248 NA
ATOM     42  C   UNL A   1      40.206  31.348  29.952  1.00  0.00     0.031 C 
ATOM     43  C   UNL A   1      39.520  26.680  28.198  1.00  0.00     0.029 A 
ATOM     44  N   UNL A   1      41.577  27.228  28.879  1.00  0.00    -0.354 N 
ATOM     45  C   UNL A   1      42.458  31.205  30.328  1.00  0.00     0.074 A 
ATOM     46  C   UNL A   1      41.278  32.042  30.305  1.00  0.00     0.031 C 
ATOM     47  C   UNL A   1      40.304  25.607  28.013  1.00  0.00     0.029 A 
ATOM     48  C   UNL A   1      41.668  25.936  28.417  1.00  0.00     0.049 A 
ATOM     49  H   UNL A   1      42.344  27.722  29.250  1.00  0.00     0.167 HD
ATOM     50  C   UNL A   1      43.679  31.613  30.754  1.00  0.00     0.037 A 
ATOM     51  C   UNL A   1      42.730  25.113  28.313  1.00  0.00     0.037 A 
ATOM     52  C   UNL A   1      44.845  30.768  30.787  1.00  0.00     0.049 A 
ATOM     53  C   UNL A   1      44.078  25.594  28.778  1.00  0.00     0.074 A 
ATOM     54  C   UNL A   1      46.111  31.070  31.256  1.00  0.00     0.029 A 
ATOM     55  N   UNL A   1      44.893  29.461  30.325  1.00  0.00    -0.354 N 
ATOM     56  N   UNL A   1      44.408  26.759  29.283  1.00  0.00    -0.248 NA
ATOM     57  C   UNL A   1      45.198  24.648  28.665  1.00  0.00     0.031 C 
ATOM     58  C   UNL A   1      46.938  29.966  31.027  1.00  0.00     0.029 A 
ATOM     59  C   UNL A   1      46.173  28.952  30.471  1.00  0.00     0.049 A 
ATOM     60  H   UNL A   1      44.129  28.967  29.948  1.00  0.00     0.167 HD
ATOM     61  C   UNL A   1      45.766  26.677  29.572  1.00  0.00     0.074 A 
ATOM     62  C   UNL A   1      46.193  25.344  29.198  1.00  0.00     0.031 C 
ATOM     63  C   UNL A   1      46.586  27.621  30.100  1.00  0.00     0.037 A 
BRANCH  50  64
ATOM     64  C   UNL A   1      43.816  33.039  31.218  1.00  0.00     0.058 A 
ATOM     65  C   UNL A   1      44.058  34.090  30.318  1.00  0.00     0.135 A 
ATOM     66  C   UNL A   1      43.666  33.365  32.575  1.00  0.00     0.135 A 
ATOM     67  F   UNL A   1      44.223  33.836  29.009  1.00  0.00    -0.206 F 
ATOM     68  C   UNL A   1      44.178  35.406  30.749  1.00  0.00     0.059 A 
ATOM     69  C   UNL A   1      43.751  34.681  33.026  1.00  0.00     0.059 A 
ATOM     70  F   UNL A   1      43.431  32.403  33.480  1.00  0.00    -0.206 F 
ATOM     71  C   UNL A   1      44.023  35.692  32.107  1.00  0.00     0.060 A 
BRANCH  71  72
ATOM     72  S   UNL A   1      44.182  37.407  32.649  1.00  0.00     0.124 S 
ATOM     73  O   UNL A   1      43.040  37.535  33.548  1.00  0.00    -0.237 OA
ATOM     74  O   UNL A   1      45.494  37.411  33.288  1.00  0.00    -0.237 OA
ATOM     75  O   UNL A   1      44.090  38.167  31.407  1.00  0.00    -0.744 OA
ENDBRANCH  71  72
ENDBRANCH  50  64
BRANCH  51  76
ATOM     76  C   UNL A   1      42.557  23.745  27.752  1.00  0.00     0.058 A 
ATOM     77  C   UNL A   1      42.468  22.625  28.592  1.00  0.00     0.135 A 
ATOM     78  C   UNL A   1      42.462  23.532  26.368  1.00  0.00     0.135 A 
ATOM     79  F   UNL A   1      42.562  22.774  29.922  1.00  0.00    -0.206 F 
ATOM     80  C   UNL A   1      42.307  21.340  28.080  1.00  0.00     0.059 A 
ATOM     81  C   UNL A   1      42.271  22.261  25.834  1.00  0.00     0.059 A 
ATOM     82  F   UNL A   1      42.524  24.571  25.521  1.00  0.00    -0.206 F 
ATOM     83  C   UNL A   1      42.205  21.170  26.699  1.00  0.00     0.060 A 
BRANCH  83  84
ATOM     84  S   UNL A   1      41.946  19.505  26.050  1.00  0.00     0.124 S 
ATOM     85  O   UNL A   1      42.853  19.489  24.909  1.00  0.00    -0.237 OA
ATOM     86  O   UNL A   1      42.333  18.671  27.184  1.00  0.00    -0.237 OA
ATOM     87  O   UNL A   1      40.523  19.488  25.726  1.00  0.00    -0.744 OA
ENDBRANCH  83  84
ENDBRANCH  51  76
BRANCH  63  88
ATOM     88  C   UNL A   1      48.022  27.241  30.340  1.00  0.00     0.058 A 
ATOM     89  C   UNL A   1      49.024  27.493  29.389  1.00  0.00     0.135 A 
ATOM     90  C   UNL A   1      48.410  26.674  31.565  1.00  0.00     0.135 A 
ATOM     91  F   UNL A   1      48.707  28.027  28.198  1.00  0.00    -0.206 F 
ATOM     92  C   UNL A   1      50.356  27.176  29.636  1.00  0.00     0.059 A 
ATOM     93  C   UNL A   1      49.741  26.378  31.844  1.00  0.00     0.059 A 
ATOM     94  F   UNL A   1      47.495  26.420  32.513  1.00  0.00    -0.206 F 
ATOM     95  C   UNL A   1      50.705  26.623  30.869  1.00  0.00     0.060 A 
BRANCH  95  96
ATOM     96  S   UNL A   1      52.444  26.259  31.191  1.00  0.00     0.124 S 
ATOM     97  O   UNL A   1      52.831  27.385  32.032  1.00  0.00    -0.237 OA
ATOM     98  O   UNL A   1      52.373  24.963  31.857  1.00  0.00    -0.237 OA
ATOM     99  O   UNL A   1      53.040  26.238  29.857  1.00  0.00    -0.744 OA
ENDBRANCH  95  96
ENDBRANCH  63  88
ENDBRANCH  37  38
ENDBRANCH  29  32
ENDBRANCH  27  28
ENDBRANCH  26  27
ENDBRANCH  25  26
ENDBRANCH   1  25
TORSDOF 19
ENDMDL
MODEL 3
REMARK VINA RESULT:     -10.9      0.651      8.214
REMARK SMILES O=C(Cc1ccccc1Nc1c(Cl)cccc1Cl)NCCCCCCNC(=O)c1ccc(-c2c3nc(c(-c4c(F)cc(S(=O)(=O)[O-])cc4F)c4ccc([nH]4)c(-c4c(F)cc(S(=O)(=O)[O-])cc4F)c4nc(c(-c5c(F)cc(S(=O)(=O)[O-])cc5F)c5ccc2[nH]5)C=C4)C=C3)cc1
REMARK SMILES IDX 22 1 21 2 20 3 19 4 1 5 2 6 3 8 4 9 5 10 9 11 6 12 8 13 7 14
REMARK SMILES IDX 10 15 11 17 12 18 17 19 13 20 14 21 16 22 18 23 15 24 23 25
REMARK SMILES IDX 24 26 25 27 26 28 27 29 28 31 29 32 30 33 94 34 31 35 93 36
REMARK SMILES IDX 32 37 33 38 34 39 87 40 35 41 92 42 86 43 88 44 36 45 91 46
REMARK SMILES IDX 85 47 84 48 37 50 71 51 50 52 70 53 51 54 54 55 69 56 89 57
REMARK SMILES IDX 52 58 53 59 68 61 90 62 55 63 38 64 39 65 48 66 40 67 41 68
REMARK SMILES IDX 47 69 49 70 42 71 43 72 44 73 45 74 46 75 72 76 73 77 82 78
REMARK SMILES IDX 74 79 75 80 81 81 83 82 76 83 77 84 78 85 79 86 80 87 56 88
REMARK SMILES IDX 57 89 66 90 58 91 59 92 65 93 67 94 60 95 61 96 62 97 63 98
REMARK SMILES IDX 64 99
REMARK H PARENT 19 7 10 16 26 30 88 49 54 60
REMARK Flexibility Score: inf
ROOT
ATOM      1  C   UNL A   1      32.199  26.470  23.922  1.00  0.00     0.002 C 
ENDROOT
BRANCH   1   2
ATOM      2  C   UNL A   1      32.969  26.171  22.630  1.00  0.00     0.021 C 
BRANCH   2   3
ATOM      3  C   UNL A   1      32.559  24.872  21.936  1.00  0.00     0.116 C 
BRANCH   3   4
ATOM      4  N   UNL A   1      32.135  23.874  22.897  1.00  0.00    -0.356 N 
ATOM      5  O   UNL A   1      34.039  22.595  22.786  1.00  0.00    -0.275 OA
ATOM      6  C   UNL A   1      32.911  22.792  23.235  1.00  0.00     0.224 C 
ATOM      7  H   UNL A   1      31.255  23.976  23.325  1.00  0.00     0.163 HD
BRANCH   6   8
ATOM      8  C   UNL A   1      32.230  21.769  24.121  1.00  0.00     0.137 C 
BRANCH   8   9
ATOM      9  C   UNL A   1      32.707  20.344  23.936  1.00  0.00    -0.015 A 
ATOM     10  C   UNL A   1      32.171  19.621  22.850  1.00  0.00     0.006 A 
ATOM     11  C   UNL A   1      33.649  19.725  24.788  1.00  0.00     0.042 A 
ATOM     12  C   UNL A   1      32.531  18.296  22.621  1.00  0.00     0.000 A 
ATOM     13  C   UNL A   1      33.982  18.382  24.541  1.00  0.00     0.026 A 
ATOM     14  C   UNL A   1      33.430  17.673  23.474  1.00  0.00     0.002 A 
BRANCH  11  15
ATOM     15  N   UNL A   1      34.277  20.455  25.824  1.00  0.00    -0.353 N 
ATOM     16  H   UNL A   1      33.976  20.233  26.735  1.00  0.00     0.167 HD
BRANCH  15  17
ATOM     17  C   UNL A   1      35.278  21.461  25.749  1.00  0.00     0.076 A 
ATOM     18  C   UNL A   1      36.552  21.121  25.243  1.00  0.00     0.066 A 
ATOM     19  C   UNL A   1      35.056  22.816  26.072  1.00  0.00     0.066 A 
ATOM     20  Cl  UNL A   1      36.930  19.478  24.841  1.00  0.00    -0.082 Cl
ATOM     21  C   UNL A   1      37.544  22.086  25.037  1.00  0.00     0.023 A 
ATOM     22  C   UNL A   1      36.051  23.781  25.865  1.00  0.00     0.023 A 
ATOM     23  Cl  UNL A   1      33.591  23.361  26.816  1.00  0.00    -0.082 Cl
ATOM     24  C   UNL A   1      37.289  23.420  25.338  1.00  0.00     0.003 A 
ENDBRANCH  15  17
ENDBRANCH  11  15
ENDBRANCH   8   9
ENDBRANCH   6   8
ENDBRANCH   3   4
ENDBRANCH   2   3
ENDBRANCH   1   2
BRANCH   1  25
ATOM     25  C   UNL A   1      33.061  26.580  25.183  1.00  0.00     0.002 C 
BRANCH  25  26
ATOM     26  C   UNL A   1      33.537  27.990  25.532  1.00  0.00     0.021 C 
BRANCH  26  27
ATOM     27  C   UNL A   1      33.975  28.182  26.979  1.00  0.00     0.116 C 
BRANCH  27  28
ATOM     28  N   UNL A   1      33.823  29.560  27.427  1.00  0.00    -0.352 N 
ATOM     29  C   UNL A   1      34.718  30.362  28.092  1.00  0.00     0.251 C 
ATOM     30  H   UNL A   1      32.954  29.975  27.225  1.00  0.00     0.163 HD
ATOM     31  O   UNL A   1      34.351  31.444  28.544  1.00  0.00    -0.269 OA
BRANCH  29  32
ATOM     32  C   UNL A   1      36.114  29.912  28.285  1.00  0.00     0.039 A 
ATOM     33  C   UNL A   1      37.024  30.057  27.235  1.00  0.00     0.014 A 
ATOM     34  C   UNL A   1      36.528  29.356  29.498  1.00  0.00     0.014 A 
ATOM     35  C   UNL A   1      38.365  29.715  27.428  1.00  0.00     0.010 A 
ATOM     36  C   UNL A   1      37.878  29.085  29.712  1.00  0.00     0.010 A 
ATOM     37  C   UNL A   1      38.813  29.265  28.681  1.00  0.00    -0.014 A 
BRANCH  37  38
ATOM     38  C   UNL A   1      40.252  28.999  28.938  1.00  0.00     0.031 A 
ATOM     39  C   UNL A   1      40.852  27.661  28.597  1.00  0.00     0.074 A 
ATOM     40  C   UNL A   1      41.005  29.940  29.546  1.00  0.00     0.049 A 
ATOM     41  N   UNL A   1      42.064  27.220  28.816  1.00  0.00    -0.248 NA
ATOM     42  C   UNL A   1      39.966  26.683  27.947  1.00  0.00     0.031 C 
ATOM     43  C   UNL A   1      40.528  31.258  29.970  1.00  0.00     0.029 A 
ATOM     44  N   UNL A   1      42.324  29.928  29.927  1.00  0.00    -0.354 N 
ATOM     45  C   UNL A   1      42.084  25.913  28.342  1.00  0.00     0.074 A 
ATOM     46  C   UNL A   1      40.747  25.615  27.873  1.00  0.00     0.031 C 
ATOM     47  C   UNL A   1      41.541  31.932  30.536  1.00  0.00     0.029 A 
ATOM     48  C   UNL A   1      42.728  31.082  30.556  1.00  0.00     0.049 A 
ATOM     49  H   UNL A   1      42.924  29.165  29.764  1.00  0.00     0.167 HD
ATOM     50  C   UNL A   1      43.125  25.047  28.285  1.00  0.00     0.037 A 
ATOM     51  C   UNL A   1      43.914  31.414  31.104  1.00  0.00     0.037 A 
ATOM     52  C   UNL A   1      44.456  25.357  28.741  1.00  0.00     0.049 A 
ATOM     53  C   UNL A   1      45.052  30.431  31.042  1.00  0.00     0.074 A 
ATOM     54  C   UNL A   1      45.593  24.570  28.671  1.00  0.00     0.029 A 
ATOM     55  N   UNL A   1      44.830  26.542  29.358  1.00  0.00    -0.354 N 
ATOM     56  N   UNL A   1      45.071  29.225  30.525  1.00  0.00    -0.248 NA
ATOM     57  C   UNL A   1      46.330  30.853  31.632  1.00  0.00     0.031 C 
ATOM     58  C   UNL A   1      46.639  25.256  29.296  1.00  0.00     0.029 A 
ATOM     59  C   UNL A   1      46.172  26.497  29.700  1.00  0.00     0.049 A 
ATOM     60  H   UNL A   1      44.230  27.304  29.527  1.00  0.00     0.167 HD
ATOM     61  C   UNL A   1      46.368  28.756  30.704  1.00  0.00     0.074 A 
ATOM     62  C   UNL A   1      47.107  29.812  31.365  1.00  0.00     0.031 C 
ATOM     63  C   UNL A   1      46.899  27.558  30.353  1.00  0.00     0.037 A 
BRANCH  50  64
ATOM     64  C   UNL A   1      42.867  23.680  27.711  1.00  0.00     0.058 A 
ATOM     65  C   UNL A   1      43.054  23.403  26.346  1.00  0.00     0.135 A 
ATOM     66  C   UNL A   1      42.464  22.621  28.540  1.00  0.00     0.135 A 
ATOM     67  F   UNL A   1      43.427  24.380  25.503  1.00  0.00    -0.206 F 
ATOM     68  C   UNL A   1      42.820  22.137  25.820  1.00  0.00     0.059 A 
ATOM     69  C   UNL A   1      42.254  21.337  28.041  1.00  0.00     0.059 A 
ATOM     70  F   UNL A   1      42.272  22.825  29.853  1.00  0.00    -0.206 F 
ATOM     71  C   UNL A   1      42.420  21.110  26.677  1.00  0.00     0.060 A 
BRANCH  71  72
ATOM     72  S   UNL A   1      42.122  19.473  25.976  1.00  0.00     0.124 S 
ATOM     73  O   UNL A   1      42.923  19.527  24.758  1.00  0.00    -0.237 OA
ATOM     74  O   UNL A   1      42.622  18.590  27.025  1.00  0.00    -0.237 OA
ATOM     75  O   UNL A   1      40.677  19.447  25.775  1.00  0.00    -0.744 OA
ENDBRANCH  71  72
ENDBRANCH  50  64
BRANCH  51  76
ATOM     76  C   UNL A   1      44.087  32.745  31.749  1.00  0.00     0.058 A 
ATOM     77  C   UNL A   1      44.519  33.857  31.011  1.00  0.00     0.135 A 
ATOM     78  C   UNL A   1      43.808  32.934  33.112  1.00  0.00     0.135 A 
ATOM     79  F   UNL A   1      44.806  33.726  29.708  1.00  0.00    -0.206 F 
ATOM     80  C   UNL A   1      44.685  35.105  31.604  1.00  0.00     0.059 A 
ATOM     81  C   UNL A   1      43.938  34.179  33.720  1.00  0.00     0.059 A 
ATOM     82  F   UNL A   1      43.375  31.907  33.860  1.00  0.00    -0.206 F 
ATOM     83  C   UNL A   1      44.387  35.257  32.959  1.00  0.00     0.060 A 
BRANCH  83  84
ATOM     84  S   UNL A   1      44.559  36.893  33.704  1.00  0.00     0.124 S 
ATOM     85  O   UNL A   1      45.747  37.401  33.031  1.00  0.00    -0.237 OA
ATOM     86  O   UNL A   1      43.297  37.529  33.338  1.00  0.00    -0.237 OA
ATOM     87  O   UNL A   1      44.714  36.599  35.126  1.00  0.00    -0.744 OA
ENDBRANCH  83  84
ENDBRANCH  51  76
BRANCH  63  88
ATOM     88  C   UNL A   1      48.358  27.331  30.642  1.00  0.00     0.058 A 
ATOM     89  C   UNL A   1      49.359  27.691  29.726  1.00  0.00     0.135 A 
ATOM     90  C   UNL A   1      48.762  26.801  31.878  1.00  0.00     0.135 A 
ATOM     91  F   UNL A   1      49.028  28.195  28.526  1.00  0.00    -0.206 F 
ATOM     92  C   UNL A   1      50.708  27.516  30.018  1.00  0.00     0.059 A 
ATOM     93  C   UNL A   1      50.106  26.646  32.203  1.00  0.00     0.059 A 
ATOM     94  F   UNL A   1      47.847  26.448  32.795  1.00  0.00    -0.206 F 
ATOM     95  C   UNL A   1      51.072  26.997  31.262  1.00  0.00     0.060 A 
BRANCH  95  96
ATOM     96  S   UNL A   1      52.827  26.816  31.642  1.00  0.00     0.124 S 
ATOM     97  O   UNL A   1      52.893  27.356  32.995  1.00  0.00    -0.237 OA
ATOM     98  O   UNL A   1      53.026  25.375  31.524  1.00  0.00    -0.237 OA
ATOM     99  O   UNL A   1      53.483  27.619  30.613  1.00  0.00    -0.744 OA
ENDBRANCH  95  96
ENDBRANCH  63  88
ENDBRANCH  37  38
ENDBRANCH  29  32
ENDBRANCH  27  28
ENDBRANCH  26  27
ENDBRANCH  25  26
ENDBRANCH   1  25
TORSDOF 19
ENDMDL
