MODEL 1
REMARK VINA RESULT:     -10.8      0.000      0.000
REMARK SMILES O=C(NC[C@@H]1CCOC1)NC[C@@H]1CC[C@H](C(=O)NCCCCCCNC(=O)c2ccc(-c3c4nc(c(-c5c(F)cc(S(=O)(=O)[O-])cc5F)c5ccc([nH]5)c(-c5c(F)cc(S(=O)(=O)[O-])cc5F)c5nc(c(-c6c(F)cc(S(=O)(=O)[O-])cc6F)c6ccc3[nH]6)C=C5)C=C4)cc2)O1
REMARK SMILES IDX 21 1 20 2 19 3 18 4 16 5 17 6 15 8 12 9 13 10 94 11 14 12
REMARK SMILES IDX 11 13 10 14 1 15 2 16 3 17 4 20 5 21 6 22 9 23 7 24 8 25
REMARK SMILES IDX 22 26 23 27 24 28 25 29 26 30 27 32 28 33 29 34 93 35 30 36
REMARK SMILES IDX 92 37 31 38 32 39 33 40 86 41 34 42 91 43 85 44 87 45 35 46
REMARK SMILES IDX 90 47 84 48 83 49 36 51 70 52 49 53 69 54 50 55 53 56 68 57
REMARK SMILES IDX 88 58 51 59 52 60 67 62 89 63 54 64 37 65 38 66 47 67 39 68
REMARK SMILES IDX 40 69 46 70 48 71 41 72 42 73 43 74 44 75 45 76 71 77 72 78
REMARK SMILES IDX 81 79 73 80 74 81 80 82 82 83 75 84 76 85 77 86 78 87 79 88
REMARK SMILES IDX 55 89 56 90 65 91 57 92 58 93 64 94 66 95 59 96 60 97 61 98
REMARK SMILES IDX 62 99 63 100
REMARK H PARENT 18 7 3 18 10 19 25 31 87 50 53 61
REMARK Flexibility Score: inf
ROOT
ATOM      1  C   UNL A   1      39.624  22.601  26.691  1.00  0.00     0.002 C 
ENDROOT
BRANCH   1   2
ATOM      2  C   UNL A   1      39.094  21.451  25.829  1.00  0.00     0.021 C 
BRANCH   2   3
ATOM      3  C   UNL A   1      37.718  21.736  25.234  1.00  0.00     0.116 C 
BRANCH   3   4
ATOM      4  N   UNL A   1      36.671  21.927  26.203  1.00  0.00    -0.354 N 
ATOM      5  C   UNL A   1      35.361  21.552  26.088  1.00  0.00     0.249 C 
ATOM      6  O   UNL A   1      34.668  21.557  27.109  1.00  0.00    -0.272 OA
ATOM      7  H   UNL A   1      36.926  22.379  27.041  1.00  0.00     0.163 HD
BRANCH   5   8
ATOM      8  C   UNL A   1      34.767  21.184  24.712  1.00  0.00     0.207 C 
ATOM      9  C   UNL A   1      32.828  21.729  23.519  1.00  0.00     0.138 C 
ATOM     10  C   UNL A   1      32.542  20.387  24.189  1.00  0.00     0.037 C 
ATOM     11  O   UNL A   1      34.015  22.245  24.132  1.00  0.00    -0.363 OA
ATOM     12  C   UNL A   1      33.883  19.945  24.746  1.00  0.00     0.045 C 
BRANCH   9  13
ATOM     13  C   UNL A   1      31.651  22.748  23.564  1.00  0.00     0.149 C 
BRANCH  13  14
ATOM     14  N   UNL A   1      31.786  23.863  24.509  1.00  0.00    -0.336 N 
ATOM     15  O   UNL A   1      30.595  22.816  26.143  1.00  0.00    -0.249 OA
ATOM     16  C   UNL A   1      31.217  23.797  25.740  1.00  0.00     0.314 C 
ATOM     17  N   UNL A   1      31.331  24.853  26.577  1.00  0.00    -0.338 N 
ATOM     18  H   UNL A   1      30.750  24.765  27.367  1.00  0.00     0.165 HD
ATOM     19  H   UNL A   1      32.293  24.665  24.249  1.00  0.00     0.165 HD
BRANCH  17  20
ATOM     20  C   UNL A   1      32.101  26.089  26.596  1.00  0.00     0.123 C 
BRANCH  20  21
ATOM     21  C   UNL A   1      31.263  27.377  26.504  1.00  0.00     0.036 C 
ATOM     22  C   UNL A   1      31.190  27.957  25.103  1.00  0.00     0.036 C 
ATOM     23  C   UNL A   1      31.725  28.548  27.357  1.00  0.00     0.165 C 
ATOM     24  C   UNL A   1      32.153  29.116  25.142  1.00  0.00     0.160 C 
ATOM     25  O   UNL A   1      32.161  29.598  26.486  1.00  0.00    -0.381 OA
ENDBRANCH  20  21
ENDBRANCH  17  20
ENDBRANCH  13  14
ENDBRANCH   9  13
ENDBRANCH   5   8
ENDBRANCH   3   4
ENDBRANCH   2   3
ENDBRANCH   1   2
BRANCH   1  26
ATOM     26  C   UNL A   1      40.519  22.160  27.854  1.00  0.00     0.002 C 
BRANCH  26  27
ATOM     27  C   UNL A   1      42.012  22.128  27.594  1.00  0.00     0.021 C 
BRANCH  27  28
ATOM     28  C   UNL A   1      42.679  23.489  27.623  1.00  0.00     0.116 C 
BRANCH  28  29
ATOM     29  N   UNL A   1      42.837  24.099  26.304  1.00  0.00    -0.352 N 
ATOM     30  C   UNL A   1      42.493  25.362  25.873  1.00  0.00     0.251 C 
ATOM     31  H   UNL A   1      43.250  23.522  25.621  1.00  0.00     0.163 HD
ATOM     32  O   UNL A   1      42.608  25.668  24.690  1.00  0.00    -0.269 OA
BRANCH  30  33
ATOM     33  C   UNL A   1      41.938  26.321  26.850  1.00  0.00     0.039 A 
ATOM     34  C   UNL A   1      41.016  25.884  27.801  1.00  0.00     0.014 A 
ATOM     35  C   UNL A   1      42.431  27.623  26.889  1.00  0.00     0.014 A 
ATOM     36  C   UNL A   1      40.682  26.727  28.865  1.00  0.00     0.010 A 
ATOM     37  C   UNL A   1      42.218  28.393  28.021  1.00  0.00     0.010 A 
ATOM     38  C   UNL A   1      41.333  27.963  29.020  1.00  0.00    -0.014 A 
BRANCH  38  39
ATOM     39  C   UNL A   1      41.107  28.842  30.198  1.00  0.00     0.031 A 
ATOM     40  C   UNL A   1      41.964  28.667  31.426  1.00  0.00     0.074 A 
ATOM     41  C   UNL A   1      40.074  29.709  30.210  1.00  0.00     0.049 A 
ATOM     42  N   UNL A   1      41.828  29.200  32.612  1.00  0.00    -0.248 NA
ATOM     43  C   UNL A   1      43.083  27.714  31.325  1.00  0.00     0.031 C 
ATOM     44  C   UNL A   1      39.116  29.914  29.120  1.00  0.00     0.029 A 
ATOM     45  N   UNL A   1      39.649  30.577  31.185  1.00  0.00    -0.354 N 
ATOM     46  C   UNL A   1      42.808  28.609  33.403  1.00  0.00     0.074 A 
ATOM     47  C   UNL A   1      43.478  27.624  32.584  1.00  0.00     0.031 C 
ATOM     48  C   UNL A   1      38.246  30.877  29.469  1.00  0.00     0.029 A 
ATOM     49  C   UNL A   1      38.555  31.329  30.821  1.00  0.00     0.049 A 
ATOM     50  H   UNL A   1      40.087  30.655  32.063  1.00  0.00     0.167 HD
ATOM     51  C   UNL A   1      43.151  28.889  34.682  1.00  0.00     0.037 A 
ATOM     52  C   UNL A   1      37.882  32.277  31.502  1.00  0.00     0.037 A 
ATOM     53  C   UNL A   1      42.542  29.934  35.458  1.00  0.00     0.049 A 
ATOM     54  C   UNL A   1      38.333  32.632  32.893  1.00  0.00     0.074 A 
ATOM     55  C   UNL A   1      42.875  30.369  36.727  1.00  0.00     0.029 A 
ATOM     56  N   UNL A   1      41.489  30.725  35.023  1.00  0.00    -0.354 N 
ATOM     57  N   UNL A   1      39.301  32.104  33.604  1.00  0.00    -0.248 NA
ATOM     58  C   UNL A   1      37.608  33.715  33.571  1.00  0.00     0.031 C 
ATOM     59  C   UNL A   1      42.008  31.412  37.070  1.00  0.00     0.029 A 
ATOM     60  C   UNL A   1      41.158  31.647  36.000  1.00  0.00     0.049 A 
ATOM     61  H   UNL A   1      41.044  30.643  34.149  1.00  0.00     0.167 HD
ATOM     62  C   UNL A   1      39.317  32.808  34.803  1.00  0.00     0.074 A 
ATOM     63  C   UNL A   1      38.271  33.806  34.716  1.00  0.00     0.031 C 
ATOM     64  C   UNL A   1      40.123  32.642  35.881  1.00  0.00     0.037 A 
BRANCH  51  65
ATOM     65  C   UNL A   1      44.254  28.075  35.299  1.00  0.00     0.058 A 
ATOM     66  C   UNL A   1      43.991  26.887  35.999  1.00  0.00     0.135 A 
ATOM     67  C   UNL A   1      45.593  28.484  35.188  1.00  0.00     0.135 A 
ATOM     68  F   UNL A   1      42.727  26.458  36.153  1.00  0.00    -0.206 F 
ATOM     69  C   UNL A   1      45.007  26.157  36.606  1.00  0.00     0.059 A 
ATOM     70  C   UNL A   1      46.630  27.753  35.759  1.00  0.00     0.059 A 
ATOM     71  F   UNL A   1      45.903  29.613  34.530  1.00  0.00    -0.206 F 
ATOM     72  C   UNL A   1      46.324  26.601  36.483  1.00  0.00     0.060 A 
BRANCH  72  73
ATOM     73  S   UNL A   1      47.631  25.648  37.283  1.00  0.00     0.124 S 
ATOM     74  O   UNL A   1      48.339  26.690  38.021  1.00  0.00    -0.237 OA
ATOM     75  O   UNL A   1      46.877  24.700  38.095  1.00  0.00    -0.237 OA
ATOM     76  O   UNL A   1      48.361  25.067  36.161  1.00  0.00    -0.744 OA
ENDBRANCH  72  73
ENDBRANCH  51  65
BRANCH  52  77
ATOM     77  C   UNL A   1      36.745  32.990  30.862  1.00  0.00     0.058 A 
ATOM     78  C   UNL A   1      36.973  33.966  29.879  1.00  0.00     0.135 A 
ATOM     79  C   UNL A   1      35.413  32.708  31.204  1.00  0.00     0.135 A 
ATOM     80  F   UNL A   1      38.230  34.273  29.521  1.00  0.00    -0.206 F 
ATOM     81  C   UNL A   1      35.926  34.650  29.271  1.00  0.00     0.059 A 
ATOM     82  C   UNL A   1      34.347  33.363  30.593  1.00  0.00     0.059 A 
ATOM     83  F   UNL A   1      35.140  31.769  32.123  1.00  0.00    -0.206 F 
ATOM     84  C   UNL A   1      34.615  34.341  29.635  1.00  0.00     0.060 A 
BRANCH  84  85
ATOM     85  S   UNL A   1      33.261  35.201  28.806  1.00  0.00     0.124 S 
ATOM     86  O   UNL A   1      32.473  35.671  29.940  1.00  0.00    -0.237 OA
ATOM     87  O   UNL A   1      33.967  36.228  28.048  1.00  0.00    -0.237 OA
ATOM     88  O   UNL A   1      32.644  34.151  28.000  1.00  0.00    -0.744 OA
ENDBRANCH  84  85
ENDBRANCH  52  77
BRANCH  64  89
ATOM     89  C   UNL A   1      39.931  33.580  37.036  1.00  0.00     0.058 A 
ATOM     90  C   UNL A   1      40.621  34.799  37.114  1.00  0.00     0.135 A 
ATOM     91  C   UNL A   1      38.998  33.284  38.043  1.00  0.00     0.135 A 
ATOM     92  F   UNL A   1      41.528  35.123  36.179  1.00  0.00    -0.206 F 
ATOM     93  C   UNL A   1      40.405  35.687  38.161  1.00  0.00     0.059 A 
ATOM     94  C   UNL A   1      38.748  34.168  39.085  1.00  0.00     0.059 A 
ATOM     95  F   UNL A   1      38.305  32.135  38.004  1.00  0.00    -0.206 F 
ATOM     96  C   UNL A   1      39.463  35.364  39.141  1.00  0.00     0.060 A 
BRANCH  96  97
ATOM     97  S   UNL A   1      39.159  36.545  40.471  1.00  0.00     0.124 S 
ATOM     98  O   UNL A   1      38.138  35.853  41.250  1.00  0.00    -0.237 OA
ATOM     99  O   UNL A   1      40.471  36.655  41.100  1.00  0.00    -0.237 OA
ATOM    100  O   UNL A   1      38.708  37.740  39.765  1.00  0.00    -0.744 OA
ENDBRANCH  96  97
ENDBRANCH  64  89
ENDBRANCH  38  39
ENDBRANCH  30  33
ENDBRANCH  28  29
ENDBRANCH  27  28
ENDBRANCH  26  27
ENDBRANCH   1  26
TORSDOF 20
ENDMDL
MODEL 2
REMARK VINA RESULT:     -10.6      3.293      9.151
REMARK SMILES O=C(NC[C@@H]1CCOC1)NC[C@@H]1CC[C@H](C(=O)NCCCCCCNC(=O)c2ccc(-c3c4nc(c(-c5c(F)cc(S(=O)(=O)[O-])cc5F)c5ccc([nH]5)c(-c5c(F)cc(S(=O)(=O)[O-])cc5F)c5nc(c(-c6c(F)cc(S(=O)(=O)[O-])cc6F)c6ccc3[nH]6)C=C5)C=C4)cc2)O1
REMARK SMILES IDX 21 1 20 2 19 3 18 4 16 5 17 6 15 8 12 9 13 10 94 11 14 12
REMARK SMILES IDX 11 13 10 14 1 15 2 16 3 17 4 20 5 21 6 22 9 23 7 24 8 25
REMARK SMILES IDX 22 26 23 27 24 28 25 29 26 30 27 32 28 33 29 34 93 35 30 36
REMARK SMILES IDX 92 37 31 38 32 39 33 40 86 41 34 42 91 43 85 44 87 45 35 46
REMARK SMILES IDX 90 47 84 48 83 49 36 51 70 52 49 53 69 54 50 55 53 56 68 57
REMARK SMILES IDX 88 58 51 59 52 60 67 62 89 63 54 64 37 65 38 66 47 67 39 68
REMARK SMILES IDX 40 69 46 70 48 71 41 72 42 73 43 74 44 75 45 76 71 77 72 78
REMARK SMILES IDX 81 79 73 80 74 81 80 82 82 83 75 84 76 85 77 86 78 87 79 88
REMARK SMILES IDX 55 89 56 90 65 91 57 92 58 93 64 94 66 95 59 96 60 97 61 98
REMARK SMILES IDX 62 99 63 100
REMARK H PARENT 18 7 3 18 10 19 25 31 87 50 53 61
REMARK Flexibility Score: inf
ROOT
ATOM      1  C   UNL A   1      34.997  32.238  27.991  1.00  0.00     0.002 C 
ENDROOT
BRANCH   1   2
ATOM      2  C   UNL A   1      33.721  31.502  27.570  1.00  0.00     0.021 C 
BRANCH   2   3
ATOM      3  C   UNL A   1      33.872  29.983  27.598  1.00  0.00     0.116 C 
BRANCH   3   4
ATOM      4  N   UNL A   1      32.659  29.253  27.340  1.00  0.00    -0.354 N 
ATOM      5  C   UNL A   1      32.538  28.059  26.684  1.00  0.00     0.249 C 
ATOM      6  O   UNL A   1      31.468  27.453  26.781  1.00  0.00    -0.272 OA
ATOM      7  H   UNL A   1      31.824  29.658  27.670  1.00  0.00     0.163 HD
BRANCH   5   8
ATOM      8  C   UNL A   1      33.693  27.520  25.813  1.00  0.00     0.207 C 
ATOM      9  C   UNL A   1      33.909  26.690  23.634  1.00  0.00     0.138 C 
ATOM     10  C   UNL A   1      33.795  25.465  24.538  1.00  0.00     0.037 C 
ATOM     11  O   UNL A   1      33.530  27.819  24.430  1.00  0.00    -0.363 OA
ATOM     12  C   UNL A   1      33.903  26.018  25.947  1.00  0.00     0.045 C 
BRANCH   9  13
ATOM     13  C   UNL A   1      33.097  26.606  22.309  1.00  0.00     0.149 C 
BRANCH  13  14
ATOM     14  N   UNL A   1      32.068  27.633  22.103  1.00  0.00    -0.336 N 
ATOM     15  O   UNL A   1      30.499  26.514  23.317  1.00  0.00    -0.249 OA
ATOM     16  C   UNL A   1      30.826  27.480  22.630  1.00  0.00     0.314 C 
ATOM     17  N   UNL A   1      29.889  28.427  22.397  1.00  0.00    -0.338 N 
ATOM     18  H   UNL A   1      28.991  28.140  22.682  1.00  0.00     0.165 HD
ATOM     19  H   UNL A   1      32.280  28.439  21.581  1.00  0.00     0.165 HD
BRANCH  17  20
ATOM     20  C   UNL A   1      29.882  29.767  21.827  1.00  0.00     0.123 C 
BRANCH  20  21
ATOM     21  C   UNL A   1      28.495  30.425  21.733  1.00  0.00     0.036 C 
ATOM     22  C   UNL A   1      28.514  31.924  21.971  1.00  0.00     0.036 C 
ATOM     23  C   UNL A   1      27.437  29.919  22.702  1.00  0.00     0.165 C 
ATOM     24  C   UNL A   1      27.997  32.073  23.379  1.00  0.00     0.160 C 
ATOM     25  O   UNL A   1      27.109  30.979  23.608  1.00  0.00    -0.381 OA
ENDBRANCH  20  21
ENDBRANCH  17  20
ENDBRANCH  13  14
ENDBRANCH   9  13
ENDBRANCH   5   8
ENDBRANCH   3   4
ENDBRANCH   2   3
ENDBRANCH   1   2
BRANCH   1  26
ATOM     26  C   UNL A   1      34.816  33.743  28.209  1.00  0.00     0.002 C 
BRANCH  26  27
ATOM     27  C   UNL A   1      33.403  34.235  28.451  1.00  0.00     0.021 C 
BRANCH  27  28
ATOM     28  C   UNL A   1      33.321  35.599  29.108  1.00  0.00     0.116 C 
BRANCH  28  29
ATOM     29  N   UNL A   1      32.650  35.590  30.407  1.00  0.00    -0.352 N 
ATOM     30  C   UNL A   1      33.048  35.022  31.597  1.00  0.00     0.251 C 
ATOM     31  H   UNL A   1      31.786  36.060  30.436  1.00  0.00     0.163 HD
ATOM     32  O   UNL A   1      32.300  35.027  32.570  1.00  0.00    -0.269 OA
BRANCH  30  33
ATOM     33  C   UNL A   1      34.368  34.363  31.665  1.00  0.00     0.039 A 
ATOM     34  C   UNL A   1      35.527  35.138  31.724  1.00  0.00     0.014 A 
ATOM     35  C   UNL A   1      34.439  32.977  31.793  1.00  0.00     0.014 A 
ATOM     36  C   UNL A   1      36.744  34.524  32.032  1.00  0.00     0.010 A 
ATOM     37  C   UNL A   1      35.612  32.398  32.247  1.00  0.00     0.010 A 
ATOM     38  C   UNL A   1      36.784  33.159  32.364  1.00  0.00    -0.014 A 
BRANCH  38  39
ATOM     39  C   UNL A   1      38.029  32.485  32.818  1.00  0.00     0.031 A 
ATOM     40  C   UNL A   1      38.536  32.733  34.217  1.00  0.00     0.074 A 
ATOM     41  C   UNL A   1      38.758  31.749  31.954  1.00  0.00     0.049 A 
ATOM     42  N   UNL A   1      39.676  32.390  34.756  1.00  0.00    -0.248 NA
ATOM     43  C   UNL A   1      37.672  33.530  35.104  1.00  0.00     0.031 C 
ATOM     44  C   UNL A   1      38.425  31.502  30.548  1.00  0.00     0.029 A 
ATOM     45  N   UNL A   1      39.943  31.079  32.130  1.00  0.00    -0.354 N 
ATOM     46  C   UNL A   1      39.683  32.972  36.019  1.00  0.00     0.074 A 
ATOM     47  C   UNL A   1      38.471  33.751  36.135  1.00  0.00     0.031 C 
ATOM     48  C   UNL A   1      39.357  30.701  30.005  1.00  0.00     0.029 A 
ATOM     49  C   UNL A   1      40.377  30.411  31.007  1.00  0.00     0.049 A 
ATOM     50  H   UNL A   1      40.437  31.076  32.982  1.00  0.00     0.167 HD
ATOM     51  C   UNL A   1      40.593  32.837  37.012  1.00  0.00     0.037 A 
ATOM     52  C   UNL A   1      41.470  29.650  30.813  1.00  0.00     0.037 A 
ATOM     53  C   UNL A   1      41.747  31.986  36.922  1.00  0.00     0.049 A 
ATOM     54  C   UNL A   1      42.427  29.445  31.957  1.00  0.00     0.074 A 
ATOM     55  C   UNL A   1      42.682  31.698  37.899  1.00  0.00     0.029 A 
ATOM     56  N   UNL A   1      42.108  31.265  35.794  1.00  0.00    -0.354 N 
ATOM     57  N   UNL A   1      42.387  29.955  33.165  1.00  0.00    -0.248 NA
ATOM     58  C   UNL A   1      43.571  28.555  31.716  1.00  0.00     0.031 C 
ATOM     59  C   UNL A   1      43.623  30.817  37.354  1.00  0.00     0.029 A 
ATOM     60  C   UNL A   1      43.253  30.532  36.049  1.00  0.00     0.049 A 
ATOM     61  H   UNL A   1      41.620  31.273  34.939  1.00  0.00     0.167 HD
ATOM     62  C   UNL A   1      43.485  29.429  33.835  1.00  0.00     0.074 A 
ATOM     63  C   UNL A   1      44.163  28.552  32.902  1.00  0.00     0.031 C 
ATOM     64  C   UNL A   1      43.898  29.652  35.107  1.00  0.00     0.037 A 
BRANCH  51  65
ATOM     65  C   UNL A   1      40.350  33.600  38.284  1.00  0.00     0.058 A 
ATOM     66  C   UNL A   1      39.393  33.183  39.223  1.00  0.00     0.135 A 
ATOM     67  C   UNL A   1      41.084  34.763  38.573  1.00  0.00     0.135 A 
ATOM     68  F   UNL A   1      38.649  32.089  38.989  1.00  0.00    -0.206 F 
ATOM     69  C   UNL A   1      39.138  33.912  40.379  1.00  0.00     0.059 A 
ATOM     70  C   UNL A   1      40.869  35.490  39.739  1.00  0.00     0.059 A 
ATOM     71  F   UNL A   1      42.012  35.208  37.711  1.00  0.00    -0.206 F 
ATOM     72  C   UNL A   1      39.880  35.068  40.626  1.00  0.00     0.060 A 
BRANCH  72  73
ATOM     73  S   UNL A   1      39.533  36.008  42.127  1.00  0.00     0.124 S 
ATOM     74  O   UNL A   1      39.042  37.267  41.573  1.00  0.00    -0.237 OA
ATOM     75  O   UNL A   1      38.536  35.179  42.794  1.00  0.00    -0.237 OA
ATOM     76  O   UNL A   1      40.831  36.079  42.790  1.00  0.00    -0.744 OA
ENDBRANCH  72  73
ENDBRANCH  51  65
BRANCH  52  77
ATOM     77  C   UNL A   1      41.695  28.986  29.501  1.00  0.00     0.058 A 
ATOM     78  C   UNL A   1      42.453  29.615  28.501  1.00  0.00     0.135 A 
ATOM     79  C   UNL A   1      41.174  27.713  29.222  1.00  0.00     0.135 A 
ATOM     80  F   UNL A   1      42.970  30.834  28.721  1.00  0.00    -0.206 F 
ATOM     81  C   UNL A   1      42.673  29.016  27.266  1.00  0.00     0.059 A 
ATOM     82  C   UNL A   1      41.399  27.084  28.001  1.00  0.00     0.059 A 
ATOM     83  F   UNL A   1      40.459  27.061  30.152  1.00  0.00    -0.206 F 
ATOM     84  C   UNL A   1      42.141  27.749  27.024  1.00  0.00     0.060 A 
BRANCH  84  85
ATOM     85  S   UNL A   1      42.471  26.960  25.434  1.00  0.00     0.124 S 
ATOM     86  O   UNL A   1      42.562  28.114  24.547  1.00  0.00    -0.237 OA
ATOM     87  O   UNL A   1      43.721  26.253  25.695  1.00  0.00    -0.237 OA
ATOM     88  O   UNL A   1      41.305  26.103  25.239  1.00  0.00    -0.744 OA
ENDBRANCH  84  85
ENDBRANCH  52  77
BRANCH  64  89
ATOM     89  C   UNL A   1      45.116  28.913  35.577  1.00  0.00     0.058 A 
ATOM     90  C   UNL A   1      45.021  27.648  36.175  1.00  0.00     0.135 A 
ATOM     91  C   UNL A   1      46.396  29.450  35.367  1.00  0.00     0.135 A 
ATOM     92  F   UNL A   1      43.819  27.096  36.402  1.00  0.00    -0.206 F 
ATOM     93  C   UNL A   1      46.155  26.945  36.565  1.00  0.00     0.059 A 
ATOM     94  C   UNL A   1      47.544  28.754  35.726  1.00  0.00     0.059 A 
ATOM     95  F   UNL A   1      46.538  30.653  34.788  1.00  0.00    -0.206 F 
ATOM     96  C   UNL A   1      47.414  27.505  36.333  1.00  0.00     0.060 A 
BRANCH  96  97
ATOM     97  S   UNL A   1      48.880  26.564  36.803  1.00  0.00     0.124 S 
ATOM     98  O   UNL A   1      48.370  25.197  36.783  1.00  0.00    -0.237 OA
ATOM     99  O   UNL A   1      49.824  26.904  35.744  1.00  0.00    -0.237 OA
ATOM    100  O   UNL A   1      49.211  27.091  38.123  1.00  0.00    -0.744 OA
ENDBRANCH  96  97
ENDBRANCH  64  89
ENDBRANCH  38  39
ENDBRANCH  30  33
ENDBRANCH  28  29
ENDBRANCH  27  28
ENDBRANCH  26  27
ENDBRANCH   1  26
TORSDOF 20
ENDMDL
MODEL 3
REMARK VINA RESULT:     -10.3      6.289      8.522
REMARK SMILES O=C(NC[C@@H]1CCOC1)NC[C@@H]1CC[C@H](C(=O)NCCCCCCNC(=O)c2ccc(-c3c4nc(c(-c5c(F)cc(S(=O)(=O)[O-])cc5F)c5ccc([nH]5)c(-c5c(F)cc(S(=O)(=O)[O-])cc5F)c5nc(c(-c6c(F)cc(S(=O)(=O)[O-])cc6F)c6ccc3[nH]6)C=C5)C=C4)cc2)O1
REMARK SMILES IDX 21 1 20 2 19 3 18 4 16 5 17 6 15 8 12 9 13 10 94 11 14 12
REMARK SMILES IDX 11 13 10 14 1 15 2 16 3 17 4 20 5 21 6 22 9 23 7 24 8 25
REMARK SMILES IDX 22 26 23 27 24 28 25 29 26 30 27 32 28 33 29 34 93 35 30 36
REMARK SMILES IDX 92 37 31 38 32 39 33 40 86 41 34 42 91 43 85 44 87 45 35 46
REMARK SMILES IDX 90 47 84 48 83 49 36 51 70 52 49 53 69 54 50 55 53 56 68 57
REMARK SMILES IDX 88 58 51 59 52 60 67 62 89 63 54 64 37 65 38 66 47 67 39 68
REMARK SMILES IDX 40 69 46 70 48 71 41 72 42 73 43 74 44 75 45 76 71 77 72 78
REMARK SMILES IDX 81 79 73 80 74 81 80 82 82 83 75 84 76 85 77 86 78 87 79 88
REMARK SMILES IDX 55 89 56 90 65 91 57 92 58 93 64 94 66 95 59 96 60 97 61 98
REMARK SMILES IDX 62 99 63 100
REMARK H PARENT 18 7 3 18 10 19 25 31 87 50 53 61
REMARK Flexibility Score: inf
ROOT
ATOM      1  C   UNL A   1      39.515  22.451  26.470  1.00  0.00     0.002 C 
ENDROOT
BRANCH   1   2
ATOM      2  C   UNL A   1      38.415  21.832  25.601  1.00  0.00     0.021 C 
BRANCH   2   3
ATOM      3  C   UNL A   1      37.173  22.712  25.494  1.00  0.00     0.116 C 
BRANCH   3   4
ATOM      4  N   UNL A   1      36.169  22.460  26.494  1.00  0.00    -0.354 N 
ATOM      5  C   UNL A   1      35.004  21.761  26.336  1.00  0.00     0.249 C 
ATOM      6  O   UNL A   1      34.393  21.421  27.352  1.00  0.00    -0.272 OA
ATOM      7  H   UNL A   1      36.339  22.832  27.391  1.00  0.00     0.163 HD
BRANCH   5   8
ATOM      8  C   UNL A   1      34.455  21.457  24.926  1.00  0.00     0.207 C 
ATOM      9  C   UNL A   1      32.603  22.130  23.661  1.00  0.00     0.138 C 
ATOM     10  C   UNL A   1      32.218  20.791  24.284  1.00  0.00     0.037 C 
ATOM     11  O   UNL A   1      33.787  22.568  24.340  1.00  0.00    -0.363 OA
ATOM     12  C   UNL A   1      33.507  20.266  24.890  1.00  0.00     0.045 C 
BRANCH   9  13
ATOM     13  C   UNL A   1      31.481  23.210  23.680  1.00  0.00     0.149 C 
BRANCH  13  14
ATOM     14  N   UNL A   1      31.692  24.360  24.568  1.00  0.00    -0.336 N 
ATOM     15  O   UNL A   1      30.380  23.510  26.224  1.00  0.00    -0.249 OA
ATOM     16  C   UNL A   1      31.094  24.410  25.786  1.00  0.00     0.314 C 
ATOM     17  N   UNL A   1      31.281  25.498  26.568  1.00  0.00    -0.338 N 
ATOM     18  H   UNL A   1      30.678  25.503  27.346  1.00  0.00     0.165 HD
ATOM     19  H   UNL A   1      32.272  25.100  24.278  1.00  0.00     0.165 HD
BRANCH  17  20
ATOM     20  C   UNL A   1      32.154  26.663  26.541  1.00  0.00     0.123 C 
BRANCH  20  21
ATOM     21  C   UNL A   1      31.488  27.961  26.053  1.00  0.00     0.036 C 
ATOM     22  C   UNL A   1      30.990  27.889  24.621  1.00  0.00     0.036 C 
ATOM     23  C   UNL A   1      32.350  29.214  26.073  1.00  0.00     0.165 C 
ATOM     24  C   UNL A   1      32.028  28.653  23.839  1.00  0.00     0.160 C 
ATOM     25  O   UNL A   1      32.565  29.638  24.722  1.00  0.00    -0.381 OA
ENDBRANCH  20  21
ENDBRANCH  17  20
ENDBRANCH  13  14
ENDBRANCH   9  13
ENDBRANCH   5   8
ENDBRANCH   3   4
ENDBRANCH   2   3
ENDBRANCH   1   2
BRANCH   1  26
ATOM     26  C   UNL A   1      40.404  21.430  27.187  1.00  0.00     0.002 C 
BRANCH  26  27
ATOM     27  C   UNL A   1      41.049  20.361  26.327  1.00  0.00     0.021 C 
BRANCH  27  28
ATOM     28  C   UNL A   1      42.494  20.066  26.678  1.00  0.00     0.116 C 
BRANCH  28  29
ATOM     29  N   UNL A   1      43.222  19.345  25.635  1.00  0.00    -0.352 N 
ATOM     30  C   UNL A   1      44.208  19.791  24.783  1.00  0.00     0.251 C 
ATOM     31  H   UNL A   1      42.968  18.400  25.523  1.00  0.00     0.163 HD
ATOM     32  O   UNL A   1      44.636  19.064  23.892  1.00  0.00    -0.269 OA
BRANCH  30  33
ATOM     33  C   UNL A   1      44.704  21.175  24.931  1.00  0.00     0.039 A 
ATOM     34  C   UNL A   1      44.253  22.169  24.062  1.00  0.00     0.014 A 
ATOM     35  C   UNL A   1      45.524  21.498  26.010  1.00  0.00     0.014 A 
ATOM     36  C   UNL A   1      44.531  23.507  24.354  1.00  0.00     0.010 A 
ATOM     37  C   UNL A   1      45.666  22.827  26.377  1.00  0.00     0.010 A 
ATOM     38  C   UNL A   1      45.182  23.850  25.551  1.00  0.00    -0.014 A 
BRANCH  38  39
ATOM     39  C   UNL A   1      45.393  25.262  25.967  1.00  0.00     0.031 A 
ATOM     40  C   UNL A   1      46.779  25.854  25.897  1.00  0.00     0.074 A 
ATOM     41  C   UNL A   1      44.381  25.970  26.508  1.00  0.00     0.049 A 
ATOM     42  N   UNL A   1      47.216  26.993  26.365  1.00  0.00    -0.248 NA
ATOM     43  C   UNL A   1      47.825  25.023  25.275  1.00  0.00     0.031 C 
ATOM     44  C   UNL A   1      43.012  25.487  26.714  1.00  0.00     0.029 A 
ATOM     45  N   UNL A   1      44.349  27.253  26.996  1.00  0.00    -0.354 N 
ATOM     46  C   UNL A   1      48.588  26.989  26.139  1.00  0.00     0.074 A 
ATOM     47  C   UNL A   1      48.921  25.705  25.565  1.00  0.00     0.031 C 
ATOM     48  C   UNL A   1      42.268  26.472  27.242  1.00  0.00     0.029 A 
ATOM     49  C   UNL A   1      43.111  27.643  27.454  1.00  0.00     0.049 A 
ATOM     50  H   UNL A   1      45.139  27.840  27.016  1.00  0.00     0.167 HD
ATOM     51  C   UNL A   1      49.488  27.978  26.351  1.00  0.00     0.037 A 
ATOM     52  C   UNL A   1      42.705  28.814  27.981  1.00  0.00     0.037 A 
ATOM     53  C   UNL A   1      49.133  29.284  26.834  1.00  0.00     0.049 A 
ATOM     54  C   UNL A   1      43.703  29.931  28.129  1.00  0.00     0.074 A 
ATOM     55  C   UNL A   1      49.945  30.392  26.994  1.00  0.00     0.029 A 
ATOM     56  N   UNL A   1      47.854  29.663  27.213  1.00  0.00    -0.354 N 
ATOM     57  N   UNL A   1      44.987  29.929  27.854  1.00  0.00    -0.248 NA
ATOM     58  C   UNL A   1      43.200  31.209  28.648  1.00  0.00     0.031 C 
ATOM     59  C   UNL A   1      49.159  31.438  27.490  1.00  0.00     0.029 A 
ATOM     60  C   UNL A   1      47.853  30.990  27.606  1.00  0.00     0.049 A 
ATOM     61  H   UNL A   1      47.064  29.076  27.201  1.00  0.00     0.167 HD
ATOM     62  C   UNL A   1      45.438  31.212  28.145  1.00  0.00     0.074 A 
ATOM     63  C   UNL A   1      44.289  31.965  28.604  1.00  0.00     0.031 C 
ATOM     64  C   UNL A   1      46.690  31.721  28.043  1.00  0.00     0.037 A 
BRANCH  51  65
ATOM     65  C   UNL A   1      50.926  27.690  26.024  1.00  0.00     0.058 A 
ATOM     66  C   UNL A   1      51.826  27.231  26.999  1.00  0.00     0.135 A 
ATOM     67  C   UNL A   1      51.414  27.873  24.719  1.00  0.00     0.135 A 
ATOM     68  F   UNL A   1      51.419  27.058  28.267  1.00  0.00    -0.206 F 
ATOM     69  C   UNL A   1      53.167  27.006  26.706  1.00  0.00     0.059 A 
ATOM     70  C   UNL A   1      52.744  27.622  24.395  1.00  0.00     0.059 A 
ATOM     71  F   UNL A   1      50.598  28.310  23.747  1.00  0.00    -0.206 F 
ATOM     72  C   UNL A   1      53.617  27.208  25.400  1.00  0.00     0.060 A 
BRANCH  72  73
ATOM     73  S   UNL A   1      55.361  26.919  25.037  1.00  0.00     0.124 S 
ATOM     74  O   UNL A   1      55.622  27.950  24.036  1.00  0.00    -0.237 OA
ATOM     75  O   UNL A   1      55.990  27.125  26.337  1.00  0.00    -0.237 OA
ATOM     76  O   UNL A   1      55.380  25.545  24.544  1.00  0.00    -0.744 OA
ENDBRANCH  72  73
ENDBRANCH  51  65
BRANCH  52  77
ATOM     77  C   UNL A   1      41.281  29.009  28.360  1.00  0.00     0.058 A 
ATOM     78  C   UNL A   1      40.894  29.019  29.710  1.00  0.00     0.135 A 
ATOM     79  C   UNL A   1      40.281  29.201  27.394  1.00  0.00     0.135 A 
ATOM     80  F   UNL A   1      41.814  28.836  30.670  1.00  0.00    -0.206 F 
ATOM     81  C   UNL A   1      39.568  29.194  30.089  1.00  0.00     0.059 A 
ATOM     82  C   UNL A   1      38.950  29.401  27.750  1.00  0.00     0.059 A 
ATOM     83  F   UNL A   1      40.601  29.220  26.091  1.00  0.00    -0.206 F 
ATOM     84  C   UNL A   1      38.601  29.384  29.100  1.00  0.00     0.060 A 
BRANCH  84  85
ATOM     85  S   UNL A   1      36.889  29.658  29.605  1.00  0.00     0.124 S 
ATOM     86  O   UNL A   1      36.160  29.186  28.433  1.00  0.00    -0.237 OA
ATOM     87  O   UNL A   1      36.785  28.829  30.801  1.00  0.00    -0.237 OA
ATOM     88  O   UNL A   1      36.839  31.098  29.844  1.00  0.00    -0.744 OA
ENDBRANCH  84  85
ENDBRANCH  52  77
BRANCH  64  89
ATOM     89  C   UNL A   1      46.879  33.166  28.400  1.00  0.00     0.058 A 
ATOM     90  C   UNL A   1      46.692  34.185  27.455  1.00  0.00     0.135 A 
ATOM     91  C   UNL A   1      47.186  33.537  29.719  1.00  0.00     0.135 A 
ATOM     92  F   UNL A   1      46.404  33.880  26.180  1.00  0.00    -0.206 F 
ATOM     93  C   UNL A   1      46.820  35.525  27.801  1.00  0.00     0.059 A 
ATOM     94  C   UNL A   1      47.294  34.871  30.093  1.00  0.00     0.059 A 
ATOM     95  F   UNL A   1      47.362  32.597  30.661  1.00  0.00    -0.206 F 
ATOM     96  C   UNL A   1      47.119  35.859  29.125  1.00  0.00     0.060 A 
BRANCH  96  97
ATOM     97  S   UNL A   1      47.238  37.603  29.572  1.00  0.00     0.124 S 
ATOM     98  O   UNL A   1      48.458  37.617  30.372  1.00  0.00    -0.237 OA
ATOM     99  O   UNL A   1      47.326  38.256  28.270  1.00  0.00    -0.237 OA
ATOM    100  O   UNL A   1      46.001  37.848  30.307  1.00  0.00    -0.744 OA
ENDBRANCH  96  97
ENDBRANCH  64  89
ENDBRANCH  38  39
ENDBRANCH  30  33
ENDBRANCH  28  29
ENDBRANCH  27  28
ENDBRANCH  26  27
ENDBRANCH   1  26
TORSDOF 20
ENDMDL
