MODEL 1
REMARK VINA RESULT:     -11.4      0.000      0.000
REMARK SMILES C[C@H]1[C@@H](C(=O)NCCCCCCNC(=O)c2ccc(-c3c4nc(c(-c5c(F)cc(S(=O)(=O)[O-])cc5F)c5ccc([nH]5)c(-c5c(F)cc(S(=O)(=O)[O-])cc5F)c5nc(c(-c6c(F)cc(S(=O)(=O)[O-])cc6F)c6ccc3[nH]6)C=C5)C=C4)cc2)CCN1C(=O)N[C@@H]1CC[N@H+]2CCCC[C@H]12
REMARK SMILES IDX 10 1 9 2 8 3 7 4 6 5 4 6 5 7 3 9 1 10 2 11 84 12 82 13 83 14
REMARK SMILES IDX 85 15 86 16 87 17 88 19 89 20 96 21 90 22 91 23 95 24 92 25
REMARK SMILES IDX 94 27 93 28 11 29 12 30 13 31 14 32 15 34 16 35 17 36 81 37
REMARK SMILES IDX 18 38 80 39 19 40 20 41 21 42 74 43 22 44 79 45 73 46 75 47
REMARK SMILES IDX 23 48 78 49 72 50 71 51 24 53 58 54 37 55 57 56 38 57 41 58
REMARK SMILES IDX 56 59 76 60 39 61 40 62 55 64 77 65 42 66 25 67 26 68 35 69
REMARK SMILES IDX 27 70 28 71 34 72 36 73 29 74 30 75 31 76 32 77 33 78 59 79
REMARK SMILES IDX 60 80 69 81 61 82 62 83 68 84 70 85 63 86 64 87 65 88 66 89
REMARK SMILES IDX 67 90 43 91 44 92 53 93 45 94 46 95 52 96 54 97 47 98 48 99
REMARK SMILES IDX 49 100 50 101 51 102
REMARK H PARENT 6 8 87 18 91 26 13 33 75 52 41 63
REMARK Flexibility Score: inf
ROOT
ATOM      1  C   UNL A   1      32.534  28.933  24.975  1.00  0.00     0.002 C 
ENDROOT
BRANCH   1   2
ATOM      2  C   UNL A   1      32.620  28.926  23.446  1.00  0.00     0.002 C 
BRANCH   2   3
ATOM      3  C   UNL A   1      31.286  29.128  22.714  1.00  0.00     0.021 C 
BRANCH   3   4
ATOM      4  C   UNL A   1      30.562  27.833  22.351  1.00  0.00     0.116 C 
BRANCH   4   5
ATOM      5  N   UNL A   1      31.464  26.859  21.767  1.00  0.00    -0.356 N 
ATOM      6  C   UNL A   1      31.836  25.625  22.200  1.00  0.00     0.225 C 
ATOM      7  O   UNL A   1      32.482  24.927  21.421  1.00  0.00    -0.275 OA
ATOM      8  H   UNL A   1      31.876  27.138  20.917  1.00  0.00     0.163 HD
BRANCH   6   9
ATOM      9  C   UNL A   1      31.363  25.150  23.561  1.00  0.00     0.102 C 
ATOM     10  C   UNL A   1      33.844  25.346  24.324  1.00  0.00     0.032 C 
ATOM     11  C   UNL A   1      32.424  24.906  24.658  1.00  0.00     0.096 C 
ATOM     12  N   UNL A   1      32.349  23.484  24.984  1.00  0.00    -0.321 N 
ATOM     13  C   UNL A   1      30.642  23.809  23.401  1.00  0.00     0.037 C 
ATOM     14  C   UNL A   1      31.641  22.790  23.920  1.00  0.00     0.122 C 
BRANCH  12  15
ATOM     15  C   UNL A   1      32.868  22.766  26.017  1.00  0.00     0.318 C 
ATOM     16  O   UNL A   1      32.346  22.789  27.136  1.00  0.00    -0.249 OA
ATOM     17  N   UNL A   1      33.970  21.997  25.911  1.00  0.00    -0.329 N 
ATOM     18  H   UNL A   1      34.124  21.473  26.729  1.00  0.00     0.165 HD
BRANCH  17  19
ATOM     19  C   UNL A   1      34.997  21.733  24.907  1.00  0.00     0.147 C 
ATOM     20  C   UNL A   1      35.397  20.244  24.879  1.00  0.00     0.092 C 
ATOM     21  C   UNL A   1      36.343  22.450  25.151  1.00  0.00     0.207 C 
ATOM     22  C   UNL A   1      36.914  20.211  24.975  1.00  0.00     0.264 C 
ATOM     23  N   UNL A   1      37.201  21.412  25.747  1.00  0.00    -0.331 N 
ATOM     24  C   UNL A   1      36.373  23.698  26.024  1.00  0.00     0.067 C 
ATOM     25  C   UNL A   1      38.603  21.812  25.719  1.00  0.00     0.262 C 
ATOM     26  H   UNL A   1      37.011  21.253  26.737  1.00  0.00     0.348 HD
ATOM     27  C   UNL A   1      37.817  24.210  26.106  1.00  0.00     0.012 C 
ATOM     28  C   UNL A   1      38.787  23.099  26.530  1.00  0.00     0.062 C 
ENDBRANCH  17  19
ENDBRANCH  12  15
ENDBRANCH   6   9
ENDBRANCH   4   5
ENDBRANCH   3   4
ENDBRANCH   2   3
ENDBRANCH   1   2
BRANCH   1  29
ATOM     29  C   UNL A   1      33.718  28.285  25.692  1.00  0.00     0.021 C 
BRANCH  29  30
ATOM     30  C   UNL A   1      33.712  28.464  27.204  1.00  0.00     0.116 C 
BRANCH  30  31
ATOM     31  N   UNL A   1      33.573  29.859  27.585  1.00  0.00    -0.352 N 
ATOM     32  C   UNL A   1      34.464  30.662  28.252  1.00  0.00     0.251 C 
ATOM     33  H   UNL A   1      32.723  30.287  27.331  1.00  0.00     0.163 HD
ATOM     34  O   UNL A   1      34.106  31.758  28.678  1.00  0.00    -0.269 OA
BRANCH  32  35
ATOM     35  C   UNL A   1      35.847  30.191  28.471  1.00  0.00     0.039 A 
ATOM     36  C   UNL A   1      36.760  30.257  27.416  1.00  0.00     0.014 A 
ATOM     37  C   UNL A   1      36.244  29.701  29.718  1.00  0.00     0.014 A 
ATOM     38  C   UNL A   1      38.089  29.883  27.632  1.00  0.00     0.010 A 
ATOM     39  C   UNL A   1      37.584  29.408  29.952  1.00  0.00     0.010 A 
ATOM     40  C   UNL A   1      38.519  29.490  28.909  1.00  0.00    -0.014 A 
BRANCH  40  41
ATOM     41  C   UNL A   1      39.943  29.161  29.173  1.00  0.00     0.031 A 
ATOM     42  C   UNL A   1      40.863  30.198  29.760  1.00  0.00     0.074 A 
ATOM     43  C   UNL A   1      40.420  27.947  28.832  1.00  0.00     0.049 A 
ATOM     44  N   UNL A   1      42.144  30.116  30.014  1.00  0.00    -0.248 NA
ATOM     45  C   UNL A   1      40.272  31.508  30.079  1.00  0.00     0.031 C 
ATOM     46  C   UNL A   1      39.638  26.875  28.213  1.00  0.00     0.029 A 
ATOM     47  N   UNL A   1      41.677  27.411  28.952  1.00  0.00    -0.354 N 
ATOM     48  C   UNL A   1      42.512  31.361  30.513  1.00  0.00     0.074 A 
ATOM     49  C   UNL A   1      41.334  32.198  30.468  1.00  0.00     0.031 C 
ATOM     50  C   UNL A   1      40.425  25.803  28.033  1.00  0.00     0.029 A 
ATOM     51  C   UNL A   1      41.777  26.123  28.482  1.00  0.00     0.049 A 
ATOM     52  H   UNL A   1      42.438  27.904  29.337  1.00  0.00     0.167 HD
ATOM     53  C   UNL A   1      43.716  31.760  30.988  1.00  0.00     0.037 A 
ATOM     54  C   UNL A   1      42.837  25.294  28.412  1.00  0.00     0.037 A 
ATOM     55  C   UNL A   1      44.879  30.914  31.043  1.00  0.00     0.049 A 
ATOM     56  C   UNL A   1      44.169  25.767  28.929  1.00  0.00     0.074 A 
ATOM     57  C   UNL A   1      46.131  31.205  31.557  1.00  0.00     0.029 A 
ATOM     58  N   UNL A   1      44.939  29.613  30.563  1.00  0.00    -0.354 N 
ATOM     59  N   UNL A   1      44.483  26.925  29.461  1.00  0.00    -0.248 NA
ATOM     60  C   UNL A   1      45.290  24.822  28.841  1.00  0.00     0.031 C 
ATOM     61  C   UNL A   1      46.962  30.102  31.337  1.00  0.00     0.029 A 
ATOM     62  C   UNL A   1      46.213  29.099  30.742  1.00  0.00     0.049 A 
ATOM     63  H   UNL A   1      44.186  29.126  30.155  1.00  0.00     0.167 HD
ATOM     64  C   UNL A   1      45.831  26.837  29.796  1.00  0.00     0.074 A 
ATOM     65  C   UNL A   1      46.266  25.508  29.420  1.00  0.00     0.031 C 
ATOM     66  C   UNL A   1      46.633  27.772  30.364  1.00  0.00     0.037 A 
BRANCH  53  67
ATOM     67  C   UNL A   1      43.834  33.175  31.487  1.00  0.00     0.058 A 
ATOM     68  C   UNL A   1      44.229  34.227  30.643  1.00  0.00     0.135 A 
ATOM     69  C   UNL A   1      43.519  33.492  32.819  1.00  0.00     0.135 A 
ATOM     70  F   UNL A   1      44.557  33.982  29.365  1.00  0.00    -0.206 F 
ATOM     71  C   UNL A   1      44.341  35.533  31.110  1.00  0.00     0.059 A 
ATOM     72  C   UNL A   1      43.592  34.796  33.298  1.00  0.00     0.059 A 
ATOM     73  F   UNL A   1      43.135  32.528  33.670  1.00  0.00    -0.206 F 
ATOM     74  C   UNL A   1      44.019  35.808  32.440  1.00  0.00     0.060 A 
BRANCH  74  75
ATOM     75  S   UNL A   1      44.169  37.508  33.027  1.00  0.00     0.124 S 
ATOM     76  O   UNL A   1      43.042  37.596  33.952  1.00  0.00    -0.237 OA
ATOM     77  O   UNL A   1      45.492  37.510  33.641  1.00  0.00    -0.237 OA
ATOM     78  O   UNL A   1      44.042  38.302  31.809  1.00  0.00    -0.744 OA
ENDBRANCH  74  75
ENDBRANCH  53  67
BRANCH  54  79
ATOM     79  C   UNL A   1      42.677  23.928  27.847  1.00  0.00     0.058 A 
ATOM     80  C   UNL A   1      42.512  22.815  28.684  1.00  0.00     0.135 A 
ATOM     81  C   UNL A   1      42.672  23.708  26.460  1.00  0.00     0.135 A 
ATOM     82  F   UNL A   1      42.516  22.971  30.017  1.00  0.00    -0.206 F 
ATOM     83  C   UNL A   1      42.363  21.530  28.170  1.00  0.00     0.059 A 
ATOM     84  C   UNL A   1      42.497  22.437  25.921  1.00  0.00     0.059 A 
ATOM     85  F   UNL A   1      42.810  24.740  25.614  1.00  0.00    -0.206 F 
ATOM     86  C   UNL A   1      42.353  21.353  26.786  1.00  0.00     0.060 A 
BRANCH  86  87
ATOM     87  S   UNL A   1      42.109  19.688  26.129  1.00  0.00     0.124 S 
ATOM     88  O   UNL A   1      43.035  19.679  25.003  1.00  0.00    -0.237 OA
ATOM     89  O   UNL A   1      42.478  18.853  27.268  1.00  0.00    -0.237 OA
ATOM     90  O   UNL A   1      40.691  19.670  25.780  1.00  0.00    -0.744 OA
ENDBRANCH  86  87
ENDBRANCH  54  79
BRANCH  66  91
ATOM     91  C   UNL A   1      48.060  27.383  30.643  1.00  0.00     0.058 A 
ATOM     92  C   UNL A   1      48.437  26.762  31.842  1.00  0.00     0.135 A 
ATOM     93  C   UNL A   1      49.054  27.589  29.670  1.00  0.00     0.135 A 
ATOM     94  F   UNL A   1      47.529  26.548  32.808  1.00  0.00    -0.206 F 
ATOM     95  C   UNL A   1      49.754  26.379  32.080  1.00  0.00     0.059 A 
ATOM     96  C   UNL A   1      50.370  27.185  29.874  1.00  0.00     0.059 A 
ATOM     97  F   UNL A   1      48.747  28.170  28.500  1.00  0.00    -0.206 F 
ATOM     98  C   UNL A   1      50.712  26.592  31.087  1.00  0.00     0.060 A 
BRANCH  98  99
ATOM     99  S   UNL A   1      52.408  26.056  31.396  1.00  0.00     0.124 S 
ATOM    100  O   UNL A   1      52.198  24.753  32.016  1.00  0.00    -0.237 OA
ATOM    101  O   UNL A   1      52.978  26.035  30.052  1.00  0.00    -0.237 OA
ATOM    102  O   UNL A   1      52.937  27.093  32.278  1.00  0.00    -0.744 OA
ENDBRANCH  98  99
ENDBRANCH  66  91
ENDBRANCH  40  41
ENDBRANCH  32  35
ENDBRANCH  30  31
ENDBRANCH  29  30
ENDBRANCH   1  29
TORSDOF 18
ENDMDL
MODEL 2
REMARK VINA RESULT:     -11.3      2.937      4.280
REMARK SMILES C[C@H]1[C@@H](C(=O)NCCCCCCNC(=O)c2ccc(-c3c4nc(c(-c5c(F)cc(S(=O)(=O)[O-])cc5F)c5ccc([nH]5)c(-c5c(F)cc(S(=O)(=O)[O-])cc5F)c5nc(c(-c6c(F)cc(S(=O)(=O)[O-])cc6F)c6ccc3[nH]6)C=C5)C=C4)cc2)CCN1C(=O)N[C@@H]1CC[N@H+]2CCCC[C@H]12
REMARK SMILES IDX 10 1 9 2 8 3 7 4 6 5 4 6 5 7 3 9 1 10 2 11 84 12 82 13 83 14
REMARK SMILES IDX 85 15 86 16 87 17 88 19 89 20 96 21 90 22 91 23 95 24 92 25
REMARK SMILES IDX 94 27 93 28 11 29 12 30 13 31 14 32 15 34 16 35 17 36 81 37
REMARK SMILES IDX 18 38 80 39 19 40 20 41 21 42 74 43 22 44 79 45 73 46 75 47
REMARK SMILES IDX 23 48 78 49 72 50 71 51 24 53 58 54 37 55 57 56 38 57 41 58
REMARK SMILES IDX 56 59 76 60 39 61 40 62 55 64 77 65 42 66 25 67 26 68 35 69
REMARK SMILES IDX 27 70 28 71 34 72 36 73 29 74 30 75 31 76 32 77 33 78 59 79
REMARK SMILES IDX 60 80 69 81 61 82 62 83 68 84 70 85 63 86 64 87 65 88 66 89
REMARK SMILES IDX 67 90 43 91 44 92 53 93 45 94 46 95 52 96 54 97 47 98 48 99
REMARK SMILES IDX 49 100 50 101 51 102
REMARK H PARENT 6 8 87 18 91 26 13 33 75 52 41 63
REMARK Flexibility Score: inf
ROOT
ATOM      1  C   UNL A   1      34.510  32.372  28.453  1.00  0.00     0.002 C 
ENDROOT
BRANCH   1   2
ATOM      2  C   UNL A   1      34.322  30.988  27.823  1.00  0.00     0.002 C 
BRANCH   2   3
ATOM      3  C   UNL A   1      33.483  30.961  26.538  1.00  0.00     0.021 C 
BRANCH   3   4
ATOM      4  C   UNL A   1      32.028  30.543  26.741  1.00  0.00     0.116 C 
BRANCH   4   5
ATOM      5  N   UNL A   1      31.313  30.461  25.481  1.00  0.00    -0.356 N 
ATOM      6  C   UNL A   1      31.124  29.412  24.637  1.00  0.00     0.225 C 
ATOM      7  O   UNL A   1      30.321  29.568  23.719  1.00  0.00    -0.275 OA
ATOM      8  H   UNL A   1      30.896  31.304  25.189  1.00  0.00     0.163 HD
BRANCH   6   9
ATOM      9  C   UNL A   1      31.830  28.100  24.925  1.00  0.00     0.102 C 
ATOM     10  C   UNL A   1      33.570  28.818  23.126  1.00  0.00     0.032 C 
ATOM     11  C   UNL A   1      33.063  27.733  24.068  1.00  0.00     0.096 C 
ATOM     12  N   UNL A   1      32.710  26.506  23.357  1.00  0.00    -0.321 N 
ATOM     13  C   UNL A   1      30.846  26.946  24.720  1.00  0.00     0.037 C 
ATOM     14  C   UNL A   1      31.266  26.335  23.395  1.00  0.00     0.122 C 
BRANCH  12  15
ATOM     15  C   UNL A   1      33.468  25.618  22.659  1.00  0.00     0.318 C 
ATOM     16  O   UNL A   1      33.529  25.662  21.426  1.00  0.00    -0.249 OA
ATOM     17  N   UNL A   1      34.190  24.637  23.237  1.00  0.00    -0.329 N 
ATOM     18  H   UNL A   1      34.755  24.171  22.581  1.00  0.00     0.165 HD
BRANCH  17  19
ATOM     19  C   UNL A   1      34.357  24.080  24.577  1.00  0.00     0.147 C 
ATOM     20  C   UNL A   1      35.844  23.870  24.924  1.00  0.00     0.092 C 
ATOM     21  C   UNL A   1      33.751  22.674  24.776  1.00  0.00     0.207 C 
ATOM     22  C   UNL A   1      35.966  22.433  25.410  1.00  0.00     0.264 C 
ATOM     23  N   UNL A   1      34.905  21.766  24.670  1.00  0.00    -0.331 N 
ATOM     24  C   UNL A   1      32.644  22.202  23.841  1.00  0.00     0.067 C 
ATOM     25  C   UNL A   1      34.576  20.439  25.178  1.00  0.00     0.262 C 
ATOM     26  H   UNL A   1      35.196  21.596  23.707  1.00  0.00     0.348 HD
ATOM     27  C   UNL A   1      32.223  20.785  24.250  1.00  0.00     0.012 C 
ATOM     28  C   UNL A   1      33.430  19.843  24.353  1.00  0.00     0.062 C 
ENDBRANCH  17  19
ENDBRANCH  12  15
ENDBRANCH   6   9
ENDBRANCH   4   5
ENDBRANCH   3   4
ENDBRANCH   2   3
ENDBRANCH   1   2
BRANCH   1  29
ATOM     29  C   UNL A   1      35.942  32.905  28.427  1.00  0.00     0.021 C 
BRANCH  29  30
ATOM     30  C   UNL A   1      36.609  32.980  29.794  1.00  0.00     0.116 C 
BRANCH  30  31
ATOM     31  N   UNL A   1      36.153  31.921  30.680  1.00  0.00    -0.352 N 
ATOM     32  C   UNL A   1      36.718  30.693  30.914  1.00  0.00     0.251 C 
ATOM     33  H   UNL A   1      35.326  32.112  31.179  1.00  0.00     0.163 HD
ATOM     34  O   UNL A   1      36.091  29.836  31.535  1.00  0.00    -0.269 OA
BRANCH  32  35
ATOM     35  C   UNL A   1      38.071  30.402  30.398  1.00  0.00     0.039 A 
ATOM     36  C   UNL A   1      39.143  30.368  31.291  1.00  0.00     0.014 A 
ATOM     37  C   UNL A   1      38.276  30.149  29.039  1.00  0.00     0.014 A 
ATOM     38  C   UNL A   1      40.415  30.022  30.828  1.00  0.00     0.010 A 
ATOM     39  C   UNL A   1      39.525  29.725  28.595  1.00  0.00     0.010 A 
ATOM     40  C   UNL A   1      40.609  29.664  29.483  1.00  0.00    -0.014 A 
BRANCH  40  41
ATOM     41  C   UNL A   1      41.938  29.222  28.990  1.00  0.00     0.031 A 
ATOM     42  C   UNL A   1      43.069  30.210  28.878  1.00  0.00     0.074 A 
ATOM     43  C   UNL A   1      42.110  27.946  28.592  1.00  0.00     0.049 A 
ATOM     44  N   UNL A   1      44.282  30.027  28.423  1.00  0.00    -0.248 NA
ATOM     45  C   UNL A   1      42.793  31.590  29.307  1.00  0.00     0.031 C 
ATOM     46  C   UNL A   1      41.077  26.909  28.609  1.00  0.00     0.029 A 
ATOM     47  N   UNL A   1      43.214  27.304  28.089  1.00  0.00    -0.354 N 
ATOM     48  C   UNL A   1      44.909  31.265  28.504  1.00  0.00     0.074 A 
ATOM     49  C   UNL A   1      43.923  32.204  28.993  1.00  0.00     0.031 C 
ATOM     50  C   UNL A   1      41.602  25.756  28.165  1.00  0.00     0.029 A 
ATOM     51  C   UNL A   1      42.996  25.980  27.791  1.00  0.00     0.049 A 
ATOM     52  H   UNL A   1      44.082  27.751  27.954  1.00  0.00     0.167 HD
ATOM     53  C   UNL A   1      46.194  31.584  28.221  1.00  0.00     0.037 A 
ATOM     54  C   UNL A   1      43.821  25.052  27.267  1.00  0.00     0.037 A 
ATOM     55  C   UNL A   1      47.172  30.638  27.750  1.00  0.00     0.049 A 
ATOM     56  C   UNL A   1      45.240  25.435  26.943  1.00  0.00     0.074 A 
ATOM     57  C   UNL A   1      48.514  30.848  27.487  1.00  0.00     0.029 A 
ATOM     58  N   UNL A   1      46.914  29.304  27.466  1.00  0.00    -0.354 N 
ATOM     59  N   UNL A   1      45.834  26.595  27.090  1.00  0.00    -0.248 NA
ATOM     60  C   UNL A   1      46.101  24.384  26.385  1.00  0.00     0.031 C 
ATOM     61  C   UNL A   1      49.054  29.658  26.990  1.00  0.00     0.029 A 
ATOM     62  C   UNL A   1      48.065  28.687  27.001  1.00  0.00     0.049 A 
ATOM     63  H   UNL A   1      46.042  28.861  27.577  1.00  0.00     0.167 HD
ATOM     64  C   UNL A   1      47.147  26.406  26.669  1.00  0.00     0.074 A 
ATOM     65  C   UNL A   1      47.261  25.017  26.277  1.00  0.00     0.031 C 
ATOM     66  C   UNL A   1      48.165  27.301  26.615  1.00  0.00     0.037 A 
BRANCH  53  67
ATOM     67  C   UNL A   1      46.617  33.016  28.414  1.00  0.00     0.058 A 
ATOM     68  C   UNL A   1      46.524  33.962  27.379  1.00  0.00     0.135 A 
ATOM     69  C   UNL A   1      47.092  33.459  29.660  1.00  0.00     0.135 A 
ATOM     70  F   UNL A   1      46.091  33.593  26.164  1.00  0.00    -0.206 F 
ATOM     71  C   UNL A   1      46.919  35.283  27.562  1.00  0.00     0.059 A 
ATOM     72  C   UNL A   1      47.462  34.783  29.875  1.00  0.00     0.059 A 
ATOM     73  F   UNL A   1      47.202  32.599  30.685  1.00  0.00    -0.206 F 
ATOM     74  C   UNL A   1      47.387  35.684  28.814  1.00  0.00     0.060 A 
BRANCH  74  75
ATOM     75  S   UNL A   1      47.894  37.403  29.032  1.00  0.00     0.124 S 
ATOM     76  O   UNL A   1      46.617  38.047  29.328  1.00  0.00    -0.237 OA
ATOM     77  O   UNL A   1      48.829  37.312  30.148  1.00  0.00    -0.237 OA
ATOM     78  O   UNL A   1      48.486  37.749  27.745  1.00  0.00    -0.744 OA
ENDBRANCH  74  75
ENDBRANCH  53  67
BRANCH  54  79
ATOM     79  C   UNL A   1      43.329  23.668  27.034  1.00  0.00     0.058 A 
ATOM     80  C   UNL A   1      43.009  23.222  25.743  1.00  0.00     0.135 A 
ATOM     81  C   UNL A   1      43.183  22.758  28.094  1.00  0.00     0.135 A 
ATOM     82  F   UNL A   1      43.125  24.056  24.698  1.00  0.00    -0.206 F 
ATOM     83  C   UNL A   1      42.545  21.931  25.511  1.00  0.00     0.059 A 
ATOM     84  C   UNL A   1      42.749  21.452  27.883  1.00  0.00     0.059 A 
ATOM     85  F   UNL A   1      43.491  23.127  29.346  1.00  0.00    -0.206 F 
ATOM     86  C   UNL A   1      42.422  21.052  26.588  1.00  0.00     0.060 A 
BRANCH  86  87
ATOM     87  S   UNL A   1      41.868  19.363  26.267  1.00  0.00     0.124 S 
ATOM     88  O   UNL A   1      42.590  19.046  25.041  1.00  0.00    -0.237 OA
ATOM     89  O   UNL A   1      42.310  18.664  27.469  1.00  0.00    -0.237 OA
ATOM     90  O   UNL A   1      40.421  19.506  26.130  1.00  0.00    -0.744 OA
ENDBRANCH  86  87
ENDBRANCH  54  79
BRANCH  66  91
ATOM     91  C   UNL A   1      49.503  26.802  26.139  1.00  0.00     0.058 A 
ATOM     92  C   UNL A   1      49.927  26.972  24.813  1.00  0.00     0.135 A 
ATOM     93  C   UNL A   1      50.393  26.192  27.040  1.00  0.00     0.135 A 
ATOM     94  F   UNL A   1      49.113  27.541  23.910  1.00  0.00    -0.206 F 
ATOM     95  C   UNL A   1      51.178  26.534  24.389  1.00  0.00     0.059 A 
ATOM     96  C   UNL A   1      51.661  25.776  26.645  1.00  0.00     0.059 A 
ATOM     97  F   UNL A   1      50.042  26.015  28.323  1.00  0.00    -0.206 F 
ATOM     98  C   UNL A   1      52.039  25.941  25.314  1.00  0.00     0.060 A 
BRANCH  98  99
ATOM     99  S   UNL A   1      53.672  25.411  24.756  1.00  0.00     0.124 S 
ATOM    100  O   UNL A   1      53.733  25.996  23.422  1.00  0.00    -0.237 OA
ATOM    101  O   UNL A   1      54.553  26.014  25.753  1.00  0.00    -0.237 OA
ATOM    102  O   UNL A   1      53.591  23.954  24.800  1.00  0.00    -0.744 OA
ENDBRANCH  98  99
ENDBRANCH  66  91
ENDBRANCH  40  41
ENDBRANCH  32  35
ENDBRANCH  30  31
ENDBRANCH  29  30
ENDBRANCH   1  29
TORSDOF 18
ENDMDL
MODEL 3
REMARK VINA RESULT:     -11.3      4.616     10.354
REMARK SMILES C[C@H]1[C@@H](C(=O)NCCCCCCNC(=O)c2ccc(-c3c4nc(c(-c5c(F)cc(S(=O)(=O)[O-])cc5F)c5ccc([nH]5)c(-c5c(F)cc(S(=O)(=O)[O-])cc5F)c5nc(c(-c6c(F)cc(S(=O)(=O)[O-])cc6F)c6ccc3[nH]6)C=C5)C=C4)cc2)CCN1C(=O)N[C@@H]1CC[N@H+]2CCCC[C@H]12
REMARK SMILES IDX 10 1 9 2 8 3 7 4 6 5 4 6 5 7 3 9 1 10 2 11 84 12 82 13 83 14
REMARK SMILES IDX 85 15 86 16 87 17 88 19 89 20 96 21 90 22 91 23 95 24 92 25
REMARK SMILES IDX 94 27 93 28 11 29 12 30 13 31 14 32 15 34 16 35 17 36 81 37
REMARK SMILES IDX 18 38 80 39 19 40 20 41 21 42 74 43 22 44 79 45 73 46 75 47
REMARK SMILES IDX 23 48 78 49 72 50 71 51 24 53 58 54 37 55 57 56 38 57 41 58
REMARK SMILES IDX 56 59 76 60 39 61 40 62 55 64 77 65 42 66 25 67 26 68 35 69
REMARK SMILES IDX 27 70 28 71 34 72 36 73 29 74 30 75 31 76 32 77 33 78 59 79
REMARK SMILES IDX 60 80 69 81 61 82 62 83 68 84 70 85 63 86 64 87 65 88 66 89
REMARK SMILES IDX 67 90 43 91 44 92 53 93 45 94 46 95 52 96 54 97 47 98 48 99
REMARK SMILES IDX 49 100 50 101 51 102
REMARK H PARENT 6 8 87 18 91 26 13 33 75 52 41 63
REMARK Flexibility Score: inf
ROOT
ATOM      1  C   UNL A   1      38.904  23.542  26.801  1.00  0.00     0.002 C 
ENDROOT
BRANCH   1   2
ATOM      2  C   UNL A   1      37.790  23.012  25.893  1.00  0.00     0.002 C 
BRANCH   2   3
ATOM      3  C   UNL A   1      37.705  21.484  25.783  1.00  0.00     0.021 C 
BRANCH   3   4
ATOM      4  C   UNL A   1      36.902  20.979  24.586  1.00  0.00     0.116 C 
BRANCH   4   5
ATOM      5  N   UNL A   1      35.819  20.106  24.997  1.00  0.00    -0.356 N 
ATOM      6  C   UNL A   1      34.474  20.311  25.016  1.00  0.00     0.225 C 
ATOM      7  O   UNL A   1      33.760  19.337  25.242  1.00  0.00    -0.275 OA
ATOM      8  H   UNL A   1      36.103  19.218  25.314  1.00  0.00     0.163 HD
BRANCH   6   9
ATOM      9  C   UNL A   1      33.936  21.687  24.670  1.00  0.00     0.102 C 
ATOM     10  C   UNL A   1      34.264  22.280  27.184  1.00  0.00     0.032 C 
ATOM     11  C   UNL A   1      33.730  22.699  25.821  1.00  0.00     0.096 C 
ATOM     12  N   UNL A   1      32.298  22.987  25.853  1.00  0.00    -0.321 N 
ATOM     13  C   UNL A   1      32.558  21.538  24.021  1.00  0.00     0.037 C 
ATOM     14  C   UNL A   1      31.589  21.955  25.114  1.00  0.00     0.122 C 
BRANCH  12  15
ATOM     15  C   UNL A   1      31.587  23.959  26.487  1.00  0.00     0.318 C 
ATOM     16  O   UNL A   1      30.698  23.673  27.296  1.00  0.00    -0.249 OA
ATOM     17  N   UNL A   1      31.782  25.277  26.287  1.00  0.00    -0.329 N 
ATOM     18  H   UNL A   1      31.252  25.819  26.914  1.00  0.00     0.165 HD
BRANCH  17  19
ATOM     19  C   UNL A   1      32.568  26.117  25.387  1.00  0.00     0.147 C 
ATOM     20  C   UNL A   1      33.409  27.150  26.163  1.00  0.00     0.092 C 
ATOM     21  C   UNL A   1      31.737  26.995  24.427  1.00  0.00     0.207 C 
ATOM     22  C   UNL A   1      33.112  28.500  25.529  1.00  0.00     0.264 C 
ATOM     23  N   UNL A   1      31.746  28.326  25.058  1.00  0.00    -0.331 N 
ATOM     24  C   UNL A   1      30.304  26.594  24.104  1.00  0.00     0.067 C 
ATOM     25  C   UNL A   1      31.309  29.353  24.119  1.00  0.00     0.262 C 
ATOM     26  H   UNL A   1      31.088  28.407  25.834  1.00  0.00     0.348 HD
ATOM     27  C   UNL A   1      29.707  27.625  23.138  1.00  0.00     0.012 C 
ATOM     28  C   UNL A   1      29.876  29.056  23.662  1.00  0.00     0.062 C 
ENDBRANCH  17  19
ENDBRANCH  12  15
ENDBRANCH   6   9
ENDBRANCH   4   5
ENDBRANCH   3   4
ENDBRANCH   2   3
ENDBRANCH   1   2
BRANCH   1  29
ATOM     29  C   UNL A   1      40.046  22.560  27.063  1.00  0.00     0.021 C 
BRANCH  29  30
ATOM     30  C   UNL A   1      41.400  23.216  27.291  1.00  0.00     0.116 C 
BRANCH  30  31
ATOM     31  N   UNL A   1      41.796  24.048  26.166  1.00  0.00    -0.352 N 
ATOM     32  C   UNL A   1      41.845  25.417  26.084  1.00  0.00     0.251 C 
ATOM     33  H   UNL A   1      42.065  23.563  25.352  1.00  0.00     0.163 HD
ATOM     34  O   UNL A   1      42.002  25.963  24.994  1.00  0.00    -0.269 OA
BRANCH  32  35
ATOM     35  C   UNL A   1      41.688  26.227  27.310  1.00  0.00     0.039 A 
ATOM     36  C   UNL A   1      42.667  27.169  27.630  1.00  0.00     0.014 A 
ATOM     37  C   UNL A   1      40.567  26.066  28.130  1.00  0.00     0.014 A 
ATOM     38  C   UNL A   1      42.493  27.991  28.746  1.00  0.00     0.010 A 
ATOM     39  C   UNL A   1      40.357  26.940  29.192  1.00  0.00     0.010 A 
ATOM     40  C   UNL A   1      41.320  27.908  29.515  1.00  0.00    -0.014 A 
BRANCH  40  41
ATOM     41  C   UNL A   1      41.086  28.824  30.659  1.00  0.00     0.031 A 
ATOM     42  C   UNL A   1      41.923  28.708  31.905  1.00  0.00     0.074 A 
ATOM     43  C   UNL A   1      40.083  29.723  30.598  1.00  0.00     0.049 A 
ATOM     44  N   UNL A   1      41.836  29.381  33.024  1.00  0.00    -0.248 NA
ATOM     45  C   UNL A   1      42.980  27.683  31.904  1.00  0.00     0.031 C 
ATOM     46  C   UNL A   1      39.173  29.898  29.464  1.00  0.00     0.029 A 
ATOM     47  N   UNL A   1      39.655  30.654  31.511  1.00  0.00    -0.354 N 
ATOM     48  C   UNL A   1      42.817  28.858  33.859  1.00  0.00     0.074 A 
ATOM     49  C   UNL A   1      43.445  27.771  33.141  1.00  0.00     0.031 C 
ATOM     50  C   UNL A   1      38.315  30.893  29.737  1.00  0.00     0.029 A 
ATOM     51  C   UNL A   1      38.583  31.398  31.081  1.00  0.00     0.049 A 
ATOM     52  H   UNL A   1      40.077  30.777  32.393  1.00  0.00     0.167 HD
ATOM     53  C   UNL A   1      43.177  29.262  35.100  1.00  0.00     0.037 A 
ATOM     54  C   UNL A   1      37.887  32.372  31.700  1.00  0.00     0.037 A 
ATOM     55  C   UNL A   1      42.556  30.357  35.800  1.00  0.00     0.049 A 
ATOM     56  C   UNL A   1      38.294  32.792  33.087  1.00  0.00     0.074 A 
ATOM     57  C   UNL A   1      42.883  30.882  37.038  1.00  0.00     0.029 A 
ATOM     58  N   UNL A   1      41.476  31.090  35.329  1.00  0.00    -0.354 N 
ATOM     59  N   UNL A   1      39.268  32.332  33.835  1.00  0.00    -0.248 NA
ATOM     60  C   UNL A   1      37.510  33.866  33.713  1.00  0.00     0.031 C 
ATOM     61  C   UNL A   1      41.967  31.894  37.340  1.00  0.00     0.029 A 
ATOM     62  C   UNL A   1      41.105  32.044  36.264  1.00  0.00     0.049 A 
ATOM     63  H   UNL A   1      41.037  30.954  34.458  1.00  0.00     0.167 HD
ATOM     64  C   UNL A   1      39.232  33.079  35.008  1.00  0.00     0.074 A 
ATOM     65  C   UNL A   1      38.150  34.029  34.863  1.00  0.00     0.031 C 
ATOM     66  C   UNL A   1      40.025  32.986  36.106  1.00  0.00     0.037 A 
BRANCH  53  67
ATOM     67  C   UNL A   1      44.295  28.519  35.780  1.00  0.00     0.058 A 
ATOM     68  C   UNL A   1      45.642  28.874  35.591  1.00  0.00     0.135 A 
ATOM     69  C   UNL A   1      44.019  27.458  36.658  1.00  0.00     0.135 A 
ATOM     70  F   UNL A   1      45.968  29.870  34.753  1.00  0.00    -0.206 F 
ATOM     71  C   UNL A   1      46.672  28.182  36.219  1.00  0.00     0.059 A 
ATOM     72  C   UNL A   1      45.032  26.773  37.322  1.00  0.00     0.059 A 
ATOM     73  F   UNL A   1      42.751  27.076  36.876  1.00  0.00    -0.206 F 
ATOM     74  C   UNL A   1      46.357  27.133  37.084  1.00  0.00     0.060 A 
BRANCH  74  75
ATOM     75  S   UNL A   1      47.708  26.248  37.890  1.00  0.00     0.124 S 
ATOM     76  O   UNL A   1      48.681  26.154  36.806  1.00  0.00    -0.237 OA
ATOM     77  O   UNL A   1      48.061  27.147  38.982  1.00  0.00    -0.237 OA
ATOM     78  O   UNL A   1      47.095  24.985  38.292  1.00  0.00    -0.744 OA
ENDBRANCH  74  75
ENDBRANCH  53  67
BRANCH  54  79
ATOM     79  C   UNL A   1      36.746  33.027  31.006  1.00  0.00     0.058 A 
ATOM     80  C   UNL A   1      35.422  32.768  31.389  1.00  0.00     0.135 A 
ATOM     81  C   UNL A   1      36.956  33.934  29.955  1.00  0.00     0.135 A 
ATOM     82  F   UNL A   1      35.168  31.903  32.384  1.00  0.00    -0.206 F 
ATOM     83  C   UNL A   1      34.345  33.371  30.747  1.00  0.00     0.059 A 
ATOM     84  C   UNL A   1      35.896  34.572  29.316  1.00  0.00     0.059 A 
ATOM     85  F   UNL A   1      38.203  34.230  29.559  1.00  0.00    -0.206 F 
ATOM     86  C   UNL A   1      34.593  34.275  29.713  1.00  0.00     0.060 A 
BRANCH  86  87
ATOM     87  S   UNL A   1      33.190  35.090  28.921  1.00  0.00     0.124 S 
ATOM     88  O   UNL A   1      32.313  35.337  30.059  1.00  0.00    -0.237 OA
ATOM     89  O   UNL A   1      33.815  36.268  28.328  1.00  0.00    -0.237 OA
ATOM     90  O   UNL A   1      32.718  34.091  27.965  1.00  0.00    -0.744 OA
ENDBRANCH  86  87
ENDBRANCH  54  79
BRANCH  66  91
ATOM     91  C   UNL A   1      39.772  33.956  37.228  1.00  0.00     0.058 A 
ATOM     92  C   UNL A   1      39.010  33.605  38.352  1.00  0.00     0.135 A 
ATOM     93  C   UNL A   1      40.347  35.238  37.201  1.00  0.00     0.135 A 
ATOM     94  F   UNL A   1      38.431  32.396  38.426  1.00  0.00    -0.206 F 
ATOM     95  C   UNL A   1      38.806  34.498  39.399  1.00  0.00     0.059 A 
ATOM     96  C   UNL A   1      40.183  36.135  38.251  1.00  0.00     0.059 A 
ATOM     97  F   UNL A   1      41.095  35.622  36.154  1.00  0.00    -0.206 F 
ATOM     98  C   UNL A   1      39.400  35.760  39.341  1.00  0.00     0.060 A 
BRANCH  98  99
ATOM     99  S   UNL A   1      39.156  36.894  40.724  1.00  0.00     0.124 S 
ATOM    100  O   UNL A   1      38.414  36.059  41.662  1.00  0.00    -0.237 OA
ATOM    101  O   UNL A   1      40.527  37.216  41.109  1.00  0.00    -0.237 OA
ATOM    102  O   UNL A   1      38.403  37.996  40.132  1.00  0.00    -0.744 OA
ENDBRANCH  98  99
ENDBRANCH  66  91
ENDBRANCH  40  41
ENDBRANCH  32  35
ENDBRANCH  30  31
ENDBRANCH  29  30
ENDBRANCH   1  29
TORSDOF 18
ENDMDL
