MODEL 1
REMARK VINA RESULT:     -11.7      0.000      0.000
REMARK SMILES COc1ccc2c(c1)[C@]1(CCC2)C[C@H]1C(=O)NCCCCCCNC(=O)c1ccc(-c2c3nc(c(-c4c(F)cc(S(=O)(=O)[O-])cc4F)c4ccc([nH]4)c(-c4c(F)cc(S(=O)(=O)[O-])cc4F)c4nc(c(-c5c(F)cc(S(=O)(=O)[O-])cc5F)c5ccc2[nH]5)C=C4)C=C3)cc1
REMARK SMILES IDX 21 1 20 2 19 3 18 4 17 5 15 6 16 7 14 9 3 10 4 11 8 12 5 13
REMARK SMILES IDX 7 14 6 15 9 16 12 17 10 18 13 19 11 20 2 21 1 22 22 23 23 24
REMARK SMILES IDX 24 25 25 26 26 28 27 29 28 30 92 31 29 32 91 33 30 34 31 35
REMARK SMILES IDX 32 36 85 37 33 38 90 39 84 40 86 41 34 42 89 43 83 44 82 45
REMARK SMILES IDX 35 47 69 48 48 49 68 50 49 51 52 52 67 53 87 54 50 55 51 56
REMARK SMILES IDX 66 58 88 59 53 60 36 61 37 62 46 63 38 64 39 65 45 66 47 67
REMARK SMILES IDX 40 68 41 69 42 70 43 71 44 72 70 73 71 74 80 75 72 76 73 77
REMARK SMILES IDX 79 78 81 79 74 80 75 81 76 82 77 83 78 84 54 85 55 86 64 87
REMARK SMILES IDX 56 88 57 89 63 90 65 91 58 92 59 93 60 94 61 95 62 96
REMARK H PARENT 17 8 24 27 86 46 52 57
REMARK Flexibility Score: inf
ROOT
ATOM      1  C   UNL A   1      40.404  21.556  26.233  1.00  0.00     0.002 C 
ENDROOT
BRANCH   1   2
ATOM      2  C   UNL A   1      38.903  21.843  26.123  1.00  0.00     0.002 C 
BRANCH   2   3
ATOM      3  C   UNL A   1      38.458  23.308  26.159  1.00  0.00     0.021 C 
BRANCH   3   4
ATOM      4  C   UNL A   1      36.966  23.584  26.009  1.00  0.00     0.116 C 
BRANCH   4   5
ATOM      5  N   UNL A   1      36.110  22.463  26.338  1.00  0.00    -0.356 N 
ATOM      6  C   UNL A   1      34.741  22.431  26.384  1.00  0.00     0.224 C 
ATOM      7  O   UNL A   1      34.147  21.367  26.507  1.00  0.00    -0.275 OA
ATOM      8  H   UNL A   1      36.568  21.619  26.555  1.00  0.00     0.163 HD
BRANCH   6   9
ATOM      9  C   UNL A   1      33.997  23.712  26.413  1.00  0.00     0.090 C 
ATOM     10  C   UNL A   1      33.547  28.117  26.259  1.00  0.00     0.119 A 
ATOM     11  C   UNL A   1      33.808  28.731  25.040  1.00  0.00     0.047 A 
ATOM     12  C   UNL A   1      33.366  26.733  26.297  1.00  0.00     0.051 A 
ATOM     13  C   UNL A   1      33.839  27.977  23.870  1.00  0.00     0.008 A 
ATOM     14  C   UNL A   1      33.431  25.923  25.137  1.00  0.00    -0.034 A 
ATOM     15  C   UNL A   1      33.625  26.591  23.908  1.00  0.00    -0.044 A 
ATOM     16  C   UNL A   1      33.330  24.376  25.195  1.00  0.00     0.008 C 
ATOM     17  C   UNL A   1      33.637  25.817  22.612  1.00  0.00     0.036 C 
ATOM     18  C   UNL A   1      33.361  23.659  23.848  1.00  0.00     0.013 C 
ATOM     19  C   UNL A   1      32.492  23.712  26.268  1.00  0.00     0.027 C 
ATOM     20  C   UNL A   1      32.820  24.534  22.722  1.00  0.00     0.006 C 
BRANCH  10  21
ATOM     21  O   UNL A   1      33.516  28.958  27.339  1.00  0.00    -0.497 OA
ATOM     22  C   UNL A   1      34.021  30.273  27.138  1.00  0.00     0.278 C 
ENDBRANCH  10  21
ENDBRANCH   6   9
ENDBRANCH   4   5
ENDBRANCH   3   4
ENDBRANCH   2   3
ENDBRANCH   1   2
BRANCH   1  23
ATOM     23  C   UNL A   1      41.141  22.165  27.423  1.00  0.00     0.021 C 
BRANCH  23  24
ATOM     24  C   UNL A   1      42.246  23.159  27.092  1.00  0.00     0.116 C 
BRANCH  24  25
ATOM     25  N   UNL A   1      41.898  24.082  26.021  1.00  0.00    -0.352 N 
ATOM     26  C   UNL A   1      41.477  25.391  26.103  1.00  0.00     0.251 C 
ATOM     27  H   UNL A   1      41.976  23.718  25.110  1.00  0.00     0.163 HD
ATOM     28  O   UNL A   1      41.144  25.995  25.087  1.00  0.00    -0.269 OA
BRANCH  26  29
ATOM     29  C   UNL A   1      41.380  26.051  27.425  1.00  0.00     0.039 A 
ATOM     30  C   UNL A   1      40.207  25.977  28.179  1.00  0.00     0.014 A 
ATOM     31  C   UNL A   1      42.464  26.802  27.891  1.00  0.00     0.014 A 
ATOM     32  C   UNL A   1      40.048  26.803  29.288  1.00  0.00     0.010 A 
ATOM     33  C   UNL A   1      42.331  27.567  29.054  1.00  0.00     0.010 A 
ATOM     34  C   UNL A   1      41.100  27.625  29.727  1.00  0.00    -0.014 A 
BRANCH  34  35
ATOM     35  C   UNL A   1      40.876  28.564  30.860  1.00  0.00     0.031 A 
ATOM     36  C   UNL A   1      41.797  28.558  32.054  1.00  0.00     0.074 A 
ATOM     37  C   UNL A   1      39.885  29.473  30.783  1.00  0.00     0.049 A 
ATOM     38  N   UNL A   1      41.767  29.314  33.123  1.00  0.00    -0.248 NA
ATOM     39  C   UNL A   1      42.894  27.576  32.052  1.00  0.00     0.031 C 
ATOM     40  C   UNL A   1      38.938  29.595  29.673  1.00  0.00     0.029 A 
ATOM     41  N   UNL A   1      39.524  30.482  31.640  1.00  0.00    -0.354 N 
ATOM     42  C   UNL A   1      42.823  28.892  33.923  1.00  0.00     0.074 A 
ATOM     43  C   UNL A   1      43.460  27.794  33.231  1.00  0.00     0.031 C 
ATOM     44  C   UNL A   1      38.141  30.652  29.891  1.00  0.00     0.029 A 
ATOM     45  C   UNL A   1      38.479  31.247  31.180  1.00  0.00     0.049 A 
ATOM     46  H   UNL A   1      39.971  30.643  32.502  1.00  0.00     0.167 HD
ATOM     47  C   UNL A   1      43.234  29.383  35.117  1.00  0.00     0.037 A 
ATOM     48  C   UNL A   1      37.853  32.302  31.735  1.00  0.00     0.037 A 
ATOM     49  C   UNL A   1      42.616  30.494  35.795  1.00  0.00     0.049 A 
ATOM     50  C   UNL A   1      38.302  32.803  33.078  1.00  0.00     0.074 A 
ATOM     51  C   UNL A   1      42.970  31.069  37.003  1.00  0.00     0.029 A 
ATOM     52  N   UNL A   1      41.520  31.201  35.323  1.00  0.00    -0.354 N 
ATOM     53  N   UNL A   1      39.293  32.379  33.824  1.00  0.00    -0.248 NA
ATOM     54  C   UNL A   1      37.540  33.916  33.661  1.00  0.00     0.031 C 
ATOM     55  C   UNL A   1      42.068  32.104  37.278  1.00  0.00     0.029 A 
ATOM     56  C   UNL A   1      41.177  32.198  36.222  1.00  0.00     0.049 A 
ATOM     57  H   UNL A   1      41.056  31.022  34.474  1.00  0.00     0.167 HD
ATOM     58  C   UNL A   1      39.278  33.177  34.963  1.00  0.00     0.074 A 
ATOM     59  C   UNL A   1      38.193  34.122  34.797  1.00  0.00     0.031 C 
ATOM     60  C   UNL A   1      40.088  33.126  36.049  1.00  0.00     0.037 A 
BRANCH  47  61
ATOM     61  C   UNL A   1      44.412  28.722  35.778  1.00  0.00     0.058 A 
ATOM     62  C   UNL A   1      44.249  27.649  36.668  1.00  0.00     0.135 A 
ATOM     63  C   UNL A   1      45.722  29.129  35.476  1.00  0.00     0.135 A 
ATOM     64  F   UNL A   1      43.018  27.230  37.003  1.00  0.00    -0.206 F 
ATOM     65  C   UNL A   1      45.342  27.013  37.249  1.00  0.00     0.059 A 
ATOM     66  C   UNL A   1      46.831  28.495  36.029  1.00  0.00     0.059 A 
ATOM     67  F   UNL A   1      45.934  30.150  34.631  1.00  0.00    -0.206 F 
ATOM     68  C   UNL A   1      46.630  27.443  36.923  1.00  0.00     0.060 A 
BRANCH  68  69
ATOM     69  S   UNL A   1      48.036  26.600  37.679  1.00  0.00     0.124 S 
ATOM     70  O   UNL A   1      48.541  27.632  38.580  1.00  0.00    -0.237 OA
ATOM     71  O   UNL A   1      47.403  25.454  38.323  1.00  0.00    -0.237 OA
ATOM     72  O   UNL A   1      48.895  26.283  36.543  1.00  0.00    -0.744 OA
ENDBRANCH  68  69
ENDBRANCH  47  61
BRANCH  48  73
ATOM     73  C   UNL A   1      36.731  32.954  31.011  1.00  0.00     0.058 A 
ATOM     74  C   UNL A   1      35.401  32.726  31.389  1.00  0.00     0.135 A 
ATOM     75  C   UNL A   1      36.971  33.848  29.955  1.00  0.00     0.135 A 
ATOM     76  F   UNL A   1      35.123  31.873  32.387  1.00  0.00    -0.206 F 
ATOM     77  C   UNL A   1      34.344  33.364  30.747  1.00  0.00     0.059 A 
ATOM     78  C   UNL A   1      35.933  34.514  29.313  1.00  0.00     0.059 A 
ATOM     79  F   UNL A   1      38.229  34.106  29.566  1.00  0.00    -0.206 F 
ATOM     80  C   UNL A   1      34.621  34.262  29.715  1.00  0.00     0.060 A 
BRANCH  80  81
ATOM     81  S   UNL A   1      33.248  35.142  28.939  1.00  0.00     0.124 S 
ATOM     82  O   UNL A   1      32.705  34.117  28.056  1.00  0.00    -0.237 OA
ATOM     83  O   UNL A   1      32.423  35.496  30.090  1.00  0.00    -0.237 OA
ATOM     84  O   UNL A   1      33.902  36.267  28.278  1.00  0.00    -0.744 OA
ENDBRANCH  80  81
ENDBRANCH  48  73
BRANCH  60  85
ATOM     85  C   UNL A   1      39.836  34.123  37.143  1.00  0.00     0.058 A 
ATOM     86  C   UNL A   1      38.969  33.833  38.209  1.00  0.00     0.135 A 
ATOM     87  C   UNL A   1      40.506  35.356  37.157  1.00  0.00     0.135 A 
ATOM     88  F   UNL A   1      38.299  32.671  38.237  1.00  0.00    -0.206 F 
ATOM     89  C   UNL A   1      38.761  34.740  39.242  1.00  0.00     0.059 A 
ATOM     90  C   UNL A   1      40.330  36.269  38.191  1.00  0.00     0.059 A 
ATOM     91  F   UNL A   1      41.353  35.676  36.165  1.00  0.00    -0.206 F 
ATOM     92  C   UNL A   1      39.448  35.957  39.225  1.00  0.00     0.060 A 
BRANCH  92  93
ATOM     93  S   UNL A   1      39.195  37.110  40.590  1.00  0.00     0.124 S 
ATOM     94  O   UNL A   1      38.647  36.233  41.619  1.00  0.00    -0.237 OA
ATOM     95  O   UNL A   1      40.545  37.608  40.835  1.00  0.00    -0.237 OA
ATOM     96  O   UNL A   1      38.263  38.090  40.038  1.00  0.00    -0.744 OA
ENDBRANCH  92  93
ENDBRANCH  60  85
ENDBRANCH  34  35
ENDBRANCH  26  29
ENDBRANCH  24  25
ENDBRANCH  23  24
ENDBRANCH   1  23
TORSDOF 17
ENDMDL
MODEL 2
REMARK VINA RESULT:     -11.4      6.530     11.862
REMARK SMILES COc1ccc2c(c1)[C@]1(CCC2)C[C@H]1C(=O)NCCCCCCNC(=O)c1ccc(-c2c3nc(c(-c4c(F)cc(S(=O)(=O)[O-])cc4F)c4ccc([nH]4)c(-c4c(F)cc(S(=O)(=O)[O-])cc4F)c4nc(c(-c5c(F)cc(S(=O)(=O)[O-])cc5F)c5ccc2[nH]5)C=C4)C=C3)cc1
REMARK SMILES IDX 21 1 20 2 19 3 18 4 17 5 15 6 16 7 14 9 3 10 4 11 8 12 5 13
REMARK SMILES IDX 7 14 6 15 9 16 12 17 10 18 13 19 11 20 2 21 1 22 22 23 23 24
REMARK SMILES IDX 24 25 25 26 26 28 27 29 28 30 92 31 29 32 91 33 30 34 31 35
REMARK SMILES IDX 32 36 85 37 33 38 90 39 84 40 86 41 34 42 89 43 83 44 82 45
REMARK SMILES IDX 35 47 69 48 48 49 68 50 49 51 52 52 67 53 87 54 50 55 51 56
REMARK SMILES IDX 66 58 88 59 53 60 36 61 37 62 46 63 38 64 39 65 45 66 47 67
REMARK SMILES IDX 40 68 41 69 42 70 43 71 44 72 70 73 71 74 80 75 72 76 73 77
REMARK SMILES IDX 79 78 81 79 74 80 75 81 76 82 77 83 78 84 54 85 55 86 64 87
REMARK SMILES IDX 56 88 57 89 63 90 65 91 58 92 59 93 60 94 61 95 62 96
REMARK H PARENT 17 8 24 27 86 46 52 57
REMARK Flexibility Score: inf
ROOT
ATOM      1  C   UNL A   1      34.337  32.540  28.034  1.00  0.00     0.002 C 
ENDROOT
BRANCH   1   2
ATOM      2  C   UNL A   1      33.775  31.225  27.486  1.00  0.00     0.002 C 
BRANCH   2   3
ATOM      3  C   UNL A   1      34.653  29.976  27.604  1.00  0.00     0.021 C 
BRANCH   3   4
ATOM      4  C   UNL A   1      34.462  28.891  26.550  1.00  0.00     0.116 C 
BRANCH   4   5
ATOM      5  N   UNL A   1      33.742  29.318  25.369  1.00  0.00    -0.356 N 
ATOM      6  C   UNL A   1      33.271  28.545  24.340  1.00  0.00     0.224 C 
ATOM      7  O   UNL A   1      32.528  29.022  23.493  1.00  0.00    -0.275 OA
ATOM      8  H   UNL A   1      33.568  30.285  25.295  1.00  0.00     0.163 HD
BRANCH   6   9
ATOM      9  C   UNL A   1      33.779  27.161  24.197  1.00  0.00     0.090 C 
ATOM     10  C   UNL A   1      35.965  23.518  25.457  1.00  0.00     0.119 A 
ATOM     11  C   UNL A   1      35.438  22.812  26.532  1.00  0.00     0.047 A 
ATOM     12  C   UNL A   1      35.173  24.476  24.820  1.00  0.00     0.051 A 
ATOM     13  C   UNL A   1      34.121  23.026  26.931  1.00  0.00     0.008 A 
ATOM     14  C   UNL A   1      33.844  24.756  25.221  1.00  0.00    -0.034 A 
ATOM     15  C   UNL A   1      33.318  23.967  26.268  1.00  0.00    -0.044 A 
ATOM     16  C   UNL A   1      33.001  25.888  24.578  1.00  0.00     0.008 C 
ATOM     17  C   UNL A   1      31.888  24.146  26.715  1.00  0.00     0.036 C 
ATOM     18  C   UNL A   1      31.568  26.019  25.086  1.00  0.00     0.013 C 
ATOM     19  C   UNL A   1      33.213  26.258  23.125  1.00  0.00     0.027 C 
ATOM     20  C   UNL A   1      31.016  24.688  25.586  1.00  0.00     0.006 C 
BRANCH  10  21
ATOM     21  O   UNL A   1      37.259  23.208  25.137  1.00  0.00    -0.497 OA
ATOM     22  C   UNL A   1      37.615  21.832  25.175  1.00  0.00     0.278 C 
ENDBRANCH  10  21
ENDBRANCH   6   9
ENDBRANCH   4   5
ENDBRANCH   3   4
ENDBRANCH   2   3
ENDBRANCH   1   2
BRANCH   1  23
ATOM     23  C   UNL A   1      35.845  32.606  28.265  1.00  0.00     0.021 C 
BRANCH  23  24
ATOM     24  C   UNL A   1      36.299  32.696  29.715  1.00  0.00     0.116 C 
BRANCH  24  25
ATOM     25  N   UNL A   1      35.969  31.518  30.503  1.00  0.00    -0.352 N 
ATOM     26  C   UNL A   1      36.734  30.402  30.765  1.00  0.00     0.251 C 
ATOM     27  H   UNL A   1      35.072  31.519  30.907  1.00  0.00     0.163 HD
ATOM     28  O   UNL A   1      36.254  29.458  31.386  1.00  0.00    -0.269 OA
BRANCH  26  29
ATOM     29  C   UNL A   1      38.120  30.324  30.249  1.00  0.00     0.039 A 
ATOM     30  C   UNL A   1      38.371  30.033  28.907  1.00  0.00     0.014 A 
ATOM     31  C   UNL A   1      39.186  30.491  31.139  1.00  0.00     0.014 A 
ATOM     32  C   UNL A   1      39.665  29.718  28.500  1.00  0.00     0.010 A 
ATOM     33  C   UNL A   1      40.496  30.256  30.707  1.00  0.00     0.010 A 
ATOM     34  C   UNL A   1      40.740  29.805  29.401  1.00  0.00    -0.014 A 
BRANCH  34  35
ATOM     35  C   UNL A   1      42.098  29.376  28.966  1.00  0.00     0.031 A 
ATOM     36  C   UNL A   1      42.343  27.963  28.499  1.00  0.00     0.074 A 
ATOM     37  C   UNL A   1      43.097  30.278  28.923  1.00  0.00     0.049 A 
ATOM     38  N   UNL A   1      43.452  27.418  28.068  1.00  0.00    -0.248 NA
ATOM     39  C   UNL A   1      41.196  27.041  28.519  1.00  0.00     0.031 C 
ATOM     40  C   UNL A   1      42.985  31.681  29.329  1.00  0.00     0.029 A 
ATOM     41  N   UNL A   1      44.396  30.160  28.495  1.00  0.00    -0.354 N 
ATOM     42  C   UNL A   1      43.144  26.092  27.782  1.00  0.00     0.074 A 
ATOM     43  C   UNL A   1      41.749  25.905  28.114  1.00  0.00     0.031 C 
ATOM     44  C   UNL A   1      44.146  32.304  29.080  1.00  0.00     0.029 A 
ATOM     45  C   UNL A   1      45.104  31.337  28.553  1.00  0.00     0.049 A 
ATOM     46  H   UNL A   1      44.783  29.313  28.175  1.00  0.00     0.167 HD
ATOM     47  C   UNL A   1      43.944  25.123  27.275  1.00  0.00     0.037 A 
ATOM     48  C   UNL A   1      46.383  31.608  28.231  1.00  0.00     0.037 A 
ATOM     49  C   UNL A   1      45.327  25.315  26.919  1.00  0.00     0.049 A 
ATOM     50  C   UNL A   1      47.260  30.508  27.708  1.00  0.00     0.074 A 
ATOM     51  C   UNL A   1      46.214  24.395  26.389  1.00  0.00     0.029 A 
ATOM     52  N   UNL A   1      46.022  26.508  27.053  1.00  0.00    -0.354 N 
ATOM     53  N   UNL A   1      46.953  29.257  27.460  1.00  0.00    -0.248 NA
ATOM     54  C   UNL A   1      48.663  30.850  27.434  1.00  0.00     0.031 C 
ATOM     55  C   UNL A   1      47.456  25.022  26.230  1.00  0.00     0.029 A 
ATOM     56  C   UNL A   1      47.330  26.344  26.627  1.00  0.00     0.049 A 
ATOM     57  H   UNL A   1      45.641  27.347  27.398  1.00  0.00     0.167 HD
ATOM     58  C   UNL A   1      48.121  28.665  26.996  1.00  0.00     0.074 A 
ATOM     59  C   UNL A   1      49.136  29.698  26.977  1.00  0.00     0.031 C 
ATOM     60  C   UNL A   1      48.333  27.378  26.623  1.00  0.00     0.037 A 
BRANCH  47  61
ATOM     61  C   UNL A   1      43.348  23.757  27.074  1.00  0.00     0.058 A 
ATOM     62  C   UNL A   1      42.954  23.306  25.805  1.00  0.00     0.135 A 
ATOM     63  C   UNL A   1      43.221  22.867  28.154  1.00  0.00     0.135 A 
ATOM     64  F   UNL A   1      43.040  24.121  24.741  1.00  0.00    -0.206 F 
ATOM     65  C   UNL A   1      42.439  22.027  25.615  1.00  0.00     0.059 A 
ATOM     66  C   UNL A   1      42.727  21.577  27.984  1.00  0.00     0.059 A 
ATOM     67  F   UNL A   1      43.582  23.249  29.389  1.00  0.00    -0.206 F 
ATOM     68  C   UNL A   1      42.329  21.170  26.711  1.00  0.00     0.060 A 
BRANCH  68  69
ATOM     69  S   UNL A   1      41.667  19.512  26.444  1.00  0.00     0.124 S 
ATOM     70  O   UNL A   1      42.135  18.816  27.639  1.00  0.00    -0.237 OA
ATOM     71  O   UNL A   1      40.231  19.757  26.377  1.00  0.00    -0.237 OA
ATOM     72  O   UNL A   1      42.289  19.094  25.192  1.00  0.00    -0.744 OA
ENDBRANCH  68  69
ENDBRANCH  47  61
BRANCH  48  73
ATOM     73  C   UNL A   1      46.903  32.990  28.396  1.00  0.00     0.058 A 
ATOM     74  C   UNL A   1      46.852  33.909  27.339  1.00  0.00     0.135 A 
ATOM     75  C   UNL A   1      47.423  33.429  29.624  1.00  0.00     0.135 A 
ATOM     76  F   UNL A   1      46.371  33.533  26.144  1.00  0.00    -0.206 F 
ATOM     77  C   UNL A   1      47.295  35.219  27.493  1.00  0.00     0.059 A 
ATOM     78  C   UNL A   1      47.852  34.738  29.809  1.00  0.00     0.059 A 
ATOM     79  F   UNL A   1      47.482  32.587  30.667  1.00  0.00    -0.206 F 
ATOM     80  C   UNL A   1      47.787  35.625  28.735  1.00  0.00     0.060 A 
BRANCH  80  81
ATOM     81  S   UNL A   1      48.290  37.347  28.946  1.00  0.00     0.124 S 
ATOM     82  O   UNL A   1      47.333  38.039  28.093  1.00  0.00    -0.237 OA
ATOM     83  O   UNL A   1      48.122  37.541  30.383  1.00  0.00    -0.237 OA
ATOM     84  O   UNL A   1      49.673  37.351  28.480  1.00  0.00    -0.744 OA
ENDBRANCH  80  81
ENDBRANCH  48  73
BRANCH  60  85
ATOM     85  C   UNL A   1      49.714  27.014  26.159  1.00  0.00     0.058 A 
ATOM     86  C   UNL A   1      50.717  26.648  27.070  1.00  0.00     0.135 A 
ATOM     87  C   UNL A   1      50.024  26.979  24.791  1.00  0.00     0.135 A 
ATOM     88  F   UNL A   1      50.473  26.674  28.389  1.00  0.00    -0.206 F 
ATOM     89  C   UNL A   1      51.986  26.277  26.641  1.00  0.00     0.059 A 
ATOM     90  C   UNL A   1      51.280  26.589  24.337  1.00  0.00     0.059 A 
ATOM     91  F   UNL A   1      49.095  27.312  23.879  1.00  0.00    -0.206 F 
ATOM     92  C   UNL A   1      52.258  26.249  25.270  1.00  0.00     0.060 A 
BRANCH  92  93
ATOM     93  S   UNL A   1      53.899  25.731  24.726  1.00  0.00     0.124 S 
ATOM     94  O   UNL A   1      53.711  24.295  24.547  1.00  0.00    -0.237 OA
ATOM     95  O   UNL A   1      54.082  26.504  23.501  1.00  0.00    -0.237 OA
ATOM     96  O   UNL A   1      54.763  26.118  25.838  1.00  0.00    -0.744 OA
ENDBRANCH  92  93
ENDBRANCH  60  85
ENDBRANCH  34  35
ENDBRANCH  26  29
ENDBRANCH  24  25
ENDBRANCH  23  24
ENDBRANCH   1  23
TORSDOF 17
ENDMDL
MODEL 3
REMARK VINA RESULT:     -11.2      4.820     10.414
REMARK SMILES COc1ccc2c(c1)[C@]1(CCC2)C[C@H]1C(=O)NCCCCCCNC(=O)c1ccc(-c2c3nc(c(-c4c(F)cc(S(=O)(=O)[O-])cc4F)c4ccc([nH]4)c(-c4c(F)cc(S(=O)(=O)[O-])cc4F)c4nc(c(-c5c(F)cc(S(=O)(=O)[O-])cc5F)c5ccc2[nH]5)C=C4)C=C3)cc1
REMARK SMILES IDX 21 1 20 2 19 3 18 4 17 5 15 6 16 7 14 9 3 10 4 11 8 12 5 13
REMARK SMILES IDX 7 14 6 15 9 16 12 17 10 18 13 19 11 20 2 21 1 22 22 23 23 24
REMARK SMILES IDX 24 25 25 26 26 28 27 29 28 30 92 31 29 32 91 33 30 34 31 35
REMARK SMILES IDX 32 36 85 37 33 38 90 39 84 40 86 41 34 42 89 43 83 44 82 45
REMARK SMILES IDX 35 47 69 48 48 49 68 50 49 51 52 52 67 53 87 54 50 55 51 56
REMARK SMILES IDX 66 58 88 59 53 60 36 61 37 62 46 63 38 64 39 65 45 66 47 67
REMARK SMILES IDX 40 68 41 69 42 70 43 71 44 72 70 73 71 74 80 75 72 76 73 77
REMARK SMILES IDX 79 78 81 79 74 80 75 81 76 82 77 83 78 84 54 85 55 86 64 87
REMARK SMILES IDX 56 88 57 89 63 90 65 91 58 92 59 93 60 94 61 95 62 96
REMARK H PARENT 17 8 24 27 86 46 52 57
REMARK Flexibility Score: inf
ROOT
ATOM      1  C   UNL A   1      33.696  27.250  25.085  1.00  0.00     0.002 C 
ENDROOT
BRANCH   1   2
ATOM      2  C   UNL A   1      32.488  26.847  24.236  1.00  0.00     0.002 C 
BRANCH   2   3
ATOM      3  C   UNL A   1      31.156  26.625  24.959  1.00  0.00     0.021 C 
BRANCH   3   4
ATOM      4  C   UNL A   1      31.207  25.906  26.302  1.00  0.00     0.116 C 
BRANCH   4   5
ATOM      5  N   UNL A   1      30.514  24.635  26.332  1.00  0.00    -0.356 N 
ATOM      6  C   UNL A   1      31.011  23.395  26.029  1.00  0.00     0.224 C 
ATOM      7  O   UNL A   1      30.358  22.387  26.268  1.00  0.00    -0.275 OA
ATOM      8  H   UNL A   1      29.569  24.665  26.605  1.00  0.00     0.163 HD
BRANCH   6   9
ATOM      9  C   UNL A   1      32.293  23.299  25.292  1.00  0.00     0.090 C 
ATOM     10  C   UNL A   1      36.649  22.619  24.851  1.00  0.00     0.119 A 
ATOM     11  C   UNL A   1      37.104  21.322  25.056  1.00  0.00     0.047 A 
ATOM     12  C   UNL A   1      35.281  22.838  24.667  1.00  0.00     0.051 A 
ATOM     13  C   UNL A   1      36.210  20.255  25.028  1.00  0.00     0.008 A 
ATOM     14  C   UNL A   1      34.333  21.786  24.674  1.00  0.00    -0.034 A 
ATOM     15  C   UNL A   1      34.841  20.475  24.811  1.00  0.00    -0.044 A 
ATOM     16  C   UNL A   1      32.807  22.041  24.570  1.00  0.00     0.008 C 
ATOM     17  C   UNL A   1      33.913  19.287  24.759  1.00  0.00     0.036 C 
ATOM     18  C   UNL A   1      31.928  20.794  24.534  1.00  0.00     0.013 C 
ATOM     19  C   UNL A   1      32.289  23.226  23.782  1.00  0.00     0.027 C 
ATOM     20  C   UNL A   1      32.661  19.594  23.943  1.00  0.00     0.006 C 
BRANCH  10  21
ATOM     21  O   UNL A   1      37.618  23.586  24.875  1.00  0.00    -0.497 OA
ATOM     22  C   UNL A   1      38.264  23.811  26.122  1.00  0.00     0.278 C 
ENDBRANCH  10  21
ENDBRANCH   6   9
ENDBRANCH   4   5
ENDBRANCH   3   4
ENDBRANCH   2   3
ENDBRANCH   1   2
BRANCH   1  23
ATOM     23  C   UNL A   1      33.659  28.633  25.731  1.00  0.00     0.021 C 
BRANCH  23  24
ATOM     24  C   UNL A   1      33.565  28.662  27.251  1.00  0.00     0.116 C 
BRANCH  24  25
ATOM     25  N   UNL A   1      33.565  30.006  27.809  1.00  0.00    -0.352 N 
ATOM     26  C   UNL A   1      34.593  30.701  28.409  1.00  0.00     0.251 C 
ATOM     27  H   UNL A   1      32.709  30.487  27.747  1.00  0.00     0.163 HD
ATOM     28  O   UNL A   1      34.384  31.805  28.902  1.00  0.00    -0.269 OA
BRANCH  26  29
ATOM     29  C   UNL A   1      35.938  30.087  28.502  1.00  0.00     0.039 A 
ATOM     30  C   UNL A   1      36.397  29.545  29.704  1.00  0.00     0.014 A 
ATOM     31  C   UNL A   1      36.772  30.106  27.380  1.00  0.00     0.014 A 
ATOM     32  C   UNL A   1      37.741  29.205  29.837  1.00  0.00     0.010 A 
ATOM     33  C   UNL A   1      38.102  29.686  27.494  1.00  0.00     0.010 A 
ATOM     34  C   UNL A   1      38.614  29.292  28.740  1.00  0.00    -0.014 A 
BRANCH  34  35
ATOM     35  C   UNL A   1      40.064  29.010  28.931  1.00  0.00     0.031 A 
ATOM     36  C   UNL A   1      40.962  30.028  29.589  1.00  0.00     0.074 A 
ATOM     37  C   UNL A   1      40.559  27.809  28.577  1.00  0.00     0.049 A 
ATOM     38  N   UNL A   1      42.241  29.948  29.855  1.00  0.00    -0.248 NA
ATOM     39  C   UNL A   1      40.347  31.300  30.002  1.00  0.00     0.031 C 
ATOM     40  C   UNL A   1      39.790  26.731  27.951  1.00  0.00     0.029 A 
ATOM     41  N   UNL A   1      41.818  27.279  28.718  1.00  0.00    -0.354 N 
ATOM     42  C   UNL A   1      42.587  31.158  30.447  1.00  0.00     0.074 A 
ATOM     43  C   UNL A   1      41.389  31.967  30.479  1.00  0.00     0.031 C 
ATOM     44  C   UNL A   1      40.578  25.655  27.809  1.00  0.00     0.029 A 
ATOM     45  C   UNL A   1      41.921  25.981  28.281  1.00  0.00     0.049 A 
ATOM     46  H   UNL A   1      42.575  27.783  29.096  1.00  0.00     0.167 HD
ATOM     47  C   UNL A   1      43.788  31.553  30.936  1.00  0.00     0.037 A 
ATOM     48  C   UNL A   1      42.977  25.146  28.250  1.00  0.00     0.037 A 
ATOM     49  C   UNL A   1      44.976  30.738  30.929  1.00  0.00     0.049 A 
ATOM     50  C   UNL A   1      44.307  25.622  28.761  1.00  0.00     0.074 A 
ATOM     51  C   UNL A   1      46.235  31.050  31.411  1.00  0.00     0.029 A 
ATOM     52  N   UNL A   1      45.051  29.450  30.420  1.00  0.00    -0.354 N 
ATOM     53  N   UNL A   1      44.615  26.775  29.303  1.00  0.00    -0.248 NA
ATOM     54  C   UNL A   1      45.436  24.689  28.643  1.00  0.00     0.031 C 
ATOM     55  C   UNL A   1      47.082  29.962  31.164  1.00  0.00     0.029 A 
ATOM     56  C   UNL A   1      46.339  28.958  30.564  1.00  0.00     0.049 A 
ATOM     57  H   UNL A   1      44.300  28.958  30.017  1.00  0.00     0.167 HD
ATOM     58  C   UNL A   1      45.972  26.705  29.596  1.00  0.00     0.074 A 
ATOM     59  C   UNL A   1      46.420  25.389  29.191  1.00  0.00     0.031 C 
ATOM     60  C   UNL A   1      46.774  27.650  30.148  1.00  0.00     0.037 A 
BRANCH  47  61
ATOM     61  C   UNL A   1      43.885  32.936  31.519  1.00  0.00     0.058 A 
ATOM     62  C   UNL A   1      43.695  33.170  32.890  1.00  0.00     0.135 A 
ATOM     63  C   UNL A   1      44.229  34.031  30.709  1.00  0.00     0.135 A 
ATOM     64  F   UNL A   1      43.351  32.162  33.707  1.00  0.00    -0.206 F 
ATOM     65  C   UNL A   1      43.824  34.445  33.434  1.00  0.00     0.059 A 
ATOM     66  C   UNL A   1      44.383  35.311  31.235  1.00  0.00     0.059 A 
ATOM     67  F   UNL A   1      44.421  33.862  29.391  1.00  0.00    -0.206 F 
ATOM     68  C   UNL A   1      44.169  35.509  32.598  1.00  0.00     0.060 A 
BRANCH  68  69
ATOM     69  S   UNL A   1      44.340  37.153  33.324  1.00  0.00     0.124 S 
ATOM     70  O   UNL A   1      45.603  37.021  34.045  1.00  0.00    -0.237 OA
ATOM     71  O   UNL A   1      44.372  38.012  32.146  1.00  0.00    -0.237 OA
ATOM     72  O   UNL A   1      43.151  37.282  34.160  1.00  0.00    -0.744 OA
ENDBRANCH  68  69
ENDBRANCH  47  61
BRANCH  48  73
ATOM     73  C   UNL A   1      42.810  23.770  27.715  1.00  0.00     0.058 A 
ATOM     74  C   UNL A   1      42.633  22.680  28.577  1.00  0.00     0.135 A 
ATOM     75  C   UNL A   1      42.783  23.527  26.333  1.00  0.00     0.135 A 
ATOM     76  F   UNL A   1      42.659  22.862  29.906  1.00  0.00    -0.206 F 
ATOM     77  C   UNL A   1      42.431  21.393  28.088  1.00  0.00     0.059 A 
ATOM     78  C   UNL A   1      42.561  22.254  25.820  1.00  0.00     0.059 A 
ATOM     79  F   UNL A   1      42.936  24.542  25.469  1.00  0.00    -0.206 F 
ATOM     80  C   UNL A   1      42.390  21.192  26.707  1.00  0.00     0.060 A 
BRANCH  80  81
ATOM     81  S   UNL A   1      42.052  19.531  26.083  1.00  0.00     0.124 S 
ATOM     82  O   UNL A   1      42.448  18.705  27.217  1.00  0.00    -0.237 OA
ATOM     83  O   UNL A   1      40.621  19.593  25.806  1.00  0.00    -0.237 OA
ATOM     84  O   UNL A   1      42.907  19.438  24.903  1.00  0.00    -0.744 OA
ENDBRANCH  80  81
ENDBRANCH  48  73
BRANCH  60  85
ATOM     85  C   UNL A   1      48.219  27.294  30.350  1.00  0.00     0.058 A 
ATOM     86  C   UNL A   1      49.190  27.614  29.388  1.00  0.00     0.135 A 
ATOM     87  C   UNL A   1      48.645  26.677  31.535  1.00  0.00     0.135 A 
ATOM     88  F   UNL A   1      48.832  28.198  28.234  1.00  0.00    -0.206 F 
ATOM     89  C   UNL A   1      50.534  27.318  29.589  1.00  0.00     0.059 A 
ATOM     90  C   UNL A   1      49.987  26.390  31.767  1.00  0.00     0.059 A 
ATOM     91  F   UNL A   1      47.755  26.358  32.490  1.00  0.00    -0.206 F 
ATOM     92  C   UNL A   1      50.923  26.706  30.783  1.00  0.00     0.060 A 
BRANCH  92  93
ATOM     93  S   UNL A   1      52.675  26.359  31.045  1.00  0.00     0.124 S 
ATOM     94  O   UNL A   1      53.100  27.536  31.795  1.00  0.00    -0.237 OA
ATOM     95  O   UNL A   1      52.638  25.108  31.796  1.00  0.00    -0.237 OA
ATOM     96  O   UNL A   1      53.206  26.252  29.688  1.00  0.00    -0.744 OA
ENDBRANCH  92  93
ENDBRANCH  60  85
ENDBRANCH  34  35
ENDBRANCH  26  29
ENDBRANCH  24  25
ENDBRANCH  23  24
ENDBRANCH   1  23
TORSDOF 17
ENDMDL
