MODEL 1
REMARK VINA RESULT:      -9.7      0.000      0.000
REMARK SMILES Cc1cc(C)cc(Nc2nc(C)cc(C(=O)NCCCCCCNC(=O)c3ccc(-c4c5nc(c(-c6c(F)cc(S(=O)(=O)[O-])cc6F)c6ccc([nH]6)c(-c6c(F)cc(S(=O)(=O)[O-])cc6F)c6nc(c(-c7c(F)cc(S(=O)(=O)[O-])cc7F)c7ccc4[nH]7)C=C6)C=C5)cc3)n2)c1
REMARK SMILES IDX 21 1 20 2 19 3 18 4 17 5 15 6 16 7 14 9 9 10 10 11 93 12
REMARK SMILES IDX 11 13 12 14 13 15 8 16 7 18 1 19 2 20 3 21 94 22 4 23 5 24
REMARK SMILES IDX 6 25 22 26 23 27 24 28 25 29 26 31 27 32 28 33 92 34 29 35
REMARK SMILES IDX 91 36 30 37 31 38 32 39 85 40 33 41 90 42 84 43 86 44 34 45
REMARK SMILES IDX 89 46 83 47 82 48 35 50 69 51 48 52 68 53 49 54 52 55 67 56
REMARK SMILES IDX 87 57 50 58 51 59 66 61 88 62 53 63 36 64 37 65 46 66 38 67
REMARK SMILES IDX 39 68 45 69 47 70 40 71 41 72 42 73 43 74 44 75 70 76 71 77
REMARK SMILES IDX 80 78 72 79 73 80 79 81 81 82 74 83 75 84 76 85 77 86 78 87
REMARK SMILES IDX 54 88 55 89 64 90 56 91 57 92 63 93 65 94 58 95 59 96 60 97
REMARK SMILES IDX 61 98 62 99
REMARK H PARENT 17 8 8 17 24 30 86 49 52 60
REMARK Flexibility Score: inf
ROOT
ATOM      1  C   UNL A   1      41.271  19.443  26.104  1.00  0.00     0.002 C 
ENDROOT
BRANCH   1   2
ATOM      2  C   UNL A   1      42.742  19.031  26.245  1.00  0.00     0.002 C 
BRANCH   2   3
ATOM      3  C   UNL A   1      43.589  19.242  24.980  1.00  0.00     0.021 C 
BRANCH   3   4
ATOM      4  C   UNL A   1      44.936  19.905  25.273  1.00  0.00     0.116 C 
BRANCH   4   5
ATOM      5  N   UNL A   1      45.137  21.012  24.365  1.00  0.00    -0.351 N 
ATOM      6  C   UNL A   1      45.073  22.376  24.505  1.00  0.00     0.270 C 
ATOM      7  O   UNL A   1      45.201  23.027  23.464  1.00  0.00    -0.268 OA
ATOM      8  H   UNL A   1      45.369  20.727  23.451  1.00  0.00     0.163 HD
BRANCH   6   9
ATOM      9  C   UNL A   1      44.907  23.092  25.818  1.00  0.00     0.134 A 
ATOM     10  C   UNL A   1      45.503  24.989  26.979  1.00  0.00     0.228 A 
ATOM     11  N   UNL A   1      44.918  24.559  28.102  1.00  0.00    -0.218 NA
ATOM     12  N   UNL A   1      45.581  24.259  25.867  1.00  0.00    -0.208 NA
ATOM     13  C   UNL A   1      44.212  23.414  28.028  1.00  0.00     0.044 A 
ATOM     14  C   UNL A   1      43.450  23.014  29.256  1.00  0.00     0.067 C 
ATOM     15  C   UNL A   1      44.122  22.675  26.866  1.00  0.00     0.058 A 
BRANCH  10  16
ATOM     16  N   UNL A   1      45.909  26.321  26.961  1.00  0.00    -0.324 N 
ATOM     17  H   UNL A   1      46.878  26.489  26.904  1.00  0.00     0.170 HD
BRANCH  16  18
ATOM     18  C   UNL A   1      45.071  27.454  27.016  1.00  0.00     0.041 A 
ATOM     19  C   UNL A   1      44.860  30.727  28.965  1.00  0.00     0.044 C 
ATOM     20  C   UNL A   1      44.541  29.620  28.007  1.00  0.00    -0.049 A 
ATOM     21  C   UNL A   1      43.386  29.700  27.218  1.00  0.00     0.007 A 
ATOM     22  C   UNL A   1      45.377  28.497  27.896  1.00  0.00     0.029 A 
ATOM     23  C   UNL A   1      43.073  28.685  26.312  1.00  0.00    -0.049 A 
ATOM     24  C   UNL A   1      41.834  28.762  25.470  1.00  0.00     0.044 C 
ATOM     25  C   UNL A   1      43.931  27.585  26.206  1.00  0.00     0.029 A 
ENDBRANCH  16  18
ENDBRANCH  10  16
ENDBRANCH   6   9
ENDBRANCH   4   5
ENDBRANCH   3   4
ENDBRANCH   2   3
ENDBRANCH   1   2
BRANCH   1  26
ATOM     26  C   UNL A   1      40.818  20.548  27.064  1.00  0.00     0.021 C 
BRANCH  26  27
ATOM     27  C   UNL A   1      40.863  21.952  26.468  1.00  0.00     0.116 C 
BRANCH  27  28
ATOM     28  N   UNL A   1      39.601  22.300  25.837  1.00  0.00    -0.352 N 
ATOM     29  C   UNL A   1      38.761  23.353  26.095  1.00  0.00     0.251 C 
ATOM     30  H   UNL A   1      39.307  21.693  25.120  1.00  0.00     0.163 HD
ATOM     31  O   UNL A   1      37.622  23.347  25.642  1.00  0.00    -0.269 OA
BRANCH  29  32
ATOM     32  C   UNL A   1      39.228  24.487  26.923  1.00  0.00     0.039 A 
ATOM     33  C   UNL A   1      38.819  24.560  28.257  1.00  0.00     0.014 A 
ATOM     34  C   UNL A   1      40.027  25.496  26.377  1.00  0.00     0.014 A 
ATOM     35  C   UNL A   1      39.239  25.628  29.051  1.00  0.00     0.010 A 
ATOM     36  C   UNL A   1      40.501  26.524  27.188  1.00  0.00     0.010 A 
ATOM     37  C   UNL A   1      40.098  26.610  28.528  1.00  0.00    -0.014 A 
BRANCH  37  38
ATOM     38  C   UNL A   1      40.554  27.745  29.369  1.00  0.00     0.031 A 
ATOM     39  C   UNL A   1      39.685  28.962  29.537  1.00  0.00     0.074 A 
ATOM     40  C   UNL A   1      41.762  27.688  29.962  1.00  0.00     0.049 A 
ATOM     41  N   UNL A   1      39.906  30.046  30.237  1.00  0.00    -0.248 NA
ATOM     42  C   UNL A   1      38.410  28.972  28.803  1.00  0.00     0.031 C 
ATOM     43  C   UNL A   1      42.714  26.582  29.837  1.00  0.00     0.029 A 
ATOM     44  N   UNL A   1      42.394  28.578  30.793  1.00  0.00    -0.354 N 
ATOM     45  C   UNL A   1      38.803  30.865  30.025  1.00  0.00     0.074 A 
ATOM     46  C   UNL A   1      37.946  30.181  29.081  1.00  0.00     0.031 C 
ATOM     47  C   UNL A   1      43.789  26.841  30.600  1.00  0.00     0.029 A 
ATOM     48  C   UNL A   1      43.614  28.139  31.245  1.00  0.00     0.049 A 
ATOM     49  H   UNL A   1      42.008  29.449  31.043  1.00  0.00     0.167 HD
ATOM     50  C   UNL A   1      38.515  32.065  30.587  1.00  0.00     0.037 A 
ATOM     51  C   UNL A   1      44.488  28.712  32.094  1.00  0.00     0.037 A 
ATOM     52  C   UNL A   1      39.366  32.735  31.536  1.00  0.00     0.049 A 
ATOM     53  C   UNL A   1      44.146  30.040  32.709  1.00  0.00     0.074 A 
ATOM     54  C   UNL A   1      39.154  33.937  32.187  1.00  0.00     0.029 A 
ATOM     55  N   UNL A   1      40.593  32.256  31.972  1.00  0.00    -0.354 N 
ATOM     56  N   UNL A   1      43.078  30.781  32.534  1.00  0.00    -0.248 NA
ATOM     57  C   UNL A   1      45.124  30.603  33.650  1.00  0.00     0.031 C 
ATOM     58  C   UNL A   1      40.269  34.200  32.994  1.00  0.00     0.029 A 
ATOM     59  C   UNL A   1      41.156  33.142  32.876  1.00  0.00     0.049 A 
ATOM     60  H   UNL A   1      41.004  31.410  31.681  1.00  0.00     0.167 HD
ATOM     61  C   UNL A   1      43.241  31.885  33.363  1.00  0.00     0.074 A 
ATOM     62  C   UNL A   1      44.505  31.706  34.049  1.00  0.00     0.031 C 
ATOM     63  C   UNL A   1      42.418  32.948  33.546  1.00  0.00     0.037 A 
BRANCH  50  64
ATOM     64  C   UNL A   1      37.219  32.717  30.182  1.00  0.00     0.058 A 
ATOM     65  C   UNL A   1      37.154  33.610  29.100  1.00  0.00     0.135 A 
ATOM     66  C   UNL A   1      36.035  32.460  30.890  1.00  0.00     0.135 A 
ATOM     67  F   UNL A   1      38.261  33.904  28.398  1.00  0.00    -0.206 F 
ATOM     68  C   UNL A   1      35.974  34.264  28.764  1.00  0.00     0.059 A 
ATOM     69  C   UNL A   1      34.835  33.081  30.553  1.00  0.00     0.059 A 
ATOM     70  F   UNL A   1      36.037  31.614  31.931  1.00  0.00    -0.206 F 
ATOM     71  C   UNL A   1      34.820  34.000  29.504  1.00  0.00     0.060 A 
BRANCH  71  72
ATOM     72  S   UNL A   1      33.302  34.883  29.083  1.00  0.00     0.124 S 
ATOM     73  O   UNL A   1      33.832  36.146  28.581  1.00  0.00    -0.237 OA
ATOM     74  O   UNL A   1      32.695  34.008  28.085  1.00  0.00    -0.237 OA
ATOM     75  O   UNL A   1      32.593  34.962  30.356  1.00  0.00    -0.744 OA
ENDBRANCH  71  72
ENDBRANCH  50  64
BRANCH  51  76
ATOM     76  C   UNL A   1      45.739  28.000  32.460  1.00  0.00     0.058 A 
ATOM     77  C   UNL A   1      45.750  27.060  33.501  1.00  0.00     0.135 A 
ATOM     78  C   UNL A   1      46.939  28.221  31.765  1.00  0.00     0.135 A 
ATOM     79  F   UNL A   1      44.627  26.819  34.196  1.00  0.00    -0.206 F 
ATOM     80  C   UNL A   1      46.906  26.372  33.851  1.00  0.00     0.059 A 
ATOM     81  C   UNL A   1      48.103  27.529  32.082  1.00  0.00     0.059 A 
ATOM     82  F   UNL A   1      46.976  29.096  30.749  1.00  0.00    -0.206 F 
ATOM     83  C   UNL A   1      48.078  26.612  33.133  1.00  0.00     0.060 A 
BRANCH  83  84
ATOM     84  S   UNL A   1      49.559  25.668  33.556  1.00  0.00     0.124 S 
ATOM     85  O   UNL A   1      49.077  24.844  34.657  1.00  0.00    -0.237 OA
ATOM     86  O   UNL A   1      49.844  24.967  32.308  1.00  0.00    -0.237 OA
ATOM     87  O   UNL A   1      50.522  26.704  33.917  1.00  0.00    -0.744 OA
ENDBRANCH  83  84
ENDBRANCH  51  76
BRANCH  63  88
ATOM     88  C   UNL A   1      42.851  33.978  34.553  1.00  0.00     0.058 A 
ATOM     89  C   UNL A   1      43.723  35.023  34.211  1.00  0.00     0.135 A 
ATOM     90  C   UNL A   1      42.383  33.918  35.875  1.00  0.00     0.135 A 
ATOM     91  F   UNL A   1      44.203  35.122  32.962  1.00  0.00    -0.206 F 
ATOM     92  C   UNL A   1      44.153  35.948  35.158  1.00  0.00     0.059 A 
ATOM     93  C   UNL A   1      42.777  34.849  36.831  1.00  0.00     0.059 A 
ATOM     94  F   UNL A   1      41.536  32.947  36.250  1.00  0.00    -0.206 F 
ATOM     95  C   UNL A   1      43.679  35.847  36.468  1.00  0.00     0.060 A 
BRANCH  95  96
ATOM     96  S   UNL A   1      44.247  37.047  37.692  1.00  0.00     0.124 S 
ATOM     97  O   UNL A   1      45.684  36.791  37.706  1.00  0.00    -0.237 OA
ATOM     98  O   UNL A   1      43.836  38.318  37.102  1.00  0.00    -0.237 OA
ATOM     99  O   UNL A   1      43.527  36.663  38.902  1.00  0.00    -0.744 OA
ENDBRANCH  95  96
ENDBRANCH  63  88
ENDBRANCH  37  38
ENDBRANCH  29  32
ENDBRANCH  27  28
ENDBRANCH  26  27
ENDBRANCH   1  26
TORSDOF 18
ENDMDL
MODEL 2
REMARK VINA RESULT:      -9.5      5.128     11.369
REMARK SMILES Cc1cc(C)cc(Nc2nc(C)cc(C(=O)NCCCCCCNC(=O)c3ccc(-c4c5nc(c(-c6c(F)cc(S(=O)(=O)[O-])cc6F)c6ccc([nH]6)c(-c6c(F)cc(S(=O)(=O)[O-])cc6F)c6nc(c(-c7c(F)cc(S(=O)(=O)[O-])cc7F)c7ccc4[nH]7)C=C6)C=C5)cc3)n2)c1
REMARK SMILES IDX 21 1 20 2 19 3 18 4 17 5 15 6 16 7 14 9 9 10 10 11 93 12
REMARK SMILES IDX 11 13 12 14 13 15 8 16 7 18 1 19 2 20 3 21 94 22 4 23 5 24
REMARK SMILES IDX 6 25 22 26 23 27 24 28 25 29 26 31 27 32 28 33 92 34 29 35
REMARK SMILES IDX 91 36 30 37 31 38 32 39 85 40 33 41 90 42 84 43 86 44 34 45
REMARK SMILES IDX 89 46 83 47 82 48 35 50 69 51 48 52 68 53 49 54 52 55 67 56
REMARK SMILES IDX 87 57 50 58 51 59 66 61 88 62 53 63 36 64 37 65 46 66 38 67
REMARK SMILES IDX 39 68 45 69 47 70 40 71 41 72 42 73 43 74 44 75 70 76 71 77
REMARK SMILES IDX 80 78 72 79 73 80 79 81 81 82 74 83 75 84 76 85 77 86 78 87
REMARK SMILES IDX 54 88 55 89 64 90 56 91 57 92 63 93 65 94 58 95 59 96 60 97
REMARK SMILES IDX 61 98 62 99
REMARK H PARENT 17 8 8 17 24 30 86 49 52 60
REMARK Flexibility Score: inf
ROOT
ATOM      1  C   UNL A   1      40.896  21.624  27.719  1.00  0.00     0.002 C 
ENDROOT
BRANCH   1   2
ATOM      2  C   UNL A   1      40.529  22.523  26.531  1.00  0.00     0.002 C 
BRANCH   2   3
ATOM      3  C   UNL A   1      39.121  23.132  26.602  1.00  0.00     0.021 C 
BRANCH   3   4
ATOM      4  C   UNL A   1      38.046  22.208  26.027  1.00  0.00     0.116 C 
BRANCH   4   5
ATOM      5  N   UNL A   1      37.767  22.585  24.659  1.00  0.00    -0.351 N 
ATOM      6  C   UNL A   1      36.625  22.953  23.992  1.00  0.00     0.270 C 
ATOM      7  O   UNL A   1      36.744  23.104  22.772  1.00  0.00    -0.268 OA
ATOM      8  H   UNL A   1      38.566  22.575  24.083  1.00  0.00     0.163 HD
BRANCH   6   9
ATOM      9  C   UNL A   1      35.298  23.215  24.651  1.00  0.00     0.134 A 
ATOM     10  C   UNL A   1      33.324  22.222  25.295  1.00  0.00     0.228 A 
ATOM     11  N   UNL A   1      32.787  23.389  25.665  1.00  0.00    -0.218 NA
ATOM     12  N   UNL A   1      34.523  22.115  24.723  1.00  0.00    -0.208 NA
ATOM     13  C   UNL A   1      33.586  24.473  25.628  1.00  0.00     0.044 A 
ATOM     14  C   UNL A   1      33.015  25.748  26.173  1.00  0.00     0.067 C 
ATOM     15  C   UNL A   1      34.892  24.414  25.187  1.00  0.00     0.058 A 
BRANCH  10  16
ATOM     16  N   UNL A   1      32.634  21.073  25.674  1.00  0.00    -0.324 N 
ATOM     17  H   UNL A   1      32.090  21.132  26.493  1.00  0.00     0.170 HD
BRANCH  16  18
ATOM     18  C   UNL A   1      32.637  19.834  25.002  1.00  0.00     0.041 A 
ATOM     19  C   UNL A   1      32.188  18.548  21.437  1.00  0.00     0.044 C 
ATOM     20  C   UNL A   1      32.407  18.582  22.920  1.00  0.00    -0.049 A 
ATOM     21  C   UNL A   1      32.556  17.380  23.624  1.00  0.00     0.007 A 
ATOM     22  C   UNL A   1      32.452  19.800  23.615  1.00  0.00     0.029 A 
ATOM     23  C   UNL A   1      32.769  17.388  25.004  1.00  0.00    -0.049 A 
ATOM     24  C   UNL A   1      32.923  16.104  25.764  1.00  0.00     0.044 C 
ATOM     25  C   UNL A   1      32.829  18.615  25.672  1.00  0.00     0.029 A 
ENDBRANCH  16  18
ENDBRANCH  10  16
ENDBRANCH   6   9
ENDBRANCH   4   5
ENDBRANCH   3   4
ENDBRANCH   2   3
ENDBRANCH   1   2
BRANCH   1  26
ATOM     26  C   UNL A   1      41.136  20.154  27.363  1.00  0.00     0.021 C 
BRANCH  26  27
ATOM     27  C   UNL A   1      41.114  19.860  25.866  1.00  0.00     0.116 C 
BRANCH  27  28
ATOM     28  N   UNL A   1      42.328  19.184  25.441  1.00  0.00    -0.352 N 
ATOM     29  C   UNL A   1      43.555  19.713  25.132  1.00  0.00     0.251 C 
ATOM     30  H   UNL A   1      42.260  18.205  25.364  1.00  0.00     0.163 HD
ATOM     31  O   UNL A   1      44.385  19.024  24.550  1.00  0.00    -0.269 OA
BRANCH  29  32
ATOM     32  C   UNL A   1      43.871  21.112  25.495  1.00  0.00     0.039 A 
ATOM     33  C   UNL A   1      44.357  21.383  26.776  1.00  0.00     0.014 A 
ATOM     34  C   UNL A   1      43.646  22.158  24.593  1.00  0.00     0.014 A 
ATOM     35  C   UNL A   1      44.649  22.698  27.141  1.00  0.00     0.010 A 
ATOM     36  C   UNL A   1      44.003  23.460  24.935  1.00  0.00     0.010 A 
ATOM     37  C   UNL A   1      44.491  23.746  26.218  1.00  0.00    -0.014 A 
BRANCH  37  38
ATOM     38  C   UNL A   1      44.808  25.146  26.597  1.00  0.00     0.031 A 
ATOM     39  C   UNL A   1      46.206  25.676  26.438  1.00  0.00     0.074 A 
ATOM     40  C   UNL A   1      43.839  25.929  27.107  1.00  0.00     0.049 A 
ATOM     41  N   UNL A   1      46.673  26.870  26.703  1.00  0.00    -0.248 NA
ATOM     42  C   UNL A   1      47.219  24.736  25.935  1.00  0.00     0.031 C 
ATOM     43  C   UNL A   1      42.457  25.514  27.353  1.00  0.00     0.029 A 
ATOM     44  N   UNL A   1      43.867  27.241  27.506  1.00  0.00    -0.354 N 
ATOM     45  C   UNL A   1      48.029  26.823  26.404  1.00  0.00     0.074 A 
ATOM     46  C   UNL A   1      48.323  25.464  25.999  1.00  0.00     0.031 C 
ATOM     47  C   UNL A   1      41.760  26.564  27.819  1.00  0.00     0.029 A 
ATOM     48  C   UNL A   1      42.650  27.715  27.931  1.00  0.00     0.049 A 
ATOM     49  H   UNL A   1      44.684  27.792  27.489  1.00  0.00     0.167 HD
ATOM     50  C   UNL A   1      48.943  27.824  26.436  1.00  0.00     0.037 A 
ATOM     51  C   UNL A   1      42.289  28.943  28.349  1.00  0.00     0.037 A 
ATOM     52  C   UNL A   1      48.642  29.177  26.827  1.00  0.00     0.049 A 
ATOM     53  C   UNL A   1      43.317  30.040  28.371  1.00  0.00     0.074 A 
ATOM     54  C   UNL A   1      49.486  30.272  26.866  1.00  0.00     0.029 A 
ATOM     55  N   UNL A   1      47.395  29.618  27.247  1.00  0.00    -0.354 N 
ATOM     56  N   UNL A   1      44.586  29.989  28.042  1.00  0.00    -0.248 NA
ATOM     57  C   UNL A   1      42.858  31.365  28.809  1.00  0.00     0.031 C 
ATOM     58  C   UNL A   1      48.755  31.371  27.339  1.00  0.00     0.029 A 
ATOM     59  C   UNL A   1      47.448  30.968  27.556  1.00  0.00     0.049 A 
ATOM     60  H   UNL A   1      46.591  29.055  27.315  1.00  0.00     0.167 HD
ATOM     61  C   UNL A   1      45.072  31.281  28.205  1.00  0.00     0.074 A 
ATOM     62  C   UNL A   1      43.955  32.092  28.651  1.00  0.00     0.031 C 
ATOM     63  C   UNL A   1      46.326  31.757  28.001  1.00  0.00     0.037 A 
BRANCH  50  64
ATOM     64  C   UNL A   1      50.352  27.479  26.029  1.00  0.00     0.058 A 
ATOM     65  C   UNL A   1      50.733  27.424  24.679  1.00  0.00     0.135 A 
ATOM     66  C   UNL A   1      51.326  27.187  26.996  1.00  0.00     0.135 A 
ATOM     67  F   UNL A   1      49.837  27.679  23.711  1.00  0.00    -0.206 F 
ATOM     68  C   UNL A   1      52.015  27.042  24.298  1.00  0.00     0.059 A 
ATOM     69  C   UNL A   1      52.624  26.831  26.639  1.00  0.00     0.059 A 
ATOM     70  F   UNL A   1      51.019  27.226  28.301  1.00  0.00    -0.206 F 
ATOM     71  C   UNL A   1      52.953  26.738  25.287  1.00  0.00     0.060 A 
BRANCH  71  72
ATOM     72  S   UNL A   1      54.602  26.209  24.780  1.00  0.00     0.124 S 
ATOM     73  O   UNL A   1      54.682  26.760  23.431  1.00  0.00    -0.237 OA
ATOM     74  O   UNL A   1      55.458  26.844  25.777  1.00  0.00    -0.237 OA
ATOM     75  O   UNL A   1      54.529  24.753  24.859  1.00  0.00    -0.744 OA
ENDBRANCH  71  72
ENDBRANCH  50  64
BRANCH  51  76
ATOM     76  C   UNL A   1      40.875  29.212  28.718  1.00  0.00     0.058 A 
ATOM     77  C   UNL A   1      40.494  29.310  30.064  1.00  0.00     0.135 A 
ATOM     78  C   UNL A   1      39.886  29.402  27.741  1.00  0.00     0.135 A 
ATOM     79  F   UNL A   1      41.405  29.132  31.033  1.00  0.00    -0.206 F 
ATOM     80  C   UNL A   1      39.180  29.575  30.432  1.00  0.00     0.059 A 
ATOM     81  C   UNL A   1      38.569  29.690  28.084  1.00  0.00     0.059 A 
ATOM     82  F   UNL A   1      40.205  29.337  26.439  1.00  0.00    -0.206 F 
ATOM     83  C   UNL A   1      38.224  29.767  29.433  1.00  0.00     0.060 A 
BRANCH  83  84
ATOM     84  S   UNL A   1      36.532  30.171  29.921  1.00  0.00     0.124 S 
ATOM     85  O   UNL A   1      36.407  29.442  31.177  1.00  0.00    -0.237 OA
ATOM     86  O   UNL A   1      36.582  31.626  30.026  1.00  0.00    -0.237 OA
ATOM     87  O   UNL A   1      35.734  29.658  28.811  1.00  0.00    -0.744 OA
ENDBRANCH  83  84
ENDBRANCH  51  76
BRANCH  63  88
ATOM     88  C   UNL A   1      46.541  33.228  28.227  1.00  0.00     0.058 A 
ATOM     89  C   UNL A   1      46.351  34.168  27.203  1.00  0.00     0.135 A 
ATOM     90  C   UNL A   1      46.938  33.701  29.488  1.00  0.00     0.135 A 
ATOM     91  F   UNL A   1      45.976  33.768  25.978  1.00  0.00    -0.206 F 
ATOM     92  C   UNL A   1      46.592  35.523  27.408  1.00  0.00     0.059 A 
ATOM     93  C   UNL A   1      47.158  35.055  29.723  1.00  0.00     0.059 A 
ATOM     94  F   UNL A   1      47.120  32.845  30.506  1.00  0.00    -0.206 F 
ATOM     95  C   UNL A   1      47.003  35.956  28.671  1.00  0.00     0.060 A 
BRANCH  95  96
ATOM     96  S   UNL A   1      47.321  37.714  28.927  1.00  0.00     0.124 S 
ATOM     97  O   UNL A   1      47.624  37.751  30.353  1.00  0.00    -0.237 OA
ATOM     98  O   UNL A   1      48.448  37.965  28.033  1.00  0.00    -0.237 OA
ATOM     99  O   UNL A   1      46.065  38.346  28.533  1.00  0.00    -0.744 OA
ENDBRANCH  95  96
ENDBRANCH  63  88
ENDBRANCH  37  38
ENDBRANCH  29  32
ENDBRANCH  27  28
ENDBRANCH  26  27
ENDBRANCH   1  26
TORSDOF 18
ENDMDL
MODEL 3
REMARK VINA RESULT:      -9.5      5.698     11.522
REMARK SMILES Cc1cc(C)cc(Nc2nc(C)cc(C(=O)NCCCCCCNC(=O)c3ccc(-c4c5nc(c(-c6c(F)cc(S(=O)(=O)[O-])cc6F)c6ccc([nH]6)c(-c6c(F)cc(S(=O)(=O)[O-])cc6F)c6nc(c(-c7c(F)cc(S(=O)(=O)[O-])cc7F)c7ccc4[nH]7)C=C6)C=C5)cc3)n2)c1
REMARK SMILES IDX 21 1 20 2 19 3 18 4 17 5 15 6 16 7 14 9 9 10 10 11 93 12
REMARK SMILES IDX 11 13 12 14 13 15 8 16 7 18 1 19 2 20 3 21 94 22 4 23 5 24
REMARK SMILES IDX 6 25 22 26 23 27 24 28 25 29 26 31 27 32 28 33 92 34 29 35
REMARK SMILES IDX 91 36 30 37 31 38 32 39 85 40 33 41 90 42 84 43 86 44 34 45
REMARK SMILES IDX 89 46 83 47 82 48 35 50 69 51 48 52 68 53 49 54 52 55 67 56
REMARK SMILES IDX 87 57 50 58 51 59 66 61 88 62 53 63 36 64 37 65 46 66 38 67
REMARK SMILES IDX 39 68 45 69 47 70 40 71 41 72 42 73 43 74 44 75 70 76 71 77
REMARK SMILES IDX 80 78 72 79 73 80 79 81 81 82 74 83 75 84 76 85 77 86 78 87
REMARK SMILES IDX 54 88 55 89 64 90 56 91 57 92 63 93 65 94 58 95 59 96 60 97
REMARK SMILES IDX 61 98 62 99
REMARK H PARENT 17 8 8 17 24 30 86 49 52 60
REMARK Flexibility Score: inf
ROOT
ATOM      1  C   UNL A   1      33.429  29.116  26.238  1.00  0.00     0.002 C 
ENDROOT
BRANCH   1   2
ATOM      2  C   UNL A   1      32.622  27.985  26.889  1.00  0.00     0.002 C 
BRANCH   2   3
ATOM      3  C   UNL A   1      32.604  26.672  26.092  1.00  0.00     0.021 C 
BRANCH   3   4
ATOM      4  C   UNL A   1      31.289  25.905  26.244  1.00  0.00     0.116 C 
BRANCH   4   5
ATOM      5  N   UNL A   1      31.502  24.743  27.078  1.00  0.00    -0.351 N 
ATOM      6  C   UNL A   1      31.684  23.408  26.814  1.00  0.00     0.270 C 
ATOM      7  O   UNL A   1      31.729  22.670  27.802  1.00  0.00    -0.268 OA
ATOM      8  H   UNL A   1      31.519  24.953  28.040  1.00  0.00     0.163 HD
BRANCH   6   9
ATOM      9  C   UNL A   1      31.871  22.827  25.439  1.00  0.00     0.134 A 
ATOM     10  C   UNL A   1      31.839  23.338  23.194  1.00  0.00     0.228 A 
ATOM     11  N   UNL A   1      32.007  22.061  22.839  1.00  0.00    -0.218 NA
ATOM     12  N   UNL A   1      31.691  23.735  24.459  1.00  0.00    -0.208 NA
ATOM     13  C   UNL A   1      32.229  21.171  23.826  1.00  0.00     0.044 A 
ATOM     14  C   UNL A   1      32.551  19.769  23.407  1.00  0.00     0.067 C 
ATOM     15  C   UNL A   1      32.240  21.534  25.158  1.00  0.00     0.058 A 
BRANCH  10  16
ATOM     16  N   UNL A   1      31.976  24.288  22.184  1.00  0.00    -0.324 N 
ATOM     17  H   UNL A   1      32.102  23.947  21.269  1.00  0.00     0.170 HD
BRANCH  16  18
ATOM     18  C   UNL A   1      31.953  25.689  22.342  1.00  0.00     0.041 A 
ATOM     19  C   UNL A   1      34.464  28.546  22.635  1.00  0.00     0.044 C 
ATOM     20  C   UNL A   1      33.171  27.790  22.576  1.00  0.00    -0.049 A 
ATOM     21  C   UNL A   1      31.961  28.476  22.734  1.00  0.00     0.007 A 
ATOM     22  C   UNL A   1      33.157  26.400  22.378  1.00  0.00     0.029 A 
ATOM     23  C   UNL A   1      30.744  27.794  22.674  1.00  0.00    -0.049 A 
ATOM     24  C   UNL A   1      29.445  28.523  22.848  1.00  0.00     0.044 C 
ATOM     25  C   UNL A   1      30.755  26.412  22.457  1.00  0.00     0.029 A 
ENDBRANCH  16  18
ENDBRANCH  10  16
ENDBRANCH   6   9
ENDBRANCH   4   5
ENDBRANCH   3   4
ENDBRANCH   2   3
ENDBRANCH   1   2
BRANCH   1  26
ATOM     26  C   UNL A   1      34.000  30.146  27.218  1.00  0.00     0.021 C 
BRANCH  26  27
ATOM     27  C   UNL A   1      35.286  29.706  27.910  1.00  0.00     0.116 C 
BRANCH  27  28
ATOM     28  N   UNL A   1      35.325  30.153  29.292  1.00  0.00    -0.352 N 
ATOM     29  C   UNL A   1      36.338  30.054  30.210  1.00  0.00     0.251 C 
ATOM     30  H   UNL A   1      34.504  30.591  29.616  1.00  0.00     0.163 HD
ATOM     31  O   UNL A   1      36.105  30.255  31.396  1.00  0.00    -0.269 OA
BRANCH  29  32
ATOM     32  C   UNL A   1      37.705  29.698  29.769  1.00  0.00     0.039 A 
ATOM     33  C   UNL A   1      37.984  29.664  28.401  1.00  0.00     0.014 A 
ATOM     34  C   UNL A   1      38.694  29.356  30.696  1.00  0.00     0.014 A 
ATOM     35  C   UNL A   1      39.264  29.320  27.964  1.00  0.00     0.010 A 
ATOM     36  C   UNL A   1      39.989  29.080  30.263  1.00  0.00     0.010 A 
ATOM     37  C   UNL A   1      40.282  29.042  28.892  1.00  0.00    -0.014 A 
BRANCH  37  38
ATOM     38  C   UNL A   1      41.648  28.682  28.435  1.00  0.00     0.031 A 
ATOM     39  C   UNL A   1      42.734  29.722  28.401  1.00  0.00     0.074 A 
ATOM     40  C   UNL A   1      41.901  27.424  28.028  1.00  0.00     0.049 A 
ATOM     41  N   UNL A   1      43.987  29.598  28.044  1.00  0.00    -0.248 NA
ATOM     42  C   UNL A   1      42.358  31.087  28.800  1.00  0.00     0.031 C 
ATOM     43  C   UNL A   1      40.919  26.339  27.971  1.00  0.00     0.029 A 
ATOM     44  N   UNL A   1      43.063  26.842  27.590  1.00  0.00    -0.354 N 
ATOM     45  C   UNL A   1      44.546  30.864  28.171  1.00  0.00     0.074 A 
ATOM     46  C   UNL A   1      43.479  31.755  28.575  1.00  0.00     0.031 C 
ATOM     47  C   UNL A   1      41.531  25.214  27.566  1.00  0.00     0.029 A 
ATOM     48  C   UNL A   1      42.938  25.503  27.309  1.00  0.00     0.049 A 
ATOM     49  H   UNL A   1      43.908  27.338  27.488  1.00  0.00     0.167 HD
ATOM     50  C   UNL A   1      45.834  31.247  27.995  1.00  0.00     0.037 A 
ATOM     51  C   UNL A   1      43.858  24.607  26.903  1.00  0.00     0.037 A 
ATOM     52  C   UNL A   1      46.894  30.354  27.605  1.00  0.00     0.049 A 
ATOM     53  C   UNL A   1      45.281  25.052  26.720  1.00  0.00     0.074 A 
ATOM     54  C   UNL A   1      48.237  30.632  27.428  1.00  0.00     0.029 A 
ATOM     55  N   UNL A   1      46.727  29.003  27.333  1.00  0.00    -0.354 N 
ATOM     56  N   UNL A   1      45.803  26.244  26.888  1.00  0.00    -0.248 NA
ATOM     57  C   UNL A   1      46.246  24.025  26.304  1.00  0.00     0.031 C 
ATOM     58  C   UNL A   1      48.879  29.455  27.018  1.00  0.00     0.029 A 
ATOM     59  C   UNL A   1      47.941  28.436  26.980  1.00  0.00     0.049 A 
ATOM     60  H   UNL A   1      45.872  28.519  27.383  1.00  0.00     0.167 HD
ATOM     61  C   UNL A   1      47.161  26.105  26.626  1.00  0.00     0.074 A 
ATOM     62  C   UNL A   1      47.380  24.710  26.301  1.00  0.00     0.031 C 
ATOM     63  C   UNL A   1      48.139  27.045  26.657  1.00  0.00     0.037 A 
BRANCH  50  64
ATOM     64  C   UNL A   1      46.156  32.700  28.231  1.00  0.00     0.058 A 
ATOM     65  C   UNL A   1      46.571  33.164  29.489  1.00  0.00     0.135 A 
ATOM     66  C   UNL A   1      46.033  33.639  27.195  1.00  0.00     0.135 A 
ATOM     67  F   UNL A   1      46.690  32.311  30.520  1.00  0.00    -0.206 F 
ATOM     68  C   UNL A   1      46.806  34.514  29.727  1.00  0.00     0.059 A 
ATOM     69  C   UNL A   1      46.292  34.991  27.402  1.00  0.00     0.059 A 
ATOM     70  F   UNL A   1      45.642  33.251  25.972  1.00  0.00    -0.206 F 
ATOM     71  C   UNL A   1      46.654  35.423  28.678  1.00  0.00     0.060 A 
BRANCH  71  72
ATOM     72  S   UNL A   1      46.925  37.177  29.007  1.00  0.00     0.124 S 
ATOM     73  O   UNL A   1      47.424  37.140  30.378  1.00  0.00    -0.237 OA
ATOM     74  O   UNL A   1      47.902  37.543  27.987  1.00  0.00    -0.237 OA
ATOM     75  O   UNL A   1      45.599  37.762  28.839  1.00  0.00    -0.744 OA
ENDBRANCH  71  72
ENDBRANCH  50  64
BRANCH  51  76
ATOM     76  C   UNL A   1      43.469  23.187  26.707  1.00  0.00     0.058 A 
ATOM     77  C   UNL A   1      43.393  22.637  25.419  1.00  0.00     0.135 A 
ATOM     78  C   UNL A   1      43.191  22.346  27.796  1.00  0.00     0.135 A 
ATOM     79  F   UNL A   1      43.647  23.404  24.348  1.00  0.00    -0.206 F 
ATOM     80  C   UNL A   1      43.046  21.307  25.214  1.00  0.00     0.059 A 
ATOM     81  C   UNL A   1      42.863  21.006  27.617  1.00  0.00     0.059 A 
ATOM     82  F   UNL A   1      43.268  22.820  29.049  1.00  0.00    -0.206 F 
ATOM     83  C   UNL A   1      42.784  20.498  26.321  1.00  0.00     0.060 A 
BRANCH  83  84
ATOM     84  S   UNL A   1      42.393  18.756  26.045  1.00  0.00     0.124 S 
ATOM     85  O   UNL A   1      40.983  18.826  25.684  1.00  0.00    -0.237 OA
ATOM     86  O   UNL A   1      43.313  18.400  24.970  1.00  0.00    -0.237 OA
ATOM     87  O   UNL A   1      42.684  18.141  27.337  1.00  0.00    -0.744 OA
ENDBRANCH  83  84
ENDBRANCH  51  76
BRANCH  63  88
ATOM     88  C   UNL A   1      49.539  26.578  26.362  1.00  0.00     0.058 A 
ATOM     89  C   UNL A   1      50.111  26.718  25.089  1.00  0.00     0.135 A 
ATOM     90  C   UNL A   1      50.317  25.987  27.371  1.00  0.00     0.135 A 
ATOM     91  F   UNL A   1      49.408  27.272  24.089  1.00  0.00    -0.206 F 
ATOM     92  C   UNL A   1      51.391  26.247  24.812  1.00  0.00     0.059 A 
ATOM     93  C   UNL A   1      51.609  25.534  27.124  1.00  0.00     0.059 A 
ATOM     94  F   UNL A   1      49.822  25.843  28.610  1.00  0.00    -0.206 F 
ATOM     95  C   UNL A   1      52.129  25.649  25.836  1.00  0.00     0.060 A 
BRANCH  95  96
ATOM     96  S   UNL A   1      53.786  25.034  25.467  1.00  0.00     0.124 S 
ATOM     97  O   UNL A   1      53.569  23.591  25.476  1.00  0.00    -0.237 OA
ATOM     98  O   UNL A   1      54.059  25.625  24.161  1.00  0.00    -0.237 OA
ATOM     99  O   UNL A   1      54.593  25.556  26.566  1.00  0.00    -0.744 OA
ENDBRANCH  95  96
ENDBRANCH  63  88
ENDBRANCH  37  38
ENDBRANCH  29  32
ENDBRANCH  27  28
ENDBRANCH  26  27
ENDBRANCH   1  26
TORSDOF 18
ENDMDL
