MODEL 1
REMARK VINA RESULT:     -11.0      0.000      0.000
REMARK SMILES C[C@H]1C[NH+](CC[C@@H]2CCC[C@]2([NH3+])C(=O)NCCCCCCNC(=O)c2ccc(-c3c4nc(c(-c5c(F)cc(S(=O)(=O)[O-])cc5F)c5ccc([nH]5)c(-c5c(F)cc(S(=O)(=O)[O-])cc5F)c5nc(c(-c6c(F)cc(S(=O)(=O)[O-])cc6F)c6ccc3[nH]6)C=C5)C=C4)cc2)C[C@H](C)O1
REMARK SMILES IDX 18 1 17 2 16 3 15 4 13 5 14 6 11 8 7 9 8 10 9 11 10 12 6 13
REMARK SMILES IDX 5 14 4 15 1 16 2 17 3 18 94 19 92 20 91 21 93 23 12 24 19 28
REMARK SMILES IDX 20 29 21 30 22 31 23 32 24 34 25 35 26 36 90 37 27 38 89 39
REMARK SMILES IDX 28 40 29 41 30 42 83 43 31 44 88 45 82 46 84 47 32 48 87 49
REMARK SMILES IDX 81 50 80 51 33 53 67 54 46 55 66 56 47 57 50 58 65 59 85 60
REMARK SMILES IDX 48 61 49 62 64 64 86 65 51 66 34 67 35 68 44 69 36 70 37 71
REMARK SMILES IDX 43 72 45 73 38 74 39 75 40 76 41 77 42 78 68 79 69 80 78 81
REMARK SMILES IDX 70 82 71 83 77 84 79 85 72 86 73 87 74 88 75 89 76 90 52 91
REMARK SMILES IDX 53 92 62 93 54 94 55 95 61 96 63 97 56 98 57 99 58 100
REMARK SMILES IDX 59 101 60 102
REMARK H PARENT 15 7 4 22 12 25 12 26 12 27 22 33 84 52 50 63
REMARK Flexibility Score: inf
ROOT
ATOM      1  C   UNL A   1      36.513  23.819  26.203  1.00  0.00     0.002 C 
ENDROOT
BRANCH   1   2
ATOM      2  C   UNL A   1      35.693  23.324  25.004  1.00  0.00     0.021 C 
BRANCH   2   3
ATOM      3  C   UNL A   1      34.828  24.380  24.271  1.00  0.00     0.116 C 
BRANCH   3   4
ATOM      4  N   UNL A   1      34.492  25.557  25.098  1.00  0.00    -0.351 N 
ATOM      5  C   UNL A   1      33.663  26.609  25.263  1.00  0.00     0.281 C 
ATOM      6  O   UNL A   1      33.846  27.079  26.407  1.00  0.00    -0.268 OA
ATOM      7  H   UNL A   1      35.144  25.585  25.835  1.00  0.00     0.163 HD
BRANCH   5   8
ATOM      8  C   UNL A   1      32.515  27.287  24.348  1.00  0.00     0.177 C 
ATOM      9  C   UNL A   1      32.293  26.943  22.831  1.00  0.00     0.066 C 
ATOM     10  C   UNL A   1      33.612  27.420  22.183  1.00  0.00     0.011 C 
ATOM     11  C   UNL A   1      34.011  28.677  22.951  1.00  0.00     0.008 C 
ATOM     12  C   UNL A   1      33.018  28.766  24.101  1.00  0.00     0.079 C 
BRANCH   9  13
ATOM     13  C   UNL A   1      31.764  25.656  22.151  1.00  0.00     0.072 C 
BRANCH  13  14
ATOM     14  C   UNL A   1      30.864  24.701  22.912  1.00  0.00     0.262 C 
BRANCH  14  15
ATOM     15  N   UNL A   1      31.426  23.727  23.858  1.00  0.00    -0.331 N 
ATOM     16  C   UNL A   1      32.563  20.089  23.851  1.00  0.00     0.045 C 
ATOM     17  C   UNL A   1      32.333  21.495  24.376  1.00  0.00     0.170 C 
ATOM     18  C   UNL A   1      31.619  22.377  23.320  1.00  0.00     0.294 C 
ATOM     19  O   UNL A   1      31.549  21.375  25.575  1.00  0.00    -0.364 OA
ATOM     20  C   UNL A   1      31.272  22.640  26.173  1.00  0.00     0.170 C 
ATOM     21  C   UNL A   1      30.732  23.639  25.137  1.00  0.00     0.294 C 
ATOM     22  H   UNL A   1      32.347  24.132  24.027  1.00  0.00     0.348 HD
ATOM     23  C   UNL A   1      32.464  23.179  26.964  1.00  0.00     0.045 C 
ENDBRANCH  14  15
ENDBRANCH  13  14
ENDBRANCH   9  13
BRANCH   8  24
ATOM     24  N   UNL A   1      31.311  27.603  25.146  1.00  0.00    -0.345 N 
ATOM     25  H   UNL A   1      30.639  28.101  24.563  1.00  0.00     0.345 HD
ATOM     26  H   UNL A   1      31.573  28.188  25.938  1.00  0.00     0.345 HD
ATOM     27  H   UNL A   1      30.892  26.738  25.486  1.00  0.00     0.345 HD
ENDBRANCH   8  24
ENDBRANCH   5   8
ENDBRANCH   3   4
ENDBRANCH   2   3
ENDBRANCH   1   2
BRANCH   1  28
ATOM     28  C   UNL A   1      38.025  23.938  25.982  1.00  0.00     0.002 C 
BRANCH  28  29
ATOM     29  C   UNL A   1      38.878  22.719  26.355  1.00  0.00     0.021 C 
BRANCH  29  30
ATOM     30  C   UNL A   1      40.172  23.000  27.123  1.00  0.00     0.116 C 
BRANCH  30  31
ATOM     31  N   UNL A   1      41.257  23.451  26.259  1.00  0.00    -0.352 N 
ATOM     32  C   UNL A   1      41.897  24.661  26.199  1.00  0.00     0.251 C 
ATOM     33  H   UNL A   1      41.579  22.778  25.616  1.00  0.00     0.163 HD
ATOM     34  O   UNL A   1      42.660  24.899  25.256  1.00  0.00    -0.269 OA
BRANCH  32  35
ATOM     35  C   UNL A   1      41.685  25.685  27.242  1.00  0.00     0.039 A 
ATOM     36  C   UNL A   1      40.643  25.520  28.163  1.00  0.00     0.014 A 
ATOM     37  C   UNL A   1      42.486  26.829  27.295  1.00  0.00     0.014 A 
ATOM     38  C   UNL A   1      40.446  26.468  29.170  1.00  0.00     0.010 A 
ATOM     39  C   UNL A   1      42.328  27.741  28.336  1.00  0.00     0.010 A 
ATOM     40  C   UNL A   1      41.308  27.572  29.286  1.00  0.00    -0.014 A 
BRANCH  40  41
ATOM     41  C   UNL A   1      41.165  28.558  30.390  1.00  0.00     0.031 A 
ATOM     42  C   UNL A   1      42.013  28.433  31.627  1.00  0.00     0.074 A 
ATOM     43  C   UNL A   1      40.212  29.509  30.313  1.00  0.00     0.049 A 
ATOM     44  N   UNL A   1      41.958  29.120  32.739  1.00  0.00    -0.248 NA
ATOM     45  C   UNL A   1      43.041  27.379  31.626  1.00  0.00     0.031 C 
ATOM     46  C   UNL A   1      39.294  29.698  29.187  1.00  0.00     0.029 A 
ATOM     47  N   UNL A   1      39.835  30.479  31.210  1.00  0.00    -0.354 N 
ATOM     48  C   UNL A   1      42.918  28.564  33.577  1.00  0.00     0.074 A 
ATOM     49  C   UNL A   1      43.519  27.462  32.860  1.00  0.00     0.031 C 
ATOM     50  C   UNL A   1      38.465  30.719  29.460  1.00  0.00     0.029 A 
ATOM     51  C   UNL A   1      38.760  31.230  30.794  1.00  0.00     0.049 A 
ATOM     52  H   UNL A   1      40.291  30.623  32.070  1.00  0.00     0.167 HD
ATOM     53  C   UNL A   1      43.274  28.950  34.826  1.00  0.00     0.037 A 
ATOM     54  C   UNL A   1      38.075  32.206  31.423  1.00  0.00     0.037 A 
ATOM     55  C   UNL A   1      42.697  30.076  35.514  1.00  0.00     0.049 A 
ATOM     56  C   UNL A   1      38.504  32.627  32.804  1.00  0.00     0.074 A 
ATOM     57  C   UNL A   1      43.052  30.603  36.743  1.00  0.00     0.029 A 
ATOM     58  N   UNL A   1      41.644  30.843  35.039  1.00  0.00    -0.354 N 
ATOM     59  N   UNL A   1      39.474  32.146  33.547  1.00  0.00    -0.248 NA
ATOM     60  C   UNL A   1      37.756  33.725  33.432  1.00  0.00     0.031 C 
ATOM     61  C   UNL A   1      42.178  31.653  37.038  1.00  0.00     0.029 A 
ATOM     62  C   UNL A   1      41.316  31.820  35.965  1.00  0.00     0.049 A 
ATOM     63  H   UNL A   1      41.196  30.713  34.172  1.00  0.00     0.167 HD
ATOM     64  C   UNL A   1      39.469  32.903  34.715  1.00  0.00     0.074 A 
ATOM     65  C   UNL A   1      38.410  33.880  34.576  1.00  0.00     0.031 C 
ATOM     66  C   UNL A   1      40.269  32.797  35.804  1.00  0.00     0.037 A 
BRANCH  53  67
ATOM     67  C   UNL A   1      44.334  28.159  35.542  1.00  0.00     0.058 A 
ATOM     68  C   UNL A   1      45.696  28.481  35.441  1.00  0.00     0.135 A 
ATOM     69  C   UNL A   1      43.972  27.111  36.406  1.00  0.00     0.135 A 
ATOM     70  F   UNL A   1      46.100  29.462  34.619  1.00  0.00    -0.206 F 
ATOM     71  C   UNL A   1      46.663  27.788  36.162  1.00  0.00     0.059 A 
ATOM     72  C   UNL A   1      44.919  26.422  37.159  1.00  0.00     0.059 A 
ATOM     73  F   UNL A   1      42.684  26.758  36.538  1.00  0.00    -0.206 F 
ATOM     74  C   UNL A   1      46.264  26.765  37.024  1.00  0.00     0.060 A 
BRANCH  74  75
ATOM     75  S   UNL A   1      47.528  25.904  37.984  1.00  0.00     0.124 S 
ATOM     76  O   UNL A   1      46.710  25.103  38.891  1.00  0.00    -0.237 OA
ATOM     77  O   UNL A   1      48.245  25.158  36.954  1.00  0.00    -0.237 OA
ATOM     78  O   UNL A   1      48.279  26.987  38.609  1.00  0.00    -0.744 OA
ENDBRANCH  74  75
ENDBRANCH  53  67
BRANCH  54  79
ATOM     79  C   UNL A   1      36.905  32.848  30.762  1.00  0.00     0.058 A 
ATOM     80  C   UNL A   1      37.075  33.786  29.732  1.00  0.00     0.135 A 
ATOM     81  C   UNL A   1      35.592  32.545  31.157  1.00  0.00     0.135 A 
ATOM     82  F   UNL A   1      38.309  34.113  29.320  1.00  0.00    -0.206 F 
ATOM     83  C   UNL A   1      35.989  34.423  29.139  1.00  0.00     0.059 A 
ATOM     84  C   UNL A   1      34.489  33.147  30.558  1.00  0.00     0.059 A 
ATOM     85  F   UNL A   1      35.371  31.640  32.123  1.00  0.00    -0.206 F 
ATOM     86  C   UNL A   1      34.700  34.098  29.561  1.00  0.00     0.060 A 
BRANCH  86  87
ATOM     87  S   UNL A   1      33.296  34.918  28.773  1.00  0.00     0.124 S 
ATOM     88  O   UNL A   1      33.918  36.130  28.254  1.00  0.00    -0.237 OA
ATOM     89  O   UNL A   1      32.887  33.932  27.776  1.00  0.00    -0.237 OA
ATOM     90  O   UNL A   1      32.359  35.109  29.875  1.00  0.00    -0.744 OA
ENDBRANCH  86  87
ENDBRANCH  54  79
BRANCH  66  91
ATOM     91  C   UNL A   1      40.070  33.788  36.917  1.00  0.00     0.058 A 
ATOM     92  C   UNL A   1      40.759  35.010  36.951  1.00  0.00     0.135 A 
ATOM     93  C   UNL A   1      39.120  33.541  37.922  1.00  0.00     0.135 A 
ATOM     94  F   UNL A   1      41.682  35.292  36.018  1.00  0.00    -0.206 F 
ATOM     95  C   UNL A   1      40.524  35.947  37.952  1.00  0.00     0.059 A 
ATOM     96  C   UNL A   1      38.848  34.477  38.915  1.00  0.00     0.059 A 
ATOM     97  F   UNL A   1      38.427  32.393  37.930  1.00  0.00    -0.206 F 
ATOM     98  C   UNL A   1      39.562  35.674  38.926  1.00  0.00     0.060 A 
BRANCH  98  99
ATOM     99  S   UNL A   1      39.230  36.920  40.190  1.00  0.00     0.124 S 
ATOM    100  O   UNL A   1      38.384  36.179  41.118  1.00  0.00    -0.237 OA
ATOM    101  O   UNL A   1      40.571  37.240  40.670  1.00  0.00    -0.237 OA
ATOM    102  O   UNL A   1      38.566  37.987  39.449  1.00  0.00    -0.744 OA
ENDBRANCH  98  99
ENDBRANCH  66  91
ENDBRANCH  40  41
ENDBRANCH  32  35
ENDBRANCH  30  31
ENDBRANCH  29  30
ENDBRANCH  28  29
ENDBRANCH   1  28
TORSDOF 20
ENDMDL
MODEL 2
REMARK VINA RESULT:     -10.9      1.120      3.101
REMARK SMILES C[C@H]1C[NH+](CC[C@@H]2CCC[C@]2([NH3+])C(=O)NCCCCCCNC(=O)c2ccc(-c3c4nc(c(-c5c(F)cc(S(=O)(=O)[O-])cc5F)c5ccc([nH]5)c(-c5c(F)cc(S(=O)(=O)[O-])cc5F)c5nc(c(-c6c(F)cc(S(=O)(=O)[O-])cc6F)c6ccc3[nH]6)C=C5)C=C4)cc2)C[C@H](C)O1
REMARK SMILES IDX 18 1 17 2 16 3 15 4 13 5 14 6 11 8 7 9 8 10 9 11 10 12 6 13
REMARK SMILES IDX 5 14 4 15 1 16 2 17 3 18 94 19 92 20 91 21 93 23 12 24 19 28
REMARK SMILES IDX 20 29 21 30 22 31 23 32 24 34 25 35 26 36 90 37 27 38 89 39
REMARK SMILES IDX 28 40 29 41 30 42 83 43 31 44 88 45 82 46 84 47 32 48 87 49
REMARK SMILES IDX 81 50 80 51 33 53 67 54 46 55 66 56 47 57 50 58 65 59 85 60
REMARK SMILES IDX 48 61 49 62 64 64 86 65 51 66 34 67 35 68 44 69 36 70 37 71
REMARK SMILES IDX 43 72 45 73 38 74 39 75 40 76 41 77 42 78 68 79 69 80 78 81
REMARK SMILES IDX 70 82 71 83 77 84 79 85 72 86 73 87 74 88 75 89 76 90 52 91
REMARK SMILES IDX 53 92 62 93 54 94 55 95 61 96 63 97 56 98 57 99 58 100
REMARK SMILES IDX 59 101 60 102
REMARK H PARENT 15 7 4 22 12 25 12 26 12 27 22 33 84 52 50 63
REMARK Flexibility Score: inf
ROOT
ATOM      1  C   UNL A   1      39.341  21.779  26.090  1.00  0.00     0.002 C 
ENDROOT
BRANCH   1   2
ATOM      2  C   UNL A   1      37.997  22.346  25.613  1.00  0.00     0.021 C 
BRANCH   2   3
ATOM      3  C   UNL A   1      36.783  21.386  25.663  1.00  0.00     0.116 C 
BRANCH   3   4
ATOM      4  N   UNL A   1      35.649  21.896  26.460  1.00  0.00    -0.351 N 
ATOM      5  C   UNL A   1      34.541  22.668  26.464  1.00  0.00     0.281 C 
ATOM      6  O   UNL A   1      33.893  22.421  27.504  1.00  0.00    -0.268 OA
ATOM      7  H   UNL A   1      35.737  21.514  27.363  1.00  0.00     0.163 HD
BRANCH   5   8
ATOM      8  C   UNL A   1      33.910  23.730  25.421  1.00  0.00     0.177 C 
ATOM      9  C   UNL A   1      32.368  23.983  25.259  1.00  0.00     0.066 C 
ATOM     10  C   UNL A   1      31.856  22.616  24.751  1.00  0.00     0.011 C 
ATOM     11  C   UNL A   1      32.957  22.084  23.839  1.00  0.00     0.008 C 
ATOM     12  C   UNL A   1      34.109  23.065  23.999  1.00  0.00     0.079 C 
BRANCH   9  13
ATOM     13  C   UNL A   1      31.345  24.649  26.213  1.00  0.00     0.072 C 
BRANCH  13  14
ATOM     14  C   UNL A   1      30.995  26.117  26.058  1.00  0.00     0.262 C 
BRANCH  14  15
ATOM     15  N   UNL A   1      32.025  27.106  25.713  1.00  0.00    -0.331 N 
ATOM     16  C   UNL A   1      34.670  29.194  27.494  1.00  0.00     0.045 C 
ATOM     17  C   UNL A   1      33.885  28.596  26.341  1.00  0.00     0.170 C 
ATOM     18  C   UNL A   1      32.751  27.673  26.854  1.00  0.00     0.294 C 
ATOM     19  O   UNL A   1      33.362  29.692  25.572  1.00  0.00    -0.364 OA
ATOM     20  C   UNL A   1      32.606  29.255  24.444  1.00  0.00     0.170 C 
ATOM     21  C   UNL A   1      31.575  28.188  24.844  1.00  0.00     0.294 C 
ATOM     22  H   UNL A   1      32.677  26.528  25.182  1.00  0.00     0.348 HD
ATOM     23  C   UNL A   1      33.501  28.821  23.282  1.00  0.00     0.045 C 
ENDBRANCH  14  15
ENDBRANCH  13  14
ENDBRANCH   9  13
BRANCH   8  24
ATOM     24  N   UNL A   1      34.802  24.895  25.236  1.00  0.00    -0.345 N 
ATOM     25  H   UNL A   1      35.427  24.974  26.038  1.00  0.00     0.345 HD
ATOM     26  H   UNL A   1      34.241  25.743  25.159  1.00  0.00     0.345 HD
ATOM     27  H   UNL A   1      35.351  24.771  24.386  1.00  0.00     0.345 HD
ENDBRANCH   8  24
ENDBRANCH   5   8
ENDBRANCH   3   4
ENDBRANCH   2   3
ENDBRANCH   1   2
BRANCH   1  28
ATOM     28  C   UNL A   1      40.008  22.515  27.257  1.00  0.00     0.002 C 
BRANCH  28  29
ATOM     29  C   UNL A   1      41.404  22.033  27.674  1.00  0.00     0.021 C 
BRANCH  29  30
ATOM     30  C   UNL A   1      42.547  23.039  27.523  1.00  0.00     0.116 C 
BRANCH  30  31
ATOM     31  N   UNL A   1      42.431  23.850  26.316  1.00  0.00    -0.352 N 
ATOM     32  C   UNL A   1      42.060  25.160  26.161  1.00  0.00     0.251 C 
ATOM     33  H   UNL A   1      42.655  23.380  25.480  1.00  0.00     0.163 HD
ATOM     34  O   UNL A   1      41.837  25.598  25.026  1.00  0.00    -0.269 OA
BRANCH  32  35
ATOM     35  C   UNL A   1      41.918  26.052  27.329  1.00  0.00     0.039 A 
ATOM     36  C   UNL A   1      42.910  27.006  27.586  1.00  0.00     0.014 A 
ATOM     37  C   UNL A   1      40.829  25.929  28.196  1.00  0.00     0.014 A 
ATOM     38  C   UNL A   1      42.777  27.874  28.674  1.00  0.00     0.010 A 
ATOM     39  C   UNL A   1      40.668  26.834  29.242  1.00  0.00     0.010 A 
ATOM     40  C   UNL A   1      41.638  27.817  29.493  1.00  0.00    -0.014 A 
BRANCH  40  41
ATOM     41  C   UNL A   1      41.437  28.774  30.614  1.00  0.00     0.031 A 
ATOM     42  C   UNL A   1      42.251  28.644  31.872  1.00  0.00     0.074 A 
ATOM     43  C   UNL A   1      40.460  29.701  30.529  1.00  0.00     0.049 A 
ATOM     44  N   UNL A   1      42.145  29.305  32.996  1.00  0.00    -0.248 NA
ATOM     45  C   UNL A   1      43.307  27.618  31.879  1.00  0.00     0.031 C 
ATOM     46  C   UNL A   1      39.570  29.891  29.381  1.00  0.00     0.029 A 
ATOM     47  N   UNL A   1      40.031  30.641  31.436  1.00  0.00    -0.354 N 
ATOM     48  C   UNL A   1      43.096  28.757  33.851  1.00  0.00     0.074 A 
ATOM     49  C   UNL A   1      43.747  27.687  33.128  1.00  0.00     0.031 C 
ATOM     50  C   UNL A   1      38.706  30.882  29.651  1.00  0.00     0.029 A 
ATOM     51  C   UNL A   1      38.949  31.372  31.004  1.00  0.00     0.049 A 
ATOM     52  H   UNL A   1      40.458  30.778  32.312  1.00  0.00     0.167 HD
ATOM     53  C   UNL A   1      43.405  29.124  35.117  1.00  0.00     0.037 A 
ATOM     54  C   UNL A   1      38.219  32.315  31.634  1.00  0.00     0.037 A 
ATOM     55  C   UNL A   1      42.778  30.218  35.812  1.00  0.00     0.049 A 
ATOM     56  C   UNL A   1      38.596  32.716  33.036  1.00  0.00     0.074 A 
ATOM     57  C   UNL A   1      43.083  30.727  37.062  1.00  0.00     0.029 A 
ATOM     58  N   UNL A   1      41.719  30.968  35.323  1.00  0.00    -0.354 N 
ATOM     59  N   UNL A   1      39.557  32.245  33.796  1.00  0.00    -0.248 NA
ATOM     60  C   UNL A   1      37.800  33.779  33.665  1.00  0.00     0.031 C 
ATOM     61  C   UNL A   1      42.172  31.746  37.354  1.00  0.00     0.029 A 
ATOM     62  C   UNL A   1      41.337  31.914  36.260  1.00  0.00     0.049 A 
ATOM     63  H   UNL A   1      41.299  30.845  34.441  1.00  0.00     0.167 HD
ATOM     64  C   UNL A   1      39.498  32.975  34.979  1.00  0.00     0.074 A 
ATOM     65  C   UNL A   1      38.417  33.926  34.830  1.00  0.00     0.031 C 
ATOM     66  C   UNL A   1      40.269  32.866  36.089  1.00  0.00     0.037 A 
BRANCH  53  67
ATOM     67  C   UNL A   1      44.465  28.346  35.847  1.00  0.00     0.058 A 
ATOM     68  C   UNL A   1      44.154  27.233  36.643  1.00  0.00     0.135 A 
ATOM     69  C   UNL A   1      45.822  28.672  35.681  1.00  0.00     0.135 A 
ATOM     70  F   UNL A   1      42.873  26.885  36.849  1.00  0.00    -0.206 F 
ATOM     71  C   UNL A   1      45.147  26.477  37.258  1.00  0.00     0.059 A 
ATOM     72  C   UNL A   1      46.834  27.913  36.264  1.00  0.00     0.059 A 
ATOM     73  F   UNL A   1      46.177  29.729  34.933  1.00  0.00    -0.206 F 
ATOM     74  C   UNL A   1      46.485  26.821  37.056  1.00  0.00     0.060 A 
BRANCH  74  75
ATOM     75  S   UNL A   1      47.762  25.804  37.827  1.00  0.00     0.124 S 
ATOM     76  O   UNL A   1      47.332  24.460  37.451  1.00  0.00    -0.237 OA
ATOM     77  O   UNL A   1      48.977  26.285  37.175  1.00  0.00    -0.237 OA
ATOM     78  O   UNL A   1      47.644  26.126  39.245  1.00  0.00    -0.744 OA
ENDBRANCH  74  75
ENDBRANCH  53  67
BRANCH  54  79
ATOM     79  C   UNL A   1      37.052  32.940  30.952  1.00  0.00     0.058 A 
ATOM     80  C   UNL A   1      35.738  32.554  31.257  1.00  0.00     0.135 A 
ATOM     81  C   UNL A   1      37.229  33.928  29.970  1.00  0.00     0.135 A 
ATOM     82  F   UNL A   1      35.515  31.611  32.185  1.00  0.00    -0.206 F 
ATOM     83  C   UNL A   1      34.644  33.101  30.594  1.00  0.00     0.059 A 
ATOM     84  C   UNL A   1      36.149  34.511  29.314  1.00  0.00     0.059 A 
ATOM     85  F   UNL A   1      38.463  34.348  29.653  1.00  0.00    -0.206 F 
ATOM     86  C   UNL A   1      34.860  34.078  29.622  1.00  0.00     0.060 A 
BRANCH  86  87
ATOM     87  S   UNL A   1      33.433  34.795  28.778  1.00  0.00     0.124 S 
ATOM     88  O   UNL A   1      34.015  35.993  28.185  1.00  0.00    -0.237 OA
ATOM     89  O   UNL A   1      33.065  33.734  27.845  1.00  0.00    -0.237 OA
ATOM     90  O   UNL A   1      32.483  35.022  29.862  1.00  0.00    -0.744 OA
ENDBRANCH  86  87
ENDBRANCH  54  79
BRANCH  66  91
ATOM     91  C   UNL A   1      40.010  33.827  37.217  1.00  0.00     0.058 A 
ATOM     92  C   UNL A   1      40.539  35.127  37.216  1.00  0.00     0.135 A 
ATOM     93  C   UNL A   1      39.161  33.463  38.274  1.00  0.00     0.135 A 
ATOM     94  F   UNL A   1      41.363  35.522  36.233  1.00  0.00    -0.206 F 
ATOM     95  C   UNL A   1      40.246  36.028  38.234  1.00  0.00     0.059 A 
ATOM     96  C   UNL A   1      38.830  34.359  39.286  1.00  0.00     0.059 A 
ATOM     97  F   UNL A   1      38.621  32.236  38.317  1.00  0.00    -0.206 F 
ATOM     98  C   UNL A   1      39.385  35.637  39.262  1.00  0.00     0.060 A 
BRANCH  98  99
ATOM     99  S   UNL A   1      38.972  36.835  40.548  1.00  0.00     0.124 S 
ATOM    100  O   UNL A   1      38.447  37.944  39.759  1.00  0.00    -0.237 OA
ATOM    101  O   UNL A   1      37.993  36.106  41.349  1.00  0.00    -0.237 OA
ATOM    102  O   UNL A   1      40.251  37.082  41.206  1.00  0.00    -0.744 OA
ENDBRANCH  98  99
ENDBRANCH  66  91
ENDBRANCH  40  41
ENDBRANCH  32  35
ENDBRANCH  30  31
ENDBRANCH  29  30
ENDBRANCH  28  29
ENDBRANCH   1  28
TORSDOF 20
ENDMDL
MODEL 3
REMARK VINA RESULT:     -10.8      1.145      3.055
REMARK SMILES C[C@H]1C[NH+](CC[C@@H]2CCC[C@]2([NH3+])C(=O)NCCCCCCNC(=O)c2ccc(-c3c4nc(c(-c5c(F)cc(S(=O)(=O)[O-])cc5F)c5ccc([nH]5)c(-c5c(F)cc(S(=O)(=O)[O-])cc5F)c5nc(c(-c6c(F)cc(S(=O)(=O)[O-])cc6F)c6ccc3[nH]6)C=C5)C=C4)cc2)C[C@H](C)O1
REMARK SMILES IDX 18 1 17 2 16 3 15 4 13 5 14 6 11 8 7 9 8 10 9 11 10 12 6 13
REMARK SMILES IDX 5 14 4 15 1 16 2 17 3 18 94 19 92 20 91 21 93 23 12 24 19 28
REMARK SMILES IDX 20 29 21 30 22 31 23 32 24 34 25 35 26 36 90 37 27 38 89 39
REMARK SMILES IDX 28 40 29 41 30 42 83 43 31 44 88 45 82 46 84 47 32 48 87 49
REMARK SMILES IDX 81 50 80 51 33 53 67 54 46 55 66 56 47 57 50 58 65 59 85 60
REMARK SMILES IDX 48 61 49 62 64 64 86 65 51 66 34 67 35 68 44 69 36 70 37 71
REMARK SMILES IDX 43 72 45 73 38 74 39 75 40 76 41 77 42 78 68 79 69 80 78 81
REMARK SMILES IDX 70 82 71 83 77 84 79 85 72 86 73 87 74 88 75 89 76 90 52 91
REMARK SMILES IDX 53 92 62 93 54 94 55 95 61 96 63 97 56 98 57 99 58 100
REMARK SMILES IDX 59 101 60 102
REMARK H PARENT 15 7 4 22 12 25 12 26 12 27 22 33 84 52 50 63
REMARK Flexibility Score: inf
ROOT
ATOM      1  C   UNL A   1      36.667  21.842  25.526  1.00  0.00     0.002 C 
ENDROOT
BRANCH   1   2
ATOM      2  C   UNL A   1      35.654  22.995  25.554  1.00  0.00     0.021 C 
BRANCH   2   3
ATOM      3  C   UNL A   1      35.228  23.576  24.183  1.00  0.00     0.116 C 
BRANCH   3   4
ATOM      4  N   UNL A   1      34.064  22.897  23.580  1.00  0.00    -0.351 N 
ATOM      5  C   UNL A   1      32.732  22.940  23.361  1.00  0.00     0.281 C 
ATOM      6  O   UNL A   1      32.446  22.073  22.506  1.00  0.00    -0.268 OA
ATOM      7  H   UNL A   1      34.397  22.069  23.166  1.00  0.00     0.163 HD
BRANCH   5   8
ATOM      8  C   UNL A   1      31.535  23.876  23.910  1.00  0.00     0.177 C 
ATOM      9  C   UNL A   1      31.763  25.267  24.603  1.00  0.00     0.066 C 
ATOM     10  C   UNL A   1      32.546  24.882  25.878  1.00  0.00     0.011 C 
ATOM     11  C   UNL A   1      31.963  23.545  26.325  1.00  0.00     0.008 C 
ATOM     12  C   UNL A   1      31.011  23.139  25.209  1.00  0.00     0.079 C 
BRANCH   9  13
ATOM     13  C   UNL A   1      32.255  26.618  24.025  1.00  0.00     0.072 C 
BRANCH  13  14
ATOM     14  C   UNL A   1      33.450  27.324  24.637  1.00  0.00     0.262 C 
BRANCH  14  15
ATOM     15  N   UNL A   1      33.284  28.573  25.393  1.00  0.00    -0.331 N 
ATOM     16  C   UNL A   1      35.226  30.627  27.949  1.00  0.00     0.045 C 
ATOM     17  C   UNL A   1      34.123  30.272  26.969  1.00  0.00     0.170 C 
ATOM     18  C   UNL A   1      34.361  28.875  26.341  1.00  0.00     0.294 C 
ATOM     19  O   UNL A   1      32.883  30.317  27.694  1.00  0.00    -0.364 OA
ATOM     20  C   UNL A   1      31.760  30.008  26.871  1.00  0.00     0.170 C 
ATOM     21  C   UNL A   1      31.997  28.721  26.065  1.00  0.00     0.294 C 
ATOM     22  H   UNL A   1      33.327  29.261  24.641  1.00  0.00     0.348 HD
ATOM     23  C   UNL A   1      31.336  31.193  26.001  1.00  0.00     0.045 C 
ENDBRANCH  14  15
ENDBRANCH  13  14
ENDBRANCH   9  13
BRANCH   8  24
ATOM     24  N   UNL A   1      30.319  23.733  23.081  1.00  0.00    -0.345 N 
ATOM     25  H   UNL A   1      29.525  24.149  23.567  1.00  0.00     0.345 HD
ATOM     26  H   UNL A   1      30.135  22.744  22.916  1.00  0.00     0.345 HD
ATOM     27  H   UNL A   1      30.459  24.206  22.189  1.00  0.00     0.345 HD
ENDBRANCH   8  24
ENDBRANCH   5   8
ENDBRANCH   3   4
ENDBRANCH   2   3
ENDBRANCH   1   2
BRANCH   1  28
ATOM     28  C   UNL A   1      38.144  22.245  25.433  1.00  0.00     0.002 C 
BRANCH  28  29
ATOM     29  C   UNL A   1      38.630  23.326  26.408  1.00  0.00     0.021 C 
BRANCH  29  30
ATOM     30  C   UNL A   1      39.980  23.079  27.084  1.00  0.00     0.116 C 
BRANCH  30  31
ATOM     31  N   UNL A   1      41.110  23.488  26.258  1.00  0.00    -0.352 N 
ATOM     32  C   UNL A   1      41.801  24.672  26.225  1.00  0.00     0.251 C 
ATOM     33  H   UNL A   1      41.425  22.806  25.622  1.00  0.00     0.163 HD
ATOM     34  O   UNL A   1      42.603  24.882  25.308  1.00  0.00    -0.269 OA
BRANCH  32  35
ATOM     35  C   UNL A   1      41.597  25.699  27.266  1.00  0.00     0.039 A 
ATOM     36  C   UNL A   1      40.611  25.502  28.240  1.00  0.00     0.014 A 
ATOM     37  C   UNL A   1      42.349  26.877  27.265  1.00  0.00     0.014 A 
ATOM     38  C   UNL A   1      40.423  26.454  29.245  1.00  0.00     0.010 A 
ATOM     39  C   UNL A   1      42.203  27.795  28.303  1.00  0.00     0.010 A 
ATOM     40  C   UNL A   1      41.241  27.595  29.305  1.00  0.00    -0.014 A 
BRANCH  40  41
ATOM     41  C   UNL A   1      41.111  28.589  30.404  1.00  0.00     0.031 A 
ATOM     42  C   UNL A   1      41.971  28.471  31.633  1.00  0.00     0.074 A 
ATOM     43  C   UNL A   1      40.158  29.541  30.330  1.00  0.00     0.049 A 
ATOM     44  N   UNL A   1      41.928  29.165  32.741  1.00  0.00    -0.248 NA
ATOM     45  C   UNL A   1      42.997  27.415  31.629  1.00  0.00     0.031 C 
ATOM     46  C   UNL A   1      39.230  29.725  29.212  1.00  0.00     0.029 A 
ATOM     47  N   UNL A   1      39.793  30.518  31.224  1.00  0.00    -0.354 N 
ATOM     48  C   UNL A   1      42.896  28.614  33.573  1.00  0.00     0.074 A 
ATOM     49  C   UNL A   1      43.488  27.506  32.857  1.00  0.00     0.031 C 
ATOM     50  C   UNL A   1      38.406  30.748  29.486  1.00  0.00     0.029 A 
ATOM     51  C   UNL A   1      38.715  31.268  30.814  1.00  0.00     0.049 A 
ATOM     52  H   UNL A   1      40.258  30.667  32.079  1.00  0.00     0.167 HD
ATOM     53  C   UNL A   1      43.265  29.007  34.816  1.00  0.00     0.037 A 
ATOM     54  C   UNL A   1      38.037  32.250  31.443  1.00  0.00     0.037 A 
ATOM     55  C   UNL A   1      42.697  30.139  35.502  1.00  0.00     0.049 A 
ATOM     56  C   UNL A   1      38.481  32.679  32.817  1.00  0.00     0.074 A 
ATOM     57  C   UNL A   1      43.065  30.674  36.724  1.00  0.00     0.029 A 
ATOM     58  N   UNL A   1      41.641  30.905  35.032  1.00  0.00    -0.354 N 
ATOM     59  N   UNL A   1      39.457  32.201  33.553  1.00  0.00    -0.248 NA
ATOM     60  C   UNL A   1      37.741  33.782  33.445  1.00  0.00     0.031 C 
ATOM     61  C   UNL A   1      42.195  31.727  37.020  1.00  0.00     0.029 A 
ATOM     62  C   UNL A   1      41.324  31.888  35.955  1.00  0.00     0.049 A 
ATOM     63  H   UNL A   1      41.183  30.770  34.171  1.00  0.00     0.167 HD
ATOM     64  C   UNL A   1      39.465  32.966  34.716  1.00  0.00     0.074 A 
ATOM     65  C   UNL A   1      38.407  33.944  34.581  1.00  0.00     0.031 C 
ATOM     66  C   UNL A   1      40.277  32.866  35.798  1.00  0.00     0.037 A 
BRANCH  53  67
ATOM     67  C   UNL A   1      44.331  28.219  35.526  1.00  0.00     0.058 A 
ATOM     68  C   UNL A   1      44.019  27.148  36.377  1.00  0.00     0.135 A 
ATOM     69  C   UNL A   1      45.689  28.491  35.288  1.00  0.00     0.135 A 
ATOM     70  F   UNL A   1      42.738  26.853  36.653  1.00  0.00    -0.206 F 
ATOM     71  C   UNL A   1      45.013  26.380  36.975  1.00  0.00     0.059 A 
ATOM     72  C   UNL A   1      46.700  27.719  35.853  1.00  0.00     0.059 A 
ATOM     73  F   UNL A   1      46.044  29.507  34.485  1.00  0.00    -0.206 F 
ATOM     74  C   UNL A   1      46.352  26.669  36.701  1.00  0.00     0.060 A 
BRANCH  74  75
ATOM     75  S   UNL A   1      47.628  25.636  37.452  1.00  0.00     0.124 S 
ATOM     76  O   UNL A   1      46.921  24.368  37.609  1.00  0.00    -0.237 OA
ATOM     77  O   UNL A   1      48.678  25.654  36.438  1.00  0.00    -0.237 OA
ATOM     78  O   UNL A   1      47.945  26.335  38.693  1.00  0.00    -0.744 OA
ENDBRANCH  74  75
ENDBRANCH  53  67
BRANCH  54  79
ATOM     79  C   UNL A   1      36.862  32.889  30.789  1.00  0.00     0.058 A 
ATOM     80  C   UNL A   1      37.024  33.834  29.766  1.00  0.00     0.135 A 
ATOM     81  C   UNL A   1      35.552  32.576  31.186  1.00  0.00     0.135 A 
ATOM     82  F   UNL A   1      38.255  34.171  29.352  1.00  0.00    -0.206 F 
ATOM     83  C   UNL A   1      35.933  34.470  29.180  1.00  0.00     0.059 A 
ATOM     84  C   UNL A   1      34.444  33.176  30.594  1.00  0.00     0.059 A 
ATOM     85  F   UNL A   1      35.339  31.664  32.147  1.00  0.00    -0.206 F 
ATOM     86  C   UNL A   1      34.646  34.134  29.603  1.00  0.00     0.060 A 
BRANCH  86  87
ATOM     87  S   UNL A   1      33.236  34.951  28.824  1.00  0.00     0.124 S 
ATOM     88  O   UNL A   1      33.870  36.114  28.216  1.00  0.00    -0.237 OA
ATOM     89  O   UNL A   1      32.762  33.926  27.899  1.00  0.00    -0.237 OA
ATOM     90  O   UNL A   1      32.348  35.230  29.948  1.00  0.00    -0.744 OA
ENDBRANCH  86  87
ENDBRANCH  54  79
BRANCH  66  91
ATOM     91  C   UNL A   1      40.090  33.865  36.906  1.00  0.00     0.058 A 
ATOM     92  C   UNL A   1      40.776  35.089  36.921  1.00  0.00     0.135 A 
ATOM     93  C   UNL A   1      39.155  33.623  37.926  1.00  0.00     0.135 A 
ATOM     94  F   UNL A   1      41.687  35.366  35.974  1.00  0.00    -0.206 F 
ATOM     95  C   UNL A   1      40.553  36.032  37.919  1.00  0.00     0.059 A 
ATOM     96  C   UNL A   1      38.894  34.565  38.915  1.00  0.00     0.059 A 
ATOM     97  F   UNL A   1      38.464  32.473  37.952  1.00  0.00    -0.206 F 
ATOM     98  C   UNL A   1      39.605  35.764  38.908  1.00  0.00     0.060 A 
BRANCH  98  99
ATOM     99  S   UNL A   1      39.288  37.019  40.167  1.00  0.00     0.124 S 
ATOM    100  O   UNL A   1      40.642  37.354  40.595  1.00  0.00    -0.237 OA
ATOM    101  O   UNL A   1      38.589  38.052  39.407  1.00  0.00    -0.237 OA
ATOM    102  O   UNL A   1      38.474  36.316  41.152  1.00  0.00    -0.744 OA
ENDBRANCH  98  99
ENDBRANCH  66  91
ENDBRANCH  40  41
ENDBRANCH  32  35
ENDBRANCH  30  31
ENDBRANCH  29  30
ENDBRANCH  28  29
ENDBRANCH   1  28
TORSDOF 20
ENDMDL
