MODEL 1
REMARK VINA RESULT:     -10.2      0.000      0.000
REMARK SMILES Cc1cc([C@H]([NH3+])CCCC(=O)NCCCCCCNC(=O)c2ccc(-c3c4nc(c(-c5c(F)cc(S(=O)(=O)[O-])cc5F)c5ccc([nH]5)c(-c5c(F)cc(S(=O)(=O)[O-])cc5F)c5nc(c(-c6c(F)cc(S(=O)(=O)[O-])cc6F)c6ccc3[nH]6)C=C5)C=C4)cc2)c(F)cc1F
REMARK SMILES IDX 15 1 14 2 13 3 12 4 10 5 11 6 9 8 8 9 7 10 5 11 4 12 1 13
REMARK SMILES IDX 2 14 3 15 91 16 90 17 92 18 88 19 89 20 6 21 16 25 17 26
REMARK SMILES IDX 18 27 19 28 20 29 21 31 22 32 23 33 87 34 24 35 86 36 25 37
REMARK SMILES IDX 26 38 27 39 80 40 28 41 85 42 79 43 81 44 29 45 84 46 78 47
REMARK SMILES IDX 77 48 30 50 64 51 43 52 63 53 44 54 47 55 62 56 82 57 45 58
REMARK SMILES IDX 46 59 61 61 83 62 48 63 31 64 32 65 41 66 33 67 34 68 40 69
REMARK SMILES IDX 42 70 35 71 36 72 37 73 38 74 39 75 65 76 66 77 75 78 67 79
REMARK SMILES IDX 68 80 74 81 76 82 69 83 70 84 71 85 72 86 73 87 49 88 50 89
REMARK SMILES IDX 59 90 51 91 52 92 58 93 60 94 53 95 54 96 55 97 56 98 57 99
REMARK H PARENT 12 7 6 22 6 23 6 24 19 30 81 49 47 60
REMARK Flexibility Score: inf
ROOT
ATOM      1  C   UNL A   1      44.135  23.720  28.950  1.00  0.00     0.002 C 
ENDROOT
BRANCH   1   2
ATOM      2  C   UNL A   1      44.708  24.638  30.030  1.00  0.00     0.021 C 
BRANCH   2   3
ATOM      3  C   UNL A   1      45.615  25.748  29.492  1.00  0.00     0.116 C 
BRANCH   3   4
ATOM      4  N   UNL A   1      46.713  25.183  28.736  1.00  0.00    -0.356 N 
ATOM      5  C   UNL A   1      46.892  25.101  27.390  1.00  0.00     0.219 C 
ATOM      6  O   UNL A   1      47.867  24.474  26.971  1.00  0.00    -0.275 OA
ATOM      7  H   UNL A   1      47.439  24.800  29.279  1.00  0.00     0.163 HD
BRANCH   5   8
ATOM      8  C   UNL A   1      45.945  25.807  26.434  1.00  0.00     0.100 C 
BRANCH   8   9
ATOM      9  C   UNL A   1      45.721  25.105  25.090  1.00  0.00     0.016 C 
BRANCH   9  10
ATOM     10  C   UNL A   1      44.843  23.841  25.093  1.00  0.00     0.071 C 
BRANCH  10  11
ATOM     11  C   UNL A   1      45.296  22.702  24.148  1.00  0.00     0.214 C 
BRANCH  11  12
ATOM     12  C   UNL A   1      44.987  21.304  24.663  1.00  0.00     0.045 A 
ATOM     13  C   UNL A   1      41.990  19.445  26.155  1.00  0.00     0.047 C 
ATOM     14  C   UNL A   1      43.357  19.729  25.604  1.00  0.00    -0.015 A 
ATOM     15  C   UNL A   1      43.682  21.002  25.110  1.00  0.00     0.019 A 
ATOM     16  C   UNL A   1      44.355  18.754  25.647  1.00  0.00     0.129 A 
ATOM     17  C   UNL A   1      45.642  19.020  25.201  1.00  0.00     0.079 A 
ATOM     18  F   UNL A   1      44.086  17.548  26.163  1.00  0.00    -0.207 F 
ATOM     19  C   UNL A   1      45.947  20.287  24.711  1.00  0.00     0.135 A 
ATOM     20  F   UNL A   1      47.199  20.525  24.297  1.00  0.00    -0.206 F 
ENDBRANCH  11  12
BRANCH  11  21
ATOM     21  N   UNL A   1      46.714  22.845  23.822  1.00  0.00    -0.351 N 
ATOM     22  H   UNL A   1      46.811  23.372  22.954  1.00  0.00     0.345 HD
ATOM     23  H   UNL A   1      47.132  21.922  23.708  1.00  0.00     0.345 HD
ATOM     24  H   UNL A   1      47.189  23.343  24.576  1.00  0.00     0.345 HD
ENDBRANCH  11  21
ENDBRANCH  10  11
ENDBRANCH   9  10
ENDBRANCH   8   9
ENDBRANCH   5   8
ENDBRANCH   3   4
ENDBRANCH   2   3
ENDBRANCH   1   2
BRANCH   1  25
ATOM     25  C   UNL A   1      42.684  23.279  29.181  1.00  0.00     0.002 C 
BRANCH  25  26
ATOM     26  C   UNL A   1      42.070  22.439  28.062  1.00  0.00     0.021 C 
BRANCH  26  27
ATOM     27  C   UNL A   1      40.824  23.035  27.415  1.00  0.00     0.116 C 
BRANCH  27  28
ATOM     28  N   UNL A   1      41.149  23.903  26.294  1.00  0.00    -0.352 N 
ATOM     29  C   UNL A   1      41.201  25.276  26.240  1.00  0.00     0.251 C 
ATOM     30  H   UNL A   1      41.363  23.439  25.451  1.00  0.00     0.163 HD
ATOM     31  O   UNL A   1      41.288  25.842  25.157  1.00  0.00    -0.269 OA
BRANCH  29  32
ATOM     32  C   UNL A   1      41.129  26.067  27.491  1.00  0.00     0.039 A 
ATOM     33  C   UNL A   1      40.036  25.943  28.351  1.00  0.00     0.014 A 
ATOM     34  C   UNL A   1      42.166  26.951  27.803  1.00  0.00     0.014 A 
ATOM     35  C   UNL A   1      39.897  26.821  29.421  1.00  0.00     0.010 A 
ATOM     36  C   UNL A   1      42.065  27.771  28.932  1.00  0.00     0.010 A 
ATOM     37  C   UNL A   1      40.904  27.752  29.722  1.00  0.00    -0.014 A 
BRANCH  37  38
ATOM     38  C   UNL A   1      40.708  28.709  30.848  1.00  0.00     0.031 A 
ATOM     39  C   UNL A   1      41.620  28.679  32.048  1.00  0.00     0.074 A 
ATOM     40  C   UNL A   1      39.742  29.645  30.764  1.00  0.00     0.049 A 
ATOM     41  N   UNL A   1      41.603  29.439  33.115  1.00  0.00    -0.248 NA
ATOM     42  C   UNL A   1      42.683  27.662  32.059  1.00  0.00     0.031 C 
ATOM     43  C   UNL A   1      38.801  29.786  29.650  1.00  0.00     0.029 A 
ATOM     44  N   UNL A   1      39.404  30.670  31.612  1.00  0.00    -0.354 N 
ATOM     45  C   UNL A   1      42.635  28.982  33.928  1.00  0.00     0.074 A 
ATOM     46  C   UNL A   1      43.230  27.851  33.251  1.00  0.00     0.031 C 
ATOM     47  C   UNL A   1      38.031  30.865  29.856  1.00  0.00     0.029 A 
ATOM     48  C   UNL A   1      38.374  31.454  31.147  1.00  0.00     0.049 A 
ATOM     49  H   UNL A   1      39.855  30.828  32.473  1.00  0.00     0.167 HD
ATOM     50  C   UNL A   1      43.063  29.474  35.116  1.00  0.00     0.037 A 
ATOM     51  C   UNL A   1      37.762  32.520  31.699  1.00  0.00     0.037 A 
ATOM     52  C   UNL A   1      42.485  30.621  35.771  1.00  0.00     0.049 A 
ATOM     53  C   UNL A   1      38.219  33.014  33.043  1.00  0.00     0.074 A 
ATOM     54  C   UNL A   1      42.868  31.213  36.962  1.00  0.00     0.029 A 
ATOM     55  N   UNL A   1      41.405  31.351  35.293  1.00  0.00    -0.354 N 
ATOM     56  N   UNL A   1      39.208  32.580  33.787  1.00  0.00    -0.248 NA
ATOM     57  C   UNL A   1      37.472  34.136  33.628  1.00  0.00     0.031 C 
ATOM     58  C   UNL A   1      41.989  32.266  37.231  1.00  0.00     0.029 A 
ATOM     59  C   UNL A   1      41.091  32.366  36.182  1.00  0.00     0.049 A 
ATOM     60  H   UNL A   1      40.932  31.171  34.449  1.00  0.00     0.167 HD
ATOM     61  C   UNL A   1      39.208  33.379  34.924  1.00  0.00     0.074 A 
ATOM     62  C   UNL A   1      38.136  34.340  34.759  1.00  0.00     0.031 C 
ATOM     63  C   UNL A   1      40.017  33.315  36.010  1.00  0.00     0.037 A 
BRANCH  50  64
ATOM     64  C   UNL A   1      44.212  28.778  35.795  1.00  0.00     0.058 A 
ATOM     65  C   UNL A   1      45.544  29.153  35.561  1.00  0.00     0.135 A 
ATOM     66  C   UNL A   1      43.977  27.758  36.733  1.00  0.00     0.135 A 
ATOM     67  F   UNL A   1      45.832  30.112  34.666  1.00  0.00    -0.206 F 
ATOM     68  C   UNL A   1      46.602  28.527  36.213  1.00  0.00     0.059 A 
ATOM     69  C   UNL A   1      45.018  27.137  37.418  1.00  0.00     0.059 A 
ATOM     70  F   UNL A   1      42.722  27.360  36.997  1.00  0.00    -0.206 F 
ATOM     71  C   UNL A   1      46.329  27.521  37.142  1.00  0.00     0.060 A 
BRANCH  71  72
ATOM     72  S   UNL A   1      47.717  26.725  37.976  1.00  0.00     0.124 S 
ATOM     73  O   UNL A   1      47.137  26.417  39.280  1.00  0.00    -0.237 OA
ATOM     74  O   UNL A   1      47.979  25.577  37.113  1.00  0.00    -0.237 OA
ATOM     75  O   UNL A   1      48.751  27.755  37.978  1.00  0.00    -0.744 OA
ENDBRANCH  71  72
ENDBRANCH  50  64
BRANCH  51  76
ATOM     76  C   UNL A   1      36.648  33.187  30.971  1.00  0.00     0.058 A 
ATOM     77  C   UNL A   1      35.317  33.022  31.381  1.00  0.00     0.135 A 
ATOM     78  C   UNL A   1      36.895  34.033  29.879  1.00  0.00     0.135 A 
ATOM     79  F   UNL A   1      35.028  32.214  32.414  1.00  0.00    -0.206 F 
ATOM     80  C   UNL A   1      34.270  33.670  30.735  1.00  0.00     0.059 A 
ATOM     81  C   UNL A   1      35.869  34.717  29.234  1.00  0.00     0.059 A 
ATOM     82  F   UNL A   1      38.152  34.234  29.453  1.00  0.00    -0.206 F 
ATOM     83  C   UNL A   1      34.558  34.524  29.668  1.00  0.00     0.060 A 
BRANCH  83  84
ATOM     84  S   UNL A   1      33.196  35.415  28.885  1.00  0.00     0.124 S 
ATOM     85  O   UNL A   1      33.911  36.429  28.117  1.00  0.00    -0.237 OA
ATOM     86  O   UNL A   1      32.554  34.361  28.107  1.00  0.00    -0.237 OA
ATOM     87  O   UNL A   1      32.420  35.911  30.017  1.00  0.00    -0.744 OA
ENDBRANCH  83  84
ENDBRANCH  51  76
BRANCH  63  88
ATOM     88  C   UNL A   1      39.782  34.311  37.114  1.00  0.00     0.058 A 
ATOM     89  C   UNL A   1      38.976  34.000  38.219  1.00  0.00     0.135 A 
ATOM     90  C   UNL A   1      40.432  35.557  37.105  1.00  0.00     0.135 A 
ATOM     91  F   UNL A   1      38.325  32.827  38.274  1.00  0.00    -0.206 F 
ATOM     92  C   UNL A   1      38.810  34.894  39.272  1.00  0.00     0.059 A 
ATOM     93  C   UNL A   1      40.304  36.453  38.161  1.00  0.00     0.059 A 
ATOM     94  F   UNL A   1      41.223  35.900  36.077  1.00  0.00    -0.206 F 
ATOM     95  C   UNL A   1      39.485  36.115  39.238  1.00  0.00     0.060 A 
BRANCH  95  96
ATOM     96  S   UNL A   1      39.298  37.241  40.636  1.00  0.00     0.124 S 
ATOM     97  O   UNL A   1      38.251  38.138  40.157  1.00  0.00    -0.237 OA
ATOM     98  O   UNL A   1      38.913  36.334  41.713  1.00  0.00    -0.237 OA
ATOM     99  O   UNL A   1      40.622  37.840  40.772  1.00  0.00    -0.744 OA
ENDBRANCH  95  96
ENDBRANCH  63  88
ENDBRANCH  37  38
ENDBRANCH  29  32
ENDBRANCH  27  28
ENDBRANCH  26  27
ENDBRANCH  25  26
ENDBRANCH   1  25
TORSDOF 21
ENDMDL
MODEL 2
REMARK VINA RESULT:     -10.2      4.316      6.882
REMARK SMILES Cc1cc([C@H]([NH3+])CCCC(=O)NCCCCCCNC(=O)c2ccc(-c3c4nc(c(-c5c(F)cc(S(=O)(=O)[O-])cc5F)c5ccc([nH]5)c(-c5c(F)cc(S(=O)(=O)[O-])cc5F)c5nc(c(-c6c(F)cc(S(=O)(=O)[O-])cc6F)c6ccc3[nH]6)C=C5)C=C4)cc2)c(F)cc1F
REMARK SMILES IDX 15 1 14 2 13 3 12 4 10 5 11 6 9 8 8 9 7 10 5 11 4 12 1 13
REMARK SMILES IDX 2 14 3 15 91 16 90 17 92 18 88 19 89 20 6 21 16 25 17 26
REMARK SMILES IDX 18 27 19 28 20 29 21 31 22 32 23 33 87 34 24 35 86 36 25 37
REMARK SMILES IDX 26 38 27 39 80 40 28 41 85 42 79 43 81 44 29 45 84 46 78 47
REMARK SMILES IDX 77 48 30 50 64 51 43 52 63 53 44 54 47 55 62 56 82 57 45 58
REMARK SMILES IDX 46 59 61 61 83 62 48 63 31 64 32 65 41 66 33 67 34 68 40 69
REMARK SMILES IDX 42 70 35 71 36 72 37 73 38 74 39 75 65 76 66 77 75 78 67 79
REMARK SMILES IDX 68 80 74 81 76 82 69 83 70 84 71 85 72 86 73 87 49 88 50 89
REMARK SMILES IDX 59 90 51 91 52 92 58 93 60 94 53 95 54 96 55 97 56 98 57 99
REMARK H PARENT 12 7 6 22 6 23 6 24 19 30 81 49 47 60
REMARK Flexibility Score: inf
ROOT
ATOM      1  C   UNL A   1      37.306  21.981  25.279  1.00  0.00     0.002 C 
ENDROOT
BRANCH   1   2
ATOM      2  C   UNL A   1      35.902  21.445  25.565  1.00  0.00     0.021 C 
BRANCH   2   3
ATOM      3  C   UNL A   1      35.603  20.093  24.914  1.00  0.00     0.116 C 
BRANCH   3   4
ATOM      4  N   UNL A   1      34.369  19.542  25.432  1.00  0.00    -0.356 N 
ATOM      5  C   UNL A   1      33.120  19.547  24.893  1.00  0.00     0.219 C 
ATOM      6  O   UNL A   1      32.191  19.105  25.574  1.00  0.00    -0.275 OA
ATOM      7  H   UNL A   1      34.446  19.097  26.306  1.00  0.00     0.163 HD
BRANCH   5   8
ATOM      8  C   UNL A   1      32.886  20.036  23.473  1.00  0.00     0.100 C 
BRANCH   8   9
ATOM      9  C   UNL A   1      32.153  21.377  23.351  1.00  0.00     0.016 C 
BRANCH   9  10
ATOM     10  C   UNL A   1      32.559  22.493  24.329  1.00  0.00     0.071 C 
BRANCH  10  11
ATOM     11  C   UNL A   1      31.428  23.046  25.230  1.00  0.00     0.214 C 
BRANCH  11  12
ATOM     12  C   UNL A   1      31.204  24.544  25.102  1.00  0.00     0.045 A 
ATOM     13  C   UNL A   1      31.882  27.687  27.183  1.00  0.00     0.047 C 
ATOM     14  C   UNL A   1      31.465  26.792  26.052  1.00  0.00    -0.015 A 
ATOM     15  C   UNL A   1      31.662  25.404  26.123  1.00  0.00     0.019 A 
ATOM     16  C   UNL A   1      30.800  27.316  24.942  1.00  0.00     0.129 A 
ATOM     17  C   UNL A   1      30.351  26.495  23.917  1.00  0.00     0.079 A 
ATOM     18  F   UNL A   1      30.552  28.630  24.873  1.00  0.00    -0.207 F 
ATOM     19  C   UNL A   1      30.558  25.121  24.003  1.00  0.00     0.135 A 
ATOM     20  F   UNL A   1      30.105  24.347  23.008  1.00  0.00    -0.206 F 
ENDBRANCH  11  12
BRANCH  11  21
ATOM     21  N   UNL A   1      31.652  22.659  26.622  1.00  0.00    -0.351 N 
ATOM     22  H   UNL A   1      32.296  21.868  26.655  1.00  0.00     0.345 HD
ATOM     23  H   UNL A   1      30.765  22.391  27.047  1.00  0.00     0.345 HD
ATOM     24  H   UNL A   1      32.052  23.445  27.134  1.00  0.00     0.345 HD
ENDBRANCH  11  21
ENDBRANCH  10  11
ENDBRANCH   9  10
ENDBRANCH   8   9
ENDBRANCH   5   8
ENDBRANCH   3   4
ENDBRANCH   2   3
ENDBRANCH   1   2
BRANCH   1  25
ATOM     25  C   UNL A   1      37.434  23.509  25.314  1.00  0.00     0.002 C 
BRANCH  25  26
ATOM     26  C   UNL A   1      38.015  24.086  26.604  1.00  0.00     0.021 C 
BRANCH  26  27
ATOM     27  C   UNL A   1      39.448  23.664  26.912  1.00  0.00     0.116 C 
BRANCH  27  28
ATOM     28  N   UNL A   1      40.405  24.251  25.988  1.00  0.00    -0.352 N 
ATOM     29  C   UNL A   1      41.076  25.449  26.070  1.00  0.00     0.251 C 
ATOM     30  H   UNL A   1      40.600  23.713  25.186  1.00  0.00     0.163 HD
ATOM     31  O   UNL A   1      41.683  25.877  25.097  1.00  0.00    -0.269 OA
BRANCH  29  32
ATOM     32  C   UNL A   1      41.041  26.228  27.331  1.00  0.00     0.039 A 
ATOM     33  C   UNL A   1      40.175  25.871  28.366  1.00  0.00     0.014 A 
ATOM     34  C   UNL A   1      41.879  27.338  27.473  1.00  0.00     0.014 A 
ATOM     35  C   UNL A   1      40.023  26.716  29.461  1.00  0.00     0.010 A 
ATOM     36  C   UNL A   1      41.789  28.136  28.618  1.00  0.00     0.010 A 
ATOM     37  C   UNL A   1      40.821  27.864  29.598  1.00  0.00    -0.014 A 
BRANCH  37  38
ATOM     38  C   UNL A   1      40.606  28.773  30.760  1.00  0.00     0.031 A 
ATOM     39  C   UNL A   1      41.504  28.699  31.969  1.00  0.00     0.074 A 
ATOM     40  C   UNL A   1      39.636  29.707  30.703  1.00  0.00     0.049 A 
ATOM     41  N   UNL A   1      41.470  29.415  33.065  1.00  0.00    -0.248 NA
ATOM     42  C   UNL A   1      42.573  27.687  31.951  1.00  0.00     0.031 C 
ATOM     43  C   UNL A   1      38.707  29.887  29.585  1.00  0.00     0.029 A 
ATOM     44  N   UNL A   1      39.282  30.694  31.588  1.00  0.00    -0.354 N 
ATOM     45  C   UNL A   1      42.496  28.930  33.871  1.00  0.00     0.074 A 
ATOM     46  C   UNL A   1      43.106  27.830  33.156  1.00  0.00     0.031 C 
ATOM     47  C   UNL A   1      37.929  30.953  29.826  1.00  0.00     0.029 A 
ATOM     48  C   UNL A   1      38.254  31.491  31.143  1.00  0.00     0.049 A 
ATOM     49  H   UNL A   1      39.722  30.819  32.460  1.00  0.00     0.167 HD
ATOM     50  C   UNL A   1      42.907  29.376  35.083  1.00  0.00     0.037 A 
ATOM     51  C   UNL A   1      37.629  32.531  31.730  1.00  0.00     0.037 A 
ATOM     52  C   UNL A   1      42.316  30.492  35.777  1.00  0.00     0.049 A 
ATOM     53  C   UNL A   1      38.068  32.972  33.099  1.00  0.00     0.074 A 
ATOM     54  C   UNL A   1      42.681  31.036  36.996  1.00  0.00     0.029 A 
ATOM     55  N   UNL A   1      41.237  31.234  35.317  1.00  0.00    -0.354 N 
ATOM     56  N   UNL A   1      39.051  32.513  33.836  1.00  0.00    -0.248 NA
ATOM     57  C   UNL A   1      37.307  34.065  33.721  1.00  0.00     0.031 C 
ATOM     58  C   UNL A   1      41.793  32.073  37.298  1.00  0.00     0.029 A 
ATOM     59  C   UNL A   1      40.906  32.212  36.243  1.00  0.00     0.049 A 
ATOM     60  H   UNL A   1      40.775  31.087  34.461  1.00  0.00     0.167 HD
ATOM     61  C   UNL A   1      39.033  33.264  35.005  1.00  0.00     0.074 A 
ATOM     62  C   UNL A   1      37.958  34.226  34.866  1.00  0.00     0.031 C 
ATOM     63  C   UNL A   1      39.829  33.161  36.097  1.00  0.00     0.037 A 
BRANCH  50  64
ATOM     64  C   UNL A   1      44.052  28.658  35.747  1.00  0.00     0.058 A 
ATOM     65  C   UNL A   1      43.840  27.581  36.622  1.00  0.00     0.135 A 
ATOM     66  C   UNL A   1      45.382  29.015  35.463  1.00  0.00     0.135 A 
ATOM     67  F   UNL A   1      42.591  27.203  36.942  1.00  0.00    -0.206 F 
ATOM     68  C   UNL A   1      44.902  26.901  37.211  1.00  0.00     0.059 A 
ATOM     69  C   UNL A   1      46.459  28.331  36.018  1.00  0.00     0.059 A 
ATOM     70  F   UNL A   1      45.644  30.036  34.632  1.00  0.00    -0.206 F 
ATOM     71  C   UNL A   1      46.209  27.282  36.901  1.00  0.00     0.060 A 
BRANCH  71  72
ATOM     72  S   UNL A   1      47.569  26.383  37.675  1.00  0.00     0.124 S 
ATOM     73  O   UNL A   1      48.558  26.370  36.602  1.00  0.00    -0.237 OA
ATOM     74  O   UNL A   1      47.888  27.232  38.819  1.00  0.00    -0.237 OA
ATOM     75  O   UNL A   1      46.981  25.088  38.002  1.00  0.00    -0.744 OA
ENDBRANCH  71  72
ENDBRANCH  50  64
BRANCH  51  76
ATOM     76  C   UNL A   1      36.520  33.221  31.018  1.00  0.00     0.058 A 
ATOM     77  C   UNL A   1      35.185  33.028  31.402  1.00  0.00     0.135 A 
ATOM     78  C   UNL A   1      36.775  34.116  29.967  1.00  0.00     0.135 A 
ATOM     79  F   UNL A   1      34.889  32.174  32.394  1.00  0.00    -0.206 F 
ATOM     80  C   UNL A   1      34.142  33.697  30.770  1.00  0.00     0.059 A 
ATOM     81  C   UNL A   1      35.752  34.819  29.339  1.00  0.00     0.059 A 
ATOM     82  F   UNL A   1      38.036  34.344  29.568  1.00  0.00    -0.206 F 
ATOM     83  C   UNL A   1      34.437  34.599  29.746  1.00  0.00     0.060 A 
BRANCH  83  84
ATOM     84  S   UNL A   1      33.080  35.513  28.983  1.00  0.00     0.124 S 
ATOM     85  O   UNL A   1      32.387  34.457  28.254  1.00  0.00    -0.237 OA
ATOM     86  O   UNL A   1      32.383  36.048  30.149  1.00  0.00    -0.237 OA
ATOM     87  O   UNL A   1      33.762  36.506  28.159  1.00  0.00    -0.744 OA
ENDBRANCH  83  84
ENDBRANCH  51  76
BRANCH  63  88
ATOM     88  C   UNL A   1      39.576  34.110  37.238  1.00  0.00     0.058 A 
ATOM     89  C   UNL A   1      38.879  33.703  38.385  1.00  0.00     0.135 A 
ATOM     90  C   UNL A   1      40.103  35.412  37.217  1.00  0.00     0.135 A 
ATOM     91  F   UNL A   1      38.348  32.472  38.454  1.00  0.00    -0.206 F 
ATOM     92  C   UNL A   1      38.701  34.558  39.468  1.00  0.00     0.059 A 
ATOM     93  C   UNL A   1      39.962  36.274  38.300  1.00  0.00     0.059 A 
ATOM     94  F   UNL A   1      40.786  35.848  36.147  1.00  0.00    -0.206 F 
ATOM     95  C   UNL A   1      39.253  35.839  39.420  1.00  0.00     0.060 A 
BRANCH  95  96
ATOM     96  S   UNL A   1      39.055  36.916  40.854  1.00  0.00     0.124 S 
ATOM     97  O   UNL A   1      38.455  38.103  40.253  1.00  0.00    -0.237 OA
ATOM     98  O   UNL A   1      38.177  36.128  41.713  1.00  0.00    -0.237 OA
ATOM     99  O   UNL A   1      40.419  37.085  41.346  1.00  0.00    -0.744 OA
ENDBRANCH  95  96
ENDBRANCH  63  88
ENDBRANCH  37  38
ENDBRANCH  29  32
ENDBRANCH  27  28
ENDBRANCH  26  27
ENDBRANCH  25  26
ENDBRANCH   1  25
TORSDOF 21
ENDMDL
MODEL 3
REMARK VINA RESULT:     -10.2      3.116      5.221
REMARK SMILES Cc1cc([C@H]([NH3+])CCCC(=O)NCCCCCCNC(=O)c2ccc(-c3c4nc(c(-c5c(F)cc(S(=O)(=O)[O-])cc5F)c5ccc([nH]5)c(-c5c(F)cc(S(=O)(=O)[O-])cc5F)c5nc(c(-c6c(F)cc(S(=O)(=O)[O-])cc6F)c6ccc3[nH]6)C=C5)C=C4)cc2)c(F)cc1F
REMARK SMILES IDX 15 1 14 2 13 3 12 4 10 5 11 6 9 8 8 9 7 10 5 11 4 12 1 13
REMARK SMILES IDX 2 14 3 15 91 16 90 17 92 18 88 19 89 20 6 21 16 25 17 26
REMARK SMILES IDX 18 27 19 28 20 29 21 31 22 32 23 33 87 34 24 35 86 36 25 37
REMARK SMILES IDX 26 38 27 39 80 40 28 41 85 42 79 43 81 44 29 45 84 46 78 47
REMARK SMILES IDX 77 48 30 50 64 51 43 52 63 53 44 54 47 55 62 56 82 57 45 58
REMARK SMILES IDX 46 59 61 61 83 62 48 63 31 64 32 65 41 66 33 67 34 68 40 69
REMARK SMILES IDX 42 70 35 71 36 72 37 73 38 74 39 75 65 76 66 77 75 78 67 79
REMARK SMILES IDX 68 80 74 81 76 82 69 83 70 84 71 85 72 86 73 87 49 88 50 89
REMARK SMILES IDX 59 90 51 91 52 92 58 93 60 94 53 95 54 96 55 97 56 98 57 99
REMARK H PARENT 12 7 6 22 6 23 6 24 19 30 81 49 47 60
REMARK Flexibility Score: inf
ROOT
ATOM      1  C   UNL A   1      42.054  21.099  27.578  1.00  0.00     0.002 C 
ENDROOT
BRANCH   1   2
ATOM      2  C   UNL A   1      40.562  21.023  27.245  1.00  0.00     0.021 C 
BRANCH   2   3
ATOM      3  C   UNL A   1      40.157  21.819  26.003  1.00  0.00     0.116 C 
BRANCH   3   4
ATOM      4  N   UNL A   1      39.185  22.836  26.347  1.00  0.00    -0.356 N 
ATOM      5  C   UNL A   1      37.986  23.123  25.770  1.00  0.00     0.219 C 
ATOM      6  O   UNL A   1      37.372  24.114  26.171  1.00  0.00    -0.275 OA
ATOM      7  H   UNL A   1      39.427  23.403  27.113  1.00  0.00     0.163 HD
BRANCH   5   8
ATOM      8  C   UNL A   1      37.401  22.219  24.698  1.00  0.00     0.100 C 
BRANCH   8   9
ATOM      9  C   UNL A   1      36.620  21.005  25.214  1.00  0.00     0.016 C 
BRANCH   9  10
ATOM     10  C   UNL A   1      35.104  20.979  24.951  1.00  0.00     0.071 C 
BRANCH  10  11
ATOM     11  C   UNL A   1      34.262  21.999  25.756  1.00  0.00     0.214 C 
BRANCH  11  12
ATOM     12  C   UNL A   1      34.042  23.325  25.044  1.00  0.00     0.045 A 
ATOM     13  C   UNL A   1      33.967  27.043  25.962  1.00  0.00     0.047 C 
ATOM     14  C   UNL A   1      33.938  25.774  25.159  1.00  0.00    -0.015 A 
ATOM     15  C   UNL A   1      34.146  24.530  25.774  1.00  0.00     0.019 A 
ATOM     16  C   UNL A   1      33.622  25.804  23.800  1.00  0.00     0.129 A 
ATOM     17  C   UNL A   1      33.527  24.636  23.056  1.00  0.00     0.079 A 
ATOM     18  F   UNL A   1      33.366  26.975  23.200  1.00  0.00    -0.207 F 
ATOM     19  C   UNL A   1      33.740  23.410  23.681  1.00  0.00     0.135 A 
ATOM     20  F   UNL A   1      33.631  22.295  22.946  1.00  0.00    -0.206 F 
ENDBRANCH  11  12
BRANCH  11  21
ATOM     21  N   UNL A   1      34.839  22.199  27.085  1.00  0.00    -0.351 N 
ATOM     22  H   UNL A   1      35.064  21.293  27.497  1.00  0.00     0.345 HD
ATOM     23  H   UNL A   1      34.166  22.684  27.678  1.00  0.00     0.345 HD
ATOM     24  H   UNL A   1      35.689  22.757  27.007  1.00  0.00     0.345 HD
ENDBRANCH  11  21
ENDBRANCH  10  11
ENDBRANCH   9  10
ENDBRANCH   8   9
ENDBRANCH   5   8
ENDBRANCH   3   4
ENDBRANCH   2   3
ENDBRANCH   1   2
BRANCH   1  25
ATOM     25  C   UNL A   1      42.506  22.419  28.215  1.00  0.00     0.002 C 
BRANCH  25  26
ATOM     26  C   UNL A   1      43.786  23.020  27.634  1.00  0.00     0.021 C 
BRANCH  26  27
ATOM     27  C   UNL A   1      43.672  24.474  27.187  1.00  0.00     0.116 C 
BRANCH  27  28
ATOM     28  N   UNL A   1      42.767  24.632  26.060  1.00  0.00    -0.352 N 
ATOM     29  C   UNL A   1      41.601  25.357  25.972  1.00  0.00     0.251 C 
ATOM     30  H   UNL A   1      43.027  24.150  25.240  1.00  0.00     0.163 HD
ATOM     31  O   UNL A   1      40.860  25.206  25.008  1.00  0.00    -0.269 OA
BRANCH  29  32
ATOM     32  C   UNL A   1      41.236  26.300  27.055  1.00  0.00     0.039 A 
ATOM     33  C   UNL A   1      41.768  27.590  27.086  1.00  0.00     0.014 A 
ATOM     34  C   UNL A   1      40.356  25.883  28.058  1.00  0.00     0.014 A 
ATOM     35  C   UNL A   1      41.561  28.396  28.202  1.00  0.00     0.010 A 
ATOM     36  C   UNL A   1      40.077  26.731  29.135  1.00  0.00     0.010 A 
ATOM     37  C   UNL A   1      40.720  27.974  29.245  1.00  0.00    -0.014 A 
BRANCH  37  38
ATOM     38  C   UNL A   1      40.552  28.839  30.447  1.00  0.00     0.031 A 
ATOM     39  C   UNL A   1      41.481  28.704  31.627  1.00  0.00     0.074 A 
ATOM     40  C   UNL A   1      39.595  29.788  30.454  1.00  0.00     0.049 A 
ATOM     41  N   UNL A   1      41.489  29.376  32.751  1.00  0.00    -0.248 NA
ATOM     42  C   UNL A   1      42.533  27.679  31.539  1.00  0.00     0.031 C 
ATOM     43  C   UNL A   1      38.638  30.027  29.371  1.00  0.00     0.029 A 
ATOM     44  N   UNL A   1      39.281  30.744  31.388  1.00  0.00    -0.354 N 
ATOM     45  C   UNL A   1      42.529  28.845  33.508  1.00  0.00     0.074 A 
ATOM     46  C   UNL A   1      43.101  27.766  32.733  1.00  0.00     0.031 C 
ATOM     47  C   UNL A   1      37.884  31.094  29.676  1.00  0.00     0.029 A 
ATOM     48  C   UNL A   1      38.253  31.573  31.003  1.00  0.00     0.049 A 
ATOM     49  H   UNL A   1      39.747  30.828  32.251  1.00  0.00     0.167 HD
ATOM     50  C   UNL A   1      42.979  29.236  34.724  1.00  0.00     0.037 A 
ATOM     51  C   UNL A   1      37.661  32.597  31.649  1.00  0.00     0.037 A 
ATOM     52  C   UNL A   1      42.425  30.332  35.479  1.00  0.00     0.049 A 
ATOM     53  C   UNL A   1      38.144  32.977  33.021  1.00  0.00     0.074 A 
ATOM     54  C   UNL A   1      42.832  30.821  36.707  1.00  0.00     0.029 A 
ATOM     55  N   UNL A   1      41.345  31.107  35.079  1.00  0.00    -0.354 N 
ATOM     56  N   UNL A   1      39.139  32.475  33.712  1.00  0.00    -0.248 NA
ATOM     57  C   UNL A   1      37.417  34.055  33.707  1.00  0.00     0.031 C 
ATOM     58  C   UNL A   1      41.969  31.857  37.075  1.00  0.00     0.029 A 
ATOM     59  C   UNL A   1      41.055  32.051  36.051  1.00  0.00     0.049 A 
ATOM     60  H   UNL A   1      40.857  31.001  34.231  1.00  0.00     0.167 HD
ATOM     61  C   UNL A   1      39.165  33.179  34.910  1.00  0.00     0.074 A 
ATOM     62  C   UNL A   1      38.101  34.161  34.839  1.00  0.00     0.031 C 
ATOM     63  C   UNL A   1      39.989  33.021  35.974  1.00  0.00     0.037 A 
BRANCH  50  64
ATOM     64  C   UNL A   1      44.131  28.475  35.327  1.00  0.00     0.058 A 
ATOM     65  C   UNL A   1      45.464  28.856  35.104  1.00  0.00     0.135 A 
ATOM     66  C   UNL A   1      43.900  27.385  36.184  1.00  0.00     0.135 A 
ATOM     67  F   UNL A   1      45.748  29.881  34.284  1.00  0.00    -0.206 F 
ATOM     68  C   UNL A   1      46.525  28.168  35.686  1.00  0.00     0.059 A 
ATOM     69  C   UNL A   1      44.943  26.701  36.799  1.00  0.00     0.059 A 
ATOM     70  F   UNL A   1      42.644  26.979  36.435  1.00  0.00    -0.206 F 
ATOM     71  C   UNL A   1      46.254  27.094  36.535  1.00  0.00     0.060 A 
BRANCH  71  72
ATOM     72  S   UNL A   1      47.647  26.220  37.280  1.00  0.00     0.124 S 
ATOM     73  O   UNL A   1      48.379  27.317  37.904  1.00  0.00    -0.237 OA
ATOM     74  O   UNL A   1      46.980  25.301  38.197  1.00  0.00    -0.237 OA
ATOM     75  O   UNL A   1      48.308  25.594  36.139  1.00  0.00    -0.744 OA
ENDBRANCH  71  72
ENDBRANCH  50  64
BRANCH  51  76
ATOM     76  C   UNL A   1      36.543  33.332  30.996  1.00  0.00     0.058 A 
ATOM     77  C   UNL A   1      35.222  33.177  31.439  1.00  0.00     0.135 A 
ATOM     78  C   UNL A   1      36.779  34.230  29.943  1.00  0.00     0.135 A 
ATOM     79  F   UNL A   1      34.943  32.321  32.434  1.00  0.00    -0.206 F 
ATOM     80  C   UNL A   1      34.173  33.886  30.863  1.00  0.00     0.059 A 
ATOM     81  C   UNL A   1      35.752  34.974  29.371  1.00  0.00     0.059 A 
ATOM     82  F   UNL A   1      38.027  34.423  29.489  1.00  0.00    -0.206 F 
ATOM     83  C   UNL A   1      34.450  34.791  29.836  1.00  0.00     0.060 A 
BRANCH  83  84
ATOM     84  S   UNL A   1      33.090  35.758  29.146  1.00  0.00     0.124 S 
ATOM     85  O   UNL A   1      32.388  34.754  28.354  1.00  0.00    -0.237 OA
ATOM     86  O   UNL A   1      32.403  36.215  30.350  1.00  0.00    -0.237 OA
ATOM     87  O   UNL A   1      33.769  36.802  28.385  1.00  0.00    -0.744 OA
ENDBRANCH  83  84
ENDBRANCH  51  76
BRANCH  63  88
ATOM     88  C   UNL A   1      39.782  33.927  37.157  1.00  0.00     0.058 A 
ATOM     89  C   UNL A   1      40.314  35.224  37.187  1.00  0.00     0.135 A 
ATOM     90  C   UNL A   1      38.978  33.522  38.237  1.00  0.00     0.135 A 
ATOM     91  F   UNL A   1      41.096  35.658  36.185  1.00  0.00    -0.206 F 
ATOM     92  C   UNL A   1      40.069  36.086  38.250  1.00  0.00     0.059 A 
ATOM     93  C   UNL A   1      38.696  34.378  39.297  1.00  0.00     0.059 A 
ATOM     94  F   UNL A   1      38.436  32.295  38.255  1.00  0.00    -0.206 F 
ATOM     95  C   UNL A   1      39.252  35.657  39.297  1.00  0.00     0.060 A 
BRANCH  95  96
ATOM     96  S   UNL A   1      38.904  36.807  40.644  1.00  0.00     0.124 S 
ATOM     97  O   UNL A   1      40.247  37.122  41.120  1.00  0.00    -0.237 OA
ATOM     98  O   UNL A   1      38.206  37.888  39.955  1.00  0.00    -0.237 OA
ATOM     99  O   UNL A   1      38.083  36.022  41.561  1.00  0.00    -0.744 OA
ENDBRANCH  95  96
ENDBRANCH  63  88
ENDBRANCH  37  38
ENDBRANCH  29  32
ENDBRANCH  27  28
ENDBRANCH  26  27
ENDBRANCH  25  26
ENDBRANCH   1  25
TORSDOF 21
ENDMDL
