MODEL 1
REMARK VINA RESULT:     -11.2      0.000      0.000
REMARK SMILES COc1cc(C(C)C)cc([C@H]([NH3+])C(=O)NCCCCCCNC(=O)c2ccc(-c3c4nc(c(-c5c(F)cc(S(=O)(=O)[O-])cc5F)c5ccc([nH]5)c(-c5c(F)cc(S(=O)(=O)[O-])cc5F)c5nc(c(-c6c(F)cc(S(=O)(=O)[O-])cc6F)c6ccc3[nH]6)C=C5)C=C4)cc2)c1O
REMARK SMILES IDX 19 1 18 2 17 3 16 4 15 5 13 6 14 7 11 9 10 10 3 11 4 12
REMARK SMILES IDX 91 13 5 14 9 15 2 16 1 17 92 18 6 20 7 21 8 22 12 23 20 27
REMARK SMILES IDX 21 28 22 29 23 30 24 32 25 33 26 34 90 35 27 36 89 37 28 38
REMARK SMILES IDX 29 39 30 40 83 41 31 42 88 43 82 44 84 45 32 46 87 47 81 48
REMARK SMILES IDX 80 49 33 51 67 52 46 53 66 54 47 55 50 56 65 57 85 58 48 59
REMARK SMILES IDX 49 60 64 62 86 63 51 64 34 65 35 66 44 67 36 68 37 69 43 70
REMARK SMILES IDX 45 71 38 72 39 73 40 74 41 75 42 76 68 77 69 78 78 79 70 80
REMARK SMILES IDX 71 81 77 82 79 83 72 84 73 85 74 86 75 87 76 88 52 89 53 90
REMARK SMILES IDX 62 91 54 92 55 93 61 94 63 95 56 96 57 97 58 98 59 99 60 100
REMARK H PARENT 15 8 92 19 12 24 12 25 12 26 22 31 84 50 50 61
REMARK Flexibility Score: inf
ROOT
ATOM      1  C   UNL A   1      38.030  24.075  26.227  1.00  0.00     0.002 C 
ENDROOT
BRANCH   1   2
ATOM      2  C   UNL A   1      36.646  23.585  25.788  1.00  0.00     0.002 C 
BRANCH   2   3
ATOM      3  C   UNL A   1      36.658  22.456  24.754  1.00  0.00     0.021 C 
BRANCH   3   4
ATOM      4  C   UNL A   1      35.926  21.192  25.195  1.00  0.00     0.116 C 
BRANCH   4   5
ATOM      5  N   UNL A   1      35.251  21.392  26.464  1.00  0.00    -0.351 N 
ATOM      6  C   UNL A   1      33.987  21.851  26.703  1.00  0.00     0.283 C 
ATOM      7  O   UNL A   1      33.667  22.039  27.881  1.00  0.00    -0.268 OA
ATOM      8  H   UNL A   1      35.778  21.166  27.265  1.00  0.00     0.163 HD
BRANCH   6   9
ATOM      9  C   UNL A   1      32.991  22.122  25.538  1.00  0.00     0.306 C 
BRANCH   9  10
ATOM     10  C   UNL A   1      33.089  23.559  25.032  1.00  0.00     0.065 A 
ATOM     11  C   UNL A   1      33.542  25.104  23.181  1.00  0.00     0.161 A 
ATOM     12  C   UNL A   1      33.494  26.170  24.087  1.00  0.00     0.054 A 
ATOM     13  C   UNL A   1      33.335  23.807  23.664  1.00  0.00     0.167 A 
ATOM     14  C   UNL A   1      33.232  25.970  25.449  1.00  0.00    -0.041 A 
ATOM     15  C   UNL A   1      33.010  24.663  25.901  1.00  0.00     0.018 A 
BRANCH  11  16
ATOM     16  O   UNL A   1      33.813  25.510  21.903  1.00  0.00    -0.493 OA
ATOM     17  C   UNL A   1      32.756  25.591  20.961  1.00  0.00     0.278 C 
ENDBRANCH  11  16
BRANCH  13  18
ATOM     18  O   UNL A   1      33.373  22.723  22.833  1.00  0.00    -0.504 OA
ATOM     19  H   UNL A   1      33.758  22.799  21.981  1.00  0.00     0.293 HD
ENDBRANCH  13  18
BRANCH  14  20
ATOM     20  C   UNL A   1      33.208  27.128  26.434  1.00  0.00     0.013 C 
ATOM     21  C   UNL A   1      33.911  28.367  25.873  1.00  0.00     0.012 C 
ATOM     22  C   UNL A   1      31.778  27.458  26.864  1.00  0.00     0.012 C 
ENDBRANCH  14  20
ENDBRANCH   9  10
BRANCH   9  23
ATOM     23  N   UNL A   1      31.633  21.692  25.957  1.00  0.00    -0.343 N 
ATOM     24  H   UNL A   1      31.078  21.465  25.132  1.00  0.00     0.345 HD
ATOM     25  H   UNL A   1      31.182  22.447  26.474  1.00  0.00     0.345 HD
ATOM     26  H   UNL A   1      31.707  20.868  26.554  1.00  0.00     0.345 HD
ENDBRANCH   9  23
ENDBRANCH   6   9
ENDBRANCH   4   5
ENDBRANCH   3   4
ENDBRANCH   2   3
ENDBRANCH   1   2
BRANCH   1  27
ATOM     27  C   UNL A   1      39.061  22.971  26.472  1.00  0.00     0.021 C 
BRANCH  27  28
ATOM     28  C   UNL A   1      40.381  23.451  27.066  1.00  0.00     0.116 C 
BRANCH  28  29
ATOM     29  N   UNL A   1      41.228  24.088  26.072  1.00  0.00    -0.352 N 
ATOM     30  C   UNL A   1      41.634  25.395  25.987  1.00  0.00     0.251 C 
ATOM     31  H   UNL A   1      41.559  23.497  25.357  1.00  0.00     0.163 HD
ATOM     32  O   UNL A   1      42.191  25.796  24.965  1.00  0.00    -0.269 OA
BRANCH  30  33
ATOM     33  C   UNL A   1      41.387  26.323  27.111  1.00  0.00     0.039 A 
ATOM     34  C   UNL A   1      40.408  25.997  28.053  1.00  0.00     0.014 A 
ATOM     35  C   UNL A   1      42.103  27.518  27.229  1.00  0.00     0.014 A 
ATOM     36  C   UNL A   1      40.181  26.849  29.137  1.00  0.00     0.010 A 
ATOM     37  C   UNL A   1      41.930  28.324  28.351  1.00  0.00     0.010 A 
ATOM     38  C   UNL A   1      40.957  28.006  29.310  1.00  0.00    -0.014 A 
BRANCH  38  39
ATOM     39  C   UNL A   1      40.750  28.899  30.480  1.00  0.00     0.031 A 
ATOM     40  C   UNL A   1      41.600  28.741  31.712  1.00  0.00     0.074 A 
ATOM     41  C   UNL A   1      39.771  29.825  30.447  1.00  0.00     0.049 A 
ATOM     42  N   UNL A   1      41.553  29.405  32.839  1.00  0.00    -0.248 NA
ATOM     43  C   UNL A   1      42.621  27.681  31.686  1.00  0.00     0.031 C 
ATOM     44  C   UNL A   1      38.850  30.042  29.330  1.00  0.00     0.029 A 
ATOM     45  N   UNL A   1      39.386  30.756  31.379  1.00  0.00    -0.354 N 
ATOM     46  C   UNL A   1      42.527  28.840  33.655  1.00  0.00     0.074 A 
ATOM     47  C   UNL A   1      43.106  27.738  32.918  1.00  0.00     0.031 C 
ATOM     48  C   UNL A   1      38.028  31.061  29.628  1.00  0.00     0.029 A 
ATOM     49  C   UNL A   1      38.337  31.545  30.969  1.00  0.00     0.049 A 
ATOM     50  H   UNL A   1      39.819  30.850  32.257  1.00  0.00     0.167 HD
ATOM     51  C   UNL A   1      42.923  29.221  34.893  1.00  0.00     0.037 A 
ATOM     52  C   UNL A   1      37.694  32.546  31.604  1.00  0.00     0.037 A 
ATOM     53  C   UNL A   1      42.353  30.331  35.613  1.00  0.00     0.049 A 
ATOM     54  C   UNL A   1      38.149  32.948  32.981  1.00  0.00     0.074 A 
ATOM     55  C   UNL A   1      42.716  30.831  36.852  1.00  0.00     0.029 A 
ATOM     56  N   UNL A   1      41.301  31.115  35.160  1.00  0.00    -0.354 N 
ATOM     57  N   UNL A   1      39.114  32.443  33.712  1.00  0.00    -0.248 NA
ATOM     58  C   UNL A   1      37.435  34.065  33.616  1.00  0.00     0.031 C 
ATOM     59  C   UNL A   1      41.851  31.882  37.170  1.00  0.00     0.029 A 
ATOM     60  C   UNL A   1      40.988  32.080  36.104  1.00  0.00     0.049 A 
ATOM     61  H   UNL A   1      40.845  31.002  34.295  1.00  0.00     0.167 HD
ATOM     62  C   UNL A   1      39.144  33.201  34.879  1.00  0.00     0.074 A 
ATOM     63  C   UNL A   1      38.108  34.205  34.749  1.00  0.00     0.031 C 
ATOM     64  C   UNL A   1      39.958  33.077  35.958  1.00  0.00     0.037 A 
BRANCH  51  65
ATOM     65  C   UNL A   1      44.027  28.433  35.547  1.00  0.00     0.058 A 
ATOM     66  C   UNL A   1      45.379  28.771  35.371  1.00  0.00     0.135 A 
ATOM     67  C   UNL A   1      43.730  27.345  36.383  1.00  0.00     0.135 A 
ATOM     68  F   UNL A   1      45.723  29.791  34.570  1.00  0.00    -0.206 F 
ATOM     69  C   UNL A   1      46.398  28.037  35.972  1.00  0.00     0.059 A 
ATOM     70  C   UNL A   1      44.732  26.618  37.021  1.00  0.00     0.059 A 
ATOM     71  F   UNL A   1      42.456  26.977  36.589  1.00  0.00    -0.206 F 
ATOM     72  C   UNL A   1      46.065  26.962  36.796  1.00  0.00     0.060 A 
BRANCH  72  73
ATOM     73  S   UNL A   1      47.398  26.024  37.570  1.00  0.00     0.124 S 
ATOM     74  O   UNL A   1      47.901  25.249  36.439  1.00  0.00    -0.237 OA
ATOM     75  O   UNL A   1      48.280  27.079  38.057  1.00  0.00    -0.237 OA
ATOM     76  O   UNL A   1      46.716  25.253  38.604  1.00  0.00    -0.744 OA
ENDBRANCH  72  73
ENDBRANCH  51  65
BRANCH  52  77
ATOM     77  C   UNL A   1      36.574  33.256  30.932  1.00  0.00     0.058 A 
ATOM     78  C   UNL A   1      35.246  33.061  31.340  1.00  0.00     0.135 A 
ATOM     79  C   UNL A   1      36.807  34.151  29.875  1.00  0.00     0.135 A 
ATOM     80  F   UNL A   1      34.970  32.211  32.341  1.00  0.00    -0.206 F 
ATOM     81  C   UNL A   1      34.186  33.710  30.713  1.00  0.00     0.059 A 
ATOM     82  C   UNL A   1      35.767  34.834  29.252  1.00  0.00     0.059 A 
ATOM     83  F   UNL A   1      38.060  34.388  29.458  1.00  0.00    -0.206 F 
ATOM     84  C   UNL A   1      34.459  34.597  29.671  1.00  0.00     0.060 A 
BRANCH  84  85
ATOM     85  S   UNL A   1      33.080  35.469  28.894  1.00  0.00     0.124 S 
ATOM     86  O   UNL A   1      32.467  34.405  28.107  1.00  0.00    -0.237 OA
ATOM     87  O   UNL A   1      32.318  35.930  30.050  1.00  0.00    -0.237 OA
ATOM     88  O   UNL A   1      33.739  36.521  28.126  1.00  0.00    -0.744 OA
ENDBRANCH  84  85
ENDBRANCH  52  77
BRANCH  64  89
ATOM     89  C   UNL A   1      39.789  34.080  37.069  1.00  0.00     0.058 A 
ATOM     90  C   UNL A   1      39.021  33.803  38.210  1.00  0.00     0.135 A 
ATOM     91  C   UNL A   1      40.438  35.325  37.002  1.00  0.00     0.135 A 
ATOM     92  F   UNL A   1      38.376  32.631  38.323  1.00  0.00    -0.206 F 
ATOM     93  C   UNL A   1      38.875  34.737  39.232  1.00  0.00     0.059 A 
ATOM     94  C   UNL A   1      40.331  36.260  38.026  1.00  0.00     0.059 A 
ATOM     95  F   UNL A   1      41.195  35.637  35.939  1.00  0.00    -0.206 F 
ATOM     96  C   UNL A   1      39.534  35.963  39.130  1.00  0.00     0.060 A 
BRANCH  96  97
ATOM     97  S   UNL A   1      39.350  37.158  40.470  1.00  0.00     0.124 S 
ATOM     98  O   UNL A   1      38.604  36.382  41.455  1.00  0.00    -0.237 OA
ATOM     99  O   UNL A   1      40.737  37.456  40.815  1.00  0.00    -0.237 OA
ATOM    100  O   UNL A   1      38.615  38.256  39.849  1.00  0.00    -0.744 OA
ENDBRANCH  96  97
ENDBRANCH  64  89
ENDBRANCH  38  39
ENDBRANCH  30  33
ENDBRANCH  28  29
ENDBRANCH  27  28
ENDBRANCH   1  27
TORSDOF 21
ENDMDL
MODEL 2
REMARK VINA RESULT:     -10.8      6.618     13.116
REMARK SMILES COc1cc(C(C)C)cc([C@H]([NH3+])C(=O)NCCCCCCNC(=O)c2ccc(-c3c4nc(c(-c5c(F)cc(S(=O)(=O)[O-])cc5F)c5ccc([nH]5)c(-c5c(F)cc(S(=O)(=O)[O-])cc5F)c5nc(c(-c6c(F)cc(S(=O)(=O)[O-])cc6F)c6ccc3[nH]6)C=C5)C=C4)cc2)c1O
REMARK SMILES IDX 19 1 18 2 17 3 16 4 15 5 13 6 14 7 11 9 10 10 3 11 4 12
REMARK SMILES IDX 91 13 5 14 9 15 2 16 1 17 92 18 6 20 7 21 8 22 12 23 20 27
REMARK SMILES IDX 21 28 22 29 23 30 24 32 25 33 26 34 90 35 27 36 89 37 28 38
REMARK SMILES IDX 29 39 30 40 83 41 31 42 88 43 82 44 84 45 32 46 87 47 81 48
REMARK SMILES IDX 80 49 33 51 67 52 46 53 66 54 47 55 50 56 65 57 85 58 48 59
REMARK SMILES IDX 49 60 64 62 86 63 51 64 34 65 35 66 44 67 36 68 37 69 43 70
REMARK SMILES IDX 45 71 38 72 39 73 40 74 41 75 42 76 68 77 69 78 78 79 70 80
REMARK SMILES IDX 71 81 77 82 79 83 72 84 73 85 74 86 75 87 76 88 52 89 53 90
REMARK SMILES IDX 62 91 54 92 55 93 61 94 63 95 56 96 57 97 58 98 59 99 60 100
REMARK H PARENT 15 8 92 19 12 24 12 25 12 26 22 31 84 50 50 61
REMARK Flexibility Score: inf
ROOT
ATOM      1  C   UNL A   1      34.357  32.495  28.067  1.00  0.00     0.002 C 
ENDROOT
BRANCH   1   2
ATOM      2  C   UNL A   1      33.370  33.665  28.149  1.00  0.00     0.002 C 
BRANCH   2   3
ATOM      3  C   UNL A   1      34.002  35.022  28.467  1.00  0.00     0.021 C 
BRANCH   3   4
ATOM      4  C   UNL A   1      33.720  35.533  29.877  1.00  0.00     0.116 C 
BRANCH   4   5
ATOM      5  N   UNL A   1      33.447  34.437  30.787  1.00  0.00    -0.351 N 
ATOM      6  C   UNL A   1      33.995  34.178  32.011  1.00  0.00     0.283 C 
ATOM      7  O   UNL A   1      33.680  33.117  32.560  1.00  0.00    -0.268 OA
ATOM      8  H   UNL A   1      32.773  33.788  30.480  1.00  0.00     0.163 HD
BRANCH   6   9
ATOM      9  C   UNL A   1      34.973  35.182  32.687  1.00  0.00     0.306 C 
BRANCH   9  10
ATOM     10  C   UNL A   1      36.220  34.484  33.225  1.00  0.00     0.065 A 
ATOM     11  C   UNL A   1      37.320  33.270  35.051  1.00  0.00     0.161 A 
ATOM     12  C   UNL A   1      38.533  33.374  34.361  1.00  0.00     0.054 A 
ATOM     13  C   UNL A   1      36.173  33.825  34.473  1.00  0.00     0.167 A 
ATOM     14  C   UNL A   1      38.621  34.002  33.110  1.00  0.00    -0.041 A 
ATOM     15  C   UNL A   1      37.452  34.531  32.547  1.00  0.00     0.018 A 
BRANCH  11  16
ATOM     16  O   UNL A   1      37.449  32.626  36.251  1.00  0.00    -0.493 OA
ATOM     17  C   UNL A   1      37.625  33.387  37.433  1.00  0.00     0.278 C 
ENDBRANCH  11  16
BRANCH  13  18
ATOM     18  O   UNL A   1      34.959  33.762  35.097  1.00  0.00    -0.504 OA
ATOM     19  H   UNL A   1      34.491  32.949  35.132  1.00  0.00     0.293 HD
ENDBRANCH  13  18
BRANCH  14  20
ATOM     20  C   UNL A   1      39.945  34.135  32.377  1.00  0.00     0.013 C 
ATOM     21  C   UNL A   1      40.954  33.074  32.826  1.00  0.00     0.012 C 
ATOM     22  C   UNL A   1      39.745  34.094  30.861  1.00  0.00     0.012 C 
ENDBRANCH  14  20
ENDBRANCH   9  10
BRANCH   9  23
ATOM     23  N   UNL A   1      34.222  35.988  33.684  1.00  0.00    -0.343 N 
ATOM     24  H   UNL A   1      34.251  35.521  34.590  1.00  0.00     0.345 HD
ATOM     25  H   UNL A   1      33.253  36.084  33.381  1.00  0.00     0.345 HD
ATOM     26  H   UNL A   1      34.647  36.912  33.763  1.00  0.00     0.345 HD
ENDBRANCH   9  23
ENDBRANCH   6   9
ENDBRANCH   4   5
ENDBRANCH   3   4
ENDBRANCH   2   3
ENDBRANCH   1   2
BRANCH   1  27
ATOM     27  C   UNL A   1      35.833  32.895  28.007  1.00  0.00     0.021 C 
BRANCH  27  28
ATOM     28  C   UNL A   1      36.518  33.011  29.365  1.00  0.00     0.116 C 
BRANCH  28  29
ATOM     29  N   UNL A   1      36.072  31.984  30.292  1.00  0.00    -0.352 N 
ATOM     30  C   UNL A   1      36.656  30.784  30.603  1.00  0.00     0.251 C 
ATOM     31  H   UNL A   1      35.230  32.178  30.765  1.00  0.00     0.163 HD
ATOM     32  O   UNL A   1      36.032  29.954  31.265  1.00  0.00    -0.269 OA
BRANCH  30  33
ATOM     33  C   UNL A   1      38.022  30.478  30.128  1.00  0.00     0.039 A 
ATOM     34  C   UNL A   1      39.055  30.380  31.063  1.00  0.00     0.014 A 
ATOM     35  C   UNL A   1      38.290  30.305  28.767  1.00  0.00     0.014 A 
ATOM     36  C   UNL A   1      40.348  30.065  30.636  1.00  0.00     0.010 A 
ATOM     37  C   UNL A   1      39.561  29.913  28.353  1.00  0.00     0.010 A 
ATOM     38  C   UNL A   1      40.606  29.802  29.280  1.00  0.00    -0.014 A 
BRANCH  38  39
ATOM     39  C   UNL A   1      41.969  29.428  28.820  1.00  0.00     0.031 A 
ATOM     40  C   UNL A   1      42.258  28.018  28.378  1.00  0.00     0.074 A 
ATOM     41  C   UNL A   1      42.955  30.346  28.839  1.00  0.00     0.049 A 
ATOM     42  N   UNL A   1      43.385  27.494  27.969  1.00  0.00    -0.248 NA
ATOM     43  C   UNL A   1      41.138  27.062  28.425  1.00  0.00     0.031 C 
ATOM     44  C   UNL A   1      42.812  31.731  29.292  1.00  0.00     0.029 A 
ATOM     45  N   UNL A   1      44.273  30.255  28.468  1.00  0.00    -0.354 N 
ATOM     46  C   UNL A   1      43.115  26.154  27.719  1.00  0.00     0.074 A 
ATOM     47  C   UNL A   1      41.733  25.928  28.083  1.00  0.00     0.031 C 
ATOM     48  C   UNL A   1      43.985  32.366  29.144  1.00  0.00     0.029 A 
ATOM     49  C   UNL A   1      44.973  31.428  28.622  1.00  0.00     0.049 A 
ATOM     50  H   UNL A   1      44.680  29.426  28.124  1.00  0.00     0.167 HD
ATOM     51  C   UNL A   1      43.933  25.203  27.207  1.00  0.00     0.037 A 
ATOM     52  C   UNL A   1      46.266  31.716  28.372  1.00  0.00     0.037 A 
ATOM     53  C   UNL A   1      45.303  25.441  26.830  1.00  0.00     0.049 A 
ATOM     54  C   UNL A   1      47.157  30.642  27.807  1.00  0.00     0.074 A 
ATOM     55  C   UNL A   1      46.203  24.558  26.257  1.00  0.00     0.029 A 
ATOM     56  N   UNL A   1      45.972  26.646  26.989  1.00  0.00    -0.354 N 
ATOM     57  N   UNL A   1      46.867  29.396  27.518  1.00  0.00    -0.248 NA
ATOM     58  C   UNL A   1      48.550  31.016  27.525  1.00  0.00     0.031 C 
ATOM     59  C   UNL A   1      47.429  25.215  26.116  1.00  0.00     0.029 A 
ATOM     60  C   UNL A   1      47.280  26.524  26.544  1.00  0.00     0.049 A 
ATOM     61  H   UNL A   1      45.577  27.466  27.362  1.00  0.00     0.167 HD
ATOM     62  C   UNL A   1      48.031  28.847  26.990  1.00  0.00     0.074 A 
ATOM     63  C   UNL A   1      49.024  29.901  26.989  1.00  0.00     0.031 C 
ATOM     64  C   UNL A   1      48.256  27.585  26.544  1.00  0.00     0.037 A 
BRANCH  51  65
ATOM     65  C   UNL A   1      43.367  23.821  27.022  1.00  0.00     0.058 A 
ATOM     66  C   UNL A   1      42.957  23.353  25.762  1.00  0.00     0.135 A 
ATOM     67  C   UNL A   1      43.260  22.940  28.110  1.00  0.00     0.135 A 
ATOM     68  F   UNL A   1      43.021  24.157  24.689  1.00  0.00    -0.206 F 
ATOM     69  C   UNL A   1      42.429  22.076  25.594  1.00  0.00     0.059 A 
ATOM     70  C   UNL A   1      42.766  21.646  27.959  1.00  0.00     0.059 A 
ATOM     71  F   UNL A   1      43.638  23.331  29.337  1.00  0.00    -0.206 F 
ATOM     72  C   UNL A   1      42.338  21.230  26.699  1.00  0.00     0.060 A 
BRANCH  72  73
ATOM     73  S   UNL A   1      41.655  19.576  26.463  1.00  0.00     0.124 S 
ATOM     74  O   UNL A   1      40.227  19.864  26.360  1.00  0.00    -0.237 OA
ATOM     75  O   UNL A   1      42.304  19.143  25.231  1.00  0.00    -0.237 OA
ATOM     76  O   UNL A   1      42.064  18.863  27.669  1.00  0.00    -0.744 OA
ENDBRANCH  72  73
ENDBRANCH  51  65
BRANCH  52  77
ATOM     77  C   UNL A   1      46.786  33.086  28.624  1.00  0.00     0.058 A 
ATOM     78  C   UNL A   1      46.768  34.063  27.618  1.00  0.00     0.135 A 
ATOM     79  C   UNL A   1      47.302  33.451  29.878  1.00  0.00     0.135 A 
ATOM     80  F   UNL A   1      46.290  33.762  26.400  1.00  0.00    -0.206 F 
ATOM     81  C   UNL A   1      47.261  35.346  27.835  1.00  0.00     0.059 A 
ATOM     82  C   UNL A   1      47.775  34.736  30.129  1.00  0.00     0.059 A 
ATOM     83  F   UNL A   1      47.326  32.560  30.881  1.00  0.00    -0.206 F 
ATOM     84  C   UNL A   1      47.760  35.673  29.097  1.00  0.00     0.060 A 
BRANCH  84  85
ATOM     85  S   UNL A   1      48.357  37.354  29.383  1.00  0.00     0.124 S 
ATOM     86  O   UNL A   1      48.382  37.413  30.839  1.00  0.00    -0.237 OA
ATOM     87  O   UNL A   1      49.657  37.334  28.720  1.00  0.00    -0.237 OA
ATOM     88  O   UNL A   1      47.344  38.183  28.735  1.00  0.00    -0.744 OA
ENDBRANCH  84  85
ENDBRANCH  52  77
BRANCH  64  89
ATOM     89  C   UNL A   1      49.617  27.285  25.976  1.00  0.00     0.058 A 
ATOM     90  C   UNL A   1      49.889  27.388  24.602  1.00  0.00     0.135 A 
ATOM     91  C   UNL A   1      50.675  26.923  26.827  1.00  0.00     0.135 A 
ATOM     92  F   UNL A   1      48.914  27.726  23.744  1.00  0.00    -0.206 F 
ATOM     93  C   UNL A   1      51.152  27.111  24.089  1.00  0.00     0.059 A 
ATOM     94  C   UNL A   1      51.953  26.672  26.339  1.00  0.00     0.059 A 
ATOM     95  F   UNL A   1      50.473  26.822  28.150  1.00  0.00    -0.206 F 
ATOM     96  C   UNL A   1      52.178  26.753  24.966  1.00  0.00     0.060 A 
BRANCH  96  97
ATOM     97  S   UNL A   1      53.817  26.413  24.289  1.00  0.00     0.124 S 
ATOM     98  O   UNL A   1      53.487  25.926  22.953  1.00  0.00    -0.237 OA
ATOM     99  O   UNL A   1      54.456  27.724  24.346  1.00  0.00    -0.237 OA
ATOM    100  O   UNL A   1      54.363  25.415  25.203  1.00  0.00    -0.744 OA
ENDBRANCH  96  97
ENDBRANCH  64  89
ENDBRANCH  38  39
ENDBRANCH  30  33
ENDBRANCH  28  29
ENDBRANCH  27  28
ENDBRANCH   1  27
TORSDOF 21
ENDMDL
MODEL 3
REMARK VINA RESULT:     -10.8      3.399      9.469
REMARK SMILES COc1cc(C(C)C)cc([C@H]([NH3+])C(=O)NCCCCCCNC(=O)c2ccc(-c3c4nc(c(-c5c(F)cc(S(=O)(=O)[O-])cc5F)c5ccc([nH]5)c(-c5c(F)cc(S(=O)(=O)[O-])cc5F)c5nc(c(-c6c(F)cc(S(=O)(=O)[O-])cc6F)c6ccc3[nH]6)C=C5)C=C4)cc2)c1O
REMARK SMILES IDX 19 1 18 2 17 3 16 4 15 5 13 6 14 7 11 9 10 10 3 11 4 12
REMARK SMILES IDX 91 13 5 14 9 15 2 16 1 17 92 18 6 20 7 21 8 22 12 23 20 27
REMARK SMILES IDX 21 28 22 29 23 30 24 32 25 33 26 34 90 35 27 36 89 37 28 38
REMARK SMILES IDX 29 39 30 40 83 41 31 42 88 43 82 44 84 45 32 46 87 47 81 48
REMARK SMILES IDX 80 49 33 51 67 52 46 53 66 54 47 55 50 56 65 57 85 58 48 59
REMARK SMILES IDX 49 60 64 62 86 63 51 64 34 65 35 66 44 67 36 68 37 69 43 70
REMARK SMILES IDX 45 71 38 72 39 73 40 74 41 75 42 76 68 77 69 78 78 79 70 80
REMARK SMILES IDX 71 81 77 82 79 83 72 84 73 85 74 86 75 87 76 88 52 89 53 90
REMARK SMILES IDX 62 91 54 92 55 93 61 94 63 95 56 96 57 97 58 98 59 99 60 100
REMARK H PARENT 15 8 92 19 12 24 12 25 12 26 22 31 84 50 50 61
REMARK Flexibility Score: inf
ROOT
ATOM      1  C   UNL A   1      32.161  27.382  26.454  1.00  0.00     0.002 C 
ENDROOT
BRANCH   1   2
ATOM      2  C   UNL A   1      30.999  27.423  25.457  1.00  0.00     0.002 C 
BRANCH   2   3
ATOM      3  C   UNL A   1      30.943  28.677  24.581  1.00  0.00     0.021 C 
BRANCH   3   4
ATOM      4  C   UNL A   1      30.865  28.395  23.083  1.00  0.00     0.116 C 
BRANCH   4   5
ATOM      5  N   UNL A   1      32.181  28.418  22.476  1.00  0.00    -0.351 N 
ATOM      6  C   UNL A   1      32.872  27.400  21.882  1.00  0.00     0.283 C 
ATOM      7  O   UNL A   1      34.032  27.634  21.527  1.00  0.00    -0.268 OA
ATOM      8  H   UNL A   1      32.642  29.288  22.493  1.00  0.00     0.163 HD
BRANCH   6   9
ATOM      9  C   UNL A   1      32.222  26.003  21.660  1.00  0.00     0.306 C 
BRANCH   9  10
ATOM     10  C   UNL A   1      32.641  25.005  22.737  1.00  0.00     0.065 A 
ATOM     11  C   UNL A   1      32.004  23.534  24.594  1.00  0.00     0.161 A 
ATOM     12  C   UNL A   1      33.361  23.332  24.872  1.00  0.00     0.054 A 
ATOM     13  C   UNL A   1      31.658  24.368  23.525  1.00  0.00     0.167 A 
ATOM     14  C   UNL A   1      34.370  23.929  24.103  1.00  0.00    -0.041 A 
ATOM     15  C   UNL A   1      33.993  24.744  23.026  1.00  0.00     0.018 A 
BRANCH  11  16
ATOM     16  O   UNL A   1      31.183  22.866  25.461  1.00  0.00    -0.493 OA
ATOM     17  C   UNL A   1      31.195  23.213  26.835  1.00  0.00     0.278 C 
ENDBRANCH  11  16
BRANCH  13  18
ATOM     18  O   UNL A   1      30.351  24.610  23.204  1.00  0.00    -0.504 OA
ATOM     19  H   UNL A   1      29.866  25.260  23.674  1.00  0.00     0.293 HD
ENDBRANCH  13  18
BRANCH  14  20
ATOM     20  C   UNL A   1      35.841  23.729  24.424  1.00  0.00     0.013 C 
ATOM     21  C   UNL A   1      36.076  23.548  25.927  1.00  0.00     0.012 C 
ATOM     22  C   UNL A   1      36.426  22.557  23.634  1.00  0.00     0.012 C 
ENDBRANCH  14  20
ENDBRANCH   9  10
BRANCH   9  23
ATOM     23  N   UNL A   1      32.481  25.569  20.264  1.00  0.00    -0.343 N 
ATOM     24  H   UNL A   1      31.816  24.840  20.005  1.00  0.00     0.345 HD
ATOM     25  H   UNL A   1      33.432  25.204  20.193  1.00  0.00     0.345 HD
ATOM     26  H   UNL A   1      32.376  26.366  19.635  1.00  0.00     0.345 HD
ENDBRANCH   9  23
ENDBRANCH   6   9
ENDBRANCH   4   5
ENDBRANCH   3   4
ENDBRANCH   2   3
ENDBRANCH   1   2
BRANCH   1  27
ATOM     27  C   UNL A   1      33.519  27.012  25.852  1.00  0.00     0.021 C 
BRANCH  27  28
ATOM     28  C   UNL A   1      34.532  28.151  25.815  1.00  0.00     0.116 C 
BRANCH  28  29
ATOM     29  N   UNL A   1      33.959  29.407  26.270  1.00  0.00    -0.352 N 
ATOM     30  C   UNL A   1      34.367  30.230  27.287  1.00  0.00     0.251 C 
ATOM     31  H   UNL A   1      33.163  29.711  25.776  1.00  0.00     0.163 HD
ATOM     32  O   UNL A   1      33.642  31.154  27.654  1.00  0.00    -0.269 OA
BRANCH  30  33
ATOM     33  C   UNL A   1      35.666  29.997  27.953  1.00  0.00     0.039 A 
ATOM     34  C   UNL A   1      35.677  29.454  29.240  1.00  0.00     0.014 A 
ATOM     35  C   UNL A   1      36.869  30.326  27.321  1.00  0.00     0.014 A 
ATOM     36  C   UNL A   1      36.896  29.201  29.874  1.00  0.00     0.010 A 
ATOM     37  C   UNL A   1      38.082  30.000  27.922  1.00  0.00     0.010 A 
ATOM     38  C   UNL A   1      38.109  29.447  29.211  1.00  0.00    -0.014 A 
BRANCH  38  39
ATOM     39  C   UNL A   1      39.411  29.145  29.861  1.00  0.00     0.031 A 
ATOM     40  C   UNL A   1      39.873  29.957  31.042  1.00  0.00     0.074 A 
ATOM     41  C   UNL A   1      40.194  28.168  29.364  1.00  0.00     0.049 A 
ATOM     42  N   UNL A   1      40.985  29.863  31.725  1.00  0.00    -0.248 NA
ATOM     43  C   UNL A   1      38.980  31.034  31.501  1.00  0.00     0.031 C 
ATOM     44  C   UNL A   1      39.879  27.344  28.195  1.00  0.00     0.029 A 
ATOM     45  N   UNL A   1      41.417  27.700  29.778  1.00  0.00    -0.354 N 
ATOM     46  C   UNL A   1      40.930  30.868  32.684  1.00  0.00     0.074 A 
ATOM     47  C   UNL A   1      39.704  31.602  32.455  1.00  0.00     0.031 C 
ATOM     48  C   UNL A   1      40.866  26.454  28.005  1.00  0.00     0.029 A 
ATOM     49  C   UNL A   1      41.900  26.665  29.012  1.00  0.00     0.049 A 
ATOM     50  H   UNL A   1      41.902  28.070  30.550  1.00  0.00     0.167 HD
ATOM     51  C   UNL A   1      41.805  31.138  33.683  1.00  0.00     0.037 A 
ATOM     52  C   UNL A   1      43.049  25.968  29.109  1.00  0.00     0.037 A 
ATOM     53  C   UNL A   1      43.014  30.391  33.916  1.00  0.00     0.049 A 
ATOM     54  C   UNL A   1      44.008  26.289  30.223  1.00  0.00     0.074 A 
ATOM     55  C   UNL A   1      43.944  30.553  34.929  1.00  0.00     0.029 A 
ATOM     56  N   UNL A   1      43.464  29.343  33.126  1.00  0.00    -0.354 N 
ATOM     57  N   UNL A   1      43.908  27.202  31.160  1.00  0.00    -0.248 NA
ATOM     58  C   UNL A   1      45.230  25.478  30.302  1.00  0.00     0.031 C 
ATOM     59  C   UNL A   1      44.979  29.636  34.722  1.00  0.00     0.029 A 
ATOM     60  C   UNL A   1      44.667  28.861  33.617  1.00  0.00     0.049 A 
ATOM     61  H   UNL A   1      42.996  28.991  32.334  1.00  0.00     0.167 HD
ATOM     62  C   UNL A   1      45.039  27.054  31.958  1.00  0.00     0.074 A 
ATOM     63  C   UNL A   1      45.800  25.955  31.399  1.00  0.00     0.031 C 
ATOM     64  C   UNL A   1      45.411  27.762  33.054  1.00  0.00     0.037 A 
BRANCH  51  65
ATOM     65  C   UNL A   1      41.484  32.288  34.600  1.00  0.00     0.058 A 
ATOM     66  C   UNL A   1      40.716  32.112  35.764  1.00  0.00     0.135 A 
ATOM     67  C   UNL A   1      41.973  33.577  34.331  1.00  0.00     0.135 A 
ATOM     68  F   UNL A   1      40.208  30.907  36.063  1.00  0.00    -0.206 F 
ATOM     69  C   UNL A   1      40.416  33.178  36.607  1.00  0.00     0.059 A 
ATOM     70  C   UNL A   1      41.714  34.650  35.179  1.00  0.00     0.059 A 
ATOM     71  F   UNL A   1      42.714  33.804  33.234  1.00  0.00    -0.206 F 
ATOM     72  C   UNL A   1      40.920  34.444  36.307  1.00  0.00     0.060 A 
BRANCH  72  73
ATOM     73  S   UNL A   1      40.525  35.813  37.413  1.00  0.00     0.124 S 
ATOM     74  O   UNL A   1      39.816  35.123  38.488  1.00  0.00    -0.237 OA
ATOM     75  O   UNL A   1      41.845  36.330  37.756  1.00  0.00    -0.237 OA
ATOM     76  O   UNL A   1      39.704  36.693  36.587  1.00  0.00    -0.744 OA
ENDBRANCH  72  73
ENDBRANCH  51  65
BRANCH  52  77
ATOM     77  C   UNL A   1      43.340  24.876  28.141  1.00  0.00     0.058 A 
ATOM     78  C   UNL A   1      42.960  23.552  28.409  1.00  0.00     0.135 A 
ATOM     79  C   UNL A   1      43.995  25.133  26.926  1.00  0.00     0.135 A 
ATOM     80  F   UNL A   1      42.337  23.253  29.559  1.00  0.00    -0.206 F 
ATOM     81  C   UNL A   1      43.236  22.519  27.519  1.00  0.00     0.059 A 
ATOM     82  C   UNL A   1      44.256  24.122  26.007  1.00  0.00     0.059 A 
ATOM     83  F   UNL A   1      44.363  26.385  26.612  1.00  0.00    -0.206 F 
ATOM     84  C   UNL A   1      43.882  22.815  26.318  1.00  0.00     0.060 A 
BRANCH  84  85
ATOM     85  S   UNL A   1      44.195  21.473  25.150  1.00  0.00     0.124 S 
ATOM     86  O   UNL A   1      45.524  21.032  25.558  1.00  0.00    -0.237 OA
ATOM     87  O   UNL A   1      43.099  20.554  25.438  1.00  0.00    -0.237 OA
ATOM     88  O   UNL A   1      44.122  22.137  23.851  1.00  0.00    -0.744 OA
ENDBRANCH  84  85
ENDBRANCH  52  77
BRANCH  64  89
ATOM     89  C   UNL A   1      46.678  27.343  33.750  1.00  0.00     0.058 A 
ATOM     90  C   UNL A   1      47.925  27.900  33.423  1.00  0.00     0.135 A 
ATOM     91  C   UNL A   1      46.636  26.393  34.785  1.00  0.00     0.135 A 
ATOM     92  F   UNL A   1      48.023  28.807  32.440  1.00  0.00    -0.206 F 
ATOM     93  C   UNL A   1      49.089  27.506  34.076  1.00  0.00     0.059 A 
ATOM     94  C   UNL A   1      47.783  26.009  35.471  1.00  0.00     0.059 A 
ATOM     95  F   UNL A   1      45.469  25.837  35.146  1.00  0.00    -0.206 F 
ATOM     96  C   UNL A   1      49.008  26.559  35.098  1.00  0.00     0.060 A 
BRANCH  96  97
ATOM     97  S   UNL A   1      50.524  26.071  35.948  1.00  0.00     0.124 S 
ATOM     98  O   UNL A   1      50.244  26.497  37.315  1.00  0.00    -0.237 OA
ATOM     99  O   UNL A   1      50.554  24.628  35.727  1.00  0.00    -0.237 OA
ATOM    100  O   UNL A   1      51.563  26.827  35.254  1.00  0.00    -0.744 OA
ENDBRANCH  96  97
ENDBRANCH  64  89
ENDBRANCH  38  39
ENDBRANCH  30  33
ENDBRANCH  28  29
ENDBRANCH  27  28
ENDBRANCH   1  27
TORSDOF 21
ENDMDL
