MODEL 1
REMARK VINA RESULT:     -12.0      0.000      0.000
REMARK SMILES O=C(NCCCCCCNC(=O)[C@H]1Cc2[nH]cnc2CN1C(=O)c1ccncc1Cl)c1ccc(-c2c3nc(c(-c4c(F)cc(S(=O)(=O)[O-])cc4F)c4ccc([nH]4)c(-c4c(F)cc(S(=O)(=O)[O-])cc4F)c4nc(c(-c5c(F)cc(S(=O)(=O)[O-])cc5F)c5ccc2[nH]5)C=C4)C=C3)cc1
REMARK SMILES IDX 6 1 5 2 4 3 3 4 1 5 2 6 31 8 32 9 96 10 33 11 95 12 34 13
REMARK SMILES IDX 35 14 36 15 89 16 37 17 94 18 88 19 90 20 38 21 93 22 87 23
REMARK SMILES IDX 86 24 39 26 73 27 52 28 72 29 53 30 56 31 71 32 91 33 54 34
REMARK SMILES IDX 55 35 70 37 92 38 57 39 40 40 41 41 50 42 42 43 43 44 49 45
REMARK SMILES IDX 51 46 44 47 45 48 46 49 47 50 48 51 74 52 75 53 84 54 76 55
REMARK SMILES IDX 77 56 83 57 85 58 78 59 79 60 80 61 81 62 82 63 58 64 59 65
REMARK SMILES IDX 68 66 60 67 61 68 67 69 69 70 62 71 63 72 64 73 65 74 66 75
REMARK SMILES IDX 7 76 8 77 9 78 10 79 11 80 12 82 13 83 14 84 21 85 15 86
REMARK SMILES IDX 20 87 16 88 19 89 17 90 18 92 22 93 23 94 24 95 25 96 29 97
REMARK SMILES IDX 26 98 28 99 30 100 27 101
REMARK H PARENT 3 7 90 25 56 36 10 81 16 91
REMARK Flexibility Score: inf
ROOT
ATOM      1  C   UNL A   1      40.404  21.346  27.122  1.00  0.00     0.002 C 
ENDROOT
BRANCH   1   2
ATOM      2  C   UNL A   1      40.812  20.185  26.208  1.00  0.00     0.021 C 
BRANCH   2   3
ATOM      3  C   UNL A   1      42.263  19.734  26.363  1.00  0.00     0.116 C 
BRANCH   3   4
ATOM      4  N   UNL A   1      43.143  20.236  25.333  1.00  0.00    -0.352 N 
ATOM      5  O   UNL A   1      44.581  21.449  24.183  1.00  0.00    -0.269 OA
ATOM      6  C   UNL A   1      43.758  21.434  25.102  1.00  0.00     0.251 C 
ATOM      7  H   UNL A   1      43.345  19.564  24.643  1.00  0.00     0.163 HD
BRANCH   6   8
ATOM      8  C   UNL A   1      43.452  22.703  25.817  1.00  0.00     0.039 A 
ATOM      9  C   UNL A   1      42.665  23.751  25.333  1.00  0.00     0.014 A 
ATOM     10  C   UNL A   1      44.070  22.851  27.072  1.00  0.00     0.014 A 
ATOM     11  C   UNL A   1      42.583  24.954  26.029  1.00  0.00     0.010 A 
ATOM     12  C   UNL A   1      43.980  24.042  27.778  1.00  0.00     0.010 A 
ATOM     13  C   UNL A   1      43.273  25.108  27.230  1.00  0.00    -0.014 A 
BRANCH  13  14
ATOM     14  C   UNL A   1      43.104  26.351  27.976  1.00  0.00     0.031 A 
ATOM     15  C   UNL A   1      44.178  27.364  27.725  1.00  0.00     0.074 A 
ATOM     16  C   UNL A   1      41.981  26.615  28.676  1.00  0.00     0.049 A 
ATOM     17  N   UNL A   1      44.953  27.956  28.574  1.00  0.00    -0.248 NA
ATOM     18  C   UNL A   1      44.520  27.652  26.318  1.00  0.00     0.031 C 
ATOM     19  C   UNL A   1      40.763  25.801  28.751  1.00  0.00     0.029 A 
ATOM     20  N   UNL A   1      41.635  27.727  29.381  1.00  0.00    -0.354 N 
ATOM     21  C   UNL A   1      45.723  28.856  27.831  1.00  0.00     0.074 A 
ATOM     22  C   UNL A   1      45.540  28.498  26.452  1.00  0.00     0.031 C 
ATOM     23  C   UNL A   1      39.750  26.553  29.236  1.00  0.00     0.029 A 
ATOM     24  C   UNL A   1      40.269  27.852  29.623  1.00  0.00     0.049 A 
ATOM     25  H   UNL A   1      42.294  28.388  29.692  1.00  0.00     0.167 HD
ATOM     26  C   UNL A   1      46.261  29.974  28.393  1.00  0.00     0.037 A 
ATOM     27  C   UNL A   1      39.611  28.971  30.031  1.00  0.00     0.037 A 
ATOM     28  C   UNL A   1      46.367  29.834  29.822  1.00  0.00     0.049 A 
ATOM     29  C   UNL A   1      40.627  29.885  30.615  1.00  0.00     0.074 A 
ATOM     30  C   UNL A   1      47.030  28.964  30.667  1.00  0.00     0.029 A 
ATOM     31  N   UNL A   1      45.432  30.468  30.604  1.00  0.00    -0.354 N 
ATOM     32  N   UNL A   1      41.297  29.625  31.705  1.00  0.00    -0.248 NA
ATOM     33  C   UNL A   1      41.235  30.865  29.728  1.00  0.00     0.031 C 
ATOM     34  C   UNL A   1      46.136  28.760  31.759  1.00  0.00     0.029 A 
ATOM     35  C   UNL A   1      45.016  29.566  31.548  1.00  0.00     0.049 A 
ATOM     36  H   UNL A   1      45.120  31.396  30.505  1.00  0.00     0.167 HD
ATOM     37  C   UNL A   1      42.585  30.068  31.444  1.00  0.00     0.074 A 
ATOM     38  C   UNL A   1      42.469  30.884  30.236  1.00  0.00     0.031 C 
ATOM     39  C   UNL A   1      43.666  29.509  32.063  1.00  0.00     0.037 A 
BRANCH  26  40
ATOM     40  C   UNL A   1      46.311  31.328  27.708  1.00  0.00     0.058 A 
ATOM     41  C   UNL A   1      47.512  32.071  27.750  1.00  0.00     0.135 A 
ATOM     42  C   UNL A   1      45.170  32.055  27.302  1.00  0.00     0.135 A 
ATOM     43  F   UNL A   1      48.670  31.484  28.095  1.00  0.00    -0.206 F 
ATOM     44  C   UNL A   1      47.551  33.448  27.530  1.00  0.00     0.059 A 
ATOM     45  C   UNL A   1      45.195  33.419  27.030  1.00  0.00     0.059 A 
ATOM     46  F   UNL A   1      43.951  31.510  27.233  1.00  0.00    -0.206 F 
ATOM     47  C   UNL A   1      46.378  34.118  27.199  1.00  0.00     0.060 A 
BRANCH  47  48
ATOM     48  S   UNL A   1      46.386  35.913  27.061  1.00  0.00     0.124 S 
ATOM     49  O   UNL A   1      46.898  36.093  25.703  1.00  0.00    -0.237 OA
ATOM     50  O   UNL A   1      44.975  36.234  27.258  1.00  0.00    -0.237 OA
ATOM     51  O   UNL A   1      47.277  36.330  28.133  1.00  0.00    -0.744 OA
ENDBRANCH  47  48
ENDBRANCH  26  40
BRANCH  27  52
ATOM     52  C   UNL A   1      38.270  29.448  29.580  1.00  0.00     0.058 A 
ATOM     53  C   UNL A   1      37.255  29.780  30.498  1.00  0.00     0.135 A 
ATOM     54  C   UNL A   1      38.049  29.856  28.248  1.00  0.00     0.135 A 
ATOM     55  F   UNL A   1      37.390  29.459  31.794  1.00  0.00    -0.206 F 
ATOM     56  C   UNL A   1      36.112  30.500  30.124  1.00  0.00     0.059 A 
ATOM     57  C   UNL A   1      36.915  30.564  27.851  1.00  0.00     0.059 A 
ATOM     58  F   UNL A   1      38.977  29.657  27.301  1.00  0.00    -0.206 F 
ATOM     59  C   UNL A   1      35.959  30.903  28.799  1.00  0.00     0.060 A 
BRANCH  59  60
ATOM     60  S   UNL A   1      34.568  31.967  28.336  1.00  0.00     0.124 S 
ATOM     61  O   UNL A   1      33.707  31.039  27.611  1.00  0.00    -0.237 OA
ATOM     62  O   UNL A   1      34.074  32.413  29.633  1.00  0.00    -0.237 OA
ATOM     63  O   UNL A   1      35.193  33.005  27.519  1.00  0.00    -0.744 OA
ENDBRANCH  59  60
ENDBRANCH  27  52
BRANCH  39  64
ATOM     64  C   UNL A   1      43.431  28.586  33.229  1.00  0.00     0.058 A 
ATOM     65  C   UNL A   1      43.180  29.014  34.546  1.00  0.00     0.135 A 
ATOM     66  C   UNL A   1      43.283  27.216  32.965  1.00  0.00     0.135 A 
ATOM     67  F   UNL A   1      43.195  30.315  34.863  1.00  0.00    -0.206 F 
ATOM     68  C   UNL A   1      42.830  28.117  35.558  1.00  0.00     0.059 A 
ATOM     69  C   UNL A   1      42.905  26.309  33.950  1.00  0.00     0.059 A 
ATOM     70  F   UNL A   1      43.446  26.753  31.714  1.00  0.00    -0.206 F 
ATOM     71  C   UNL A   1      42.689  26.765  35.248  1.00  0.00     0.060 A 
BRANCH  71  72
ATOM     72  S   UNL A   1      42.147  25.618  36.534  1.00  0.00     0.124 S 
ATOM     73  O   UNL A   1      42.394  26.381  37.752  1.00  0.00    -0.237 OA
ATOM     74  O   UNL A   1      40.744  25.401  36.194  1.00  0.00    -0.237 OA
ATOM     75  O   UNL A   1      43.010  24.454  36.340  1.00  0.00    -0.744 OA
ENDBRANCH  71  72
ENDBRANCH  39  64
ENDBRANCH  13  14
ENDBRANCH   6   8
ENDBRANCH   3   4
ENDBRANCH   2   3
ENDBRANCH   1   2
BRANCH   1  76
ATOM     76  C   UNL A   1      39.423  22.354  26.515  1.00  0.00     0.002 C 
BRANCH  76  77
ATOM     77  C   UNL A   1      38.221  21.746  25.784  1.00  0.00     0.021 C 
BRANCH  77  78
ATOM     78  C   UNL A   1      37.278  22.760  25.146  1.00  0.00     0.116 C 
BRANCH  78  79
ATOM     79  N   UNL A   1      36.294  23.282  26.078  1.00  0.00    -0.354 N 
ATOM     80  C   UNL A   1      35.067  22.778  26.408  1.00  0.00     0.243 C 
ATOM     81  H   UNL A   1      36.547  24.116  26.538  1.00  0.00     0.163 HD
ATOM     82  O   UNL A   1      34.586  23.116  27.488  1.00  0.00    -0.273 OA
BRANCH  80  83
ATOM     83  C   UNL A   1      34.401  21.744  25.484  1.00  0.00     0.181 C 
ATOM     84  C   UNL A   1      33.933  20.658  26.508  1.00  0.00     0.091 C 
ATOM     85  N   UNL A   1      33.291  22.065  24.503  1.00  0.00    -0.320 N 
ATOM     86  C   UNL A   1      33.227  19.584  25.790  1.00  0.00     0.042 A 
ATOM     87  C   UNL A   1      32.821  20.915  23.680  1.00  0.00     0.178 C 
ATOM     88  N   UNL A   1      32.899  18.341  26.235  1.00  0.00    -0.348 N 
ATOM     89  C   UNL A   1      32.716  19.690  24.521  1.00  0.00     0.081 A 
ATOM     90  C   UNL A   1      32.233  17.728  25.206  1.00  0.00     0.197 A 
ATOM     91  H   UNL A   1      33.100  17.959  27.120  1.00  0.00     0.167 HD
ATOM     92  N   UNL A   1      32.118  18.514  24.154  1.00  0.00    -0.240 NA
BRANCH  85  93
ATOM     93  C   UNL A   1      32.843  23.308  24.062  1.00  0.00     0.256 C 
ATOM     94  O   UNL A   1      32.967  23.703  22.903  1.00  0.00    -0.269 OA
BRANCH  93  95
ATOM     95  C   UNL A   1      32.128  24.223  24.949  1.00  0.00     0.061 A 
ATOM     96  C   UNL A   1      30.826  23.872  25.322  1.00  0.00     0.035 A 
ATOM     97  C   UNL A   1      32.679  25.432  25.361  1.00  0.00     0.072 A 
ATOM     98  C   UNL A   1      30.145  24.730  26.164  1.00  0.00     0.112 A 
ATOM     99  C   UNL A   1      31.906  26.221  26.197  1.00  0.00     0.132 A 
ATOM    100  Cl  UNL A   1      34.255  25.952  24.908  1.00  0.00    -0.082 Cl
ATOM    101  N   UNL A   1      30.651  25.904  26.605  1.00  0.00    -0.263 NA
ENDBRANCH  93  95
ENDBRANCH  85  93
ENDBRANCH  80  83
ENDBRANCH  78  79
ENDBRANCH  77  78
ENDBRANCH  76  77
ENDBRANCH   1  76
TORSDOF 18
ENDMDL
MODEL 2
REMARK VINA RESULT:     -11.8      2.445      4.474
REMARK SMILES O=C(NCCCCCCNC(=O)[C@H]1Cc2[nH]cnc2CN1C(=O)c1ccncc1Cl)c1ccc(-c2c3nc(c(-c4c(F)cc(S(=O)(=O)[O-])cc4F)c4ccc([nH]4)c(-c4c(F)cc(S(=O)(=O)[O-])cc4F)c4nc(c(-c5c(F)cc(S(=O)(=O)[O-])cc5F)c5ccc2[nH]5)C=C4)C=C3)cc1
REMARK SMILES IDX 6 1 5 2 4 3 3 4 1 5 2 6 31 8 32 9 96 10 33 11 95 12 34 13
REMARK SMILES IDX 35 14 36 15 89 16 37 17 94 18 88 19 90 20 38 21 93 22 87 23
REMARK SMILES IDX 86 24 39 26 73 27 52 28 72 29 53 30 56 31 71 32 91 33 54 34
REMARK SMILES IDX 55 35 70 37 92 38 57 39 40 40 41 41 50 42 42 43 43 44 49 45
REMARK SMILES IDX 51 46 44 47 45 48 46 49 47 50 48 51 74 52 75 53 84 54 76 55
REMARK SMILES IDX 77 56 83 57 85 58 78 59 79 60 80 61 81 62 82 63 58 64 59 65
REMARK SMILES IDX 68 66 60 67 61 68 67 69 69 70 62 71 63 72 64 73 65 74 66 75
REMARK SMILES IDX 7 76 8 77 9 78 10 79 11 80 12 82 13 83 14 84 21 85 15 86
REMARK SMILES IDX 20 87 16 88 19 89 17 90 18 92 22 93 23 94 24 95 25 96 29 97
REMARK SMILES IDX 26 98 28 99 30 100 27 101
REMARK H PARENT 3 7 90 25 56 36 10 81 16 91
REMARK Flexibility Score: inf
ROOT
ATOM      1  C   UNL A   1      34.997  22.324  23.984  1.00  0.00     0.002 C 
ENDROOT
BRANCH   1   2
ATOM      2  C   UNL A   1      36.527  22.433  23.993  1.00  0.00     0.021 C 
BRANCH   2   3
ATOM      3  C   UNL A   1      37.150  22.498  25.386  1.00  0.00     0.116 C 
BRANCH   3   4
ATOM      4  N   UNL A   1      38.470  21.914  25.462  1.00  0.00    -0.352 N 
ATOM      5  O   UNL A   1      40.513  21.375  26.089  1.00  0.00    -0.269 OA
ATOM      6  C   UNL A   1      39.605  22.206  26.164  1.00  0.00     0.251 C 
ATOM      7  H   UNL A   1      38.575  21.130  24.876  1.00  0.00     0.163 HD
BRANCH   6   8
ATOM      8  C   UNL A   1      39.837  23.462  26.929  1.00  0.00     0.039 A 
ATOM      9  C   UNL A   1      39.045  24.612  26.881  1.00  0.00     0.014 A 
ATOM     10  C   UNL A   1      40.998  23.477  27.723  1.00  0.00     0.014 A 
ATOM     11  C   UNL A   1      39.454  25.779  27.520  1.00  0.00     0.010 A 
ATOM     12  C   UNL A   1      41.403  24.633  28.375  1.00  0.00     0.010 A 
ATOM     13  C   UNL A   1      40.653  25.795  28.232  1.00  0.00    -0.014 A 
BRANCH  13  14
ATOM     14  C   UNL A   1      41.015  27.010  28.957  1.00  0.00     0.031 A 
ATOM     15  C   UNL A   1      42.159  27.763  28.351  1.00  0.00     0.074 A 
ATOM     16  C   UNL A   1      40.259  27.489  29.967  1.00  0.00     0.049 A 
ATOM     17  N   UNL A   1      43.275  28.124  28.896  1.00  0.00    -0.248 NA
ATOM     18  C   UNL A   1      42.100  28.029  26.900  1.00  0.00     0.031 C 
ATOM     19  C   UNL A   1      38.973  26.969  30.445  1.00  0.00     0.029 A 
ATOM     20  N   UNL A   1      40.416  28.617  30.712  1.00  0.00    -0.354 N 
ATOM     21  C   UNL A   1      43.958  28.859  27.923  1.00  0.00     0.074 A 
ATOM     22  C   UNL A   1      43.276  28.615  26.682  1.00  0.00     0.031 C 
ATOM     23  C   UNL A   1      38.364  27.909  31.202  1.00  0.00     0.029 A 
ATOM     24  C   UNL A   1      39.262  29.037  31.368  1.00  0.00     0.049 A 
ATOM     25  H   UNL A   1      41.272  29.097  30.781  1.00  0.00     0.167 HD
ATOM     26  C   UNL A   1      44.886  29.799  28.255  1.00  0.00     0.037 A 
ATOM     27  C   UNL A   1      39.039  30.256  31.930  1.00  0.00     0.037 A 
ATOM     28  C   UNL A   1      45.399  29.574  29.581  1.00  0.00     0.049 A 
ATOM     29  C   UNL A   1      40.368  30.889  32.138  1.00  0.00     0.074 A 
ATOM     30  C   UNL A   1      46.075  28.539  30.199  1.00  0.00     0.029 A 
ATOM     31  N   UNL A   1      44.927  30.367  30.598  1.00  0.00    -0.354 N 
ATOM     32  N   UNL A   1      41.267  30.434  32.969  1.00  0.00    -0.248 NA
ATOM     33  C   UNL A   1      40.876  31.745  31.076  1.00  0.00     0.031 C 
ATOM     34  C   UNL A   1      45.545  28.493  31.522  1.00  0.00     0.029 A 
ATOM     35  C   UNL A   1      44.632  29.541  31.651  1.00  0.00     0.049 A 
ATOM     36  H   UNL A   1      44.821  31.345  30.576  1.00  0.00     0.167 HD
ATOM     37  C   UNL A   1      42.474  30.586  32.303  1.00  0.00     0.074 A 
ATOM     38  C   UNL A   1      42.177  31.460  31.170  1.00  0.00     0.031 C 
ATOM     39  C   UNL A   1      43.536  29.768  32.566  1.00  0.00     0.037 A 
BRANCH  26  40
ATOM     40  C   UNL A   1      45.029  31.137  27.550  1.00  0.00     0.058 A 
ATOM     41  C   UNL A   1      46.252  31.448  26.915  1.00  0.00     0.135 A 
ATOM     42  C   UNL A   1      44.157  32.232  27.740  1.00  0.00     0.135 A 
ATOM     43  F   UNL A   1      47.153  30.486  26.654  1.00  0.00    -0.206 F 
ATOM     44  C   UNL A   1      46.629  32.756  26.611  1.00  0.00     0.059 A 
ATOM     45  C   UNL A   1      44.492  33.539  27.400  1.00  0.00     0.059 A 
ATOM     46  F   UNL A   1      42.970  32.115  28.347  1.00  0.00    -0.206 F 
ATOM     47  C   UNL A   1      45.751  33.799  26.887  1.00  0.00     0.060 A 
BRANCH  47  48
ATOM     48  S   UNL A   1      46.283  35.500  26.640  1.00  0.00     0.124 S 
ATOM     49  O   UNL A   1      46.988  35.398  25.363  1.00  0.00    -0.237 OA
ATOM     50  O   UNL A   1      45.008  36.212  26.609  1.00  0.00    -0.237 OA
ATOM     51  O   UNL A   1      47.117  35.765  27.803  1.00  0.00    -0.744 OA
ENDBRANCH  47  48
ENDBRANCH  26  40
BRANCH  27  52
ATOM     52  C   UNL A   1      37.772  31.045  31.910  1.00  0.00     0.058 A 
ATOM     53  C   UNL A   1      37.130  31.445  33.099  1.00  0.00     0.135 A 
ATOM     54  C   UNL A   1      37.314  31.663  30.729  1.00  0.00     0.135 A 
ATOM     55  F   UNL A   1      37.518  30.933  34.277  1.00  0.00    -0.206 F 
ATOM     56  C   UNL A   1      36.123  32.420  33.116  1.00  0.00     0.059 A 
ATOM     57  C   UNL A   1      36.306  32.628  30.719  1.00  0.00     0.059 A 
ATOM     58  F   UNL A   1      37.896  31.414  29.547  1.00  0.00    -0.206 F 
ATOM     59  C   UNL A   1      35.729  33.019  31.921  1.00  0.00     0.060 A 
BRANCH  59  60
ATOM     60  S   UNL A   1      34.545  34.389  31.947  1.00  0.00     0.124 S 
ATOM     61  O   UNL A   1      34.310  34.612  30.525  1.00  0.00    -0.237 OA
ATOM     62  O   UNL A   1      33.430  33.821  32.696  1.00  0.00    -0.237 OA
ATOM     63  O   UNL A   1      35.274  35.454  32.632  1.00  0.00    -0.744 OA
ENDBRANCH  59  60
ENDBRANCH  27  52
BRANCH  39  64
ATOM     64  C   UNL A   1      43.472  28.870  33.773  1.00  0.00     0.058 A 
ATOM     65  C   UNL A   1      43.761  29.281  35.088  1.00  0.00     0.135 A 
ATOM     66  C   UNL A   1      42.928  27.587  33.611  1.00  0.00     0.135 A 
ATOM     67  F   UNL A   1      44.183  30.526  35.344  1.00  0.00    -0.206 F 
ATOM     68  C   UNL A   1      43.549  28.443  36.185  1.00  0.00     0.059 A 
ATOM     69  C   UNL A   1      42.680  26.747  34.692  1.00  0.00     0.059 A 
ATOM     70  F   UNL A   1      42.572  27.160  32.389  1.00  0.00    -0.206 F 
ATOM     71  C   UNL A   1      43.002  27.177  35.976  1.00  0.00     0.060 A 
BRANCH  71  72
ATOM     72  S   UNL A   1      42.641  26.128  37.402  1.00  0.00     0.124 S 
ATOM     73  O   UNL A   1      42.950  24.797  36.891  1.00  0.00    -0.237 OA
ATOM     74  O   UNL A   1      43.555  26.646  38.416  1.00  0.00    -0.237 OA
ATOM     75  O   UNL A   1      41.226  26.383  37.664  1.00  0.00    -0.744 OA
ENDBRANCH  71  72
ENDBRANCH  39  64
ENDBRANCH  13  14
ENDBRANCH   6   8
ENDBRANCH   3   4
ENDBRANCH   2   3
ENDBRANCH   1   2
BRANCH   1  76
ATOM     76  C   UNL A   1      34.284  23.110  22.879  1.00  0.00     0.002 C 
BRANCH  76  77
ATOM     77  C   UNL A   1      33.732  24.478  23.294  1.00  0.00     0.021 C 
BRANCH  77  78
ATOM     78  C   UNL A   1      32.211  24.565  23.351  1.00  0.00     0.116 C 
BRANCH  78  79
ATOM     79  N   UNL A   1      31.699  24.632  24.708  1.00  0.00    -0.354 N 
ATOM     80  C   UNL A   1      30.968  25.621  25.305  1.00  0.00     0.243 C 
ATOM     81  H   UNL A   1      31.906  23.856  25.278  1.00  0.00     0.163 HD
ATOM     82  O   UNL A   1      30.292  25.314  26.286  1.00  0.00    -0.273 OA
BRANCH  80  83
ATOM     83  C   UNL A   1      30.934  27.024  24.674  1.00  0.00     0.181 C 
ATOM     84  C   UNL A   1      29.538  27.020  23.968  1.00  0.00     0.091 C 
ATOM     85  N   UNL A   1      31.139  28.312  25.444  1.00  0.00    -0.320 N 
ATOM     86  C   UNL A   1      29.314  28.326  23.326  1.00  0.00     0.042 A 
ATOM     87  C   UNL A   1      31.104  29.554  24.622  1.00  0.00     0.178 C 
ATOM     88  N   UNL A   1      28.380  28.665  22.398  1.00  0.00    -0.348 N 
ATOM     89  C   UNL A   1      30.007  29.474  23.618  1.00  0.00     0.081 A 
ATOM     90  C   UNL A   1      28.565  29.997  22.134  1.00  0.00     0.197 A 
ATOM     91  H   UNL A   1      27.706  28.071  21.995  1.00  0.00     0.167 HD
ATOM     92  N   UNL A   1      29.548  30.510  22.847  1.00  0.00    -0.240 NA
BRANCH  85  93
ATOM     93  C   UNL A   1      31.625  28.492  26.738  1.00  0.00     0.256 C 
ATOM     94  O   UNL A   1      31.041  28.089  27.744  1.00  0.00    -0.269 OA
BRANCH  93  95
ATOM     95  C   UNL A   1      32.915  29.131  26.990  1.00  0.00     0.061 A 
ATOM     96  C   UNL A   1      32.901  30.457  27.435  1.00  0.00     0.035 A 
ATOM     97  C   UNL A   1      34.119  28.482  26.739  1.00  0.00     0.072 A 
ATOM     98  C   UNL A   1      34.117  31.066  27.680  1.00  0.00     0.112 A 
ATOM     99  C   UNL A   1      35.280  29.188  27.010  1.00  0.00     0.132 A 
ATOM    100  Cl  UNL A   1      34.216  26.869  26.149  1.00  0.00    -0.082 Cl
ATOM    101  N   UNL A   1      35.310  30.465  27.469  1.00  0.00    -0.263 NA
ENDBRANCH  93  95
ENDBRANCH  85  93
ENDBRANCH  80  83
ENDBRANCH  78  79
ENDBRANCH  77  78
ENDBRANCH  76  77
ENDBRANCH   1  76
TORSDOF 18
ENDMDL
MODEL 3
REMARK VINA RESULT:     -11.8      3.124      9.176
REMARK SMILES O=C(NCCCCCCNC(=O)[C@H]1Cc2[nH]cnc2CN1C(=O)c1ccncc1Cl)c1ccc(-c2c3nc(c(-c4c(F)cc(S(=O)(=O)[O-])cc4F)c4ccc([nH]4)c(-c4c(F)cc(S(=O)(=O)[O-])cc4F)c4nc(c(-c5c(F)cc(S(=O)(=O)[O-])cc5F)c5ccc2[nH]5)C=C4)C=C3)cc1
REMARK SMILES IDX 6 1 5 2 4 3 3 4 1 5 2 6 31 8 32 9 96 10 33 11 95 12 34 13
REMARK SMILES IDX 35 14 36 15 89 16 37 17 94 18 88 19 90 20 38 21 93 22 87 23
REMARK SMILES IDX 86 24 39 26 73 27 52 28 72 29 53 30 56 31 71 32 91 33 54 34
REMARK SMILES IDX 55 35 70 37 92 38 57 39 40 40 41 41 50 42 42 43 43 44 49 45
REMARK SMILES IDX 51 46 44 47 45 48 46 49 47 50 48 51 74 52 75 53 84 54 76 55
REMARK SMILES IDX 77 56 83 57 85 58 78 59 79 60 80 61 81 62 82 63 58 64 59 65
REMARK SMILES IDX 68 66 60 67 61 68 67 69 69 70 62 71 63 72 64 73 65 74 66 75
REMARK SMILES IDX 7 76 8 77 9 78 10 79 11 80 12 82 13 83 14 84 21 85 15 86
REMARK SMILES IDX 20 87 16 88 19 89 17 90 18 92 22 93 23 94 24 95 25 96 29 97
REMARK SMILES IDX 26 98 28 99 30 100 27 101
REMARK H PARENT 3 7 90 25 56 36 10 81 16 91
REMARK Flexibility Score: inf
ROOT
ATOM      1  C   UNL A   1      35.701  32.615  28.004  1.00  0.00     0.002 C 
ENDROOT
BRANCH   1   2
ATOM      2  C   UNL A   1      34.260  33.020  28.339  1.00  0.00     0.021 C 
BRANCH   2   3
ATOM      3  C   UNL A   1      34.137  34.288  29.183  1.00  0.00     0.116 C 
BRANCH   3   4
ATOM      4  N   UNL A   1      33.766  34.040  30.557  1.00  0.00    -0.352 N 
ATOM      5  O   UNL A   1      33.816  33.638  32.724  1.00  0.00    -0.269 OA
ATOM      6  C   UNL A   1      34.426  33.564  31.654  1.00  0.00     0.251 C 
ATOM      7  H   UNL A   1      32.825  34.263  30.745  1.00  0.00     0.163 HD
BRANCH   6   8
ATOM      8  C   UNL A   1      35.765  32.914  31.630  1.00  0.00     0.039 A 
ATOM      9  C   UNL A   1      36.997  33.568  31.560  1.00  0.00     0.014 A 
ATOM     10  C   UNL A   1      35.750  31.507  31.625  1.00  0.00     0.014 A 
ATOM     11  C   UNL A   1      38.173  32.846  31.382  1.00  0.00     0.010 A 
ATOM     12  C   UNL A   1      36.920  30.780  31.464  1.00  0.00     0.010 A 
ATOM     13  C   UNL A   1      38.125  31.455  31.296  1.00  0.00    -0.014 A 
BRANCH  13  14
ATOM     14  C   UNL A   1      39.382  30.720  31.189  1.00  0.00     0.031 A 
ATOM     15  C   UNL A   1      40.072  30.501  32.500  1.00  0.00     0.074 A 
ATOM     16  C   UNL A   1      39.772  30.139  30.036  1.00  0.00     0.049 A 
ATOM     17  N   UNL A   1      41.275  30.823  32.850  1.00  0.00    -0.248 NA
ATOM     18  C   UNL A   1      39.259  29.970  33.612  1.00  0.00     0.031 C 
ATOM     19  C   UNL A   1      39.025  30.065  28.775  1.00  0.00     0.029 A 
ATOM     20  N   UNL A   1      40.873  29.384  29.770  1.00  0.00    -0.354 N 
ATOM     21  C   UNL A   1      41.443  30.332  34.147  1.00  0.00     0.074 A 
ATOM     22  C   UNL A   1      40.132  29.984  34.619  1.00  0.00     0.031 C 
ATOM     23  C   UNL A   1      39.569  29.111  27.987  1.00  0.00     0.029 A 
ATOM     24  C   UNL A   1      40.769  28.599  28.625  1.00  0.00     0.049 A 
ATOM     25  H   UNL A   1      41.676  29.392  30.339  1.00  0.00     0.167 HD
ATOM     26  C   UNL A   1      42.675  30.027  34.645  1.00  0.00     0.037 A 
ATOM     27  C   UNL A   1      41.564  27.551  28.278  1.00  0.00     0.037 A 
ATOM     28  C   UNL A   1      43.710  30.714  33.918  1.00  0.00     0.049 A 
ATOM     29  C   UNL A   1      42.819  27.677  29.064  1.00  0.00     0.074 A 
ATOM     30  C   UNL A   1      44.018  32.041  33.686  1.00  0.00     0.029 A 
ATOM     31  N   UNL A   1      44.431  30.000  32.993  1.00  0.00    -0.354 N 
ATOM     32  N   UNL A   1      43.675  28.651  28.915  1.00  0.00    -0.248 NA
ATOM     33  C   UNL A   1      42.881  26.982  30.341  1.00  0.00     0.031 C 
ATOM     34  C   UNL A   1      44.493  32.079  32.343  1.00  0.00     0.029 A 
ATOM     35  C   UNL A   1      44.509  30.769  31.861  1.00  0.00     0.049 A 
ATOM     36  H   UNL A   1      44.820  29.105  33.119  1.00  0.00     0.167 HD
ATOM     37  C   UNL A   1      44.080  28.969  30.203  1.00  0.00     0.074 A 
ATOM     38  C   UNL A   1      43.608  27.862  31.033  1.00  0.00     0.031 C 
ATOM     39  C   UNL A   1      44.510  30.225  30.521  1.00  0.00     0.037 A 
BRANCH  26  40
ATOM     40  C   UNL A   1      42.964  28.812  35.509  1.00  0.00     0.058 A 
ATOM     41  C   UNL A   1      43.780  28.965  36.652  1.00  0.00     0.135 A 
ATOM     42  C   UNL A   1      42.749  27.477  35.099  1.00  0.00     0.135 A 
ATOM     43  F   UNL A   1      44.034  30.184  37.154  1.00  0.00    -0.206 F 
ATOM     44  C   UNL A   1      44.430  27.890  37.259  1.00  0.00     0.059 A 
ATOM     45  C   UNL A   1      43.349  26.386  35.719  1.00  0.00     0.059 A 
ATOM     46  F   UNL A   1      42.023  27.158  34.022  1.00  0.00    -0.206 F 
ATOM     47  C   UNL A   1      44.231  26.606  36.764  1.00  0.00     0.060 A 
BRANCH  47  48
ATOM     48  S   UNL A   1      45.179  25.234  37.440  1.00  0.00     0.124 S 
ATOM     49  O   UNL A   1      44.808  24.152  36.529  1.00  0.00    -0.237 OA
ATOM     50  O   UNL A   1      46.548  25.728  37.318  1.00  0.00    -0.237 OA
ATOM     51  O   UNL A   1      44.677  25.115  38.801  1.00  0.00    -0.744 OA
ENDBRANCH  47  48
ENDBRANCH  26  40
BRANCH  27  52
ATOM     52  C   UNL A   1      41.145  26.267  27.641  1.00  0.00     0.058 A 
ATOM     53  C   UNL A   1      41.932  25.637  26.658  1.00  0.00     0.135 A 
ATOM     54  C   UNL A   1      40.101  25.488  28.183  1.00  0.00     0.135 A 
ATOM     55  F   UNL A   1      42.967  26.289  26.105  1.00  0.00    -0.206 F 
ATOM     56  C   UNL A   1      41.719  24.308  26.265  1.00  0.00     0.059 A 
ATOM     57  C   UNL A   1      39.863  24.168  27.800  1.00  0.00     0.059 A 
ATOM     58  F   UNL A   1      39.330  25.958  29.174  1.00  0.00    -0.206 F 
ATOM     59  C   UNL A   1      40.691  23.575  26.855  1.00  0.00     0.060 A 
BRANCH  59  60
ATOM     60  S   UNL A   1      40.504  21.815  26.474  1.00  0.00     0.124 S 
ATOM     61  O   UNL A   1      41.638  21.577  25.588  1.00  0.00    -0.237 OA
ATOM     62  O   UNL A   1      40.588  21.201  27.794  1.00  0.00    -0.237 OA
ATOM     63  O   UNL A   1      39.191  21.743  25.838  1.00  0.00    -0.744 OA
ENDBRANCH  59  60
ENDBRANCH  27  52
BRANCH  39  64
ATOM     64  C   UNL A   1      44.793  31.194  29.403  1.00  0.00     0.058 A 
ATOM     65  C   UNL A   1      45.982  31.217  28.651  1.00  0.00     0.135 A 
ATOM     66  C   UNL A   1      43.745  32.019  28.967  1.00  0.00     0.135 A 
ATOM     67  F   UNL A   1      46.993  30.386  28.934  1.00  0.00    -0.206 F 
ATOM     68  C   UNL A   1      46.131  32.045  27.536  1.00  0.00     0.059 A 
ATOM     69  C   UNL A   1      43.861  32.829  27.841  1.00  0.00     0.059 A 
ATOM     70  F   UNL A   1      42.563  31.996  29.604  1.00  0.00    -0.206 F 
ATOM     71  C   UNL A   1      45.061  32.845  27.135  1.00  0.00     0.060 A 
BRANCH  71  72
ATOM     72  S   UNL A   1      45.221  33.846  25.640  1.00  0.00     0.124 S 
ATOM     73  O   UNL A   1      44.603  32.994  24.631  1.00  0.00    -0.237 OA
ATOM     74  O   UNL A   1      44.482  35.056  25.989  1.00  0.00    -0.237 OA
ATOM     75  O   UNL A   1      46.665  34.028  25.504  1.00  0.00    -0.744 OA
ENDBRANCH  71  72
ENDBRANCH  39  64
ENDBRANCH  13  14
ENDBRANCH   6   8
ENDBRANCH   3   4
ENDBRANCH   2   3
ENDBRANCH   1   2
BRANCH   1  76
ATOM     76  C   UNL A   1      35.906  31.141  27.644  1.00  0.00     0.002 C 
BRANCH  76  77
ATOM     77  C   UNL A   1      34.938  30.157  28.310  1.00  0.00     0.021 C 
BRANCH  77  78
ATOM     78  C   UNL A   1      34.277  29.165  27.360  1.00  0.00     0.116 C 
BRANCH  78  79
ATOM     79  N   UNL A   1      32.865  28.971  27.637  1.00  0.00    -0.354 N 
ATOM     80  C   UNL A   1      32.051  27.933  27.277  1.00  0.00     0.243 C 
ATOM     81  H   UNL A   1      32.434  29.686  28.160  1.00  0.00     0.163 HD
ATOM     82  O   UNL A   1      31.034  27.751  27.945  1.00  0.00    -0.273 OA
BRANCH  80  83
ATOM     83  C   UNL A   1      32.485  26.989  26.143  1.00  0.00     0.181 C 
ATOM     84  C   UNL A   1      31.550  25.758  26.380  1.00  0.00     0.091 C 
ATOM     85  N   UNL A   1      32.507  27.368  24.676  1.00  0.00    -0.320 N 
ATOM     86  C   UNL A   1      31.807  24.744  25.343  1.00  0.00     0.042 A 
ATOM     87  C   UNL A   1      33.002  26.306  23.755  1.00  0.00     0.178 C 
ATOM     88  N   UNL A   1      31.425  23.439  25.321  1.00  0.00    -0.348 N 
ATOM     89  C   UNL A   1      32.451  24.982  24.155  1.00  0.00     0.081 A 
ATOM     90  C   UNL A   1      31.884  22.925  24.137  1.00  0.00     0.197 A 
ATOM     91  H   UNL A   1      30.920  22.960  26.018  1.00  0.00     0.167 HD
ATOM     92  N   UNL A   1      32.519  23.829  23.418  1.00  0.00    -0.240 NA
BRANCH  85  93
ATOM     93  C   UNL A   1      32.400  28.630  24.096  1.00  0.00     0.256 C 
ATOM     94  O   UNL A   1      33.372  29.336  23.824  1.00  0.00    -0.269 OA
BRANCH  93  95
ATOM     95  C   UNL A   1      31.107  29.188  23.707  1.00  0.00     0.061 A 
ATOM     96  C   UNL A   1      30.471  28.625  22.595  1.00  0.00     0.035 A 
ATOM     97  C   UNL A   1      30.548  30.279  24.363  1.00  0.00     0.072 A 
ATOM     98  C   UNL A   1      29.246  29.146  22.224  1.00  0.00     0.112 A 
ATOM     99  C   UNL A   1      29.320  30.726  23.903  1.00  0.00     0.132 A 
ATOM    100  Cl  UNL A   1      31.292  31.052  25.709  1.00  0.00    -0.082 Cl
ATOM    101  N   UNL A   1      28.657  30.191  22.847  1.00  0.00    -0.263 NA
ENDBRANCH  93  95
ENDBRANCH  85  93
ENDBRANCH  80  83
ENDBRANCH  78  79
ENDBRANCH  77  78
ENDBRANCH  76  77
ENDBRANCH   1  76
TORSDOF 18
ENDMDL
