MODEL 1
REMARK VINA RESULT:      -8.9      0.000      0.000
REMARK SMILES CCCCCCNC(=O)Oc1cccc(-c2ccc([C@@H](C)C(=O)NCCCCCCNC(=O)c3ccc(-c4c5nc(c(-c6c(F)cc(S(=O)(=O)[O-])cc6F)c6ccc([nH]6)c(-c6c(F)cc(S(=O)(=O)[O-])cc6F)c6nc(c(-c7c(F)cc(S(=O)(=O)[O-])cc7F)c7ccc4[nH]7)C=C6)C=C5)cc3)cc2C)c1
REMARK SMILES IDX 22 1 23 2 24 3 20 5 21 6 19 7 16 8 17 9 101 10 18 11 100 12
REMARK SMILES IDX 102 13 15 14 11 15 12 16 103 17 13 18 14 19 10 20 8 21 7 22
REMARK SMILES IDX 9 24 6 25 5 26 4 27 3 28 2 29 1 30 25 31 26 32 27 33 28 34
REMARK SMILES IDX 29 35 30 36 31 37 32 38 33 40 34 41 35 42 99 43 36 44 98 45
REMARK SMILES IDX 37 46 38 47 39 48 92 49 40 50 97 51 91 52 93 53 41 54 96 55
REMARK SMILES IDX 90 56 89 57 42 59 76 60 55 61 75 62 56 63 59 64 74 65 94 66
REMARK SMILES IDX 57 67 58 68 73 70 95 71 60 72 43 73 44 74 53 75 45 76 46 77
REMARK SMILES IDX 52 78 54 79 47 80 48 81 49 82 50 83 51 84 77 85 78 86 87 87
REMARK SMILES IDX 79 88 80 89 86 90 88 91 81 92 82 93 83 94 84 95 85 96 61 97
REMARK SMILES IDX 62 98 71 99 63 100 64 101 70 102 72 103 65 104 66 105 67 106
REMARK SMILES IDX 68 107 69 108
REMARK H PARENT 24 4 7 23 31 39 93 58 59 69
REMARK Flexibility Score: inf
ROOT
ATOM      1  C   UNL A   1      47.010  27.440  27.914  1.00  0.00     0.227 C 
ATOM      2  O   UNL A   1      47.369  28.626  27.919  1.00  0.00    -0.274 OA
ATOM      3  N   UNL A   1      47.974  26.522  27.638  1.00  0.00    -0.356 N 
ATOM      4  H   UNL A   1      48.879  26.900  27.549  1.00  0.00     0.163 HD
ENDROOT
BRANCH   1   5
ATOM      5  C   UNL A   1      45.552  27.082  28.241  1.00  0.00     0.105 C 
ATOM      6  C   UNL A   1      44.575  28.251  28.119  1.00  0.00     0.023 C 
BRANCH   5   7
ATOM      7  C   UNL A   1      45.383  26.215  29.479  1.00  0.00    -0.036 A 
ATOM      8  C   UNL A   1      44.994  24.762  31.914  1.00  0.00    -0.015 A 
ATOM      9  C   UNL A   1      44.281  24.458  30.742  1.00  0.00     0.009 A 
ATOM     10  C   UNL A   1      45.995  25.754  31.822  1.00  0.00    -0.043 A 
ATOM     11  C   UNL A   1      44.506  25.134  29.541  1.00  0.00     0.005 A 
ATOM     12  C   UNL A   1      46.135  26.498  30.630  1.00  0.00     0.008 A 
ATOM     13  C   UNL A   1      46.974  26.061  32.926  1.00  0.00     0.045 C 
BRANCH   8  14
ATOM     14  C   UNL A   1      44.647  24.046  33.162  1.00  0.00    -0.014 A 
ATOM     15  C   UNL A   1      44.928  22.164  34.676  1.00  0.00     0.133 A 
ATOM     16  C   UNL A   1      43.989  22.692  35.557  1.00  0.00     0.047 A 
ATOM     17  C   UNL A   1      45.270  22.833  33.499  1.00  0.00     0.056 A 
ATOM     18  C   UNL A   1      43.389  23.911  35.258  1.00  0.00     0.004 A 
ATOM     19  C   UNL A   1      43.708  24.574  34.068  1.00  0.00     0.009 A 
BRANCH  15  20
ATOM     20  O   UNL A   1      45.391  20.865  34.942  1.00  0.00    -0.410 OA
BRANCH  20  21
ATOM     21  C   UNL A   1      46.103  20.628  36.107  1.00  0.00     0.412 C 
ATOM     22  N   UNL A   1      47.374  20.179  35.871  1.00  0.00    -0.321 N 
ATOM     23  H   UNL A   1      47.913  19.948  36.661  1.00  0.00     0.167 HD
ATOM     24  O   UNL A   1      45.694  20.783  37.250  1.00  0.00    -0.224 OA
BRANCH  22  25
ATOM     25  C   UNL A   1      48.009  20.010  34.579  1.00  0.00     0.119 C 
BRANCH  25  26
ATOM     26  C   UNL A   1      49.532  20.122  34.676  1.00  0.00     0.021 C 
BRANCH  26  27
ATOM     27  C   UNL A   1      50.244  20.407  33.348  1.00  0.00     0.002 C 
BRANCH  27  28
ATOM     28  C   UNL A   1      51.401  21.408  33.422  1.00  0.00    -0.000 C 
BRANCH  28  29
ATOM     29  C   UNL A   1      52.782  20.839  33.089  1.00  0.00    -0.003 C 
ATOM     30  C   UNL A   1      53.029  19.466  33.695  1.00  0.00     0.004 C 
ENDBRANCH  28  29
ENDBRANCH  27  28
ENDBRANCH  26  27
ENDBRANCH  25  26
ENDBRANCH  22  25
ENDBRANCH  20  21
ENDBRANCH  15  20
ENDBRANCH   8  14
ENDBRANCH   5   7
ENDBRANCH   1   5
BRANCH   3  31
ATOM     31  C   UNL A   1      47.910  25.088  27.450  1.00  0.00     0.116 C 
BRANCH  31  32
ATOM     32  C   UNL A   1      47.052  24.717  26.238  1.00  0.00     0.021 C 
BRANCH  32  33
ATOM     33  C   UNL A   1      46.118  23.528  26.483  1.00  0.00     0.002 C 
BRANCH  33  34
ATOM     34  C   UNL A   1      44.917  23.442  25.534  1.00  0.00     0.002 C 
BRANCH  34  35
ATOM     35  C   UNL A   1      43.541  23.473  26.209  1.00  0.00     0.021 C 
BRANCH  35  36
ATOM     36  C   UNL A   1      42.773  24.780  26.026  1.00  0.00     0.116 C 
BRANCH  36  37
ATOM     37  N   UNL A   1      41.380  24.540  25.681  1.00  0.00    -0.352 N 
ATOM     38  C   UNL A   1      40.239  24.877  26.364  1.00  0.00     0.251 C 
ATOM     39  H   UNL A   1      41.235  24.064  24.831  1.00  0.00     0.163 HD
ATOM     40  O   UNL A   1      39.166  24.370  26.050  1.00  0.00    -0.269 OA
BRANCH  38  41
ATOM     41  C   UNL A   1      40.303  25.844  27.481  1.00  0.00     0.039 A 
ATOM     42  C   UNL A   1      41.168  26.936  27.385  1.00  0.00     0.014 A 
ATOM     43  C   UNL A   1      39.532  25.657  28.632  1.00  0.00     0.014 A 
ATOM     44  C   UNL A   1      41.217  27.874  28.420  1.00  0.00     0.010 A 
ATOM     45  C   UNL A   1      39.532  26.627  29.631  1.00  0.00     0.010 A 
ATOM     46  C   UNL A   1      40.375  27.744  29.537  1.00  0.00    -0.014 A 
BRANCH  46  47
ATOM     47  C   UNL A   1      40.357  28.770  30.612  1.00  0.00     0.031 A 
ATOM     48  C   UNL A   1      41.300  28.661  31.779  1.00  0.00     0.074 A 
ATOM     49  C   UNL A   1      39.446  29.762  30.566  1.00  0.00     0.049 A 
ATOM     50  N   UNL A   1      41.385  29.416  32.844  1.00  0.00    -0.248 NA
ATOM     51  C   UNL A   1      42.256  27.542  31.759  1.00  0.00     0.031 C 
ATOM     52  C   UNL A   1      38.450  29.947  29.507  1.00  0.00     0.029 A 
ATOM     53  N   UNL A   1      39.202  30.796  31.433  1.00  0.00    -0.354 N 
ATOM     54  C   UNL A   1      42.393  28.861  33.624  1.00  0.00     0.074 A 
ATOM     55  C   UNL A   1      42.854  27.675  32.934  1.00  0.00     0.031 C 
ATOM     56  C   UNL A   1      37.718  31.039  29.778  1.00  0.00     0.029 A 
ATOM     57  C   UNL A   1      38.163  31.610  31.045  1.00  0.00     0.049 A 
ATOM     58  H   UNL A   1      39.721  30.942  32.257  1.00  0.00     0.167 HD
ATOM     59  C   UNL A   1      42.902  29.311  34.795  1.00  0.00     0.037 A 
ATOM     60  C   UNL A   1      37.624  32.688  31.646  1.00  0.00     0.037 A 
ATOM     61  C   UNL A   1      42.451  30.504  35.465  1.00  0.00     0.049 A 
ATOM     62  C   UNL A   1      38.200  33.163  32.953  1.00  0.00     0.074 A 
ATOM     63  C   UNL A   1      42.938  31.073  36.628  1.00  0.00     0.029 A 
ATOM     64  N   UNL A   1      41.406  31.308  35.033  1.00  0.00    -0.354 N 
ATOM     65  N   UNL A   1      39.193  32.659  33.646  1.00  0.00    -0.248 NA
ATOM     66  C   UNL A   1      37.587  34.354  33.556  1.00  0.00     0.031 C 
ATOM     67  C   UNL A   1      42.159  32.196  36.924  1.00  0.00     0.029 A 
ATOM     68  C   UNL A   1      41.219  32.357  35.919  1.00  0.00     0.049 A 
ATOM     69  H   UNL A   1      40.876  31.155  34.218  1.00  0.00     0.167 HD
ATOM     70  C   UNL A   1      39.341  33.486  34.754  1.00  0.00     0.074 A 
ATOM     71  C   UNL A   1      38.343  34.529  34.632  1.00  0.00     0.031 C 
ATOM     72  C   UNL A   1      40.223  33.390  35.780  1.00  0.00     0.037 A 
BRANCH  59  73
ATOM     73  C   UNL A   1      44.011  28.512  35.427  1.00  0.00     0.058 A 
ATOM     74  C   UNL A   1      45.360  28.753  35.120  1.00  0.00     0.135 A 
ATOM     75  C   UNL A   1      43.725  27.519  36.378  1.00  0.00     0.135 A 
ATOM     76  F   UNL A   1      45.690  29.681  34.207  1.00  0.00    -0.206 F 
ATOM     77  C   UNL A   1      46.383  28.018  35.708  1.00  0.00     0.059 A 
ATOM     78  C   UNL A   1      44.736  26.791  37.001  1.00  0.00     0.059 A 
ATOM     79  F   UNL A   1      42.454  27.247  36.711  1.00  0.00    -0.206 F 
ATOM     80  C   UNL A   1      46.062  27.038  36.648  1.00  0.00     0.060 A 
BRANCH  80  81
ATOM     81  S   UNL A   1      47.403  26.097  37.406  1.00  0.00     0.124 S 
ATOM     82  O   UNL A   1      47.807  25.227  36.306  1.00  0.00    -0.237 OA
ATOM     83  O   UNL A   1      48.353  27.143  37.768  1.00  0.00    -0.237 OA
ATOM     84  O   UNL A   1      46.755  25.427  38.530  1.00  0.00    -0.744 OA
ENDBRANCH  80  81
ENDBRANCH  59  73
BRANCH  60  85
ATOM     85  C   UNL A   1      36.488  33.405  31.006  1.00  0.00     0.058 A 
ATOM     86  C   UNL A   1      36.692  34.223  29.886  1.00  0.00     0.135 A 
ATOM     87  C   UNL A   1      35.177  33.274  31.490  1.00  0.00     0.135 A 
ATOM     88  F   UNL A   1      37.929  34.385  29.391  1.00  0.00    -0.206 F 
ATOM     89  C   UNL A   1      35.641  34.899  29.275  1.00  0.00     0.059 A 
ATOM     90  C   UNL A   1      34.105  33.920  30.882  1.00  0.00     0.059 A 
ATOM     91  F   UNL A   1      34.925  32.489  32.549  1.00  0.00    -0.206 F 
ATOM     92  C   UNL A   1      34.350  34.739  29.780  1.00  0.00     0.060 A 
BRANCH  92  93
ATOM     93  S   UNL A   1      32.985  35.582  28.951  1.00  0.00     0.124 S 
ATOM     94  O   UNL A   1      32.406  34.500  28.164  1.00  0.00    -0.237 OA
ATOM     95  O   UNL A   1      32.184  36.050  30.079  1.00  0.00    -0.237 OA
ATOM     96  O   UNL A   1      33.653  36.632  28.188  1.00  0.00    -0.744 OA
ENDBRANCH  92  93
ENDBRANCH  60  85
BRANCH  72  97
ATOM     97  C   UNL A   1      40.172  34.458  36.838  1.00  0.00     0.058 A 
ATOM     98  C   UNL A   1      40.966  35.612  36.760  1.00  0.00     0.135 A 
ATOM     99  C   UNL A   1      39.278  34.348  37.916  1.00  0.00     0.135 A 
ATOM    100  F   UNL A   1      41.842  35.764  35.754  1.00  0.00    -0.206 F 
ATOM    101  C   UNL A   1      40.892  36.611  37.725  1.00  0.00     0.059 A 
ATOM    102  C   UNL A   1      39.167  35.348  38.877  1.00  0.00     0.059 A 
ATOM    103  F   UNL A   1      38.489  33.269  38.032  1.00  0.00    -0.206 F 
ATOM    104  C   UNL A   1      39.987  36.471  38.778  1.00  0.00     0.060 A 
BRANCH 104 105
ATOM    105  S   UNL A   1      39.874  37.793  40.004  1.00  0.00     0.124 S 
ATOM    106  O   UNL A   1      41.091  38.550  39.732  1.00  0.00    -0.237 OA
ATOM    107  O   UNL A   1      38.623  38.451  39.639  1.00  0.00    -0.237 OA
ATOM    108  O   UNL A   1      39.850  37.076  41.276  1.00  0.00    -0.744 OA
ENDBRANCH 104 105
ENDBRANCH  72  97
ENDBRANCH  46  47
ENDBRANCH  38  41
ENDBRANCH  36  37
ENDBRANCH  35  36
ENDBRANCH  34  35
ENDBRANCH  33  34
ENDBRANCH  32  33
ENDBRANCH  31  32
ENDBRANCH   3  31
TORSDOF 25
ENDMDL
MODEL 2
REMARK VINA RESULT:      -8.5      1.516      2.702
REMARK SMILES CCCCCCNC(=O)Oc1cccc(-c2ccc([C@@H](C)C(=O)NCCCCCCNC(=O)c3ccc(-c4c5nc(c(-c6c(F)cc(S(=O)(=O)[O-])cc6F)c6ccc([nH]6)c(-c6c(F)cc(S(=O)(=O)[O-])cc6F)c6nc(c(-c7c(F)cc(S(=O)(=O)[O-])cc7F)c7ccc4[nH]7)C=C6)C=C5)cc3)cc2C)c1
REMARK SMILES IDX 22 1 23 2 24 3 20 5 21 6 19 7 16 8 17 9 101 10 18 11 100 12
REMARK SMILES IDX 102 13 15 14 11 15 12 16 103 17 13 18 14 19 10 20 8 21 7 22
REMARK SMILES IDX 9 24 6 25 5 26 4 27 3 28 2 29 1 30 25 31 26 32 27 33 28 34
REMARK SMILES IDX 29 35 30 36 31 37 32 38 33 40 34 41 35 42 99 43 36 44 98 45
REMARK SMILES IDX 37 46 38 47 39 48 92 49 40 50 97 51 91 52 93 53 41 54 96 55
REMARK SMILES IDX 90 56 89 57 42 59 76 60 55 61 75 62 56 63 59 64 74 65 94 66
REMARK SMILES IDX 57 67 58 68 73 70 95 71 60 72 43 73 44 74 53 75 45 76 46 77
REMARK SMILES IDX 52 78 54 79 47 80 48 81 49 82 50 83 51 84 77 85 78 86 87 87
REMARK SMILES IDX 79 88 80 89 86 90 88 91 81 92 82 93 83 94 84 95 85 96 61 97
REMARK SMILES IDX 62 98 71 99 63 100 64 101 70 102 72 103 65 104 66 105 67 106
REMARK SMILES IDX 68 107 69 108
REMARK H PARENT 24 4 7 23 31 39 93 58 59 69
REMARK Flexibility Score: inf
ROOT
ATOM      1  C   UNL A   1      47.567  27.335  28.225  1.00  0.00     0.227 C 
ATOM      2  O   UNL A   1      48.023  28.484  28.301  1.00  0.00    -0.274 OA
ATOM      3  N   UNL A   1      48.437  26.369  27.825  1.00  0.00    -0.356 N 
ATOM      4  H   UNL A   1      49.364  26.681  27.716  1.00  0.00     0.163 HD
ENDROOT
BRANCH   1   5
ATOM      5  C   UNL A   1      46.102  27.069  28.604  1.00  0.00     0.105 C 
ATOM      6  C   UNL A   1      45.192  28.291  28.494  1.00  0.00     0.023 C 
BRANCH   5   7
ATOM      7  C   UNL A   1      45.924  26.231  29.861  1.00  0.00    -0.036 A 
ATOM      8  C   UNL A   1      45.525  24.838  32.329  1.00  0.00    -0.015 A 
ATOM      9  C   UNL A   1      44.781  24.539  31.176  1.00  0.00     0.009 A 
ATOM     10  C   UNL A   1      46.560  25.790  32.201  1.00  0.00    -0.043 A 
ATOM     11  C   UNL A   1      45.009  25.185  29.958  1.00  0.00     0.005 A 
ATOM     12  C   UNL A   1      46.705  26.507  30.993  1.00  0.00     0.008 A 
ATOM     13  C   UNL A   1      47.568  26.082  33.283  1.00  0.00     0.045 C 
BRANCH   8  14
ATOM     14  C   UNL A   1      45.174  24.159  33.596  1.00  0.00    -0.014 A 
ATOM     15  C   UNL A   1      45.713  22.612  35.394  1.00  0.00     0.133 A 
ATOM     16  C   UNL A   1      44.502  22.875  36.026  1.00  0.00     0.047 A 
ATOM     17  C   UNL A   1      46.060  23.251  34.202  1.00  0.00     0.056 A 
ATOM     18  C   UNL A   1      43.629  23.800  35.461  1.00  0.00     0.004 A 
ATOM     19  C   UNL A   1      43.958  24.424  34.253  1.00  0.00     0.009 A 
BRANCH  15  20
ATOM     20  O   UNL A   1      46.490  21.565  35.916  1.00  0.00    -0.410 OA
BRANCH  20  21
ATOM     21  C   UNL A   1      45.935  20.299  36.016  1.00  0.00     0.412 C 
ATOM     22  N   UNL A   1      46.019  19.780  37.280  1.00  0.00    -0.321 N 
ATOM     23  H   UNL A   1      45.684  18.863  37.402  1.00  0.00     0.167 HD
ATOM     24  O   UNL A   1      45.415  19.663  35.110  1.00  0.00    -0.224 OA
BRANCH  22  25
ATOM     25  C   UNL A   1      46.548  20.440  38.456  1.00  0.00     0.119 C 
BRANCH  25  26
ATOM     26  C   UNL A   1      46.426  19.564  39.703  1.00  0.00     0.021 C 
BRANCH  26  27
ATOM     27  C   UNL A   1      46.417  18.054  39.434  1.00  0.00     0.002 C 
BRANCH  27  28
ATOM     28  C   UNL A   1      45.270  17.275  40.087  1.00  0.00    -0.000 C 
BRANCH  28  29
ATOM     29  C   UNL A   1      45.588  16.666  41.455  1.00  0.00    -0.003 C 
ATOM     30  C   UNL A   1      47.031  16.206  41.587  1.00  0.00     0.004 C 
ENDBRANCH  28  29
ENDBRANCH  27  28
ENDBRANCH  26  27
ENDBRANCH  25  26
ENDBRANCH  22  25
ENDBRANCH  20  21
ENDBRANCH  15  20
ENDBRANCH   8  14
ENDBRANCH   5   7
ENDBRANCH   1   5
BRANCH   3  31
ATOM     31  C   UNL A   1      48.244  24.965  27.531  1.00  0.00     0.116 C 
BRANCH  31  32
ATOM     32  C   UNL A   1      46.963  24.729  26.727  1.00  0.00     0.021 C 
BRANCH  32  33
ATOM     33  C   UNL A   1      46.929  25.473  25.389  1.00  0.00     0.002 C 
BRANCH  33  34
ATOM     34  C   UNL A   1      45.575  26.099  25.031  1.00  0.00     0.002 C 
BRANCH  34  35
ATOM     35  C   UNL A   1      44.348  25.237  25.351  1.00  0.00     0.021 C 
BRANCH  35  36
ATOM     36  C   UNL A   1      43.018  25.987  25.315  1.00  0.00     0.116 C 
BRANCH  36  37
ATOM     37  N   UNL A   1      41.886  25.075  25.375  1.00  0.00    -0.352 N 
ATOM     38  C   UNL A   1      40.998  24.849  26.396  1.00  0.00     0.251 C 
ATOM     39  H   UNL A   1      41.735  24.541  24.562  1.00  0.00     0.163 HD
ATOM     40  O   UNL A   1      40.266  23.864  26.364  1.00  0.00    -0.269 OA
BRANCH  38  41
ATOM     41  C   UNL A   1      40.928  25.787  27.537  1.00  0.00     0.039 A 
ATOM     42  C   UNL A   1      41.914  26.767  27.673  1.00  0.00     0.014 A 
ATOM     43  C   UNL A   1      39.907  25.682  28.487  1.00  0.00     0.014 A 
ATOM     44  C   UNL A   1      41.843  27.679  28.729  1.00  0.00     0.010 A 
ATOM     45  C   UNL A   1      39.801  26.633  29.499  1.00  0.00     0.010 A 
ATOM     46  C   UNL A   1      40.768  27.639  29.632  1.00  0.00    -0.014 A 
BRANCH  46  47
ATOM     47  C   UNL A   1      40.635  28.646  30.716  1.00  0.00     0.031 A 
ATOM     48  C   UNL A   1      41.503  28.560  31.942  1.00  0.00     0.074 A 
ATOM     49  C   UNL A   1      39.686  29.599  30.623  1.00  0.00     0.049 A 
ATOM     50  N   UNL A   1      41.485  29.301  33.019  1.00  0.00    -0.248 NA
ATOM     51  C   UNL A   1      42.507  27.484  31.971  1.00  0.00     0.031 C 
ATOM     52  C   UNL A   1      38.754  29.757  29.504  1.00  0.00     0.029 A 
ATOM     53  N   UNL A   1      39.340  30.608  31.486  1.00  0.00    -0.354 N 
ATOM     54  C   UNL A   1      42.464  28.778  33.857  1.00  0.00     0.074 A 
ATOM     55  C   UNL A   1      43.020  27.624  33.184  1.00  0.00     0.031 C 
ATOM     56  C   UNL A   1      37.958  30.813  29.739  1.00  0.00     0.029 A 
ATOM     57  C   UNL A   1      38.294  31.382  31.040  1.00  0.00     0.049 A 
ATOM     58  H   UNL A   1      39.798  30.763  32.344  1.00  0.00     0.167 HD
ATOM     59  C   UNL A   1      42.875  29.231  35.065  1.00  0.00     0.037 A 
ATOM     60  C   UNL A   1      37.670  32.426  31.618  1.00  0.00     0.037 A 
ATOM     61  C   UNL A   1      42.328  30.393  35.720  1.00  0.00     0.049 A 
ATOM     62  C   UNL A   1      38.138  32.905  32.966  1.00  0.00     0.074 A 
ATOM     63  C   UNL A   1      42.712  30.964  36.919  1.00  0.00     0.029 A 
ATOM     64  N   UNL A   1      41.280  31.157  35.230  1.00  0.00    -0.354 N 
ATOM     65  N   UNL A   1      39.104  32.434  33.717  1.00  0.00    -0.248 NA
ATOM     66  C   UNL A   1      37.435  34.058  33.542  1.00  0.00     0.031 C 
ATOM     67  C   UNL A   1      41.867  32.048  37.177  1.00  0.00     0.029 A 
ATOM     68  C   UNL A   1      40.989  32.183  36.114  1.00  0.00     0.049 A 
ATOM     69  H   UNL A   1      40.811  30.995  34.380  1.00  0.00     0.167 HD
ATOM     70  C   UNL A   1      39.143  33.249  34.843  1.00  0.00     0.074 A 
ATOM     71  C   UNL A   1      38.110  34.250  34.668  1.00  0.00     0.031 C 
ATOM     72  C   UNL A   1      39.959  33.175  35.923  1.00  0.00     0.037 A 
BRANCH  59  73
ATOM     73  C   UNL A   1      43.973  28.471  35.759  1.00  0.00     0.058 A 
ATOM     74  C   UNL A   1      43.695  27.397  36.620  1.00  0.00     0.135 A 
ATOM     75  C   UNL A   1      45.321  28.793  35.532  1.00  0.00     0.135 A 
ATOM     76  F   UNL A   1      42.424  27.054  36.885  1.00  0.00    -0.206 F 
ATOM     77  C   UNL A   1      44.710  26.691  37.256  1.00  0.00     0.059 A 
ATOM     78  C   UNL A   1      46.354  28.080  36.135  1.00  0.00     0.059 A 
ATOM     79  F   UNL A   1      45.646  29.809  34.717  1.00  0.00    -0.206 F 
ATOM     80  C   UNL A   1      46.038  27.040  37.007  1.00  0.00     0.060 A 
BRANCH  80  81
ATOM     81  S   UNL A   1      47.345  26.110  37.836  1.00  0.00     0.124 S 
ATOM     82  O   UNL A   1      46.815  26.008  39.192  1.00  0.00    -0.237 OA
ATOM     83  O   UNL A   1      47.376  24.867  37.073  1.00  0.00    -0.237 OA
ATOM     84  O   UNL A   1      48.519  26.964  37.685  1.00  0.00    -0.744 OA
ENDBRANCH  80  81
ENDBRANCH  59  73
BRANCH  60  85
ATOM     85  C   UNL A   1      36.548  33.103  30.914  1.00  0.00     0.058 A 
ATOM     86  C   UNL A   1      35.228  32.969  31.366  1.00  0.00     0.135 A 
ATOM     87  C   UNL A   1      36.774  33.908  29.786  1.00  0.00     0.135 A 
ATOM     88  F   UNL A   1      34.961  32.205  32.436  1.00  0.00    -0.206 F 
ATOM     89  C   UNL A   1      34.168  33.596  30.720  1.00  0.00     0.059 A 
ATOM     90  C   UNL A   1      35.734  34.566  29.136  1.00  0.00     0.059 A 
ATOM     91  F   UNL A   1      38.022  34.083  29.323  1.00  0.00    -0.206 F 
ATOM     92  C   UNL A   1      34.432  34.394  29.606  1.00  0.00     0.060 A 
BRANCH  92  93
ATOM     93  S   UNL A   1      33.055  35.243  28.802  1.00  0.00     0.124 S 
ATOM     94  O   UNL A   1      32.531  34.195  27.934  1.00  0.00    -0.237 OA
ATOM     95  O   UNL A   1      32.216  35.610  29.939  1.00  0.00    -0.237 OA
ATOM     96  O   UNL A   1      33.702  36.362  28.122  1.00  0.00    -0.744 OA
ENDBRANCH  92  93
ENDBRANCH  60  85
BRANCH  72  97
ATOM     97  C   UNL A   1      39.792  34.223  36.989  1.00  0.00     0.058 A 
ATOM     98  C   UNL A   1      39.040  33.981  38.149  1.00  0.00     0.135 A 
ATOM     99  C   UNL A   1      40.436  35.465  36.872  1.00  0.00     0.135 A 
ATOM    100  F   UNL A   1      38.397  32.813  38.307  1.00  0.00    -0.206 F 
ATOM    101  C   UNL A   1      38.914  34.942  39.146  1.00  0.00     0.059 A 
ATOM    102  C   UNL A   1      40.348  36.431  37.870  1.00  0.00     0.059 A 
ATOM    103  F   UNL A   1      41.176  35.743  35.787  1.00  0.00    -0.206 F 
ATOM    104  C   UNL A   1      39.575  36.164  38.998  1.00  0.00     0.060 A 
BRANCH 104 105
ATOM    105  S   UNL A   1      39.434  37.389  40.318  1.00  0.00     0.124 S 
ATOM    106  O   UNL A   1      38.798  38.500  39.620  1.00  0.00    -0.237 OA
ATOM    107  O   UNL A   1      38.603  36.697  41.299  1.00  0.00    -0.237 OA
ATOM    108  O   UNL A   1      40.818  37.612  40.724  1.00  0.00    -0.744 OA
ENDBRANCH 104 105
ENDBRANCH  72  97
ENDBRANCH  46  47
ENDBRANCH  38  41
ENDBRANCH  36  37
ENDBRANCH  35  36
ENDBRANCH  34  35
ENDBRANCH  33  34
ENDBRANCH  32  33
ENDBRANCH  31  32
ENDBRANCH   3  31
TORSDOF 25
ENDMDL
MODEL 3
REMARK VINA RESULT:      -8.5      7.364     14.961
REMARK SMILES CCCCCCNC(=O)Oc1cccc(-c2ccc([C@@H](C)C(=O)NCCCCCCNC(=O)c3ccc(-c4c5nc(c(-c6c(F)cc(S(=O)(=O)[O-])cc6F)c6ccc([nH]6)c(-c6c(F)cc(S(=O)(=O)[O-])cc6F)c6nc(c(-c7c(F)cc(S(=O)(=O)[O-])cc7F)c7ccc4[nH]7)C=C6)C=C5)cc3)cc2C)c1
REMARK SMILES IDX 22 1 23 2 24 3 20 5 21 6 19 7 16 8 17 9 101 10 18 11 100 12
REMARK SMILES IDX 102 13 15 14 11 15 12 16 103 17 13 18 14 19 10 20 8 21 7 22
REMARK SMILES IDX 9 24 6 25 5 26 4 27 3 28 2 29 1 30 25 31 26 32 27 33 28 34
REMARK SMILES IDX 29 35 30 36 31 37 32 38 33 40 34 41 35 42 99 43 36 44 98 45
REMARK SMILES IDX 37 46 38 47 39 48 92 49 40 50 97 51 91 52 93 53 41 54 96 55
REMARK SMILES IDX 90 56 89 57 42 59 76 60 55 61 75 62 56 63 59 64 74 65 94 66
REMARK SMILES IDX 57 67 58 68 73 70 95 71 60 72 43 73 44 74 53 75 45 76 46 77
REMARK SMILES IDX 52 78 54 79 47 80 48 81 49 82 50 83 51 84 77 85 78 86 87 87
REMARK SMILES IDX 79 88 80 89 86 90 88 91 81 92 82 93 83 94 84 95 85 96 61 97
REMARK SMILES IDX 62 98 71 99 63 100 64 101 70 102 72 103 65 104 66 105 67 106
REMARK SMILES IDX 68 107 69 108
REMARK H PARENT 24 4 7 23 31 39 93 58 59 69
REMARK Flexibility Score: inf
ROOT
ATOM      1  C   UNL A   1      42.836  36.197  29.252  1.00  0.00     0.227 C 
ATOM      2  O   UNL A   1      43.751  36.837  29.788  1.00  0.00    -0.274 OA
ATOM      3  N   UNL A   1      42.081  35.424  30.078  1.00  0.00    -0.356 N 
ATOM      4  H   UNL A   1      42.298  35.522  31.033  1.00  0.00     0.163 HD
ENDROOT
BRANCH   1   5
ATOM      5  C   UNL A   1      42.593  36.332  27.741  1.00  0.00     0.105 C 
ATOM      6  C   UNL A   1      42.899  35.068  26.940  1.00  0.00     0.023 C 
BRANCH   5   7
ATOM      7  C   UNL A   1      43.108  37.630  27.138  1.00  0.00    -0.036 A 
ATOM      8  C   UNL A   1      43.998  40.176  26.182  1.00  0.00    -0.015 A 
ATOM      9  C   UNL A   1      44.895  39.134  26.472  1.00  0.00     0.009 A 
ATOM     10  C   UNL A   1      42.620  39.889  26.281  1.00  0.00    -0.043 A 
ATOM     11  C   UNL A   1      44.457  37.875  26.893  1.00  0.00     0.005 A 
ATOM     12  C   UNL A   1      42.200  38.648  26.808  1.00  0.00     0.008 A 
ATOM     13  C   UNL A   1      41.533  40.828  25.823  1.00  0.00     0.045 C 
BRANCH   8  14
ATOM     14  C   UNL A   1      44.546  41.499  25.810  1.00  0.00    -0.014 A 
ATOM     15  C   UNL A   1      45.115  43.795  26.376  1.00  0.00     0.133 A 
ATOM     16  C   UNL A   1      45.609  44.022  25.096  1.00  0.00     0.047 A 
ATOM     17  C   UNL A   1      44.601  42.549  26.742  1.00  0.00     0.056 A 
ATOM     18  C   UNL A   1      45.598  42.983  24.171  1.00  0.00     0.004 A 
ATOM     19  C   UNL A   1      45.061  41.740  24.523  1.00  0.00     0.009 A 
BRANCH  15  20
ATOM     20  O   UNL A   1      45.006  44.910  27.224  1.00  0.00    -0.410 OA
BRANCH  20  21
ATOM     21  C   UNL A   1      46.074  45.241  28.043  1.00  0.00     0.412 C 
ATOM     22  N   UNL A   1      45.724  45.326  29.364  1.00  0.00    -0.321 N 
ATOM     23  H   UNL A   1      46.431  45.605  29.989  1.00  0.00     0.167 HD
ATOM     24  O   UNL A   1      47.225  45.446  27.684  1.00  0.00    -0.224 OA
BRANCH  22  25
ATOM     25  C   UNL A   1      44.422  45.050  29.937  1.00  0.00     0.119 C 
BRANCH  25  26
ATOM     26  C   UNL A   1      44.401  43.715  30.683  1.00  0.00     0.021 C 
BRANCH  26  27
ATOM     27  C   UNL A   1      43.447  42.665  30.101  1.00  0.00     0.002 C 
BRANCH  27  28
ATOM     28  C   UNL A   1      43.650  41.234  30.613  1.00  0.00    -0.000 C 
BRANCH  28  29
ATOM     29  C   UNL A   1      42.747  40.176  29.974  1.00  0.00    -0.003 C 
ATOM     30  C   UNL A   1      41.352  40.690  29.655  1.00  0.00     0.004 C 
ENDBRANCH  28  29
ENDBRANCH  27  28
ENDBRANCH  26  27
ENDBRANCH  25  26
ENDBRANCH  22  25
ENDBRANCH  20  21
ENDBRANCH  15  20
ENDBRANCH   8  14
ENDBRANCH   5   7
ENDBRANCH   1   5
BRANCH   3  31
ATOM     31  C   UNL A   1      41.015  34.482  29.805  1.00  0.00     0.116 C 
BRANCH  31  32
ATOM     32  C   UNL A   1      40.100  34.300  31.019  1.00  0.00     0.021 C 
BRANCH  32  33
ATOM     33  C   UNL A   1      38.617  34.530  30.713  1.00  0.00     0.002 C 
BRANCH  33  34
ATOM     34  C   UNL A   1      38.060  33.699  29.550  1.00  0.00     0.002 C 
BRANCH  34  35
ATOM     35  C   UNL A   1      36.535  33.562  29.512  1.00  0.00     0.021 C 
BRANCH  35  36
ATOM     36  C   UNL A   1      36.031  32.152  29.213  1.00  0.00     0.116 C 
BRANCH  36  37
ATOM     37  N   UNL A   1      35.877  31.367  30.429  1.00  0.00    -0.352 N 
ATOM     38  C   UNL A   1      36.669  30.365  30.929  1.00  0.00     0.251 C 
ATOM     39  H   UNL A   1      35.086  31.588  30.972  1.00  0.00     0.163 HD
ATOM     40  O   UNL A   1      36.249  29.645  31.830  1.00  0.00    -0.269 OA
BRANCH  38  41
ATOM     41  C   UNL A   1      38.025  30.149  30.379  1.00  0.00     0.039 A 
ATOM     42  C   UNL A   1      39.118  30.149  31.248  1.00  0.00     0.014 A 
ATOM     43  C   UNL A   1      38.218  29.974  29.006  1.00  0.00     0.014 A 
ATOM     44  C   UNL A   1      40.401  29.915  30.746  1.00  0.00     0.010 A 
ATOM     45  C   UNL A   1      39.488  29.675  28.517  1.00  0.00     0.010 A 
ATOM     46  C   UNL A   1      40.592  29.644  29.381  1.00  0.00    -0.014 A 
BRANCH  46  47
ATOM     47  C   UNL A   1      41.937  29.319  28.840  1.00  0.00     0.031 A 
ATOM     48  C   UNL A   1      42.251  27.922  28.378  1.00  0.00     0.074 A 
ATOM     49  C   UNL A   1      42.894  30.268  28.827  1.00  0.00     0.049 A 
ATOM     50  N   UNL A   1      43.383  27.431  27.944  1.00  0.00    -0.248 NA
ATOM     51  C   UNL A   1      41.155  26.942  28.435  1.00  0.00     0.031 C 
ATOM     52  C   UNL A   1      42.723  31.648  29.291  1.00  0.00     0.029 A 
ATOM     53  N   UNL A   1      44.203  30.217  28.419  1.00  0.00    -0.354 N 
ATOM     54  C   UNL A   1      43.140  26.087  27.686  1.00  0.00     0.074 A 
ATOM     55  C   UNL A   1      41.767  25.827  28.062  1.00  0.00     0.031 C 
ATOM     56  C   UNL A   1      43.875  32.315  29.121  1.00  0.00     0.029 A 
ATOM     57  C   UNL A   1      44.877  31.405  28.576  1.00  0.00     0.049 A 
ATOM     58  H   UNL A   1      44.620  29.405  28.050  1.00  0.00     0.167 HD
ATOM     59  C   UNL A   1      43.979  25.160  27.163  1.00  0.00     0.037 A 
ATOM     60  C   UNL A   1      46.160  31.724  28.318  1.00  0.00     0.037 A 
ATOM     61  C   UNL A   1      45.338  25.431  26.774  1.00  0.00     0.049 A 
ATOM     62  C   UNL A   1      47.075  30.674  27.748  1.00  0.00     0.074 A 
ATOM     63  C   UNL A   1      46.252  24.575  26.185  1.00  0.00     0.029 A 
ATOM     64  N   UNL A   1      45.980  26.651  26.936  1.00  0.00    -0.354 N 
ATOM     65  N   UNL A   1      46.812  29.424  27.455  1.00  0.00    -0.248 NA
ATOM     66  C   UNL A   1      48.459  31.080  27.468  1.00  0.00     0.031 C 
ATOM     67  C   UNL A   1      47.460  25.263  26.032  1.00  0.00     0.029 A 
ATOM     68  C   UNL A   1      47.285  26.563  26.478  1.00  0.00     0.049 A 
ATOM     69  H   UNL A   1      45.570  27.459  27.319  1.00  0.00     0.167 HD
ATOM     70  C   UNL A   1      47.989  28.899  26.932  1.00  0.00     0.074 A 
ATOM     71  C   UNL A   1      48.962  29.973  26.939  1.00  0.00     0.031 C 
ATOM     72  C   UNL A   1      48.241  27.643  26.488  1.00  0.00     0.037 A 
BRANCH  59  73
ATOM     73  C   UNL A   1      43.447  23.764  26.978  1.00  0.00     0.058 A 
ATOM     74  C   UNL A   1      43.313  22.877  28.059  1.00  0.00     0.135 A 
ATOM     75  C   UNL A   1      43.030  23.318  25.713  1.00  0.00     0.135 A 
ATOM     76  F   UNL A   1      43.709  23.246  29.289  1.00  0.00    -0.206 F 
ATOM     77  C   UNL A   1      42.816  21.590  27.888  1.00  0.00     0.059 A 
ATOM     78  C   UNL A   1      42.503  22.043  25.525  1.00  0.00     0.059 A 
ATOM     79  F   UNL A   1      43.134  24.123  24.644  1.00  0.00    -0.206 F 
ATOM     80  C   UNL A   1      42.413  21.181  26.616  1.00  0.00     0.060 A 
BRANCH  80  81
ATOM     81  S   UNL A   1      41.766  19.508  26.413  1.00  0.00     0.124 S 
ATOM     82  O   UNL A   1      42.423  19.089  25.179  1.00  0.00    -0.237 OA
ATOM     83  O   UNL A   1      42.224  18.846  27.630  1.00  0.00    -0.237 OA
ATOM     84  O   UNL A   1      40.323  19.711  26.317  1.00  0.00    -0.744 OA
ENDBRANCH  80  81
ENDBRANCH  59  73
BRANCH  60  85
ATOM     85  C   UNL A   1      46.649  33.105  28.578  1.00  0.00     0.058 A 
ATOM     86  C   UNL A   1      46.508  34.113  27.614  1.00  0.00     0.135 A 
ATOM     87  C   UNL A   1      47.252  33.448  29.799  1.00  0.00     0.135 A 
ATOM     88  F   UNL A   1      45.944  33.832  26.429  1.00  0.00    -0.206 F 
ATOM     89  C   UNL A   1      46.959  35.409  27.842  1.00  0.00     0.059 A 
ATOM     90  C   UNL A   1      47.689  34.743  30.061  1.00  0.00     0.059 A 
ATOM     91  F   UNL A   1      47.395  32.524  30.762  1.00  0.00    -0.206 F 
ATOM     92  C   UNL A   1      47.546  35.714  29.070  1.00  0.00     0.060 A 
BRANCH  92  93
ATOM     93  S   UNL A   1      48.084  37.411  29.375  1.00  0.00     0.124 S 
ATOM     94  O   UNL A   1      48.957  37.239  30.530  1.00  0.00    -0.237 OA
ATOM     95  O   UNL A   1      48.746  37.753  28.120  1.00  0.00    -0.237 OA
ATOM     96  O   UNL A   1      46.833  38.120  29.628  1.00  0.00    -0.744 OA
ENDBRANCH  92  93
ENDBRANCH  60  85
BRANCH  72  97
ATOM     97  C   UNL A   1      49.615  27.365  25.941  1.00  0.00     0.058 A 
ATOM     98  C   UNL A   1      50.674  26.972  26.774  1.00  0.00     0.135 A 
ATOM     99  C   UNL A   1      49.859  27.444  24.560  1.00  0.00     0.135 A 
ATOM    100  F   UNL A   1      50.495  26.888  28.102  1.00  0.00    -0.206 F 
ATOM    101  C   UNL A   1      51.933  26.686  26.259  1.00  0.00     0.059 A 
ATOM    102  C   UNL A   1      51.104  27.135  24.021  1.00  0.00     0.059 A 
ATOM    103  F   UNL A   1      48.878  27.806  23.720  1.00  0.00    -0.206 F 
ATOM    104  C   UNL A   1      52.138  26.768  24.880  1.00  0.00     0.060 A 
BRANCH 104 105
ATOM    105  S   UNL A   1      53.769  26.357  24.221  1.00  0.00     0.124 S 
ATOM    106  O   UNL A   1      53.431  25.861  22.892  1.00  0.00    -0.237 OA
ATOM    107  O   UNL A   1      54.455  27.645  24.262  1.00  0.00    -0.237 OA
ATOM    108  O   UNL A   1      54.272  25.356  25.157  1.00  0.00    -0.744 OA
ENDBRANCH 104 105
ENDBRANCH  72  97
ENDBRANCH  46  47
ENDBRANCH  38  41
ENDBRANCH  36  37
ENDBRANCH  35  36
ENDBRANCH  34  35
ENDBRANCH  33  34
ENDBRANCH  32  33
ENDBRANCH  31  32
ENDBRANCH   3  31
TORSDOF 25
ENDMDL
