MODEL 1
REMARK VINA RESULT:     -11.6      0.000      0.000
REMARK SMILES C[C@@H](C(=O)NCCCCCCNC(=O)c1ccc(-c2c3nc(c(-c4c(F)cc(S(=O)(=O)[O-])cc4F)c4ccc([nH]4)c(-c4c(F)cc(S(=O)(=O)[O-])cc4F)c4nc(c(-c5c(F)cc(S(=O)(=O)[O-])cc5F)c5ccc2[nH]5)C=C4)C=C3)cc1)c1ccc(C[C@@H]2CCC[C@@H]2O)cc1F
REMARK SMILES IDX 8 1 7 2 6 3 5 4 3 5 4 6 2 8 1 9 81 10 82 11 93 12 83 13
REMARK SMILES IDX 92 14 94 15 84 16 85 17 86 18 87 19 90 20 88 21 89 22 91 23
REMARK SMILES IDX 9 25 10 26 11 27 12 28 13 29 14 31 15 32 16 33 80 34 17 35
REMARK SMILES IDX 79 36 18 37 19 38 20 39 73 40 21 41 78 42 72 43 74 44 22 45
REMARK SMILES IDX 77 46 71 47 70 48 23 50 57 51 36 52 56 53 37 54 40 55 55 56
REMARK SMILES IDX 75 57 38 58 39 59 54 61 76 62 41 63 24 64 25 65 34 66 26 67
REMARK SMILES IDX 27 68 33 69 35 70 28 71 29 72 30 73 31 74 32 75 58 76 59 77
REMARK SMILES IDX 68 78 60 79 61 80 67 81 69 82 62 83 63 84 64 85 65 86 66 87
REMARK SMILES IDX 42 88 43 89 52 90 44 91 45 92 51 93 53 94 46 95 47 96 48 97
REMARK SMILES IDX 49 98 50 99
REMARK H PARENT 5 7 91 24 12 30 74 49 40 60
REMARK Flexibility Score: inf
ROOT
ATOM      1  C   UNL A   1      35.957  21.657  26.019  1.00  0.00     0.002 C 
ENDROOT
BRANCH   1   2
ATOM      2  C   UNL A   1      34.782  21.103  25.201  1.00  0.00     0.021 C 
BRANCH   2   3
ATOM      3  C   UNL A   1      33.426  21.692  25.599  1.00  0.00     0.116 C 
BRANCH   3   4
ATOM      4  N   UNL A   1      33.571  23.096  25.916  1.00  0.00    -0.356 N 
ATOM      5  C   UNL A   1      33.495  24.186  25.101  1.00  0.00     0.227 C 
ATOM      6  O   UNL A   1      33.853  25.265  25.583  1.00  0.00    -0.274 OA
ATOM      7  H   UNL A   1      33.752  23.294  26.864  1.00  0.00     0.163 HD
BRANCH   5   8
ATOM      8  C   UNL A   1      32.950  24.044  23.666  1.00  0.00     0.108 C 
ATOM      9  C   UNL A   1      34.064  24.073  22.612  1.00  0.00     0.023 C 
BRANCH   8  10
ATOM     10  C   UNL A   1      31.896  25.111  23.397  1.00  0.00    -0.000 A 
ATOM     11  C   UNL A   1      32.170  26.249  22.626  1.00  0.00     0.008 A 
ATOM     12  C   UNL A   1      30.639  25.017  24.002  1.00  0.00     0.127 A 
ATOM     13  C   UNL A   1      31.216  27.252  22.469  1.00  0.00     0.004 A 
ATOM     14  C   UNL A   1      29.693  26.034  23.876  1.00  0.00     0.043 A 
ATOM     15  F   UNL A   1      30.335  23.944  24.747  1.00  0.00    -0.207 F 
ATOM     16  C   UNL A   1      29.987  27.182  23.129  1.00  0.00    -0.045 A 
BRANCH  16  17
ATOM     17  C   UNL A   1      29.021  28.338  23.075  1.00  0.00     0.041 C 
BRANCH  17  18
ATOM     18  C   UNL A   1      29.577  29.726  22.672  1.00  0.00     0.022 C 
ATOM     19  C   UNL A   1      29.960  30.651  23.835  1.00  0.00     0.007 C 
ATOM     20  C   UNL A   1      28.663  30.621  21.828  1.00  0.00     0.117 C 
ATOM     21  C   UNL A   1      28.804  31.641  24.015  1.00  0.00     0.003 C 
ATOM     22  C   UNL A   1      27.855  31.424  22.840  1.00  0.00     0.032 C 
BRANCH  20  23
ATOM     23  O   UNL A   1      27.859  29.895  20.923  1.00  0.00    -0.393 OA
ATOM     24  H   UNL A   1      28.272  29.036  20.741  1.00  0.00     0.210 HD
ENDBRANCH  20  23
ENDBRANCH  17  18
ENDBRANCH  16  17
ENDBRANCH   8  10
ENDBRANCH   5   8
ENDBRANCH   3   4
ENDBRANCH   2   3
ENDBRANCH   1   2
BRANCH   1  25
ATOM     25  C   UNL A   1      37.094  22.255  25.184  1.00  0.00     0.002 C 
BRANCH  25  26
ATOM     26  C   UNL A   1      37.364  23.739  25.445  1.00  0.00     0.021 C 
BRANCH  26  27
ATOM     27  C   UNL A   1      38.323  24.006  26.599  1.00  0.00     0.116 C 
BRANCH  27  28
ATOM     28  N   UNL A   1      39.712  23.936  26.175  1.00  0.00    -0.352 N 
ATOM     29  C   UNL A   1      40.739  24.807  26.434  1.00  0.00     0.251 C 
ATOM     30  H   UNL A   1      39.948  23.155  25.624  1.00  0.00     0.163 HD
ATOM     31  O   UNL A   1      41.796  24.716  25.811  1.00  0.00    -0.269 OA
BRANCH  29  32
ATOM     32  C   UNL A   1      40.563  25.865  27.451  1.00  0.00     0.039 A 
ATOM     33  C   UNL A   1      39.674  25.651  28.506  1.00  0.00     0.014 A 
ATOM     34  C   UNL A   1      41.281  27.061  27.365  1.00  0.00     0.014 A 
ATOM     35  C   UNL A   1      39.549  26.615  29.509  1.00  0.00     0.010 A 
ATOM     36  C   UNL A   1      41.213  27.984  28.403  1.00  0.00     0.010 A 
ATOM     37  C   UNL A   1      40.345  27.774  29.485  1.00  0.00    -0.014 A 
BRANCH  37  38
ATOM     38  C   UNL A   1      40.285  28.773  30.582  1.00  0.00     0.031 A 
ATOM     39  C   UNL A   1      41.190  28.640  31.776  1.00  0.00     0.074 A 
ATOM     40  C   UNL A   1      39.374  29.767  30.529  1.00  0.00     0.049 A 
ATOM     41  N   UNL A   1      41.238  29.370  32.861  1.00  0.00    -0.248 NA
ATOM     42  C   UNL A   1      42.151  27.525  31.762  1.00  0.00     0.031 C 
ATOM     43  C   UNL A   1      38.414  29.977  29.443  1.00  0.00     0.029 A 
ATOM     44  N   UNL A   1      39.099  30.780  31.412  1.00  0.00    -0.354 N 
ATOM     45  C   UNL A   1      42.225  28.800  33.658  1.00  0.00     0.074 A 
ATOM     46  C   UNL A   1      42.707  27.629  32.960  1.00  0.00     0.031 C 
ATOM     47  C   UNL A   1      37.675  31.064  29.712  1.00  0.00     0.029 A 
ATOM     48  C   UNL A   1      38.075  31.604  31.008  1.00  0.00     0.049 A 
ATOM     49  H   UNL A   1      39.589  30.906  32.257  1.00  0.00     0.167 HD
ATOM     50  C   UNL A   1      42.703  29.229  34.851  1.00  0.00     0.037 A 
ATOM     51  C   UNL A   1      37.515  32.667  31.616  1.00  0.00     0.037 A 
ATOM     52  C   UNL A   1      42.225  30.405  35.533  1.00  0.00     0.049 A 
ATOM     53  C   UNL A   1      38.044  33.110  32.954  1.00  0.00     0.074 A 
ATOM     54  C   UNL A   1      42.673  30.949  36.724  1.00  0.00     0.029 A 
ATOM     55  N   UNL A   1      41.190  31.216  35.089  1.00  0.00    -0.354 N 
ATOM     56  N   UNL A   1      39.016  32.592  33.667  1.00  0.00    -0.248 NA
ATOM     57  C   UNL A   1      37.406  34.281  33.568  1.00  0.00     0.031 C 
ATOM     58  C   UNL A   1      41.875  32.057  37.026  1.00  0.00     0.029 A 
ATOM     59  C   UNL A   1      40.970  32.241  35.994  1.00  0.00     0.049 A 
ATOM     60  H   UNL A   1      40.687  31.083  34.253  1.00  0.00     0.167 HD
ATOM     61  C   UNL A   1      39.126  33.394  34.798  1.00  0.00     0.074 A 
ATOM     62  C   UNL A   1      38.129  34.436  34.668  1.00  0.00     0.031 C 
ATOM     63  C   UNL A   1      39.977  33.278  35.848  1.00  0.00     0.037 A 
BRANCH  50  64
ATOM     64  C   UNL A   1      43.799  28.424  35.494  1.00  0.00     0.058 A 
ATOM     65  C   UNL A   1      43.521  27.389  36.402  1.00  0.00     0.135 A 
ATOM     66  C   UNL A   1      45.146  28.662  35.171  1.00  0.00     0.135 A 
ATOM     67  F   UNL A   1      42.253  27.127  36.760  1.00  0.00    -0.206 F 
ATOM     68  C   UNL A   1      44.535  26.641  36.989  1.00  0.00     0.059 A 
ATOM     69  C   UNL A   1      46.175  27.904  35.722  1.00  0.00     0.059 A 
ATOM     70  F   UNL A   1      45.473  29.638  34.309  1.00  0.00    -0.206 F 
ATOM     71  C   UNL A   1      45.861  26.905  36.642  1.00  0.00     0.060 A 
BRANCH  71  72
ATOM     72  S   UNL A   1      47.164  25.920  37.410  1.00  0.00     0.124 S 
ATOM     73  O   UNL A   1      46.654  25.773  38.770  1.00  0.00    -0.237 OA
ATOM     74  O   UNL A   1      47.158  24.709  36.597  1.00  0.00    -0.237 OA
ATOM     75  O   UNL A   1      48.351  26.759  37.273  1.00  0.00    -0.744 OA
ENDBRANCH  71  72
ENDBRANCH  50  64
BRANCH  51  76
ATOM     76  C   UNL A   1      36.401  33.400  30.955  1.00  0.00     0.058 A 
ATOM     77  C   UNL A   1      35.095  33.342  31.463  1.00  0.00     0.135 A 
ATOM     78  C   UNL A   1      36.620  34.185  29.811  1.00  0.00     0.135 A 
ATOM     79  F   UNL A   1      34.832  32.600  32.550  1.00  0.00    -0.206 F 
ATOM     80  C   UNL A   1      34.043  34.018  30.855  1.00  0.00     0.059 A 
ATOM     81  C   UNL A   1      35.590  34.894  29.202  1.00  0.00     0.059 A 
ATOM     82  F   UNL A   1      37.854  34.289  29.293  1.00  0.00    -0.206 F 
ATOM     83  C   UNL A   1      34.303  34.796  29.725  1.00  0.00     0.060 A 
BRANCH  83  84
ATOM     84  S   UNL A   1      32.938  35.709  28.973  1.00  0.00     0.124 S 
ATOM     85  O   UNL A   1      32.129  36.042  30.139  1.00  0.00    -0.237 OA
ATOM     86  O   UNL A   1      33.632  36.824  28.335  1.00  0.00    -0.237 OA
ATOM     87  O   UNL A   1      32.352  34.738  28.054  1.00  0.00    -0.744 OA
ENDBRANCH  83  84
ENDBRANCH  51  76
BRANCH  63  88
ATOM     88  C   UNL A   1      39.898  34.324  36.927  1.00  0.00     0.058 A 
ATOM     89  C   UNL A   1      40.558  35.557  36.814  1.00  0.00     0.135 A 
ATOM     90  C   UNL A   1      39.100  34.109  38.064  1.00  0.00     0.135 A 
ATOM     91  F   UNL A   1      41.339  35.812  35.752  1.00  0.00    -0.206 F 
ATOM     92  C   UNL A   1      40.448  36.533  37.801  1.00  0.00     0.059 A 
ATOM     93  C   UNL A   1      38.951  35.083  39.047  1.00  0.00     0.059 A 
ATOM     94  F   UNL A   1      38.438  32.952  38.217  1.00  0.00    -0.206 F 
ATOM     95  C   UNL A   1      39.638  36.288  38.911  1.00  0.00     0.060 A 
BRANCH  95  96
ATOM     96  S   UNL A   1      39.472  37.579  40.162  1.00  0.00     0.124 S 
ATOM     97  O   UNL A   1      38.562  38.511  39.504  1.00  0.00    -0.237 OA
ATOM     98  O   UNL A   1      38.919  36.845  41.295  1.00  0.00    -0.237 OA
ATOM     99  O   UNL A   1      40.840  38.059  40.340  1.00  0.00    -0.744 OA
ENDBRANCH  95  96
ENDBRANCH  63  88
ENDBRANCH  37  38
ENDBRANCH  29  32
ENDBRANCH  27  28
ENDBRANCH  26  27
ENDBRANCH  25  26
ENDBRANCH   1  25
TORSDOF 20
ENDMDL
MODEL 2
REMARK VINA RESULT:     -11.4      1.964      2.464
REMARK SMILES C[C@@H](C(=O)NCCCCCCNC(=O)c1ccc(-c2c3nc(c(-c4c(F)cc(S(=O)(=O)[O-])cc4F)c4ccc([nH]4)c(-c4c(F)cc(S(=O)(=O)[O-])cc4F)c4nc(c(-c5c(F)cc(S(=O)(=O)[O-])cc5F)c5ccc2[nH]5)C=C4)C=C3)cc1)c1ccc(C[C@@H]2CCC[C@@H]2O)cc1F
REMARK SMILES IDX 8 1 7 2 6 3 5 4 3 5 4 6 2 8 1 9 81 10 82 11 93 12 83 13
REMARK SMILES IDX 92 14 94 15 84 16 85 17 86 18 87 19 90 20 88 21 89 22 91 23
REMARK SMILES IDX 9 25 10 26 11 27 12 28 13 29 14 31 15 32 16 33 80 34 17 35
REMARK SMILES IDX 79 36 18 37 19 38 20 39 73 40 21 41 78 42 72 43 74 44 22 45
REMARK SMILES IDX 77 46 71 47 70 48 23 50 57 51 36 52 56 53 37 54 40 55 55 56
REMARK SMILES IDX 75 57 38 58 39 59 54 61 76 62 41 63 24 64 25 65 34 66 26 67
REMARK SMILES IDX 27 68 33 69 35 70 28 71 29 72 30 73 31 74 32 75 58 76 59 77
REMARK SMILES IDX 68 78 60 79 61 80 67 81 69 82 62 83 63 84 64 85 65 86 66 87
REMARK SMILES IDX 42 88 43 89 52 90 44 91 45 92 51 93 53 94 46 95 47 96 48 97
REMARK SMILES IDX 49 98 50 99
REMARK H PARENT 5 7 91 24 12 30 74 49 40 60
REMARK Flexibility Score: inf
ROOT
ATOM      1  C   UNL A   1      36.381  23.663  25.243  1.00  0.00     0.002 C 
ENDROOT
BRANCH   1   2
ATOM      2  C   UNL A   1      35.473  22.830  26.159  1.00  0.00     0.021 C 
BRANCH   2   3
ATOM      3  C   UNL A   1      34.606  21.818  25.406  1.00  0.00     0.116 C 
BRANCH   3   4
ATOM      4  N   UNL A   1      34.508  22.191  24.011  1.00  0.00    -0.356 N 
ATOM      5  C   UNL A   1      33.484  22.790  23.339  1.00  0.00     0.227 C 
ATOM      6  O   UNL A   1      33.572  22.820  22.108  1.00  0.00    -0.274 OA
ATOM      7  H   UNL A   1      35.300  21.980  23.465  1.00  0.00     0.163 HD
BRANCH   5   8
ATOM      8  C   UNL A   1      32.311  23.418  24.116  1.00  0.00     0.108 C 
ATOM      9  C   UNL A   1      30.985  23.323  23.349  1.00  0.00     0.023 C 
BRANCH   8  10
ATOM     10  C   UNL A   1      32.640  24.859  24.489  1.00  0.00    -0.000 A 
ATOM     11  C   UNL A   1      33.102  25.785  23.543  1.00  0.00     0.008 A 
ATOM     12  C   UNL A   1      32.572  25.265  25.825  1.00  0.00     0.127 A 
ATOM     13  C   UNL A   1      33.479  27.070  23.927  1.00  0.00     0.004 A 
ATOM     14  C   UNL A   1      32.981  26.539  26.219  1.00  0.00     0.043 A 
ATOM     15  F   UNL A   1      32.133  24.411  26.761  1.00  0.00    -0.207 F 
ATOM     16  C   UNL A   1      33.470  27.448  25.272  1.00  0.00    -0.045 A 
BRANCH  16  17
ATOM     17  C   UNL A   1      34.020  28.786  25.696  1.00  0.00     0.041 C 
BRANCH  17  18
ATOM     18  C   UNL A   1      33.788  29.230  27.161  1.00  0.00     0.022 C 
ATOM     19  C   UNL A   1      32.815  30.402  27.354  1.00  0.00     0.007 C 
ATOM     20  C   UNL A   1      35.018  29.692  27.949  1.00  0.00     0.117 C 
ATOM     21  C   UNL A   1      33.668  31.658  27.558  1.00  0.00     0.003 C 
ATOM     22  C   UNL A   1      35.114  31.190  27.686  1.00  0.00     0.032 C 
BRANCH  20  23
ATOM     23  O   UNL A   1      36.193  28.990  27.603  1.00  0.00    -0.393 OA
ATOM     24  H   UNL A   1      36.016  28.421  26.838  1.00  0.00     0.210 HD
ENDBRANCH  20  23
ENDBRANCH  17  18
ENDBRANCH  16  17
ENDBRANCH   8  10
ENDBRANCH   5   8
ENDBRANCH   3   4
ENDBRANCH   2   3
ENDBRANCH   1   2
BRANCH   1  25
ATOM     25  C   UNL A   1      37.698  24.114  25.884  1.00  0.00     0.002 C 
BRANCH  25  26
ATOM     26  C   UNL A   1      38.654  22.976  26.246  1.00  0.00     0.021 C 
BRANCH  26  27
ATOM     27  C   UNL A   1      39.899  23.422  27.004  1.00  0.00     0.116 C 
BRANCH  27  28
ATOM     28  N   UNL A   1      40.936  23.901  26.104  1.00  0.00    -0.352 N 
ATOM     29  C   UNL A   1      41.501  25.148  26.023  1.00  0.00     0.251 C 
ATOM     30  H   UNL A   1      41.280  23.237  25.463  1.00  0.00     0.163 HD
ATOM     31  O   UNL A   1      42.202  25.445  25.057  1.00  0.00    -0.269 OA
BRANCH  29  32
ATOM     32  C   UNL A   1      41.249  26.136  27.093  1.00  0.00     0.039 A 
ATOM     33  C   UNL A   1      40.262  25.872  28.044  1.00  0.00     0.014 A 
ATOM     34  C   UNL A   1      41.993  27.318  27.158  1.00  0.00     0.014 A 
ATOM     35  C   UNL A   1      40.062  26.766  29.097  1.00  0.00     0.010 A 
ATOM     36  C   UNL A   1      41.845  28.168  28.249  1.00  0.00     0.010 A 
ATOM     37  C   UNL A   1      40.876  27.905  29.228  1.00  0.00    -0.014 A 
BRANCH  37  38
ATOM     38  C   UNL A   1      40.732  28.827  30.384  1.00  0.00     0.031 A 
ATOM     39  C   UNL A   1      41.598  28.654  31.601  1.00  0.00     0.074 A 
ATOM     40  C   UNL A   1      39.780  29.781  30.359  1.00  0.00     0.049 A 
ATOM     41  N   UNL A   1      41.575  29.313  32.732  1.00  0.00    -0.248 NA
ATOM     42  C   UNL A   1      42.608  27.584  31.554  1.00  0.00     0.031 C 
ATOM     43  C   UNL A   1      38.851  30.021  29.252  1.00  0.00     0.029 A 
ATOM     44  N   UNL A   1      39.428  30.722  31.294  1.00  0.00    -0.354 N 
ATOM     45  C   UNL A   1      42.556  28.735  33.529  1.00  0.00     0.074 A 
ATOM     46  C   UNL A   1      43.116  27.634  32.777  1.00  0.00     0.031 C 
ATOM     47  C   UNL A   1      38.055  31.056  29.561  1.00  0.00     0.029 A 
ATOM     48  C   UNL A   1      38.383  31.527  30.903  1.00  0.00     0.049 A 
ATOM     49  H   UNL A   1      39.881  30.813  32.164  1.00  0.00     0.167 HD
ATOM     50  C   UNL A   1      42.971  29.104  34.765  1.00  0.00     0.037 A 
ATOM     51  C   UNL A   1      37.754  32.523  31.556  1.00  0.00     0.037 A 
ATOM     52  C   UNL A   1      42.417  30.212  35.501  1.00  0.00     0.049 A 
ATOM     53  C   UNL A   1      38.214  32.899  32.938  1.00  0.00     0.074 A 
ATOM     54  C   UNL A   1      42.797  30.695  36.741  1.00  0.00     0.029 A 
ATOM     55  N   UNL A   1      41.363  31.005  35.069  1.00  0.00    -0.354 N 
ATOM     56  N   UNL A   1      39.182  32.378  33.655  1.00  0.00    -0.248 NA
ATOM     57  C   UNL A   1      37.502  34.000  33.601  1.00  0.00     0.031 C 
ATOM     58  C   UNL A   1      41.939  31.746  37.081  1.00  0.00     0.029 A 
ATOM     59  C   UNL A   1      41.064  31.959  36.028  1.00  0.00     0.049 A 
ATOM     60  H   UNL A   1      40.897  30.906  34.208  1.00  0.00     0.167 HD
ATOM     61  C   UNL A   1      39.215  33.107  34.838  1.00  0.00     0.074 A 
ATOM     62  C   UNL A   1      38.177  34.113  34.736  1.00  0.00     0.031 C 
ATOM     63  C   UNL A   1      40.032  32.960  35.911  1.00  0.00     0.037 A 
BRANCH  50  64
ATOM     64  C   UNL A   1      44.079  28.307  35.397  1.00  0.00     0.058 A 
ATOM     65  C   UNL A   1      43.814  27.204  36.227  1.00  0.00     0.135 A 
ATOM     66  C   UNL A   1      45.424  28.621  35.142  1.00  0.00     0.135 A 
ATOM     67  F   UNL A   1      42.548  26.865  36.518  1.00  0.00    -0.206 F 
ATOM     68  C   UNL A   1      44.840  26.463  36.803  1.00  0.00     0.059 A 
ATOM     69  C   UNL A   1      46.466  27.874  35.683  1.00  0.00     0.059 A 
ATOM     70  F   UNL A   1      45.737  29.664  34.356  1.00  0.00    -0.206 F 
ATOM     71  C   UNL A   1      46.164  26.805  36.525  1.00  0.00     0.060 A 
BRANCH  71  72
ATOM     72  S   UNL A   1      47.482  25.828  37.279  1.00  0.00     0.124 S 
ATOM     73  O   UNL A   1      47.278  24.528  36.647  1.00  0.00    -0.237 OA
ATOM     74  O   UNL A   1      48.679  26.551  36.866  1.00  0.00    -0.237 OA
ATOM     75  O   UNL A   1      47.176  25.887  38.704  1.00  0.00    -0.744 OA
ENDBRANCH  71  72
ENDBRANCH  50  64
BRANCH  51  76
ATOM     76  C   UNL A   1      36.633  33.249  30.900  1.00  0.00     0.058 A 
ATOM     77  C   UNL A   1      35.300  33.006  31.267  1.00  0.00     0.135 A 
ATOM     78  C   UNL A   1      36.869  34.211  29.904  1.00  0.00     0.135 A 
ATOM     79  F   UNL A   1      35.021  32.090  32.208  1.00  0.00    -0.206 F 
ATOM     80  C   UNL A   1      34.242  33.674  30.660  1.00  0.00     0.059 A 
ATOM     81  C   UNL A   1      35.828  34.914  29.304  1.00  0.00     0.059 A 
ATOM     82  F   UNL A   1      38.125  34.495  29.528  1.00  0.00    -0.206 F 
ATOM     83  C   UNL A   1      34.518  34.631  29.682  1.00  0.00     0.060 A 
BRANCH  83  84
ATOM     84  S   UNL A   1      33.138  35.527  28.937  1.00  0.00     0.124 S 
ATOM     85  O   UNL A   1      33.835  36.496  28.100  1.00  0.00    -0.237 OA
ATOM     86  O   UNL A   1      32.429  34.464  28.232  1.00  0.00    -0.237 OA
ATOM     87  O   UNL A   1      32.436  36.079  30.092  1.00  0.00    -0.744 OA
ENDBRANCH  83  84
ENDBRANCH  51  76
BRANCH  63  88
ATOM     88  C   UNL A   1      39.866  33.929  37.050  1.00  0.00     0.058 A 
ATOM     89  C   UNL A   1      40.472  35.195  37.041  1.00  0.00     0.135 A 
ATOM     90  C   UNL A   1      39.041  33.605  38.141  1.00  0.00     0.135 A 
ATOM     91  F   UNL A   1      41.276  35.553  36.027  1.00  0.00    -0.206 F 
ATOM     92  C   UNL A   1      40.282  36.098  38.083  1.00  0.00     0.059 A 
ATOM     93  C   UNL A   1      38.812  34.504  39.178  1.00  0.00     0.059 A 
ATOM     94  F   UNL A   1      38.429  32.412  38.195  1.00  0.00    -0.206 F 
ATOM     95  C   UNL A   1      39.447  35.746  39.144  1.00  0.00     0.060 A 
BRANCH  95  96
ATOM     96  S   UNL A   1      39.178  36.943  40.467  1.00  0.00     0.124 S 
ATOM     97  O   UNL A   1      38.525  38.033  39.749  1.00  0.00    -0.237 OA
ATOM     98  O   UNL A   1      38.333  36.198  41.395  1.00  0.00    -0.237 OA
ATOM     99  O   UNL A   1      40.527  37.229  40.948  1.00  0.00    -0.744 OA
ENDBRANCH  95  96
ENDBRANCH  63  88
ENDBRANCH  37  38
ENDBRANCH  29  32
ENDBRANCH  27  28
ENDBRANCH  26  27
ENDBRANCH  25  26
ENDBRANCH   1  25
TORSDOF 20
ENDMDL
MODEL 3
REMARK VINA RESULT:     -11.3      6.720     12.318
REMARK SMILES C[C@@H](C(=O)NCCCCCCNC(=O)c1ccc(-c2c3nc(c(-c4c(F)cc(S(=O)(=O)[O-])cc4F)c4ccc([nH]4)c(-c4c(F)cc(S(=O)(=O)[O-])cc4F)c4nc(c(-c5c(F)cc(S(=O)(=O)[O-])cc5F)c5ccc2[nH]5)C=C4)C=C3)cc1)c1ccc(C[C@@H]2CCC[C@@H]2O)cc1F
REMARK SMILES IDX 8 1 7 2 6 3 5 4 3 5 4 6 2 8 1 9 81 10 82 11 93 12 83 13
REMARK SMILES IDX 92 14 94 15 84 16 85 17 86 18 87 19 90 20 88 21 89 22 91 23
REMARK SMILES IDX 9 25 10 26 11 27 12 28 13 29 14 31 15 32 16 33 80 34 17 35
REMARK SMILES IDX 79 36 18 37 19 38 20 39 73 40 21 41 78 42 72 43 74 44 22 45
REMARK SMILES IDX 77 46 71 47 70 48 23 50 57 51 36 52 56 53 37 54 40 55 55 56
REMARK SMILES IDX 75 57 38 58 39 59 54 61 76 62 41 63 24 64 25 65 34 66 26 67
REMARK SMILES IDX 27 68 33 69 35 70 28 71 29 72 30 73 31 74 32 75 58 76 59 77
REMARK SMILES IDX 68 78 60 79 61 80 67 81 69 82 62 83 63 84 64 85 65 86 66 87
REMARK SMILES IDX 42 88 43 89 52 90 44 91 45 92 51 93 53 94 46 95 47 96 48 97
REMARK SMILES IDX 49 98 50 99
REMARK H PARENT 5 7 91 24 12 30 74 49 40 60
REMARK Flexibility Score: inf
ROOT
ATOM      1  C   UNL A   1      33.537  28.866  26.466  1.00  0.00     0.002 C 
ENDROOT
BRANCH   1   2
ATOM      2  C   UNL A   1      32.030  28.849  26.761  1.00  0.00     0.021 C 
BRANCH   2   3
ATOM      3  C   UNL A   1      31.453  27.441  26.923  1.00  0.00     0.116 C 
BRANCH   3   4
ATOM      4  N   UNL A   1      31.258  26.834  25.624  1.00  0.00    -0.356 N 
ATOM      5  C   UNL A   1      32.034  25.932  24.959  1.00  0.00     0.227 C 
ATOM      6  O   UNL A   1      31.748  25.720  23.777  1.00  0.00    -0.274 OA
ATOM      7  H   UNL A   1      30.442  27.115  25.149  1.00  0.00     0.163 HD
BRANCH   5   8
ATOM      8  C   UNL A   1      33.179  25.205  25.692  1.00  0.00     0.108 C 
ATOM      9  C   UNL A   1      34.552  25.814  25.378  1.00  0.00     0.023 C 
BRANCH   8  10
ATOM     10  C   UNL A   1      33.141  23.714  25.378  1.00  0.00    -0.000 A 
ATOM     11  C   UNL A   1      34.076  23.111  24.526  1.00  0.00     0.008 A 
ATOM     12  C   UNL A   1      32.098  22.925  25.871  1.00  0.00     0.127 A 
ATOM     13  C   UNL A   1      33.967  21.764  24.186  1.00  0.00     0.004 A 
ATOM     14  C   UNL A   1      31.964  21.585  25.506  1.00  0.00     0.043 A 
ATOM     15  F   UNL A   1      31.183  23.463  26.690  1.00  0.00    -0.207 F 
ATOM     16  C   UNL A   1      32.886  20.998  24.629  1.00  0.00    -0.045 A 
BRANCH  16  17
ATOM     17  C   UNL A   1      32.693  19.586  24.138  1.00  0.00     0.041 C 
BRANCH  17  18
ATOM     18  C   UNL A   1      33.739  18.526  24.560  1.00  0.00     0.022 C 
ATOM     19  C   UNL A   1      34.185  17.556  23.457  1.00  0.00     0.007 C 
ATOM     20  C   UNL A   1      33.343  17.574  25.694  1.00  0.00     0.117 C 
ATOM     21  C   UNL A   1      33.407  16.253  23.671  1.00  0.00     0.003 C 
ATOM     22  C   UNL A   1      32.673  16.394  25.001  1.00  0.00     0.032 C 
BRANCH  20  23
ATOM     23  O   UNL A   1      32.526  18.185  26.670  1.00  0.00    -0.393 OA
ATOM     24  H   UNL A   1      33.019  18.900  27.102  1.00  0.00     0.210 HD
ENDBRANCH  20  23
ENDBRANCH  17  18
ENDBRANCH  16  17
ENDBRANCH   8  10
ENDBRANCH   5   8
ENDBRANCH   3   4
ENDBRANCH   2   3
ENDBRANCH   1   2
BRANCH   1  25
ATOM     25  C   UNL A   1      34.403  29.450  27.587  1.00  0.00     0.002 C 
BRANCH  25  26
ATOM     26  C   UNL A   1      34.565  30.971  27.541  1.00  0.00     0.021 C 
BRANCH  26  27
ATOM     27  C   UNL A   1      35.735  31.500  28.363  1.00  0.00     0.116 C 
BRANCH  27  28
ATOM     28  N   UNL A   1      35.589  31.183  29.775  1.00  0.00    -0.352 N 
ATOM     29  C   UNL A   1      36.458  30.524  30.607  1.00  0.00     0.251 C 
ATOM     30  H   UNL A   1      34.749  31.483  30.192  1.00  0.00     0.163 HD
ATOM     31  O   UNL A   1      36.081  30.143  31.713  1.00  0.00    -0.269 OA
BRANCH  29  32
ATOM     32  C   UNL A   1      37.841  30.260  30.159  1.00  0.00     0.039 A 
ATOM     33  C   UNL A   1      38.853  30.137  31.113  1.00  0.00     0.014 A 
ATOM     34  C   UNL A   1      38.135  30.129  28.799  1.00  0.00     0.014 A 
ATOM     35  C   UNL A   1      40.151  29.822  30.705  1.00  0.00     0.010 A 
ATOM     36  C   UNL A   1      39.410  29.739  28.401  1.00  0.00     0.010 A 
ATOM     37  C   UNL A   1      40.433  29.585  29.349  1.00  0.00    -0.014 A 
BRANCH  37  38
ATOM     38  C   UNL A   1      41.788  29.171  28.903  1.00  0.00     0.031 A 
ATOM     39  C   UNL A   1      42.899  30.181  28.823  1.00  0.00     0.074 A 
ATOM     40  C   UNL A   1      42.000  27.897  28.515  1.00  0.00     0.049 A 
ATOM     41  N   UNL A   1      44.126  30.027  28.393  1.00  0.00    -0.248 NA
ATOM     42  C   UNL A   1      42.585  31.552  29.256  1.00  0.00     0.031 C 
ATOM     43  C   UNL A   1      40.992  26.835  28.509  1.00  0.00     0.029 A 
ATOM     44  N   UNL A   1      43.130  27.280  28.041  1.00  0.00    -0.354 N 
ATOM     45  C   UNL A   1      44.725  31.277  28.499  1.00  0.00     0.074 A 
ATOM     46  C   UNL A   1      43.711  32.192  28.975  1.00  0.00     0.031 C 
ATOM     47  C   UNL A   1      41.554  25.695  28.079  1.00  0.00     0.029 A 
ATOM     48  C   UNL A   1      42.949  25.951  27.737  1.00  0.00     0.049 A 
ATOM     49  H   UNL A   1      43.991  27.745  27.929  1.00  0.00     0.167 HD
ATOM     50  C   UNL A   1      46.010  31.625  28.247  1.00  0.00     0.037 A 
ATOM     51  C   UNL A   1      43.806  25.044  27.229  1.00  0.00     0.037 A 
ATOM     52  C   UNL A   1      47.017  30.703  27.787  1.00  0.00     0.049 A 
ATOM     53  C   UNL A   1      45.222  25.460  26.932  1.00  0.00     0.074 A 
ATOM     54  C   UNL A   1      48.358  30.947  27.544  1.00  0.00     0.029 A 
ATOM     55  N   UNL A   1      46.795  29.365  27.495  1.00  0.00    -0.354 N 
ATOM     56  N   UNL A   1      45.786  26.634  27.091  1.00  0.00    -0.248 NA
ATOM     57  C   UNL A   1      46.118  24.430  26.390  1.00  0.00     0.031 C 
ATOM     58  C   UNL A   1      48.933  29.770  27.056  1.00  0.00     0.029 A 
ATOM     59  C   UNL A   1      47.968  28.776  27.052  1.00  0.00     0.049 A 
ATOM     60  H   UNL A   1      45.932  28.902  27.589  1.00  0.00     0.167 HD
ATOM     61  C   UNL A   1      47.111  26.475  26.699  1.00  0.00     0.074 A 
ATOM     62  C   UNL A   1      47.266  25.090  26.306  1.00  0.00     0.031 C 
ATOM     63  C   UNL A   1      48.110  27.392  26.670  1.00  0.00     0.037 A 
BRANCH  50  64
ATOM     64  C   UNL A   1      46.400  33.062  28.467  1.00  0.00     0.058 A 
ATOM     65  C   UNL A   1      46.315  34.015  27.439  1.00  0.00     0.135 A 
ATOM     66  C   UNL A   1      46.828  33.502  29.730  1.00  0.00     0.135 A 
ATOM     67  F   UNL A   1      45.927  33.649  26.207  1.00  0.00    -0.206 F 
ATOM     68  C   UNL A   1      46.668  35.344  27.646  1.00  0.00     0.059 A 
ATOM     69  C   UNL A   1      47.156  34.834  29.969  1.00  0.00     0.059 A 
ATOM     70  F   UNL A   1      46.928  32.636  30.751  1.00  0.00    -0.206 F 
ATOM     71  C   UNL A   1      47.087  35.745  28.916  1.00  0.00     0.060 A 
BRANCH  71  72
ATOM     72  S   UNL A   1      47.537  37.475  29.167  1.00  0.00     0.124 S 
ATOM     73  O   UNL A   1      47.765  37.919  27.795  1.00  0.00    -0.237 OA
ATOM     74  O   UNL A   1      46.347  38.014  29.817  1.00  0.00    -0.237 OA
ATOM     75  O   UNL A   1      48.728  37.399  30.007  1.00  0.00    -0.744 OA
ENDBRANCH  71  72
ENDBRANCH  50  64
BRANCH  51  76
ATOM     76  C   UNL A   1      43.354  23.647  26.988  1.00  0.00     0.058 A 
ATOM     77  C   UNL A   1      43.218  22.739  28.049  1.00  0.00     0.135 A 
ATOM     78  C   UNL A   1      43.036  23.194  25.698  1.00  0.00     0.135 A 
ATOM     79  F   UNL A   1      43.517  23.121  29.300  1.00  0.00    -0.206 F 
ATOM     80  C   UNL A   1      42.800  21.429  27.840  1.00  0.00     0.059 A 
ATOM     81  C   UNL A   1      42.588  21.897  25.467  1.00  0.00     0.059 A 
ATOM     82  F   UNL A   1      43.132  24.026  24.650  1.00  0.00    -0.206 F 
ATOM     83  C   UNL A   1      42.483  21.019  26.543  1.00  0.00     0.060 A 
BRANCH  83  84
ATOM     84  S   UNL A   1      41.894  19.330  26.292  1.00  0.00     0.124 S 
ATOM     85  O   UNL A   1      40.457  19.536  26.164  1.00  0.00    -0.237 OA
ATOM     86  O   UNL A   1      42.596  18.941  25.072  1.00  0.00    -0.237 OA
ATOM     87  O   UNL A   1      42.329  18.640  27.502  1.00  0.00    -0.744 OA
ENDBRANCH  83  84
ENDBRANCH  51  76
BRANCH  63  88
ATOM     88  C   UNL A   1      49.472  26.925  26.233  1.00  0.00     0.058 A 
ATOM     89  C   UNL A   1      49.932  27.107  24.920  1.00  0.00     0.135 A 
ATOM     90  C   UNL A   1      50.350  26.338  27.160  1.00  0.00     0.135 A 
ATOM     91  F   UNL A   1      49.131  27.656  23.992  1.00  0.00    -0.206 F 
ATOM     92  C   UNL A   1      51.208  26.704  24.535  1.00  0.00     0.059 A 
ATOM     93  C   UNL A   1      51.641  25.957  26.805  1.00  0.00     0.059 A 
ATOM     94  F   UNL A   1      49.965  26.150  28.432  1.00  0.00    -0.206 F 
ATOM     95  C   UNL A   1      52.056  26.135  25.486  1.00  0.00     0.060 A 
BRANCH  95  96
ATOM     96  S   UNL A   1      53.722  25.656  24.982  1.00  0.00     0.124 S 
ATOM     97  O   UNL A   1      54.537  26.639  25.689  1.00  0.00    -0.237 OA
ATOM     98  O   UNL A   1      53.813  24.285  25.473  1.00  0.00    -0.237 OA
ATOM     99  O   UNL A   1      53.692  25.795  23.529  1.00  0.00    -0.744 OA
ENDBRANCH  95  96
ENDBRANCH  63  88
ENDBRANCH  37  38
ENDBRANCH  29  32
ENDBRANCH  27  28
ENDBRANCH  26  27
ENDBRANCH  25  26
ENDBRANCH   1  25
TORSDOF 20
ENDMDL
