MODEL 1
REMARK VINA RESULT:     -11.5      0.000      0.000
REMARK SMILES Cc1cc(OCC(=O)N[C@@H](Cc2ccc(Cl)cc2)C(=O)NCCCCCCNC(=O)c2ccc(-c3c4nc(c(-c5c(F)cc(S(=O)(=O)[O-])cc5F)c5ccc([nH]5)c(-c5c(F)cc(S(=O)(=O)[O-])cc5F)c5nc(c(-c6c(F)cc(S(=O)(=O)[O-])cc6F)c6ccc3[nH]6)C=C5)C=C4)cc2)c2c(C)c(C)c(=O)oc2c1
REMARK SMILES IDX 24 1 23 2 22 3 21 4 19 5 20 6 10 8 9 9 7 10 8 11 6 13 5 14
REMARK SMILES IDX 4 15 1 16 2 17 3 18 106 19 105 20 97 21 104 22 98 23 102 24
REMARK SMILES IDX 99 25 100 26 103 27 101 28 11 29 12 30 13 31 18 32 14 33
REMARK SMILES IDX 17 34 15 35 16 36 25 37 26 38 27 39 28 40 29 41 30 43 31 44
REMARK SMILES IDX 32 45 96 46 33 47 95 48 34 49 35 50 36 51 89 52 37 53 94 54
REMARK SMILES IDX 88 55 90 56 38 57 93 58 87 59 86 60 39 62 73 63 52 64 72 65
REMARK SMILES IDX 53 66 56 67 71 68 91 69 54 70 55 71 70 73 92 74 57 75 40 76
REMARK SMILES IDX 41 77 50 78 42 79 43 80 49 81 51 82 44 83 45 84 46 85 47 86
REMARK SMILES IDX 48 87 74 88 75 89 84 90 76 91 77 92 83 93 85 94 78 95 79 96
REMARK SMILES IDX 80 97 81 98 82 99 58 100 59 101 68 102 60 103 61 104 67 105
REMARK SMILES IDX 69 106 62 107 63 108 64 109 65 110 66 111
REMARK H PARENT 21 7 9 12 28 42 90 61 56 72
REMARK Flexibility Score: inf
ROOT
ATOM      1  C   UNL A   1      36.023  30.585  27.648  1.00  0.00     0.002 C 
ENDROOT
BRANCH   1   2
ATOM      2  C   UNL A   1      34.914  29.535  27.792  1.00  0.00     0.021 C 
BRANCH   2   3
ATOM      3  C   UNL A   1      34.420  28.923  26.486  1.00  0.00     0.116 C 
BRANCH   3   4
ATOM      4  N   UNL A   1      33.766  27.640  26.642  1.00  0.00    -0.354 N 
ATOM      5  C   UNL A   1      33.076  26.883  25.742  1.00  0.00     0.242 C 
ATOM      6  O   UNL A   1      32.981  25.675  26.001  1.00  0.00    -0.273 OA
ATOM      7  H   UNL A   1      33.829  27.252  27.545  1.00  0.00     0.163 HD
BRANCH   5   8
ATOM      8  C   UNL A   1      32.507  27.415  24.401  1.00  0.00     0.175 C 
BRANCH   8   9
ATOM      9  N   UNL A   1      33.320  27.116  23.227  1.00  0.00    -0.341 N 
ATOM     10  C   UNL A   1      33.251  26.012  22.430  1.00  0.00     0.258 C 
ATOM     11  O   UNL A   1      33.717  26.071  21.291  1.00  0.00    -0.271 OA
ATOM     12  H   UNL A   1      33.997  27.788  22.983  1.00  0.00     0.164 HD
BRANCH  10  13
ATOM     13  C   UNL A   1      32.638  24.711  22.977  1.00  0.00     0.329 C 
BRANCH  13  14
ATOM     14  O   UNL A   1      33.278  23.484  22.630  1.00  0.00    -0.483 OA
BRANCH  14  15
ATOM     15  C   UNL A   1      34.104  22.885  23.549  1.00  0.00     0.131 A 
ATOM     16  C   UNL A   1      36.948  23.896  25.906  1.00  0.00     0.044 C 
ATOM     17  C   UNL A   1      35.944  23.065  25.165  1.00  0.00    -0.044 A 
ATOM     18  C   UNL A   1      35.131  23.623  24.178  1.00  0.00     0.050 A 
ATOM     19  C   UNL A   1      35.761  21.729  25.485  1.00  0.00     0.051 A 
ATOM     20  C   UNL A   1      34.787  20.980  24.815  1.00  0.00     0.142 A 
ATOM     21  C   UNL A   1      33.921  21.511  23.846  1.00  0.00     0.063 A 
ATOM     22  O   UNL A   1      34.760  19.628  25.196  1.00  0.00    -0.422 OA
ATOM     23  C   UNL A   1      32.912  20.571  23.265  1.00  0.00    -0.026 A 
ATOM     24  C   UNL A   1      33.935  18.720  24.579  1.00  0.00     0.339 A 
ATOM     25  C   UNL A   1      31.853  21.035  22.299  1.00  0.00     0.046 C 
ATOM     26  C   UNL A   1      32.945  19.263  23.616  1.00  0.00     0.038 A 
ATOM     27  O   UNL A   1      34.004  17.521  24.832  1.00  0.00    -0.246 OA
ATOM     28  C   UNL A   1      32.022  18.189  23.093  1.00  0.00     0.052 C 
ENDBRANCH  14  15
ENDBRANCH  13  14
ENDBRANCH  10  13
ENDBRANCH   8   9
BRANCH   8  29
ATOM     29  C   UNL A   1      31.003  27.141  24.206  1.00  0.00     0.070 C 
BRANCH  29  30
ATOM     30  C   UNL A   1      30.136  28.316  23.825  1.00  0.00    -0.045 A 
ATOM     31  C   UNL A   1      28.963  28.122  23.085  1.00  0.00     0.005 A 
ATOM     32  C   UNL A   1      30.478  29.617  24.224  1.00  0.00     0.005 A 
ATOM     33  C   UNL A   1      28.192  29.213  22.677  1.00  0.00     0.021 A 
ATOM     34  C   UNL A   1      29.691  30.707  23.839  1.00  0.00     0.021 A 
ATOM     35  C   UNL A   1      28.565  30.502  23.045  1.00  0.00     0.041 A 
ATOM     36  Cl  UNL A   1      27.641  31.844  22.496  1.00  0.00    -0.084 Cl
ENDBRANCH  29  30
ENDBRANCH   8  29
ENDBRANCH   5   8
ENDBRANCH   3   4
ENDBRANCH   2   3
ENDBRANCH   1   2
BRANCH   1  37
ATOM     37  C   UNL A   1      35.721  31.995  28.178  1.00  0.00     0.002 C 
BRANCH  37  38
ATOM     38  C   UNL A   1      34.287  32.500  28.009  1.00  0.00     0.021 C 
BRANCH  38  39
ATOM     39  C   UNL A   1      34.138  34.005  27.826  1.00  0.00     0.116 C 
BRANCH  39  40
ATOM     40  N   UNL A   1      33.232  34.606  28.791  1.00  0.00    -0.352 N 
ATOM     41  C   UNL A   1      33.313  34.661  30.162  1.00  0.00     0.251 C 
ATOM     42  H   UNL A   1      32.439  35.040  28.402  1.00  0.00     0.163 HD
ATOM     43  O   UNL A   1      32.363  35.099  30.807  1.00  0.00    -0.269 OA
BRANCH  41  44
ATOM     44  C   UNL A   1      34.517  34.165  30.867  1.00  0.00     0.039 A 
ATOM     45  C   UNL A   1      35.709  34.894  30.867  1.00  0.00     0.014 A 
ATOM     46  C   UNL A   1      34.451  32.946  31.550  1.00  0.00     0.014 A 
ATOM     47  C   UNL A   1      36.866  34.336  31.406  1.00  0.00     0.010 A 
ATOM     48  C   UNL A   1      35.595  32.424  32.165  1.00  0.00     0.010 A 
ATOM     49  C   UNL A   1      36.823  33.096  32.064  1.00  0.00    -0.014 A 
BRANCH  49  50
ATOM     50  C   UNL A   1      38.063  32.530  32.659  1.00  0.00     0.031 A 
ATOM     51  C   UNL A   1      38.977  31.651  31.847  1.00  0.00     0.074 A 
ATOM     52  C   UNL A   1      38.384  32.840  33.932  1.00  0.00     0.049 A 
ATOM     53  N   UNL A   1      40.064  31.025  32.220  1.00  0.00    -0.248 NA
ATOM     54  C   UNL A   1      38.626  31.446  30.431  1.00  0.00     0.031 C 
ATOM     55  C   UNL A   1      37.591  33.700  34.816  1.00  0.00     0.029 A 
ATOM     56  N   UNL A   1      39.466  32.487  34.699  1.00  0.00    -0.354 N 
ATOM     57  C   UNL A   1      40.515  30.337  31.099  1.00  0.00     0.074 A 
ATOM     58  C   UNL A   1      39.574  30.607  30.033  1.00  0.00     0.031 C 
ATOM     59  C   UNL A   1      38.236  33.845  35.983  1.00  0.00     0.029 A 
ATOM     60  C   UNL A   1      39.449  33.036  35.959  1.00  0.00     0.049 A 
ATOM     61  H   UNL A   1      40.185  31.897  34.376  1.00  0.00     0.167 HD
ATOM     62  C   UNL A   1      41.617  29.559  30.971  1.00  0.00     0.037 A 
ATOM     63  C   UNL A   1      40.301  32.889  36.992  1.00  0.00     0.037 A 
ATOM     64  C   UNL A   1      42.565  29.314  32.029  1.00  0.00     0.049 A 
ATOM     65  C   UNL A   1      41.498  31.996  36.831  1.00  0.00     0.074 A 
ATOM     66  C   UNL A   1      43.705  28.528  31.999  1.00  0.00     0.029 A 
ATOM     67  N   UNL A   1      42.494  29.863  33.301  1.00  0.00    -0.354 N 
ATOM     68  N   UNL A   1      41.881  31.315  35.777  1.00  0.00    -0.248 NA
ATOM     69  C   UNL A   1      42.374  31.843  38.001  1.00  0.00     0.031 C 
ATOM     70  C   UNL A   1      44.309  28.582  33.260  1.00  0.00     0.029 A 
ATOM     71  C   UNL A   1      43.569  29.433  34.063  1.00  0.00     0.049 A 
ATOM     72  H   UNL A   1      41.786  30.469  33.616  1.00  0.00     0.167 HD
ATOM     73  C   UNL A   1      43.050  30.666  36.151  1.00  0.00     0.074 A 
ATOM     74  C   UNL A   1      43.320  31.046  37.524  1.00  0.00     0.031 C 
ATOM     75  C   UNL A   1      43.827  29.827  35.424  1.00  0.00     0.037 A 
BRANCH  62  76
ATOM     76  C   UNL A   1      41.869  28.903  29.641  1.00  0.00     0.058 A 
ATOM     77  C   UNL A   1      41.180  27.745  29.249  1.00  0.00     0.135 A 
ATOM     78  C   UNL A   1      42.749  29.486  28.714  1.00  0.00     0.135 A 
ATOM     79  F   UNL A   1      40.339  27.138  30.102  1.00  0.00    -0.206 F 
ATOM     80  C   UNL A   1      41.356  27.185  27.987  1.00  0.00     0.059 A 
ATOM     81  C   UNL A   1      42.925  28.956  27.439  1.00  0.00     0.059 A 
ATOM     82  F   UNL A   1      43.435  30.594  29.038  1.00  0.00    -0.206 F 
ATOM     83  C   UNL A   1      42.228  27.801  27.086  1.00  0.00     0.060 A 
BRANCH  83  84
ATOM     84  S   UNL A   1      42.414  27.085  25.439  1.00  0.00     0.124 S 
ATOM     85  O   UNL A   1      42.369  28.276  24.595  1.00  0.00    -0.237 OA
ATOM     86  O   UNL A   1      43.711  26.423  25.532  1.00  0.00    -0.237 OA
ATOM     87  O   UNL A   1      41.265  26.192  25.323  1.00  0.00    -0.744 OA
ENDBRANCH  83  84
ENDBRANCH  62  76
BRANCH  63  88
ATOM     88  C   UNL A   1      40.043  33.603  38.268  1.00  0.00     0.058 A 
ATOM     89  C   UNL A   1      40.765  34.756  38.608  1.00  0.00     0.135 A 
ATOM     90  C   UNL A   1      39.051  33.165  39.159  1.00  0.00     0.135 A 
ATOM     91  F   UNL A   1      41.729  35.209  37.791  1.00  0.00    -0.206 F 
ATOM     92  C   UNL A   1      40.517  35.448  39.788  1.00  0.00     0.059 A 
ATOM     93  C   UNL A   1      38.767  33.854  40.333  1.00  0.00     0.059 A 
ATOM     94  F   UNL A   1      38.323  32.074  38.871  1.00  0.00    -0.206 F 
ATOM     95  C   UNL A   1      39.511  34.992  40.642  1.00  0.00     0.060 A 
BRANCH  95  96
ATOM     96  S   UNL A   1      39.153  35.932  42.142  1.00  0.00     0.124 S 
ATOM     97  O   UNL A   1      40.257  35.535  43.007  1.00  0.00    -0.237 OA
ATOM     98  O   UNL A   1      39.183  37.308  41.656  1.00  0.00    -0.237 OA
ATOM     99  O   UNL A   1      37.834  35.445  42.535  1.00  0.00    -0.744 OA
ENDBRANCH  95  96
ENDBRANCH  63  88
BRANCH  75 100
ATOM    100  C   UNL A   1      45.066  29.292  36.087  1.00  0.00     0.058 A 
ATOM    101  C   UNL A   1      46.303  29.942  35.965  1.00  0.00     0.135 A 
ATOM    102  C   UNL A   1      45.002  28.137  36.882  1.00  0.00     0.135 A 
ATOM    103  F   UNL A   1      46.416  31.045  35.209  1.00  0.00    -0.206 F 
ATOM    104  C   UNL A   1      47.444  29.448  36.588  1.00  0.00     0.059 A 
ATOM    105  C   UNL A   1      46.126  27.639  37.534  1.00  0.00     0.059 A 
ATOM    106  F   UNL A   1      43.839  27.486  37.036  1.00  0.00    -0.206 F 
ATOM    107  C   UNL A   1      47.344  28.295  37.370  1.00  0.00     0.060 A 
BRANCH 107 108
ATOM    108  S   UNL A   1      48.829  27.675  38.189  1.00  0.00     0.124 S 
ATOM    109  O   UNL A   1      49.508  28.917  38.546  1.00  0.00    -0.237 OA
ATOM    110  O   UNL A   1      48.276  26.913  39.305  1.00  0.00    -0.237 OA
ATOM    111  O   UNL A   1      49.481  26.877  37.155  1.00  0.00    -0.744 OA
ENDBRANCH 107 108
ENDBRANCH  75 100
ENDBRANCH  49  50
ENDBRANCH  41  44
ENDBRANCH  39  40
ENDBRANCH  38  39
ENDBRANCH  37  38
ENDBRANCH   1  37
TORSDOF 22
ENDMDL
MODEL 2
REMARK VINA RESULT:     -11.1      1.045      7.788
REMARK SMILES Cc1cc(OCC(=O)N[C@@H](Cc2ccc(Cl)cc2)C(=O)NCCCCCCNC(=O)c2ccc(-c3c4nc(c(-c5c(F)cc(S(=O)(=O)[O-])cc5F)c5ccc([nH]5)c(-c5c(F)cc(S(=O)(=O)[O-])cc5F)c5nc(c(-c6c(F)cc(S(=O)(=O)[O-])cc6F)c6ccc3[nH]6)C=C5)C=C4)cc2)c2c(C)c(C)c(=O)oc2c1
REMARK SMILES IDX 24 1 23 2 22 3 21 4 19 5 20 6 10 8 9 9 7 10 8 11 6 13 5 14
REMARK SMILES IDX 4 15 1 16 2 17 3 18 106 19 105 20 97 21 104 22 98 23 102 24
REMARK SMILES IDX 99 25 100 26 103 27 101 28 11 29 12 30 13 31 18 32 14 33
REMARK SMILES IDX 17 34 15 35 16 36 25 37 26 38 27 39 28 40 29 41 30 43 31 44
REMARK SMILES IDX 32 45 96 46 33 47 95 48 34 49 35 50 36 51 89 52 37 53 94 54
REMARK SMILES IDX 88 55 90 56 38 57 93 58 87 59 86 60 39 62 73 63 52 64 72 65
REMARK SMILES IDX 53 66 56 67 71 68 91 69 54 70 55 71 70 73 92 74 57 75 40 76
REMARK SMILES IDX 41 77 50 78 42 79 43 80 49 81 51 82 44 83 45 84 46 85 47 86
REMARK SMILES IDX 48 87 74 88 75 89 84 90 76 91 77 92 83 93 85 94 78 95 79 96
REMARK SMILES IDX 80 97 81 98 82 99 58 100 59 101 68 102 60 103 61 104 67 105
REMARK SMILES IDX 69 106 62 107 63 108 64 109 65 110 66 111
REMARK H PARENT 21 7 9 12 28 42 90 61 56 72
REMARK Flexibility Score: inf
ROOT
ATOM      1  C   UNL A   1      35.354  32.342  27.913  1.00  0.00     0.002 C 
ENDROOT
BRANCH   1   2
ATOM      2  C   UNL A   1      34.425  31.186  28.309  1.00  0.00     0.021 C 
BRANCH   2   3
ATOM      3  C   UNL A   1      33.667  30.534  27.158  1.00  0.00     0.116 C 
BRANCH   3   4
ATOM      4  N   UNL A   1      32.837  29.414  27.554  1.00  0.00    -0.354 N 
ATOM      5  C   UNL A   1      32.281  28.418  26.807  1.00  0.00     0.242 C 
ATOM      6  O   UNL A   1      31.977  27.382  27.415  1.00  0.00    -0.273 OA
ATOM      7  H   UNL A   1      32.644  29.364  28.518  1.00  0.00     0.163 HD
BRANCH   5   8
ATOM      8  C   UNL A   1      32.104  28.470  25.266  1.00  0.00     0.175 C 
BRANCH   8   9
ATOM      9  N   UNL A   1      33.294  28.118  24.500  1.00  0.00    -0.341 N 
ATOM     10  C   UNL A   1      33.689  26.873  24.107  1.00  0.00     0.258 C 
ATOM     11  O   UNL A   1      34.481  26.769  23.168  1.00  0.00    -0.271 OA
ATOM     12  H   UNL A   1      33.880  28.863  24.237  1.00  0.00     0.164 HD
BRANCH  10  13
ATOM     13  C   UNL A   1      33.177  25.634  24.863  1.00  0.00     0.329 C 
BRANCH  13  14
ATOM     14  O   UNL A   1      33.392  24.359  24.260  1.00  0.00    -0.483 OA
BRANCH  14  15
ATOM     15  C   UNL A   1      34.442  23.589  24.696  1.00  0.00     0.131 A 
ATOM     16  C   UNL A   1      37.892  24.113  26.274  1.00  0.00     0.044 C 
ATOM     17  C   UNL A   1      36.690  23.447  25.674  1.00  0.00    -0.044 A 
ATOM     18  C   UNL A   1      35.631  24.196  25.161  1.00  0.00     0.050 A 
ATOM     19  C   UNL A   1      36.580  22.066  25.666  1.00  0.00     0.051 A 
ATOM     20  C   UNL A   1      35.430  21.463  25.145  1.00  0.00     0.142 A 
ATOM     21  C   UNL A   1      34.324  22.177  24.657  1.00  0.00     0.063 A 
ATOM     22  O   UNL A   1      35.486  20.059  25.142  1.00  0.00    -0.422 OA
ATOM     23  C   UNL A   1      33.163  21.365  24.177  1.00  0.00    -0.026 A 
ATOM     24  C   UNL A   1      34.490  19.297  24.582  1.00  0.00     0.339 A 
ATOM     25  C   UNL A   1      31.872  22.002  23.731  1.00  0.00     0.046 C 
ATOM     26  C   UNL A   1      33.268  20.014  24.140  1.00  0.00     0.038 A 
ATOM     27  O   UNL A   1      34.603  18.080  24.474  1.00  0.00    -0.246 OA
ATOM     28  C   UNL A   1      32.204  19.063  23.651  1.00  0.00     0.052 C 
ENDBRANCH  14  15
ENDBRANCH  13  14
ENDBRANCH  10  13
ENDBRANCH   8   9
BRANCH   8  29
ATOM     29  C   UNL A   1      30.812  27.798  24.761  1.00  0.00     0.070 C 
BRANCH  29  30
ATOM     30  C   UNL A   1      30.047  28.513  23.675  1.00  0.00    -0.045 A 
ATOM     31  C   UNL A   1      30.711  29.362  22.782  1.00  0.00     0.005 A 
ATOM     32  C   UNL A   1      28.665  28.322  23.529  1.00  0.00     0.005 A 
ATOM     33  C   UNL A   1      29.995  30.074  21.815  1.00  0.00     0.021 A 
ATOM     34  C   UNL A   1      27.953  29.013  22.544  1.00  0.00     0.021 A 
ATOM     35  C   UNL A   1      28.619  29.906  21.707  1.00  0.00     0.041 A 
ATOM     36  Cl  UNL A   1      27.738  30.824  20.550  1.00  0.00    -0.084 Cl
ENDBRANCH  29  30
ENDBRANCH   8  29
ENDBRANCH   5   8
ENDBRANCH   3   4
ENDBRANCH   2   3
ENDBRANCH   1   2
BRANCH   1  37
ATOM     37  C   UNL A   1      35.076  33.709  28.554  1.00  0.00     0.002 C 
BRANCH  37  38
ATOM     38  C   UNL A   1      33.610  34.133  28.662  1.00  0.00     0.021 C 
BRANCH  38  39
ATOM     39  C   UNL A   1      33.372  35.566  29.120  1.00  0.00     0.116 C 
BRANCH  39  40
ATOM     40  N   UNL A   1      32.568  35.648  30.329  1.00  0.00    -0.352 N 
ATOM     41  C   UNL A   1      32.818  35.159  31.589  1.00  0.00     0.251 C 
ATOM     42  H   UNL A   1      31.715  36.128  30.229  1.00  0.00     0.163 HD
ATOM     43  O   UNL A   1      31.938  35.217  32.446  1.00  0.00    -0.269 OA
BRANCH  41  44
ATOM     44  C   UNL A   1      34.122  34.535  31.912  1.00  0.00     0.039 A 
ATOM     45  C   UNL A   1      34.244  33.153  32.072  1.00  0.00     0.014 A 
ATOM     46  C   UNL A   1      35.251  35.351  32.048  1.00  0.00     0.014 A 
ATOM     47  C   UNL A   1      35.445  32.609  32.523  1.00  0.00     0.010 A 
ATOM     48  C   UNL A   1      36.478  34.792  32.419  1.00  0.00     0.010 A 
ATOM     49  C   UNL A   1      36.578  33.420  32.698  1.00  0.00    -0.014 A 
BRANCH  49  50
ATOM     50  C   UNL A   1      37.859  32.816  33.152  1.00  0.00     0.031 A 
ATOM     51  C   UNL A   1      38.346  33.008  34.565  1.00  0.00     0.074 A 
ATOM     52  C   UNL A   1      38.571  32.059  32.292  1.00  0.00     0.049 A 
ATOM     53  N   UNL A   1      39.464  32.606  35.112  1.00  0.00    -0.248 NA
ATOM     54  C   UNL A   1      37.463  33.750  35.482  1.00  0.00     0.031 C 
ATOM     55  C   UNL A   1      38.193  31.779  30.904  1.00  0.00     0.029 A 
ATOM     56  N   UNL A   1      39.746  31.372  32.460  1.00  0.00    -0.354 N 
ATOM     57  C   UNL A   1      39.433  33.059  36.427  1.00  0.00     0.074 A 
ATOM     58  C   UNL A   1      38.191  33.784  36.591  1.00  0.00     0.031 C 
ATOM     59  C   UNL A   1      39.093  30.944  30.363  1.00  0.00     0.029 A 
ATOM     60  C   UNL A   1      40.145  30.683  31.338  1.00  0.00     0.049 A 
ATOM     61  H   UNL A   1      40.255  31.372  33.302  1.00  0.00     0.167 HD
ATOM     62  C   UNL A   1      40.353  32.880  37.405  1.00  0.00     0.037 A 
ATOM     63  C   UNL A   1      41.246  29.942  31.109  1.00  0.00     0.037 A 
ATOM     64  C   UNL A   1      41.575  32.134  37.242  1.00  0.00     0.049 A 
ATOM     65  C   UNL A   1      42.263  29.785  32.203  1.00  0.00     0.074 A 
ATOM     66  C   UNL A   1      42.577  31.908  38.172  1.00  0.00     0.029 A 
ATOM     67  N   UNL A   1      41.957  31.479  36.080  1.00  0.00    -0.354 N 
ATOM     68  N   UNL A   1      42.238  30.263  33.423  1.00  0.00    -0.248 NA
ATOM     69  C   UNL A   1      43.462  28.996  31.886  1.00  0.00     0.031 C 
ATOM     70  C   UNL A   1      43.575  31.139  37.565  1.00  0.00     0.029 A 
ATOM     71  C   UNL A   1      43.178  30.850  36.270  1.00  0.00     0.049 A 
ATOM     72  H   UNL A   1      41.438  31.463  35.245  1.00  0.00     0.167 HD
ATOM     73  C   UNL A   1      43.409  29.821  34.026  1.00  0.00     0.074 A 
ATOM     74  C   UNL A   1      44.113  29.024  33.041  1.00  0.00     0.031 C 
ATOM     75  C   UNL A   1      43.861  30.056  35.282  1.00  0.00     0.037 A 
BRANCH  62  76
ATOM     76  C   UNL A   1      40.085  33.500  38.749  1.00  0.00     0.058 A 
ATOM     77  C   UNL A   1      40.628  34.744  39.106  1.00  0.00     0.135 A 
ATOM     78  C   UNL A   1      39.209  32.883  39.657  1.00  0.00     0.135 A 
ATOM     79  F   UNL A   1      41.484  35.369  38.283  1.00  0.00    -0.206 F 
ATOM     80  C   UNL A   1      40.316  35.353  40.319  1.00  0.00     0.059 A 
ATOM     81  C   UNL A   1      38.866  33.483  40.866  1.00  0.00     0.059 A 
ATOM     82  F   UNL A   1      38.663  31.692  39.366  1.00  0.00    -0.206 F 
ATOM     83  C   UNL A   1      39.429  34.717  41.190  1.00  0.00     0.060 A 
BRANCH  83  84
ATOM     84  S   UNL A   1      39.004  35.539  42.740  1.00  0.00     0.124 S 
ATOM     85  O   UNL A   1      39.481  36.897  42.492  1.00  0.00    -0.237 OA
ATOM     86  O   UNL A   1      37.555  35.377  42.793  1.00  0.00    -0.237 OA
ATOM     87  O   UNL A   1      39.752  34.787  43.742  1.00  0.00    -0.744 OA
ENDBRANCH  83  84
ENDBRANCH  62  76
BRANCH  63  88
ATOM     88  C   UNL A   1      41.440  29.299  29.784  1.00  0.00     0.058 A 
ATOM     89  C   UNL A   1      42.215  29.915  28.791  1.00  0.00     0.135 A 
ATOM     90  C   UNL A   1      40.881  28.045  29.495  1.00  0.00     0.135 A 
ATOM     91  F   UNL A   1      42.765  31.118  29.018  1.00  0.00    -0.206 F 
ATOM     92  C   UNL A   1      42.426  29.313  27.556  1.00  0.00     0.059 A 
ATOM     93  C   UNL A   1      41.098  27.411  28.276  1.00  0.00     0.059 A 
ATOM     94  F   UNL A   1      40.143  27.409  30.418  1.00  0.00    -0.206 F 
ATOM     95  C   UNL A   1      41.866  28.057  27.309  1.00  0.00     0.060 A 
BRANCH  95  96
ATOM     96  S   UNL A   1      42.196  27.256  25.725  1.00  0.00     0.124 S 
ATOM     97  O   UNL A   1      41.029  26.395  25.583  1.00  0.00    -0.237 OA
ATOM     98  O   UNL A   1      42.266  28.394  24.813  1.00  0.00    -0.237 OA
ATOM     99  O   UNL A   1      43.464  26.570  25.956  1.00  0.00    -0.744 OA
ENDBRANCH  95  96
ENDBRANCH  63  88
BRANCH  75 100
ATOM    100  C   UNL A   1      45.162  29.414  35.674  1.00  0.00     0.058 A 
ATOM    101  C   UNL A   1      45.214  28.101  36.164  1.00  0.00     0.135 A 
ATOM    102  C   UNL A   1      46.371  30.111  35.522  1.00  0.00     0.135 A 
ATOM    103  F   UNL A   1      44.084  27.397  36.335  1.00  0.00    -0.206 F 
ATOM    104  C   UNL A   1      46.422  27.508  36.517  1.00  0.00     0.059 A 
ATOM    105  C   UNL A   1      47.592  29.529  35.846  1.00  0.00     0.059 A 
ATOM    106  F   UNL A   1      46.372  31.367  35.049  1.00  0.00    -0.206 F 
ATOM    107  C   UNL A   1      47.605  28.231  36.354  1.00  0.00     0.060 A 
BRANCH 107 108
ATOM    108  S   UNL A   1      49.168  27.444  36.797  1.00  0.00     0.124 S 
ATOM    109  O   UNL A   1      49.197  27.641  38.243  1.00  0.00    -0.237 OA
ATOM    110  O   UNL A   1      48.965  26.069  36.349  1.00  0.00    -0.237 OA
ATOM    111  O   UNL A   1      50.159  28.203  36.040  1.00  0.00    -0.744 OA
ENDBRANCH 107 108
ENDBRANCH  75 100
ENDBRANCH  49  50
ENDBRANCH  41  44
ENDBRANCH  39  40
ENDBRANCH  38  39
ENDBRANCH  37  38
ENDBRANCH   1  37
TORSDOF 22
ENDMDL
MODEL 3
REMARK VINA RESULT:     -10.8      5.314     11.904
REMARK SMILES Cc1cc(OCC(=O)N[C@@H](Cc2ccc(Cl)cc2)C(=O)NCCCCCCNC(=O)c2ccc(-c3c4nc(c(-c5c(F)cc(S(=O)(=O)[O-])cc5F)c5ccc([nH]5)c(-c5c(F)cc(S(=O)(=O)[O-])cc5F)c5nc(c(-c6c(F)cc(S(=O)(=O)[O-])cc6F)c6ccc3[nH]6)C=C5)C=C4)cc2)c2c(C)c(C)c(=O)oc2c1
REMARK SMILES IDX 24 1 23 2 22 3 21 4 19 5 20 6 10 8 9 9 7 10 8 11 6 13 5 14
REMARK SMILES IDX 4 15 1 16 2 17 3 18 106 19 105 20 97 21 104 22 98 23 102 24
REMARK SMILES IDX 99 25 100 26 103 27 101 28 11 29 12 30 13 31 18 32 14 33
REMARK SMILES IDX 17 34 15 35 16 36 25 37 26 38 27 39 28 40 29 41 30 43 31 44
REMARK SMILES IDX 32 45 96 46 33 47 95 48 34 49 35 50 36 51 89 52 37 53 94 54
REMARK SMILES IDX 88 55 90 56 38 57 93 58 87 59 86 60 39 62 73 63 52 64 72 65
REMARK SMILES IDX 53 66 56 67 71 68 91 69 54 70 55 71 70 73 92 74 57 75 40 76
REMARK SMILES IDX 41 77 50 78 42 79 43 80 49 81 51 82 44 83 45 84 46 85 47 86
REMARK SMILES IDX 48 87 74 88 75 89 84 90 76 91 77 92 83 93 85 94 78 95 79 96
REMARK SMILES IDX 80 97 81 98 82 99 58 100 59 101 68 102 60 103 61 104 67 105
REMARK SMILES IDX 69 106 62 107 63 108 64 109 65 110 66 111
REMARK H PARENT 21 7 9 12 28 42 90 61 56 72
REMARK Flexibility Score: inf
ROOT
ATOM      1  C   UNL A   1      43.031  24.322  24.951  1.00  0.00     0.002 C 
ENDROOT
BRANCH   1   2
ATOM      2  C   UNL A   1      42.951  25.854  25.000  1.00  0.00     0.021 C 
BRANCH   2   3
ATOM      3  C   UNL A   1      44.164  26.552  25.603  1.00  0.00     0.116 C 
BRANCH   3   4
ATOM      4  N   UNL A   1      44.861  27.430  24.685  1.00  0.00    -0.354 N 
ATOM      5  C   UNL A   1      46.168  27.819  24.651  1.00  0.00     0.242 C 
ATOM      6  O   UNL A   1      46.590  28.223  23.559  1.00  0.00    -0.273 OA
ATOM      7  H   UNL A   1      44.299  27.808  23.969  1.00  0.00     0.163 HD
BRANCH   5   8
ATOM      8  C   UNL A   1      47.152  27.692  25.842  1.00  0.00     0.175 C 
BRANCH   8   9
ATOM      9  N   UNL A   1      46.577  27.993  27.149  1.00  0.00    -0.341 N 
ATOM     10  C   UNL A   1      46.126  29.199  27.597  1.00  0.00     0.258 C 
ATOM     11  O   UNL A   1      45.339  29.225  28.545  1.00  0.00    -0.271 OA
ATOM     12  H   UNL A   1      46.506  27.240  27.778  1.00  0.00     0.164 HD
BRANCH  10  13
ATOM     13  C   UNL A   1      46.638  30.497  26.947  1.00  0.00     0.329 C 
BRANCH  13  14
ATOM     14  O   UNL A   1      45.687  31.535  26.712  1.00  0.00    -0.483 OA
BRANCH  14  15
ATOM     15  C   UNL A   1      46.099  32.842  26.797  1.00  0.00     0.131 A 
ATOM     16  C   UNL A   1      48.891  35.045  25.377  1.00  0.00     0.044 C 
ATOM     17  C   UNL A   1      47.697  34.596  26.164  1.00  0.00    -0.044 A 
ATOM     18  C   UNL A   1      47.285  33.263  26.154  1.00  0.00     0.050 A 
ATOM     19  C   UNL A   1      46.940  35.510  26.879  1.00  0.00     0.051 A 
ATOM     20  C   UNL A   1      45.801  35.080  27.570  1.00  0.00     0.142 A 
ATOM     21  C   UNL A   1      45.327  33.759  27.554  1.00  0.00     0.063 A 
ATOM     22  O   UNL A   1      45.171  36.102  28.302  1.00  0.00    -0.422 OA
ATOM     23  C   UNL A   1      44.069  33.491  28.317  1.00  0.00    -0.026 A 
ATOM     24  C   UNL A   1      44.095  35.849  29.117  1.00  0.00     0.339 A 
ATOM     25  C   UNL A   1      43.392  32.144  28.294  1.00  0.00     0.046 C 
ATOM     26  C   UNL A   1      43.515  34.485  29.053  1.00  0.00     0.038 A 
ATOM     27  O   UNL A   1      43.629  36.719  29.845  1.00  0.00    -0.246 OA
ATOM     28  C   UNL A   1      42.273  34.362  29.902  1.00  0.00     0.052 C 
ENDBRANCH  14  15
ENDBRANCH  13  14
ENDBRANCH  10  13
ENDBRANCH   8   9
BRANCH   8  29
ATOM     29  C   UNL A   1      48.007  26.410  25.815  1.00  0.00     0.070 C 
BRANCH  29  30
ATOM     30  C   UNL A   1      47.272  25.098  25.683  1.00  0.00    -0.045 A 
ATOM     31  C   UNL A   1      46.692  24.495  26.806  1.00  0.00     0.005 A 
ATOM     32  C   UNL A   1      47.141  24.474  24.434  1.00  0.00     0.005 A 
ATOM     33  C   UNL A   1      46.065  23.251  26.698  1.00  0.00     0.021 A 
ATOM     34  C   UNL A   1      46.490  23.241  24.321  1.00  0.00     0.021 A 
ATOM     35  C   UNL A   1      45.977  22.624  25.460  1.00  0.00     0.041 A 
ATOM     36  Cl  UNL A   1      45.251  21.069  25.344  1.00  0.00    -0.084 Cl
ENDBRANCH  29  30
ENDBRANCH   8  29
ENDBRANCH   5   8
ENDBRANCH   3   4
ENDBRANCH   2   3
ENDBRANCH   1   2
BRANCH   1  37
ATOM     37  C   UNL A   1      42.412  23.554  26.127  1.00  0.00     0.002 C 
BRANCH  37  38
ATOM     38  C   UNL A   1      41.763  22.206  25.804  1.00  0.00     0.021 C 
BRANCH  38  39
ATOM     39  C   UNL A   1      40.455  21.916  26.528  1.00  0.00     0.116 C 
BRANCH  39  40
ATOM     40  N   UNL A   1      39.293  22.442  25.831  1.00  0.00    -0.352 N 
ATOM     41  C   UNL A   1      38.628  23.634  25.998  1.00  0.00     0.251 C 
ATOM     42  H   UNL A   1      38.926  21.855  25.132  1.00  0.00     0.163 HD
ATOM     43  O   UNL A   1      37.575  23.829  25.396  1.00  0.00    -0.269 OA
BRANCH  41  44
ATOM     44  C   UNL A   1      39.153  24.667  26.921  1.00  0.00     0.039 A 
ATOM     45  C   UNL A   1      38.904  24.605  28.294  1.00  0.00     0.014 A 
ATOM     46  C   UNL A   1      39.918  25.717  26.403  1.00  0.00     0.014 A 
ATOM     47  C   UNL A   1      39.277  25.665  29.117  1.00  0.00     0.010 A 
ATOM     48  C   UNL A   1      40.366  26.740  27.245  1.00  0.00     0.010 A 
ATOM     49  C   UNL A   1      40.016  26.744  28.604  1.00  0.00    -0.014 A 
BRANCH  49  50
ATOM     50  C   UNL A   1      40.431  27.853  29.505  1.00  0.00     0.031 A 
ATOM     51  C   UNL A   1      41.770  27.827  30.195  1.00  0.00     0.074 A 
ATOM     52  C   UNL A   1      39.608  28.907  29.673  1.00  0.00     0.049 A 
ATOM     53  N   UNL A   1      42.269  28.675  31.057  1.00  0.00    -0.248 NA
ATOM     54  C   UNL A   1      42.666  26.701  29.877  1.00  0.00     0.031 C 
ATOM     55  C   UNL A   1      38.294  29.060  29.042  1.00  0.00     0.029 A 
ATOM     56  N   UNL A   1      39.757  30.057  30.407  1.00  0.00    -0.354 N 
ATOM     57  C   UNL A   1      43.522  28.181  31.401  1.00  0.00     0.074 A 
ATOM     58  C   UNL A   1      43.703  26.947  30.668  1.00  0.00     0.031 C 
ATOM     59  C   UNL A   1      37.780  30.253  29.377  1.00  0.00     0.029 A 
ATOM     60  C   UNL A   1      38.692  30.920  30.301  1.00  0.00     0.049 A 
ATOM     61  H   UNL A   1      40.551  30.245  30.957  1.00  0.00     0.167 HD
ATOM     62  C   UNL A   1      44.438  28.713  32.246  1.00  0.00     0.037 A 
ATOM     63  C   UNL A   1      38.461  32.106  30.895  1.00  0.00     0.037 A 
ATOM     64  C   UNL A   1      44.263  29.957  32.953  1.00  0.00     0.049 A 
ATOM     65  C   UNL A   1      39.480  32.657  31.849  1.00  0.00     0.074 A 
ATOM     66  C   UNL A   1      45.130  30.571  33.842  1.00  0.00     0.029 A 
ATOM     67  N   UNL A   1      43.156  30.784  32.842  1.00  0.00    -0.354 N 
ATOM     68  N   UNL A   1      40.638  32.150  32.199  1.00  0.00    -0.248 NA
ATOM     69  C   UNL A   1      39.160  33.936  32.497  1.00  0.00     0.031 C 
ATOM     70  C   UNL A   1      44.536  31.757  34.288  1.00  0.00     0.029 A 
ATOM     71  C   UNL A   1      43.317  31.902  33.646  1.00  0.00     0.049 A 
ATOM     72  H   UNL A   1      42.371  30.605  32.276  1.00  0.00     0.167 HD
ATOM     73  C   UNL A   1      41.191  33.055  33.096  1.00  0.00     0.074 A 
ATOM     74  C   UNL A   1      40.249  34.148  33.223  1.00  0.00     0.031 C 
ATOM     75  C   UNL A   1      42.373  32.984  33.756  1.00  0.00     0.037 A 
BRANCH  62  76
ATOM     76  C   UNL A   1      45.721  27.959  32.464  1.00  0.00     0.058 A 
ATOM     77  C   UNL A   1      45.780  26.832  33.298  1.00  0.00     0.135 A 
ATOM     78  C   UNL A   1      46.886  28.317  31.765  1.00  0.00     0.135 A 
ATOM     79  F   UNL A   1      44.699  26.455  34.001  1.00  0.00    -0.206 F 
ATOM     80  C   UNL A   1      46.948  26.089  33.437  1.00  0.00     0.059 A 
ATOM     81  C   UNL A   1      48.060  27.577  31.872  1.00  0.00     0.059 A 
ATOM     82  F   UNL A   1      46.886  29.388  30.956  1.00  0.00    -0.206 F 
ATOM     83  C   UNL A   1      48.083  26.466  32.715  1.00  0.00     0.060 A 
BRANCH  83  84
ATOM     84  S   UNL A   1      49.579  25.467  32.875  1.00  0.00     0.124 S 
ATOM     85  O   UNL A   1      50.463  26.379  33.596  1.00  0.00    -0.237 OA
ATOM     86  O   UNL A   1      49.105  24.314  33.633  1.00  0.00    -0.237 OA
ATOM     87  O   UNL A   1      49.956  25.193  31.492  1.00  0.00    -0.744 OA
ENDBRANCH  83  84
ENDBRANCH  62  76
BRANCH  63  88
ATOM     88  C   UNL A   1      37.205  32.844  30.605  1.00  0.00     0.058 A 
ATOM     89  C   UNL A   1      37.105  33.684  29.486  1.00  0.00     0.135 A 
ATOM     90  C   UNL A   1      36.072  32.701  31.420  1.00  0.00     0.135 A 
ATOM     91  F   UNL A   1      38.163  33.858  28.680  1.00  0.00    -0.206 F 
ATOM     92  C   UNL A   1      35.927  34.361  29.188  1.00  0.00     0.059 A 
ATOM     93  C   UNL A   1      34.875  33.348  31.129  1.00  0.00     0.059 A 
ATOM     94  F   UNL A   1      36.114  31.896  32.494  1.00  0.00    -0.206 F 
ATOM     95  C   UNL A   1      34.815  34.182  30.014  1.00  0.00     0.060 A 
BRANCH  95  96
ATOM     96  S   UNL A   1      33.272  35.016  29.585  1.00  0.00     0.124 S 
ATOM     97  O   UNL A   1      33.763  36.205  28.898  1.00  0.00    -0.237 OA
ATOM     98  O   UNL A   1      32.608  34.022  28.748  1.00  0.00    -0.237 OA
ATOM     99  O   UNL A   1      32.646  35.248  30.883  1.00  0.00    -0.744 OA
ENDBRANCH  95  96
ENDBRANCH  63  88
BRANCH  75 100
ATOM    100  C   UNL A   1      42.730  34.139  34.648  1.00  0.00     0.058 A 
ATOM    101  C   UNL A   1      43.477  35.229  34.176  1.00  0.00     0.135 A 
ATOM    102  C   UNL A   1      42.287  34.170  35.980  1.00  0.00     0.135 A 
ATOM    103  F   UNL A   1      43.930  35.242  32.913  1.00  0.00    -0.206 F 
ATOM    104  C   UNL A   1      43.796  36.301  35.004  1.00  0.00     0.059 A 
ATOM    105  C   UNL A   1      42.575  35.242  36.819  1.00  0.00     0.059 A 
ATOM    106  F   UNL A   1      41.562  33.155  36.475  1.00  0.00    -0.206 F 
ATOM    107  C   UNL A   1      43.341  36.296  36.324  1.00  0.00     0.060 A 
BRANCH 107 108
ATOM    108  S   UNL A   1      43.745  37.702  37.382  1.00  0.00     0.124 S 
ATOM    109  O   UNL A   1      45.024  37.284  37.949  1.00  0.00    -0.237 OA
ATOM    110  O   UNL A   1      43.806  38.805  36.429  1.00  0.00    -0.237 OA
ATOM    111  O   UNL A   1      42.629  37.753  38.321  1.00  0.00    -0.744 OA
ENDBRANCH 107 108
ENDBRANCH  75 100
ENDBRANCH  49  50
ENDBRANCH  41  44
ENDBRANCH  39  40
ENDBRANCH  38  39
ENDBRANCH  37  38
ENDBRANCH   1  37
TORSDOF 22
ENDMDL
