MODEL 1
REMARK VINA RESULT:     -10.5      0.000      0.000
REMARK SMILES C#CC[N@@H+](CC(=O)NCCCCCCNC(=O)c1ccc(-c2c3nc(c(-c4c(F)cc(S(=O)(=O)[O-])cc4F)c4ccc([nH]4)c(-c4c(F)cc(S(=O)(=O)[O-])cc4F)c4nc(c(-c5c(F)cc(S(=O)(=O)[O-])cc5F)c5ccc2[nH]5)C=C4)C=C3)cc1)[C@H]1CC[C@@H](c2ccccc2)CC1
REMARK SMILES IDX 11 1 10 2 9 3 8 4 6 5 7 6 5 8 4 9 3 11 2 12 1 13 84 14 95 15
REMARK SMILES IDX 85 16 94 17 86 18 87 19 88 20 89 21 93 22 90 23 92 24 91 25
REMARK SMILES IDX 12 26 13 27 14 28 15 29 16 30 17 32 18 33 19 34 83 35 20 36
REMARK SMILES IDX 82 37 21 38 22 39 23 40 76 41 24 42 81 43 75 44 77 45 25 46
REMARK SMILES IDX 80 47 74 48 73 49 26 51 60 52 39 53 59 54 40 55 43 56 58 57
REMARK SMILES IDX 78 58 41 59 42 60 57 62 79 63 44 64 27 65 28 66 37 67 29 68
REMARK SMILES IDX 30 69 36 70 38 71 31 72 32 73 33 74 34 75 35 76 61 77 62 78
REMARK SMILES IDX 71 79 63 80 64 81 70 82 72 83 65 84 66 85 67 86 68 87 69 88
REMARK SMILES IDX 45 89 46 90 55 91 47 92 48 93 54 94 56 95 49 96 50 97 51 98
REMARK SMILES IDX 52 99 53 100
REMARK H PARENT 8 7 4 10 15 31 77 50 43 61
REMARK Flexibility Score: inf
ROOT
ATOM      1  C   UNL A   1      33.094  28.527  26.802  1.00  0.00     0.002 C 
ENDROOT
BRANCH   1   2
ATOM      2  C   UNL A   1      33.133  28.700  25.288  1.00  0.00     0.021 C 
BRANCH   2   3
ATOM      3  C   UNL A   1      31.834  28.369  24.534  1.00  0.00     0.116 C 
BRANCH   3   4
ATOM      4  N   UNL A   1      32.115  27.908  23.187  1.00  0.00    -0.351 N 
ATOM      5  C   UNL A   1      32.659  26.764  22.686  1.00  0.00     0.275 C 
ATOM      6  O   UNL A   1      32.644  26.673  21.450  1.00  0.00    -0.269 OA
ATOM      7  H   UNL A   1      31.860  28.556  22.491  1.00  0.00     0.163 HD
BRANCH   5   8
ATOM      8  C   UNL A   1      33.188  25.592  23.539  1.00  0.00     0.364 C 
BRANCH   8   9
ATOM      9  N   UNL A   1      32.281  24.456  23.827  1.00  0.00    -0.315 N 
ATOM     10  H   UNL A   1      32.548  23.785  23.106  1.00  0.00     0.349 HD
BRANCH   9  11
ATOM     11  C   UNL A   1      30.897  24.833  23.642  1.00  0.00     0.354 C 
BRANCH  11  12
ATOM     12  C   UNL A   1      30.096  25.248  24.865  1.00  0.00    -0.047 C 
ATOM     13  C   UNL A   1      29.410  25.605  25.915  1.00  0.00     0.010 C 
ENDBRANCH  11  12
ENDBRANCH   9  11
BRANCH   9  14
ATOM     14  C   UNL A   1      32.541  23.564  24.968  1.00  0.00     0.185 C 
ATOM     15  C   UNL A   1      32.901  22.176  24.399  1.00  0.00     0.066 C 
ATOM     16  C   UNL A   1      33.569  24.002  26.019  1.00  0.00     0.066 C 
ATOM     17  C   UNL A   1      33.167  21.139  25.500  1.00  0.00     0.014 C 
ATOM     18  C   UNL A   1      33.737  22.942  27.109  1.00  0.00     0.014 C 
ATOM     19  C   UNL A   1      34.223  21.596  26.529  1.00  0.00     0.019 C 
BRANCH  19  20
ATOM     20  C   UNL A   1      35.671  21.647  26.033  1.00  0.00    -0.045 A 
ATOM     21  C   UNL A   1      36.535  22.717  26.313  1.00  0.00     0.004 A 
ATOM     22  C   UNL A   1      36.178  20.602  25.237  1.00  0.00     0.004 A 
ATOM     23  C   UNL A   1      37.867  22.708  25.884  1.00  0.00     0.000 A 
ATOM     24  C   UNL A   1      37.508  20.590  24.809  1.00  0.00     0.000 A 
ATOM     25  C   UNL A   1      38.356  21.639  25.142  1.00  0.00     0.000 A 
ENDBRANCH  19  20
ENDBRANCH   9  14
ENDBRANCH   8   9
ENDBRANCH   5   8
ENDBRANCH   3   4
ENDBRANCH   2   3
ENDBRANCH   1   2
BRANCH   1  26
ATOM     26  C   UNL A   1      34.278  29.133  27.558  1.00  0.00     0.002 C 
BRANCH  26  27
ATOM     27  C   UNL A   1      34.467  30.647  27.405  1.00  0.00     0.021 C 
BRANCH  27  28
ATOM     28  C   UNL A   1      35.622  31.252  28.204  1.00  0.00     0.116 C 
BRANCH  28  29
ATOM     29  N   UNL A   1      35.483  31.015  29.630  1.00  0.00    -0.352 N 
ATOM     30  C   UNL A   1      36.313  30.345  30.493  1.00  0.00     0.251 C 
ATOM     31  H   UNL A   1      34.671  31.392  30.039  1.00  0.00     0.163 HD
ATOM     32  O   UNL A   1      35.912  30.041  31.612  1.00  0.00    -0.269 OA
BRANCH  30  33
ATOM     33  C   UNL A   1      37.684  29.984  30.075  1.00  0.00     0.039 A 
ATOM     34  C   UNL A   1      38.632  29.675  31.054  1.00  0.00     0.014 A 
ATOM     35  C   UNL A   1      38.045  29.991  28.724  1.00  0.00     0.014 A 
ATOM     36  C   UNL A   1      39.931  29.327  30.676  1.00  0.00     0.010 A 
ATOM     37  C   UNL A   1      39.323  29.586  28.345  1.00  0.00     0.010 A 
ATOM     38  C   UNL A   1      40.280  29.258  29.318  1.00  0.00    -0.014 A 
BRANCH  38  39
ATOM     39  C   UNL A   1      41.648  28.861  28.896  1.00  0.00     0.031 A 
ATOM     40  C   UNL A   1      42.745  29.889  28.834  1.00  0.00     0.074 A 
ATOM     41  C   UNL A   1      41.886  27.591  28.515  1.00  0.00     0.049 A 
ATOM     42  N   UNL A   1      43.980  29.756  28.424  1.00  0.00    -0.248 NA
ATOM     43  C   UNL A   1      42.400  31.253  29.266  1.00  0.00     0.031 C 
ATOM     44  C   UNL A   1      40.893  26.515  28.491  1.00  0.00     0.029 A 
ATOM     45  N   UNL A   1      43.035  26.992  28.064  1.00  0.00    -0.354 N 
ATOM     46  C   UNL A   1      44.555  31.017  28.534  1.00  0.00     0.074 A 
ATOM     47  C   UNL A   1      43.519  31.913  29.003  1.00  0.00     0.031 C 
ATOM     48  C   UNL A   1      41.479  25.385  28.063  1.00  0.00     0.029 A 
ATOM     49  C   UNL A   1      42.878  25.662  27.754  1.00  0.00     0.049 A 
ATOM     50  H   UNL A   1      43.891  27.469  27.970  1.00  0.00     0.167 HD
ATOM     51  C   UNL A   1      45.833  31.390  28.288  1.00  0.00     0.037 A 
ATOM     52  C   UNL A   1      43.762  24.767  27.269  1.00  0.00     0.037 A 
ATOM     53  C   UNL A   1      46.865  30.487  27.848  1.00  0.00     0.049 A 
ATOM     54  C   UNL A   1      45.179  25.202  27.012  1.00  0.00     0.074 A 
ATOM     55  C   UNL A   1      48.204  30.754  27.622  1.00  0.00     0.029 A 
ATOM     56  N   UNL A   1      46.675  29.141  27.572  1.00  0.00    -0.354 N 
ATOM     57  N   UNL A   1      45.718  26.387  27.172  1.00  0.00    -0.248 NA
ATOM     58  C   UNL A   1      46.109  24.179  26.515  1.00  0.00     0.031 C 
ATOM     59  C   UNL A   1      48.816  29.577  27.177  1.00  0.00     0.029 A 
ATOM     60  C   UNL A   1      47.866  28.567  27.164  1.00  0.00     0.049 A 
ATOM     61  H   UNL A   1      45.817  28.664  27.654  1.00  0.00     0.167 HD
ATOM     62  C   UNL A   1      47.056  26.247  26.820  1.00  0.00     0.074 A 
ATOM     63  C   UNL A   1      47.246  24.859  26.449  1.00  0.00     0.031 C 
ATOM     64  C   UNL A   1      48.039  27.181  26.806  1.00  0.00     0.037 A 
BRANCH  51  65
ATOM     65  C   UNL A   1      46.188  32.836  28.495  1.00  0.00     0.058 A 
ATOM     66  C   UNL A   1      46.643  33.311  29.735  1.00  0.00     0.135 A 
ATOM     67  C   UNL A   1      46.097  33.756  27.437  1.00  0.00     0.135 A 
ATOM     68  F   UNL A   1      46.735  32.478  30.784  1.00  0.00    -0.206 F 
ATOM     69  C   UNL A   1      46.966  34.650  29.928  1.00  0.00     0.059 A 
ATOM     70  C   UNL A   1      46.439  35.095  27.600  1.00  0.00     0.059 A 
ATOM     71  F   UNL A   1      45.666  33.356  26.229  1.00  0.00    -0.206 F 
ATOM     72  C   UNL A   1      46.857  35.535  28.855  1.00  0.00     0.060 A 
BRANCH  72  73
ATOM     73  S   UNL A   1      47.277  37.271  29.121  1.00  0.00     0.124 S 
ATOM     74  O   UNL A   1      48.641  37.164  29.630  1.00  0.00    -0.237 OA
ATOM     75  O   UNL A   1      47.145  37.836  27.782  1.00  0.00    -0.237 OA
ATOM     76  O   UNL A   1      46.280  37.717  30.088  1.00  0.00    -0.744 OA
ENDBRANCH  72  73
ENDBRANCH  51  65
BRANCH  52  77
ATOM     77  C   UNL A   1      43.337  23.365  27.021  1.00  0.00     0.058 A 
ATOM     78  C   UNL A   1      43.057  22.918  25.721  1.00  0.00     0.135 A 
ATOM     79  C   UNL A   1      43.218  22.441  28.070  1.00  0.00     0.135 A 
ATOM     80  F   UNL A   1      43.151  23.767  24.686  1.00  0.00    -0.206 F 
ATOM     81  C   UNL A   1      42.659  21.609  25.470  1.00  0.00     0.059 A 
ATOM     82  C   UNL A   1      42.843  21.121  27.842  1.00  0.00     0.059 A 
ATOM     83  F   UNL A   1      43.492  22.814  29.330  1.00  0.00    -0.206 F 
ATOM     84  C   UNL A   1      42.556  20.717  26.539  1.00  0.00     0.060 A 
BRANCH  84  85
ATOM     85  S   UNL A   1      42.090  19.006  26.197  1.00  0.00     0.124 S 
ATOM     86  O   UNL A   1      42.341  18.370  27.485  1.00  0.00    -0.237 OA
ATOM     87  O   UNL A   1      40.689  19.139  25.812  1.00  0.00    -0.237 OA
ATOM     88  O   UNL A   1      42.994  18.624  25.115  1.00  0.00    -0.744 OA
ENDBRANCH  84  85
ENDBRANCH  52  77
BRANCH  64  89
ATOM     89  C   UNL A   1      49.414  26.729  26.406  1.00  0.00     0.058 A 
ATOM     90  C   UNL A   1      50.273  26.095  27.316  1.00  0.00     0.135 A 
ATOM     91  C   UNL A   1      49.856  26.885  25.082  1.00  0.00     0.135 A 
ATOM     92  F   UNL A   1      49.899  25.928  28.594  1.00  0.00    -0.206 F 
ATOM     93  C   UNL A   1      51.534  25.650  26.932  1.00  0.00     0.059 A 
ATOM     94  C   UNL A   1      51.103  26.426  24.672  1.00  0.00     0.059 A 
ATOM     95  F   UNL A   1      49.068  27.477  24.171  1.00  0.00    -0.206 F 
ATOM     96  C   UNL A   1      51.940  25.819  25.608  1.00  0.00     0.060 A 
BRANCH  96  97
ATOM     97  S   UNL A   1      53.564  25.205  25.113  1.00  0.00     0.124 S 
ATOM     98  O   UNL A   1      53.641  25.661  23.730  1.00  0.00    -0.237 OA
ATOM     99  O   UNL A   1      54.454  25.880  26.053  1.00  0.00    -0.237 OA
ATOM    100  O   UNL A   1      53.451  23.761  25.294  1.00  0.00    -0.744 OA
ENDBRANCH  96  97
ENDBRANCH  64  89
ENDBRANCH  38  39
ENDBRANCH  30  33
ENDBRANCH  28  29
ENDBRANCH  27  28
ENDBRANCH  26  27
ENDBRANCH   1  26
TORSDOF 21
ENDMDL
MODEL 2
REMARK VINA RESULT:     -10.2      4.839      5.969
REMARK SMILES C#CC[N@@H+](CC(=O)NCCCCCCNC(=O)c1ccc(-c2c3nc(c(-c4c(F)cc(S(=O)(=O)[O-])cc4F)c4ccc([nH]4)c(-c4c(F)cc(S(=O)(=O)[O-])cc4F)c4nc(c(-c5c(F)cc(S(=O)(=O)[O-])cc5F)c5ccc2[nH]5)C=C4)C=C3)cc1)[C@H]1CC[C@@H](c2ccccc2)CC1
REMARK SMILES IDX 11 1 10 2 9 3 8 4 6 5 7 6 5 8 4 9 3 11 2 12 1 13 84 14 95 15
REMARK SMILES IDX 85 16 94 17 86 18 87 19 88 20 89 21 93 22 90 23 92 24 91 25
REMARK SMILES IDX 12 26 13 27 14 28 15 29 16 30 17 32 18 33 19 34 83 35 20 36
REMARK SMILES IDX 82 37 21 38 22 39 23 40 76 41 24 42 81 43 75 44 77 45 25 46
REMARK SMILES IDX 80 47 74 48 73 49 26 51 60 52 39 53 59 54 40 55 43 56 58 57
REMARK SMILES IDX 78 58 41 59 42 60 57 62 79 63 44 64 27 65 28 66 37 67 29 68
REMARK SMILES IDX 30 69 36 70 38 71 31 72 32 73 33 74 34 75 35 76 61 77 62 78
REMARK SMILES IDX 71 79 63 80 64 81 70 82 72 83 65 84 66 85 67 86 68 87 69 88
REMARK SMILES IDX 45 89 46 90 55 91 47 92 48 93 54 94 56 95 49 96 50 97 51 98
REMARK SMILES IDX 52 99 53 100
REMARK H PARENT 8 7 4 10 15 31 77 50 43 61
REMARK Flexibility Score: inf
ROOT
ATOM      1  C   UNL A   1      31.418  28.887  26.516  1.00  0.00     0.002 C 
ENDROOT
BRANCH   1   2
ATOM      2  C   UNL A   1      31.649  29.810  25.324  1.00  0.00     0.021 C 
BRANCH   2   3
ATOM      3  C   UNL A   1      30.423  30.595  24.829  1.00  0.00     0.116 C 
BRANCH   3   4
ATOM      4  N   UNL A   1      30.229  30.414  23.402  1.00  0.00    -0.351 N 
ATOM      5  C   UNL A   1      29.946  29.330  22.628  1.00  0.00     0.275 C 
ATOM      6  O   UNL A   1      29.741  29.577  21.431  1.00  0.00    -0.269 OA
ATOM      7  H   UNL A   1      30.320  31.248  22.886  1.00  0.00     0.163 HD
BRANCH   5   8
ATOM      8  C   UNL A   1      29.789  27.888  23.155  1.00  0.00     0.364 C 
BRANCH   8   9
ATOM      9  N   UNL A   1      31.009  27.086  23.408  1.00  0.00    -0.315 N 
ATOM     10  H   UNL A   1      31.396  27.546  24.232  1.00  0.00     0.349 HD
BRANCH   9  11
ATOM     11  C   UNL A   1      31.945  27.200  22.310  1.00  0.00     0.354 C 
BRANCH  11  12
ATOM     12  C   UNL A   1      33.244  27.950  22.551  1.00  0.00    -0.047 C 
ATOM     13  C   UNL A   1      34.359  28.594  22.757  1.00  0.00     0.010 C 
ENDBRANCH  11  12
ENDBRANCH   9  11
BRANCH   9  14
ATOM     14  C   UNL A   1      30.910  25.748  24.013  1.00  0.00     0.185 C 
ATOM     15  C   UNL A   1      31.383  24.727  22.957  1.00  0.00     0.066 C 
ATOM     16  C   UNL A   1      31.606  25.500  25.356  1.00  0.00     0.066 C 
ATOM     17  C   UNL A   1      31.297  23.279  23.459  1.00  0.00     0.014 C 
ATOM     18  C   UNL A   1      31.429  24.051  25.815  1.00  0.00     0.014 C 
ATOM     19  C   UNL A   1      32.027  23.052  24.800  1.00  0.00     0.019 C 
BRANCH  19  20
ATOM     20  C   UNL A   1      33.557  23.093  24.752  1.00  0.00    -0.045 A 
ATOM     21  C   UNL A   1      34.287  22.884  23.571  1.00  0.00     0.004 A 
ATOM     22  C   UNL A   1      34.292  23.320  25.931  1.00  0.00     0.004 A 
ATOM     23  C   UNL A   1      35.683  22.975  23.553  1.00  0.00     0.000 A 
ATOM     24  C   UNL A   1      35.686  23.414  25.916  1.00  0.00     0.000 A 
ATOM     25  C   UNL A   1      36.382  23.252  24.724  1.00  0.00     0.000 A 
ENDBRANCH  19  20
ENDBRANCH   9  14
ENDBRANCH   8   9
ENDBRANCH   5   8
ENDBRANCH   3   4
ENDBRANCH   2   3
ENDBRANCH   1   2
BRANCH   1  26
ATOM     26  C   UNL A   1      32.659  28.593  27.361  1.00  0.00     0.002 C 
BRANCH  26  27
ATOM     27  C   UNL A   1      33.939  28.267  26.583  1.00  0.00     0.021 C 
BRANCH  27  28
ATOM     28  C   UNL A   1      35.020  29.348  26.607  1.00  0.00     0.116 C 
BRANCH  28  29
ATOM     29  N   UNL A   1      34.570  30.556  27.275  1.00  0.00    -0.352 N 
ATOM     30  C   UNL A   1      35.035  31.151  28.420  1.00  0.00     0.251 C 
ATOM     31  H   UNL A   1      33.817  31.018  26.840  1.00  0.00     0.163 HD
ATOM     32  O   UNL A   1      34.375  32.032  28.962  1.00  0.00    -0.269 OA
BRANCH  30  33
ATOM     33  C   UNL A   1      36.326  30.729  29.004  1.00  0.00     0.039 A 
ATOM     34  C   UNL A   1      36.340  29.688  29.936  1.00  0.00     0.014 A 
ATOM     35  C   UNL A   1      37.513  31.386  28.666  1.00  0.00     0.014 A 
ATOM     36  C   UNL A   1      37.551  29.273  30.494  1.00  0.00     0.010 A 
ATOM     37  C   UNL A   1      38.727  30.933  29.177  1.00  0.00     0.010 A 
ATOM     38  C   UNL A   1      38.757  29.877  30.102  1.00  0.00    -0.014 A 
BRANCH  38  39
ATOM     39  C   UNL A   1      40.058  29.430  30.662  1.00  0.00     0.031 A 
ATOM     40  C   UNL A   1      40.647  30.134  31.854  1.00  0.00     0.074 A 
ATOM     41  C   UNL A   1      40.733  28.429  30.062  1.00  0.00     0.049 A 
ATOM     42  N   UNL A   1      41.799  29.940  32.443  1.00  0.00    -0.248 NA
ATOM     43  C   UNL A   1      39.845  31.217  32.446  1.00  0.00     0.031 C 
ATOM     44  C   UNL A   1      40.285  27.698  28.876  1.00  0.00     0.029 A 
ATOM     45  N   UNL A   1      41.945  27.863  30.363  1.00  0.00    -0.354 N 
ATOM     46  C   UNL A   1      41.868  30.883  33.462  1.00  0.00     0.074 A 
ATOM     47  C   UNL A   1      40.662  31.680  33.382  1.00  0.00     0.031 C 
ATOM     48  C   UNL A   1      41.202  26.770  28.559  1.00  0.00     0.029 A 
ATOM     49  C   UNL A   1      42.315  26.860  29.498  1.00  0.00     0.049 A 
ATOM     50  H   UNL A   1      42.499  28.146  31.126  1.00  0.00     0.167 HD
ATOM     51  C   UNL A   1      42.836  31.054  34.393  1.00  0.00     0.037 A 
ATOM     52  C   UNL A   1      43.429  26.101  29.463  1.00  0.00     0.037 A 
ATOM     53  C   UNL A   1      44.019  30.240  34.484  1.00  0.00     0.049 A 
ATOM     54  C   UNL A   1      44.486  26.304  30.514  1.00  0.00     0.074 A 
ATOM     55  C   UNL A   1      45.034  30.296  35.423  1.00  0.00     0.029 A 
ATOM     56  N   UNL A   1      44.345  29.215  33.607  1.00  0.00    -0.354 N 
ATOM     57  N   UNL A   1      44.510  27.165  31.503  1.00  0.00    -0.248 NA
ATOM     58  C   UNL A   1      45.664  25.429  30.449  1.00  0.00     0.031 C 
ATOM     59  C   UNL A   1      45.990  29.329  35.094  1.00  0.00     0.029 A 
ATOM     60  C   UNL A   1      45.550  28.642  33.973  1.00  0.00     0.049 A 
ATOM     61  H   UNL A   1      43.798  28.937  32.837  1.00  0.00     0.167 HD
ATOM     62  C   UNL A   1      45.692  26.919  32.193  1.00  0.00     0.074 A 
ATOM     63  C   UNL A   1      46.350  25.821  31.514  1.00  0.00     0.031 C 
ATOM     64  C   UNL A   1      46.187  27.544  33.289  1.00  0.00     0.037 A 
BRANCH  51  65
ATOM     65  C   UNL A   1      42.651  32.163  35.392  1.00  0.00     0.058 A 
ATOM     66  C   UNL A   1      43.206  33.436  35.188  1.00  0.00     0.135 A 
ATOM     67  C   UNL A   1      41.890  31.960  36.555  1.00  0.00     0.135 A 
ATOM     68  F   UNL A   1      43.954  33.680  34.100  1.00  0.00    -0.206 F 
ATOM     69  C   UNL A   1      43.039  34.460  36.115  1.00  0.00     0.059 A 
ATOM     70  C   UNL A   1      41.688  32.978  37.483  1.00  0.00     0.059 A 
ATOM     71  F   UNL A   1      41.336  30.762  36.801  1.00  0.00    -0.206 F 
ATOM     72  C   UNL A   1      42.281  34.219  37.261  1.00  0.00     0.060 A 
BRANCH  72  73
ATOM     73  S   UNL A   1      42.076  35.557  38.457  1.00  0.00     0.124 S 
ATOM     74  O   UNL A   1      41.778  36.686  37.579  1.00  0.00    -0.237 OA
ATOM     75  O   UNL A   1      40.964  35.081  39.274  1.00  0.00    -0.237 OA
ATOM     76  O   UNL A   1      43.368  35.611  39.132  1.00  0.00    -0.744 OA
ENDBRANCH  72  73
ENDBRANCH  51  65
BRANCH  52  77
ATOM     77  C   UNL A   1      43.586  25.064  28.411  1.00  0.00     0.058 A 
ATOM     78  C   UNL A   1      43.229  23.730  28.657  1.00  0.00     0.135 A 
ATOM     79  C   UNL A   1      44.080  25.385  27.137  1.00  0.00     0.135 A 
ATOM     80  F   UNL A   1      42.758  23.374  29.862  1.00  0.00    -0.206 F 
ATOM     81  C   UNL A   1      43.369  22.746  27.684  1.00  0.00     0.059 A 
ATOM     82  C   UNL A   1      44.208  24.424  26.140  1.00  0.00     0.059 A 
ATOM     83  F   UNL A   1      44.420  26.651  26.846  1.00  0.00    -0.206 F 
ATOM     84  C   UNL A   1      43.859  23.104  26.426  1.00  0.00     0.060 A 
BRANCH  84  85
ATOM     85  S   UNL A   1      43.988  21.831  25.152  1.00  0.00     0.124 S 
ATOM     86  O   UNL A   1      42.872  20.958  25.495  1.00  0.00    -0.237 OA
ATOM     87  O   UNL A   1      43.839  22.607  23.925  1.00  0.00    -0.237 OA
ATOM     88  O   UNL A   1      45.319  21.273  25.372  1.00  0.00    -0.744 OA
ENDBRANCH  84  85
ENDBRANCH  52  77
BRANCH  64  89
ATOM     89  C   UNL A   1      47.489  27.037  33.843  1.00  0.00     0.058 A 
ATOM     90  C   UNL A   1      48.718  27.592  33.455  1.00  0.00     0.135 A 
ATOM     91  C   UNL A   1      47.501  26.020  34.811  1.00  0.00     0.135 A 
ATOM     92  F   UNL A   1      48.760  28.561  32.529  1.00  0.00    -0.206 F 
ATOM     93  C   UNL A   1      49.918  27.141  33.995  1.00  0.00     0.059 A 
ATOM     94  C   UNL A   1      48.687  25.571  35.381  1.00  0.00     0.059 A 
ATOM     95  F   UNL A   1      46.350  25.464  35.222  1.00  0.00    -0.206 F 
ATOM     96  C   UNL A   1      49.893  26.131  34.957  1.00  0.00     0.060 A 
BRANCH  96  97
ATOM     97  S   UNL A   1      51.454  25.578  35.676  1.00  0.00     0.124 S 
ATOM     98  O   UNL A   1      52.321  26.719  35.409  1.00  0.00    -0.237 OA
ATOM     99  O   UNL A   1      51.097  25.367  37.076  1.00  0.00    -0.237 OA
ATOM    100  O   UNL A   1      51.762  24.365  34.926  1.00  0.00    -0.744 OA
ENDBRANCH  96  97
ENDBRANCH  64  89
ENDBRANCH  38  39
ENDBRANCH  30  33
ENDBRANCH  28  29
ENDBRANCH  27  28
ENDBRANCH  26  27
ENDBRANCH   1  26
TORSDOF 21
ENDMDL
MODEL 3
REMARK VINA RESULT:     -10.1      3.351      9.516
REMARK SMILES C#CC[N@@H+](CC(=O)NCCCCCCNC(=O)c1ccc(-c2c3nc(c(-c4c(F)cc(S(=O)(=O)[O-])cc4F)c4ccc([nH]4)c(-c4c(F)cc(S(=O)(=O)[O-])cc4F)c4nc(c(-c5c(F)cc(S(=O)(=O)[O-])cc5F)c5ccc2[nH]5)C=C4)C=C3)cc1)[C@H]1CC[C@@H](c2ccccc2)CC1
REMARK SMILES IDX 11 1 10 2 9 3 8 4 6 5 7 6 5 8 4 9 3 11 2 12 1 13 84 14 95 15
REMARK SMILES IDX 85 16 94 17 86 18 87 19 88 20 89 21 93 22 90 23 92 24 91 25
REMARK SMILES IDX 12 26 13 27 14 28 15 29 16 30 17 32 18 33 19 34 83 35 20 36
REMARK SMILES IDX 82 37 21 38 22 39 23 40 76 41 24 42 81 43 75 44 77 45 25 46
REMARK SMILES IDX 80 47 74 48 73 49 26 51 60 52 39 53 59 54 40 55 43 56 58 57
REMARK SMILES IDX 78 58 41 59 42 60 57 62 79 63 44 64 27 65 28 66 37 67 29 68
REMARK SMILES IDX 30 69 36 70 38 71 31 72 32 73 33 74 34 75 35 76 61 77 62 78
REMARK SMILES IDX 71 79 63 80 64 81 70 82 72 83 65 84 66 85 67 86 68 87 69 88
REMARK SMILES IDX 45 89 46 90 55 91 47 92 48 93 54 94 56 95 49 96 50 97 51 98
REMARK SMILES IDX 52 99 53 100
REMARK H PARENT 8 7 4 10 15 31 77 50 43 61
REMARK Flexibility Score: inf
ROOT
ATOM      1  C   UNL A   1      34.734  22.800  25.635  1.00  0.00     0.002 C 
ENDROOT
BRANCH   1   2
ATOM      2  C   UNL A   1      34.340  23.236  24.228  1.00  0.00     0.021 C 
BRANCH   2   3
ATOM      3  C   UNL A   1      34.415  24.744  23.940  1.00  0.00     0.116 C 
BRANCH   3   4
ATOM      4  N   UNL A   1      33.986  25.039  22.585  1.00  0.00    -0.351 N 
ATOM      5  C   UNL A   1      33.267  26.056  22.033  1.00  0.00     0.275 C 
ATOM      6  O   UNL A   1      33.185  26.031  20.797  1.00  0.00    -0.269 OA
ATOM      7  H   UNL A   1      34.273  24.364  21.928  1.00  0.00     0.163 HD
BRANCH   5   8
ATOM      8  C   UNL A   1      32.653  27.231  22.823  1.00  0.00     0.364 C 
BRANCH   8   9
ATOM      9  N   UNL A   1      31.854  26.933  24.035  1.00  0.00    -0.315 N 
ATOM     10  H   UNL A   1      32.548  26.499  24.644  1.00  0.00     0.349 HD
BRANCH   9  11
ATOM     11  C   UNL A   1      30.806  25.978  23.747  1.00  0.00     0.354 C 
BRANCH  11  12
ATOM     12  C   UNL A   1      30.820  24.652  24.488  1.00  0.00    -0.047 C 
ATOM     13  C   UNL A   1      30.832  23.513  25.124  1.00  0.00     0.010 C 
ENDBRANCH  11  12
ENDBRANCH   9  11
BRANCH   9  14
ATOM     14  C   UNL A   1      31.484  28.009  24.968  1.00  0.00     0.185 C 
ATOM     15  C   UNL A   1      31.833  27.529  26.392  1.00  0.00     0.066 C 
ATOM     16  C   UNL A   1      32.040  29.416  24.719  1.00  0.00     0.066 C 
ATOM     17  C   UNL A   1      31.462  28.558  27.469  1.00  0.00     0.014 C 
ATOM     18  C   UNL A   1      31.582  30.395  25.802  1.00  0.00     0.014 C 
ATOM     19  C   UNL A   1      32.056  29.959  27.206  1.00  0.00     0.019 C 
BRANCH  19  20
ATOM     20  C   UNL A   1      33.569  30.097  27.396  1.00  0.00    -0.045 A 
ATOM     21  C   UNL A   1      34.443  28.999  27.375  1.00  0.00     0.004 A 
ATOM     22  C   UNL A   1      34.135  31.365  27.630  1.00  0.00     0.004 A 
ATOM     23  C   UNL A   1      35.826  29.167  27.505  1.00  0.00     0.000 A 
ATOM     24  C   UNL A   1      35.516  31.536  27.758  1.00  0.00     0.000 A 
ATOM     25  C   UNL A   1      36.363  30.437  27.685  1.00  0.00     0.000 A 
ENDBRANCH  19  20
ENDBRANCH   9  14
ENDBRANCH   8   9
ENDBRANCH   5   8
ENDBRANCH   3   4
ENDBRANCH   2   3
ENDBRANCH   1   2
BRANCH   1  26
ATOM     26  C   UNL A   1      35.957  23.510  26.218  1.00  0.00     0.002 C 
BRANCH  26  27
ATOM     27  C   UNL A   1      37.321  23.012  25.725  1.00  0.00     0.021 C 
BRANCH  27  28
ATOM     28  C   UNL A   1      38.539  23.653  26.393  1.00  0.00     0.116 C 
BRANCH  28  29
ATOM     29  N   UNL A   1      39.738  22.851  26.224  1.00  0.00    -0.352 N 
ATOM     30  C   UNL A   1      41.057  23.222  26.288  1.00  0.00     0.251 C 
ATOM     31  H   UNL A   1      39.581  21.898  26.037  1.00  0.00     0.163 HD
ATOM     32  O   UNL A   1      41.926  22.458  25.882  1.00  0.00    -0.269 OA
BRANCH  30  33
ATOM     33  C   UNL A   1      41.431  24.542  26.839  1.00  0.00     0.039 A 
ATOM     34  C   UNL A   1      41.683  24.658  28.209  1.00  0.00     0.014 A 
ATOM     35  C   UNL A   1      41.493  25.670  26.015  1.00  0.00     0.014 A 
ATOM     36  C   UNL A   1      42.043  25.897  28.745  1.00  0.00     0.010 A 
ATOM     37  C   UNL A   1      41.910  26.891  26.539  1.00  0.00     0.010 A 
ATOM     38  C   UNL A   1      42.181  27.018  27.911  1.00  0.00    -0.014 A 
BRANCH  38  39
ATOM     39  C   UNL A   1      42.592  28.336  28.458  1.00  0.00     0.031 A 
ATOM     40  C   UNL A   1      44.051  28.690  28.556  1.00  0.00     0.074 A 
ATOM     41  C   UNL A   1      41.655  29.188  28.918  1.00  0.00     0.049 A 
ATOM     42  N   UNL A   1      44.611  29.755  29.068  1.00  0.00    -0.248 NA
ATOM     43  C   UNL A   1      45.008  27.702  28.033  1.00  0.00     0.031 C 
ATOM     44  C   UNL A   1      40.212  28.940  28.916  1.00  0.00     0.029 A 
ATOM     45  N   UNL A   1      41.777  30.431  29.487  1.00  0.00    -0.354 N 
ATOM     46  C   UNL A   1      45.982  29.561  28.943  1.00  0.00     0.074 A 
ATOM     47  C   UNL A   1      46.170  28.254  28.350  1.00  0.00     0.031 C 
ATOM     48  C   UNL A   1      39.582  30.003  29.443  1.00  0.00     0.029 A 
ATOM     49  C   UNL A   1      40.575  30.993  29.848  1.00  0.00     0.049 A 
ATOM     50  H   UNL A   1      42.643  30.878  29.624  1.00  0.00     0.167 HD
ATOM     51  C   UNL A   1      46.990  30.404  29.270  1.00  0.00     0.037 A 
ATOM     52  C   UNL A   1      40.305  32.171  30.443  1.00  0.00     0.037 A 
ATOM     53  C   UNL A   1      46.794  31.715  29.833  1.00  0.00     0.049 A 
ATOM     54  C   UNL A   1      41.440  33.095  30.789  1.00  0.00     0.074 A 
ATOM     55  C   UNL A   1      47.746  32.668  30.151  1.00  0.00     0.029 A 
ATOM     56  N   UNL A   1      45.560  32.260  30.158  1.00  0.00    -0.354 N 
ATOM     57  N   UNL A   1      42.729  32.917  30.615  1.00  0.00    -0.248 NA
ATOM     58  C   UNL A   1      41.088  34.380  31.407  1.00  0.00     0.031 C 
ATOM     59  C   UNL A   1      47.091  33.775  30.699  1.00  0.00     0.029 A 
ATOM     60  C   UNL A   1      45.726  33.529  30.686  1.00  0.00     0.049 A 
ATOM     61  H   UNL A   1      44.694  31.810  30.033  1.00  0.00     0.167 HD
ATOM     62  C   UNL A   1      43.338  34.078  31.078  1.00  0.00     0.074 A 
ATOM     63  C   UNL A   1      42.277  34.955  31.529  1.00  0.00     0.031 C 
ATOM     64  C   UNL A   1      44.657  34.391  31.124  1.00  0.00     0.037 A 
BRANCH  51  65
ATOM     65  C   UNL A   1      48.397  29.935  29.021  1.00  0.00     0.058 A 
ATOM     66  C   UNL A   1      49.058  30.204  27.812  1.00  0.00     0.135 A 
ATOM     67  C   UNL A   1      49.104  29.232  30.011  1.00  0.00     0.135 A 
ATOM     68  F   UNL A   1      48.424  30.860  26.827  1.00  0.00    -0.206 F 
ATOM     69  C   UNL A   1      50.357  29.765  27.580  1.00  0.00     0.059 A 
ATOM     70  C   UNL A   1      50.413  28.806  29.810  1.00  0.00     0.059 A 
ATOM     71  F   UNL A   1      48.520  28.947  31.186  1.00  0.00    -0.206 F 
ATOM     72  C   UNL A   1      51.026  29.064  28.585  1.00  0.00     0.060 A 
BRANCH  72  73
ATOM     73  S   UNL A   1      52.711  28.498  28.268  1.00  0.00     0.124 S 
ATOM     74  O   UNL A   1      52.951  29.039  26.933  1.00  0.00    -0.237 OA
ATOM     75  O   UNL A   1      53.462  29.128  29.349  1.00  0.00    -0.237 OA
ATOM     76  O   UNL A   1      52.603  27.046  28.347  1.00  0.00    -0.744 OA
ENDBRANCH  72  73
ENDBRANCH  51  65
BRANCH  52  77
ATOM     77  C   UNL A   1      38.897  32.554  30.725  1.00  0.00     0.058 A 
ATOM     78  C   UNL A   1      38.191  33.392  29.849  1.00  0.00     0.135 A 
ATOM     79  C   UNL A   1      38.224  32.079  31.862  1.00  0.00     0.135 A 
ATOM     80  F   UNL A   1      38.794  33.876  28.753  1.00  0.00    -0.206 F 
ATOM     81  C   UNL A   1      36.872  33.759  30.097  1.00  0.00     0.059 A 
ATOM     82  C   UNL A   1      36.899  32.414  32.119  1.00  0.00     0.059 A 
ATOM     83  F   UNL A   1      38.851  31.260  32.721  1.00  0.00    -0.206 F 
ATOM     84  C   UNL A   1      36.234  33.263  31.235  1.00  0.00     0.060 A 
BRANCH  84  85
ATOM     85  S   UNL A   1      34.506  33.702  31.521  1.00  0.00     0.124 S 
ATOM     86  O   UNL A   1      34.049  32.583  32.335  1.00  0.00    -0.237 OA
ATOM     87  O   UNL A   1      34.623  34.985  32.207  1.00  0.00    -0.237 OA
ATOM     88  O   UNL A   1      33.952  33.771  30.171  1.00  0.00    -0.744 OA
ENDBRANCH  84  85
ENDBRANCH  52  77
BRANCH  64  89
ATOM     89  C   UNL A   1      45.026  35.748  31.652  1.00  0.00     0.058 A 
ATOM     90  C   UNL A   1      45.347  35.948  33.004  1.00  0.00     0.135 A 
ATOM     91  C   UNL A   1      45.108  36.849  30.786  1.00  0.00     0.135 A 
ATOM     92  F   UNL A   1      45.277  34.928  33.873  1.00  0.00    -0.206 F 
ATOM     93  C   UNL A   1      45.720  37.200  33.482  1.00  0.00     0.059 A 
ATOM     94  C   UNL A   1      45.501  38.104  31.238  1.00  0.00     0.059 A 
ATOM     95  F   UNL A   1      44.819  36.708  29.482  1.00  0.00    -0.206 F 
ATOM     96  C   UNL A   1      45.794  38.272  32.591  1.00  0.00     0.060 A 
BRANCH  96  97
ATOM     97  S   UNL A   1      46.312  39.885  33.217  1.00  0.00     0.124 S 
ATOM     98  O   UNL A   1      45.942  40.761  32.111  1.00  0.00    -0.237 OA
ATOM     99  O   UNL A   1      45.512  40.022  34.430  1.00  0.00    -0.237 OA
ATOM    100  O   UNL A   1      47.746  39.719  33.435  1.00  0.00    -0.744 OA
ENDBRANCH  96  97
ENDBRANCH  64  89
ENDBRANCH  38  39
ENDBRANCH  30  33
ENDBRANCH  28  29
ENDBRANCH  27  28
ENDBRANCH  26  27
ENDBRANCH   1  26
TORSDOF 21
ENDMDL
