MODEL 1
REMARK VINA RESULT:     -10.7      0.000      0.000
REMARK SMILES CCC[NH2+][C@]1(C(=O)NCCCCCCNC(=O)c2ccc(-c3c4nc(c(-c5c(F)cc(S(=O)(=O)[O-])cc5F)c5ccc([nH]5)c(-c5c(F)cc(S(=O)(=O)[O-])cc5F)c5nc(c(-c6c(F)cc(S(=O)(=O)[O-])cc6F)c6ccc3[nH]6)C=C5)C=C4)cc2)CCC[C@H](n2ccc(C)n2)C1
REMARK SMILES IDX 11 1 10 2 9 3 8 4 6 5 7 6 5 8 84 9 94 10 85 11 87 12 86 13
REMARK SMILES IDX 4 14 3 17 2 18 1 19 88 20 89 21 93 22 90 23 91 24 92 25
REMARK SMILES IDX 12 26 13 27 14 28 15 29 16 30 17 32 18 33 19 34 83 35 20 36
REMARK SMILES IDX 82 37 21 38 22 39 23 40 76 41 24 42 81 43 75 44 77 45 25 46
REMARK SMILES IDX 80 47 74 48 73 49 26 51 60 52 39 53 59 54 40 55 43 56 58 57
REMARK SMILES IDX 78 58 41 59 42 60 57 62 79 63 44 64 27 65 28 66 37 67 29 68
REMARK SMILES IDX 30 69 36 70 38 71 31 72 32 73 33 74 34 75 35 76 61 77 62 78
REMARK SMILES IDX 71 79 63 80 64 81 70 82 72 83 65 84 66 85 67 86 68 87 69 88
REMARK SMILES IDX 45 89 46 90 55 91 47 92 48 93 54 94 56 95 49 96 50 97 51 98
REMARK SMILES IDX 52 99 53 100
REMARK H PARENT 8 7 4 15 4 16 15 31 77 50 43 61
REMARK Flexibility Score: inf
ROOT
ATOM      1  C   UNL A   1      31.430  27.883  24.875  1.00  0.00     0.002 C 
ENDROOT
BRANCH   1   2
ATOM      2  C   UNL A   1      30.099  27.361  24.323  1.00  0.00     0.021 C 
BRANCH   2   3
ATOM      3  C   UNL A   1      30.062  25.842  24.183  1.00  0.00     0.116 C 
BRANCH   3   4
ATOM      4  N   UNL A   1      29.839  25.220  25.472  1.00  0.00    -0.351 N 
ATOM      5  C   UNL A   1      30.540  24.288  26.176  1.00  0.00     0.281 C 
ATOM      6  O   UNL A   1      30.046  23.974  27.266  1.00  0.00    -0.268 OA
ATOM      7  H   UNL A   1      29.024  25.529  25.927  1.00  0.00     0.163 HD
BRANCH   5   8
ATOM      8  C   UNL A   1      31.935  23.752  25.696  1.00  0.00     0.177 C 
ATOM      9  C   UNL A   1      32.898  24.823  25.139  1.00  0.00     0.079 C 
ATOM     10  C   UNL A   1      32.539  23.021  26.939  1.00  0.00     0.106 C 
ATOM     11  C   UNL A   1      34.324  24.297  24.962  1.00  0.00     0.009 C 
ATOM     12  C   UNL A   1      33.996  22.540  26.788  1.00  0.00     0.114 C 
ATOM     13  C   UNL A   1      34.859  23.707  26.266  1.00  0.00     0.028 C 
BRANCH   8  14
ATOM     14  N   UNL A   1      31.754  22.723  24.641  1.00  0.00    -0.334 N 
ATOM     15  H   UNL A   1      32.491  22.030  24.771  1.00  0.00     0.347 HD
ATOM     16  H   UNL A   1      30.794  22.402  24.776  1.00  0.00     0.347 HD
BRANCH  14  17
ATOM     17  C   UNL A   1      31.792  23.129  23.244  1.00  0.00     0.261 C 
BRANCH  17  18
ATOM     18  C   UNL A   1      32.655  22.149  22.436  1.00  0.00     0.058 C 
ATOM     19  C   UNL A   1      31.892  20.926  21.943  1.00  0.00     0.010 C 
ENDBRANCH  17  18
ENDBRANCH  14  17
ENDBRANCH   8  14
BRANCH  12  20
ATOM     20  N   UNL A   1      34.158  21.298  26.032  1.00  0.00    -0.269 N 
ATOM     21  C   UNL A   1      35.293  20.864  25.400  1.00  0.00     0.109 A 
ATOM     22  N   UNL A   1      33.172  20.377  25.986  1.00  0.00    -0.178 NA
ATOM     23  C   UNL A   1      34.931  19.735  24.704  1.00  0.00     0.045 A 
ATOM     24  C   UNL A   1      33.586  19.507  25.060  1.00  0.00     0.059 A 
ATOM     25  C   UNL A   1      32.664  18.475  24.532  1.00  0.00     0.069 C 
ENDBRANCH  12  20
ENDBRANCH   5   8
ENDBRANCH   3   4
ENDBRANCH   2   3
ENDBRANCH   1   2
BRANCH   1  26
ATOM     26  C   UNL A   1      31.394  28.281  26.355  1.00  0.00     0.002 C 
BRANCH  26  27
ATOM     27  C   UNL A   1      32.542  27.719  27.195  1.00  0.00     0.021 C 
BRANCH  27  28
ATOM     28  C   UNL A   1      33.849  28.490  27.057  1.00  0.00     0.116 C 
BRANCH  28  29
ATOM     29  N   UNL A   1      33.704  29.871  27.489  1.00  0.00    -0.352 N 
ATOM     30  C   UNL A   1      34.573  30.640  28.217  1.00  0.00     0.251 C 
ATOM     31  H   UNL A   1      32.866  30.314  27.221  1.00  0.00     0.163 HD
ATOM     32  O   UNL A   1      34.197  31.708  28.697  1.00  0.00    -0.269 OA
BRANCH  30  33
ATOM     33  C   UNL A   1      35.955  30.169  28.434  1.00  0.00     0.039 A 
ATOM     34  C   UNL A   1      36.871  30.244  27.382  1.00  0.00     0.014 A 
ATOM     35  C   UNL A   1      36.346  29.659  29.675  1.00  0.00     0.014 A 
ATOM     36  C   UNL A   1      38.195  29.855  27.593  1.00  0.00     0.010 A 
ATOM     37  C   UNL A   1      37.682  29.346  29.906  1.00  0.00     0.010 A 
ATOM     38  C   UNL A   1      38.618  29.432  28.865  1.00  0.00    -0.014 A 
BRANCH  38  39
ATOM     39  C   UNL A   1      40.035  29.074  29.123  1.00  0.00     0.031 A 
ATOM     40  C   UNL A   1      40.978  30.095  29.702  1.00  0.00     0.074 A 
ATOM     41  C   UNL A   1      40.485  27.850  28.783  1.00  0.00     0.049 A 
ATOM     42  N   UNL A   1      42.259  29.989  29.946  1.00  0.00    -0.248 NA
ATOM     43  C   UNL A   1      40.413  31.415  30.023  1.00  0.00     0.031 C 
ATOM     44  C   UNL A   1      39.676  26.791  28.174  1.00  0.00     0.029 A 
ATOM     45  N   UNL A   1      41.732  27.289  28.896  1.00  0.00    -0.354 N 
ATOM     46  C   UNL A   1      42.654  31.228  30.439  1.00  0.00     0.074 A 
ATOM     47  C   UNL A   1      41.491  32.087  30.401  1.00  0.00     0.031 C 
ATOM     48  C   UNL A   1      40.441  25.703  27.992  1.00  0.00     0.029 A 
ATOM     49  C   UNL A   1      41.801  25.997  28.429  1.00  0.00     0.049 A 
ATOM     50  H   UNL A   1      42.506  27.767  29.274  1.00  0.00     0.167 HD
ATOM     51  C   UNL A   1      43.869  31.607  30.903  1.00  0.00     0.037 A 
ATOM     52  C   UNL A   1      42.845  25.149  28.355  1.00  0.00     0.037 A 
ATOM     53  C   UNL A   1      45.016  30.738  30.953  1.00  0.00     0.049 A 
ATOM     54  C   UNL A   1      44.190  25.599  28.860  1.00  0.00     0.074 A 
ATOM     55  C   UNL A   1      46.277  31.007  31.454  1.00  0.00     0.029 A 
ATOM     56  N   UNL A   1      45.045  29.434  30.478  1.00  0.00    -0.354 N 
ATOM     57  N   UNL A   1      44.530  26.752  29.385  1.00  0.00    -0.248 NA
ATOM     58  C   UNL A   1      45.291  24.631  28.769  1.00  0.00     0.031 C 
ATOM     59  C   UNL A   1      47.084  29.886  31.233  1.00  0.00     0.029 A 
ATOM     60  C   UNL A   1      46.310  28.895  30.650  1.00  0.00     0.049 A 
ATOM     61  H   UNL A   1      44.280  28.961  30.078  1.00  0.00     0.167 HD
ATOM     62  C   UNL A   1      45.876  26.637  29.716  1.00  0.00     0.074 A 
ATOM     63  C   UNL A   1      46.284  25.299  29.342  1.00  0.00     0.031 C 
ATOM     64  C   UNL A   1      46.699  27.557  30.280  1.00  0.00     0.037 A 
BRANCH  51  65
ATOM     65  C   UNL A   1      44.019  33.023  31.393  1.00  0.00     0.058 A 
ATOM     66  C   UNL A   1      43.777  33.372  32.732  1.00  0.00     0.135 A 
ATOM     67  C   UNL A   1      44.442  34.039  30.520  1.00  0.00     0.135 A 
ATOM     68  F   UNL A   1      43.357  32.445  33.608  1.00  0.00    -0.206 F 
ATOM     69  C   UNL A   1      43.914  34.682  33.180  1.00  0.00     0.059 A 
ATOM     70  C   UNL A   1      44.617  35.350  30.955  1.00  0.00     0.059 A 
ATOM     71  F   UNL A   1      44.688  33.763  29.230  1.00  0.00    -0.206 F 
ATOM     72  C   UNL A   1      44.334  35.665  32.282  1.00  0.00     0.060 A 
BRANCH  72  73
ATOM     73  S   UNL A   1      44.507  37.359  32.880  1.00  0.00     0.124 S 
ATOM     74  O   UNL A   1      44.548  38.107  31.626  1.00  0.00    -0.237 OA
ATOM     75  O   UNL A   1      43.299  37.531  33.682  1.00  0.00    -0.237 OA
ATOM     76  O   UNL A   1      45.757  37.330  33.633  1.00  0.00    -0.744 OA
ENDBRANCH  72  73
ENDBRANCH  51  65
BRANCH  52  77
ATOM     77  C   UNL A   1      42.656  23.783  27.797  1.00  0.00     0.058 A 
ATOM     78  C   UNL A   1      42.627  23.565  26.411  1.00  0.00     0.135 A 
ATOM     79  C   UNL A   1      42.512  22.666  28.635  1.00  0.00     0.135 A 
ATOM     80  F   UNL A   1      42.754  24.601  25.568  1.00  0.00    -0.206 F 
ATOM     81  C   UNL A   1      42.441  22.295  25.876  1.00  0.00     0.059 A 
ATOM     82  C   UNL A   1      42.355  21.381  28.124  1.00  0.00     0.059 A 
ATOM     83  F   UNL A   1      42.551  22.815  29.969  1.00  0.00    -0.206 F 
ATOM     84  C   UNL A   1      42.309  21.208  26.741  1.00  0.00     0.060 A 
BRANCH  84  85
ATOM     85  S   UNL A   1      42.114  19.558  26.034  1.00  0.00     0.124 S 
ATOM     86  O   UNL A   1      43.049  19.604  24.917  1.00  0.00    -0.237 OA
ATOM     87  O   UNL A   1      42.493  18.700  27.152  1.00  0.00    -0.237 OA
ATOM     88  O   UNL A   1      40.700  19.515  25.673  1.00  0.00    -0.744 OA
ENDBRANCH  84  85
ENDBRANCH  52  77
BRANCH  64  89
ATOM     89  C   UNL A   1      48.116  27.137  30.566  1.00  0.00     0.058 A 
ATOM     90  C   UNL A   1      49.161  27.391  29.664  1.00  0.00     0.135 A 
ATOM     91  C   UNL A   1      48.438  26.518  31.784  1.00  0.00     0.135 A 
ATOM     92  F   UNL A   1      48.908  27.973  28.482  1.00  0.00    -0.206 F 
ATOM     93  C   UNL A   1      50.472  27.023  29.950  1.00  0.00     0.059 A 
ATOM     94  C   UNL A   1      49.746  26.173  32.105  1.00  0.00     0.059 A 
ATOM     95  F   UNL A   1      47.479  26.262  32.688  1.00  0.00    -0.206 F 
ATOM     96  C   UNL A   1      50.756  26.417  31.176  1.00  0.00     0.060 A 
BRANCH  96  97
ATOM     97  S   UNL A   1      52.467  25.980  31.548  1.00  0.00     0.124 S 
ATOM     98  O   UNL A   1      52.310  24.658  32.145  1.00  0.00    -0.237 OA
ATOM     99  O   UNL A   1      53.090  26.011  30.228  1.00  0.00    -0.237 OA
ATOM    100  O   UNL A   1      52.896  27.035  32.463  1.00  0.00    -0.744 OA
ENDBRANCH  96  97
ENDBRANCH  64  89
ENDBRANCH  38  39
ENDBRANCH  30  33
ENDBRANCH  28  29
ENDBRANCH  27  28
ENDBRANCH  26  27
ENDBRANCH   1  26
TORSDOF 20
ENDMDL
MODEL 2
REMARK VINA RESULT:     -10.3      2.824      9.123
REMARK SMILES CCC[NH2+][C@]1(C(=O)NCCCCCCNC(=O)c2ccc(-c3c4nc(c(-c5c(F)cc(S(=O)(=O)[O-])cc5F)c5ccc([nH]5)c(-c5c(F)cc(S(=O)(=O)[O-])cc5F)c5nc(c(-c6c(F)cc(S(=O)(=O)[O-])cc6F)c6ccc3[nH]6)C=C5)C=C4)cc2)CCC[C@H](n2ccc(C)n2)C1
REMARK SMILES IDX 11 1 10 2 9 3 8 4 6 5 7 6 5 8 84 9 94 10 85 11 87 12 86 13
REMARK SMILES IDX 4 14 3 17 2 18 1 19 88 20 89 21 93 22 90 23 91 24 92 25
REMARK SMILES IDX 12 26 13 27 14 28 15 29 16 30 17 32 18 33 19 34 83 35 20 36
REMARK SMILES IDX 82 37 21 38 22 39 23 40 76 41 24 42 81 43 75 44 77 45 25 46
REMARK SMILES IDX 80 47 74 48 73 49 26 51 60 52 39 53 59 54 40 55 43 56 58 57
REMARK SMILES IDX 78 58 41 59 42 60 57 62 79 63 44 64 27 65 28 66 37 67 29 68
REMARK SMILES IDX 30 69 36 70 38 71 31 72 32 73 33 74 34 75 35 76 61 77 62 78
REMARK SMILES IDX 71 79 63 80 64 81 70 82 72 83 65 84 66 85 67 86 68 87 69 88
REMARK SMILES IDX 45 89 46 90 55 91 47 92 48 93 54 94 56 95 49 96 50 97 51 98
REMARK SMILES IDX 52 99 53 100
REMARK H PARENT 8 7 4 15 4 16 15 31 77 50 43 61
REMARK Flexibility Score: inf
ROOT
ATOM      1  C   UNL A   1      33.705  21.378  26.207  1.00  0.00     0.002 C 
ENDROOT
BRANCH   1   2
ATOM      2  C   UNL A   1      32.602  21.095  25.181  1.00  0.00     0.021 C 
BRANCH   2   3
ATOM      3  C   UNL A   1      31.815  22.342  24.788  1.00  0.00     0.116 C 
BRANCH   3   4
ATOM      4  N   UNL A   1      30.893  22.711  25.843  1.00  0.00    -0.351 N 
ATOM      5  C   UNL A   1      30.587  23.906  26.418  1.00  0.00     0.281 C 
ATOM      6  O   UNL A   1      29.737  23.854  27.316  1.00  0.00    -0.268 OA
ATOM      7  H   UNL A   1      30.391  21.951  26.216  1.00  0.00     0.163 HD
BRANCH   5   8
ATOM      8  C   UNL A   1      31.175  25.263  25.892  1.00  0.00     0.177 C 
ATOM      9  C   UNL A   1      30.833  26.505  26.742  1.00  0.00     0.079 C 
ATOM     10  C   UNL A   1      32.719  25.030  25.806  1.00  0.00     0.106 C 
ATOM     11  C   UNL A   1      31.662  27.732  26.354  1.00  0.00     0.009 C 
ATOM     12  C   UNL A   1      33.566  26.274  25.470  1.00  0.00     0.114 C 
ATOM     13  C   UNL A   1      33.158  27.427  26.411  1.00  0.00     0.028 C 
BRANCH   8  14
ATOM     14  N   UNL A   1      30.704  25.525  24.509  1.00  0.00    -0.334 N 
ATOM     15  H   UNL A   1      31.507  25.868  23.981  1.00  0.00     0.347 HD
ATOM     16  H   UNL A   1      30.310  24.631  24.213  1.00  0.00     0.347 HD
BRANCH  14  17
ATOM     17  C   UNL A   1      29.619  26.471  24.300  1.00  0.00     0.261 C 
BRANCH  17  18
ATOM     18  C   UNL A   1      29.892  27.314  23.046  1.00  0.00     0.058 C 
ATOM     19  C   UNL A   1      29.769  28.814  23.280  1.00  0.00     0.010 C 
ENDBRANCH  17  18
ENDBRANCH  14  17
ENDBRANCH   8  14
BRANCH  12  20
ATOM     20  N   UNL A   1      33.584  26.642  24.055  1.00  0.00    -0.269 N 
ATOM     21  C   UNL A   1      33.936  27.856  23.526  1.00  0.00     0.109 A 
ATOM     22  N   UNL A   1      33.343  25.724  23.094  1.00  0.00    -0.178 NA
ATOM     23  C   UNL A   1      33.657  27.780  22.183  1.00  0.00     0.045 A 
ATOM     24  C   UNL A   1      33.239  26.449  21.976  1.00  0.00     0.059 A 
ATOM     25  C   UNL A   1      32.726  25.836  20.728  1.00  0.00     0.069 C 
ENDBRANCH  12  20
ENDBRANCH   5   8
ENDBRANCH   3   4
ENDBRANCH   2   3
ENDBRANCH   1   2
BRANCH   1  26
ATOM     26  C   UNL A   1      35.008  21.920  25.609  1.00  0.00     0.002 C 
BRANCH  26  27
ATOM     27  C   UNL A   1      35.593  23.129  26.342  1.00  0.00     0.021 C 
BRANCH  27  28
ATOM     28  C   UNL A   1      36.819  23.731  25.667  1.00  0.00     0.116 C 
BRANCH  28  29
ATOM     29  N   UNL A   1      37.955  22.824  25.713  1.00  0.00    -0.352 N 
ATOM     30  C   UNL A   1      39.240  23.074  26.119  1.00  0.00     0.251 C 
ATOM     31  H   UNL A   1      37.777  21.905  25.409  1.00  0.00     0.163 HD
ATOM     32  O   UNL A   1      40.133  22.266  25.874  1.00  0.00    -0.269 OA
BRANCH  30  33
ATOM     33  C   UNL A   1      39.543  24.328  26.839  1.00  0.00     0.039 A 
ATOM     34  C   UNL A   1      39.077  24.491  28.145  1.00  0.00     0.014 A 
ATOM     35  C   UNL A   1      40.292  25.336  26.225  1.00  0.00     0.014 A 
ATOM     36  C   UNL A   1      39.408  25.647  28.854  1.00  0.00     0.010 A 
ATOM     37  C   UNL A   1      40.685  26.450  26.959  1.00  0.00     0.010 A 
ATOM     38  C   UNL A   1      40.240  26.622  28.278  1.00  0.00    -0.014 A 
BRANCH  38  39
ATOM     39  C   UNL A   1      40.653  27.828  29.039  1.00  0.00     0.031 A 
ATOM     40  C   UNL A   1      41.993  27.866  29.722  1.00  0.00     0.074 A 
ATOM     41  C   UNL A   1      39.797  28.862  29.162  1.00  0.00     0.049 A 
ATOM     42  N   UNL A   1      42.507  28.804  30.477  1.00  0.00    -0.248 NA
ATOM     43  C   UNL A   1      42.857  26.687  29.559  1.00  0.00     0.031 C 
ATOM     44  C   UNL A   1      38.453  28.921  28.582  1.00  0.00     0.029 A 
ATOM     45  N   UNL A   1      39.926  30.059  29.819  1.00  0.00    -0.354 N 
ATOM     46  C   UNL A   1      43.747  28.324  30.885  1.00  0.00     0.074 A 
ATOM     47  C   UNL A   1      43.882  26.989  30.344  1.00  0.00     0.031 C 
ATOM     48  C   UNL A   1      37.894  30.103  28.886  1.00  0.00     0.029 A 
ATOM     49  C   UNL A   1      38.818  30.868  29.717  1.00  0.00     0.049 A 
ATOM     50  H   UNL A   1      40.736  30.316  30.317  1.00  0.00     0.167 HD
ATOM     51  C   UNL A   1      44.697  28.949  31.621  1.00  0.00     0.037 A 
ATOM     52  C   UNL A   1      38.571  32.084  30.241  1.00  0.00     0.037 A 
ATOM     53  C   UNL A   1      44.560  30.286  32.139  1.00  0.00     0.049 A 
ATOM     54  C   UNL A   1      39.636  32.751  31.071  1.00  0.00     0.074 A 
ATOM     55  C   UNL A   1      45.484  31.030  32.850  1.00  0.00     0.029 A 
ATOM     56  N   UNL A   1      43.427  31.076  32.008  1.00  0.00    -0.354 N 
ATOM     57  N   UNL A   1      40.830  32.311  31.391  1.00  0.00    -0.248 NA
ATOM     58  C   UNL A   1      39.322  34.082  31.607  1.00  0.00     0.031 C 
ATOM     59  C   UNL A   1      44.890  32.248  33.197  1.00  0.00     0.029 A 
ATOM     60  C   UNL A   1      43.618  32.289  32.650  1.00  0.00     0.049 A 
ATOM     61  H   UNL A   1      42.607  30.813  31.531  1.00  0.00     0.167 HD
ATOM     62  C   UNL A   1      41.421  33.324  32.138  1.00  0.00     0.074 A 
ATOM     63  C   UNL A   1      40.458  34.403  32.213  1.00  0.00     0.031 C 
ATOM     64  C   UNL A   1      42.651  33.358  32.709  1.00  0.00     0.037 A 
BRANCH  51  65
ATOM     65  C   UNL A   1      45.967  28.193  31.910  1.00  0.00     0.058 A 
ATOM     66  C   UNL A   1      47.087  28.279  31.068  1.00  0.00     0.135 A 
ATOM     67  C   UNL A   1      46.076  27.396  33.062  1.00  0.00     0.135 A 
ATOM     68  F   UNL A   1      47.036  29.014  29.945  1.00  0.00    -0.206 F 
ATOM     69  C   UNL A   1      48.258  27.577  31.337  1.00  0.00     0.059 A 
ATOM     70  C   UNL A   1      47.249  26.711  33.368  1.00  0.00     0.059 A 
ATOM     71  F   UNL A   1      45.037  27.278  33.903  1.00  0.00    -0.206 F 
ATOM     72  C   UNL A   1      48.328  26.794  32.491  1.00  0.00     0.060 A 
BRANCH  72  73
ATOM     73  S   UNL A   1      49.854  25.889  32.825  1.00  0.00     0.124 S 
ATOM     74  O   UNL A   1      50.857  26.809  32.298  1.00  0.00    -0.237 OA
ATOM     75  O   UNL A   1      49.821  25.749  34.277  1.00  0.00    -0.237 OA
ATOM     76  O   UNL A   1      49.685  24.649  32.073  1.00  0.00    -0.744 OA
ENDBRANCH  72  73
ENDBRANCH  51  65
BRANCH  52  77
ATOM     77  C   UNL A   1      37.271  32.758  29.979  1.00  0.00     0.058 A 
ATOM     78  C   UNL A   1      37.154  33.742  28.985  1.00  0.00     0.135 A 
ATOM     79  C   UNL A   1      36.118  32.426  30.707  1.00  0.00     0.135 A 
ATOM     80  F   UNL A   1      38.230  34.099  28.266  1.00  0.00    -0.206 F 
ATOM     81  C   UNL A   1      35.948  34.388  28.737  1.00  0.00     0.059 A 
ATOM     82  C   UNL A   1      34.893  33.036  30.456  1.00  0.00     0.059 A 
ATOM     83  F   UNL A   1      36.170  31.479  31.656  1.00  0.00    -0.206 F 
ATOM     84  C   UNL A   1      34.821  34.025  29.476  1.00  0.00     0.060 A 
BRANCH  84  85
ATOM     85  S   UNL A   1      33.250  34.838  29.113  1.00  0.00     0.124 S 
ATOM     86  O   UNL A   1      33.698  36.120  28.584  1.00  0.00    -0.237 OA
ATOM     87  O   UNL A   1      32.647  33.922  28.149  1.00  0.00    -0.237 OA
ATOM     88  O   UNL A   1      32.591  34.888  30.415  1.00  0.00    -0.744 OA
ENDBRANCH  84  85
ENDBRANCH  52  77
BRANCH  64  89
ATOM     89  C   UNL A   1      43.046  34.617  33.433  1.00  0.00     0.058 A 
ATOM     90  C   UNL A   1      42.825  34.781  34.809  1.00  0.00     0.135 A 
ATOM     91  C   UNL A   1      43.702  35.651  32.746  1.00  0.00     0.135 A 
ATOM     92  F   UNL A   1      42.196  33.827  35.512  1.00  0.00    -0.206 F 
ATOM     93  C   UNL A   1      43.219  35.938  35.474  1.00  0.00     0.059 A 
ATOM     94  C   UNL A   1      44.134  36.802  33.398  1.00  0.00     0.059 A 
ATOM     95  F   UNL A   1      43.948  35.542  31.431  1.00  0.00    -0.206 F 
ATOM     96  C   UNL A   1      43.876  36.942  34.760  1.00  0.00     0.060 A 
BRANCH  96  97
ATOM     97  S   UNL A   1      44.413  38.421  35.645  1.00  0.00     0.124 S 
ATOM     98  O   UNL A   1      43.847  38.193  36.970  1.00  0.00    -0.237 OA
ATOM     99  O   UNL A   1      45.867  38.329  35.552  1.00  0.00    -0.237 OA
ATOM    100  O   UNL A   1      43.809  39.511  34.884  1.00  0.00    -0.744 OA
ENDBRANCH  96  97
ENDBRANCH  64  89
ENDBRANCH  38  39
ENDBRANCH  30  33
ENDBRANCH  28  29
ENDBRANCH  27  28
ENDBRANCH  26  27
ENDBRANCH   1  26
TORSDOF 20
ENDMDL
MODEL 3
REMARK VINA RESULT:     -10.3      2.930      4.342
REMARK SMILES CCC[NH2+][C@]1(C(=O)NCCCCCCNC(=O)c2ccc(-c3c4nc(c(-c5c(F)cc(S(=O)(=O)[O-])cc5F)c5ccc([nH]5)c(-c5c(F)cc(S(=O)(=O)[O-])cc5F)c5nc(c(-c6c(F)cc(S(=O)(=O)[O-])cc6F)c6ccc3[nH]6)C=C5)C=C4)cc2)CCC[C@H](n2ccc(C)n2)C1
REMARK SMILES IDX 11 1 10 2 9 3 8 4 6 5 7 6 5 8 84 9 94 10 85 11 87 12 86 13
REMARK SMILES IDX 4 14 3 17 2 18 1 19 88 20 89 21 93 22 90 23 91 24 92 25
REMARK SMILES IDX 12 26 13 27 14 28 15 29 16 30 17 32 18 33 19 34 83 35 20 36
REMARK SMILES IDX 82 37 21 38 22 39 23 40 76 41 24 42 81 43 75 44 77 45 25 46
REMARK SMILES IDX 80 47 74 48 73 49 26 51 60 52 39 53 59 54 40 55 43 56 58 57
REMARK SMILES IDX 78 58 41 59 42 60 57 62 79 63 44 64 27 65 28 66 37 67 29 68
REMARK SMILES IDX 30 69 36 70 38 71 31 72 32 73 33 74 34 75 35 76 61 77 62 78
REMARK SMILES IDX 71 79 63 80 64 81 70 82 72 83 65 84 66 85 67 86 68 87 69 88
REMARK SMILES IDX 45 89 46 90 55 91 47 92 48 93 54 94 56 95 49 96 50 97 51 98
REMARK SMILES IDX 52 99 53 100
REMARK H PARENT 8 7 4 15 4 16 15 31 77 50 43 61
REMARK Flexibility Score: inf
ROOT
ATOM      1  C   UNL A   1      34.743  29.857  27.983  1.00  0.00     0.002 C 
ENDROOT
BRANCH   1   2
ATOM      2  C   UNL A   1      34.545  29.268  26.582  1.00  0.00     0.021 C 
BRANCH   2   3
ATOM      3  C   UNL A   1      33.152  29.526  26.015  1.00  0.00     0.116 C 
BRANCH   3   4
ATOM      4  N   UNL A   1      33.200  29.596  24.569  1.00  0.00    -0.351 N 
ATOM      5  C   UNL A   1      33.006  28.663  23.597  1.00  0.00     0.281 C 
ATOM      6  O   UNL A   1      33.132  29.078  22.438  1.00  0.00    -0.268 OA
ATOM      7  H   UNL A   1      33.415  30.491  24.222  1.00  0.00     0.163 HD
BRANCH   5   8
ATOM      8  C   UNL A   1      32.530  27.203  23.923  1.00  0.00     0.177 C 
ATOM      9  C   UNL A   1      31.357  27.097  24.920  1.00  0.00     0.079 C 
ATOM     10  C   UNL A   1      32.169  26.574  22.537  1.00  0.00     0.106 C 
ATOM     11  C   UNL A   1      30.753  25.692  24.974  1.00  0.00     0.009 C 
ATOM     12  C   UNL A   1      31.507  25.182  22.586  1.00  0.00     0.114 C 
ATOM     13  C   UNL A   1      30.332  25.220  23.583  1.00  0.00     0.028 C 
BRANCH   8  14
ATOM     14  N   UNL A   1      33.656  26.407  24.472  1.00  0.00    -0.334 N 
ATOM     15  H   UNL A   1      33.766  25.591  23.870  1.00  0.00     0.347 HD
ATOM     16  H   UNL A   1      34.434  27.068  24.495  1.00  0.00     0.347 HD
BRANCH  14  17
ATOM     17  C   UNL A   1      33.575  25.918  25.841  1.00  0.00     0.261 C 
BRANCH  17  18
ATOM     18  C   UNL A   1      34.587  24.784  26.055  1.00  0.00     0.058 C 
ATOM     19  C   UNL A   1      33.975  23.525  26.656  1.00  0.00     0.010 C 
ENDBRANCH  17  18
ENDBRANCH  14  17
ENDBRANCH   8  14
BRANCH  12  20
ATOM     20  N   UNL A   1      32.432  24.070  22.802  1.00  0.00    -0.269 N 
ATOM     21  C   UNL A   1      32.112  22.805  23.221  1.00  0.00     0.109 A 
ATOM     22  N   UNL A   1      33.740  24.180  22.484  1.00  0.00    -0.178 NA
ATOM     23  C   UNL A   1      33.308  22.159  23.423  1.00  0.00     0.045 A 
ATOM     24  C   UNL A   1      34.291  23.078  23.001  1.00  0.00     0.059 A 
ATOM     25  C   UNL A   1      35.764  22.942  23.085  1.00  0.00     0.069 C 
ENDBRANCH  12  20
ENDBRANCH   5   8
ENDBRANCH   3   4
ENDBRANCH   2   3
ENDBRANCH   1   2
BRANCH   1  26
ATOM     26  C   UNL A   1      34.507  31.368  28.078  1.00  0.00     0.002 C 
BRANCH  26  27
ATOM     27  C   UNL A   1      35.764  32.223  27.907  1.00  0.00     0.021 C 
BRANCH  27  28
ATOM     28  C   UNL A   1      36.332  32.762  29.214  1.00  0.00     0.116 C 
BRANCH  28  29
ATOM     29  N   UNL A   1      35.974  31.917  30.342  1.00  0.00    -0.352 N 
ATOM     30  C   UNL A   1      36.617  30.806  30.823  1.00  0.00     0.251 C 
ATOM     31  H   UNL A   1      35.157  32.177  30.826  1.00  0.00     0.163 HD
ATOM     32  O   UNL A   1      36.056  30.072  31.634  1.00  0.00    -0.269 OA
BRANCH  30  33
ATOM     33  C   UNL A   1      37.979  30.492  30.347  1.00  0.00     0.039 A 
ATOM     34  C   UNL A   1      39.038  30.514  31.256  1.00  0.00     0.014 A 
ATOM     35  C   UNL A   1      38.207  30.170  29.006  1.00  0.00     0.014 A 
ATOM     36  C   UNL A   1      40.320  30.162  30.829  1.00  0.00     0.010 A 
ATOM     37  C   UNL A   1      39.467  29.744  28.600  1.00  0.00     0.010 A 
ATOM     38  C   UNL A   1      40.539  29.744  29.505  1.00  0.00    -0.014 A 
BRANCH  38  39
ATOM     39  C   UNL A   1      41.883  29.307  29.050  1.00  0.00     0.031 A 
ATOM     40  C   UNL A   1      43.012  30.298  28.975  1.00  0.00     0.074 A 
ATOM     41  C   UNL A   1      42.068  28.033  28.651  1.00  0.00     0.049 A 
ATOM     42  N   UNL A   1      44.238  30.121  28.551  1.00  0.00    -0.248 NA
ATOM     43  C   UNL A   1      42.721  31.674  29.406  1.00  0.00     0.031 C 
ATOM     44  C   UNL A   1      41.036  26.993  28.635  1.00  0.00     0.029 A 
ATOM     45  N   UNL A   1      43.186  27.397  28.175  1.00  0.00    -0.354 N 
ATOM     46  C   UNL A   1      44.858  31.361  28.656  1.00  0.00     0.074 A 
ATOM     47  C   UNL A   1      43.858  32.295  29.125  1.00  0.00     0.031 C 
ATOM     48  C   UNL A   1      41.577  25.844  28.201  1.00  0.00     0.029 A 
ATOM     49  C   UNL A   1      42.978  26.072  27.865  1.00  0.00     0.049 A 
ATOM     50  H   UNL A   1      44.056  27.845  28.066  1.00  0.00     0.167 HD
ATOM     51  C   UNL A   1      46.150  31.686  28.409  1.00  0.00     0.037 A 
ATOM     52  C   UNL A   1      43.819  25.150  27.358  1.00  0.00     0.037 A 
ATOM     53  C   UNL A   1      47.143  30.744  27.959  1.00  0.00     0.049 A 
ATOM     54  C   UNL A   1      45.246  25.540  27.074  1.00  0.00     0.074 A 
ATOM     55  C   UNL A   1      48.490  30.960  27.730  1.00  0.00     0.029 A 
ATOM     56  N   UNL A   1      46.895  29.411  27.663  1.00  0.00    -0.354 N 
ATOM     57  N   UNL A   1      45.833  26.701  27.242  1.00  0.00    -0.248 NA
ATOM     58  C   UNL A   1      46.125  24.494  26.536  1.00  0.00     0.031 C 
ATOM     59  C   UNL A   1      49.046  29.772  27.244  1.00  0.00     0.029 A 
ATOM     60  C   UNL A   1      48.060  28.799  27.228  1.00  0.00     0.049 A 
ATOM     61  H   UNL A   1      46.022  28.966  27.750  1.00  0.00     0.167 HD
ATOM     62  C   UNL A   1      47.157  26.516  26.862  1.00  0.00     0.074 A 
ATOM     63  C   UNL A   1      47.287  25.129  26.465  1.00  0.00     0.031 C 
ATOM     64  C   UNL A   1      48.175  27.414  26.844  1.00  0.00     0.037 A 
BRANCH  51  65
ATOM     65  C   UNL A   1      46.562  33.120  28.617  1.00  0.00     0.058 A 
ATOM     66  C   UNL A   1      46.504  34.064  27.580  1.00  0.00     0.135 A 
ATOM     67  C   UNL A   1      46.991  33.562  29.879  1.00  0.00     0.135 A 
ATOM     68  F   UNL A   1      46.116  33.695  26.348  1.00  0.00    -0.206 F 
ATOM     69  C   UNL A   1      46.889  35.387  27.776  1.00  0.00     0.059 A 
ATOM     70  C   UNL A   1      47.349  34.888  30.106  1.00  0.00     0.059 A 
ATOM     71  F   UNL A   1      47.066  32.703  30.908  1.00  0.00    -0.206 F 
ATOM     72  C   UNL A   1      47.311  35.789  29.044  1.00  0.00     0.060 A 
BRANCH  72  73
ATOM     73  S   UNL A   1      47.807  37.508  29.281  1.00  0.00     0.124 S 
ATOM     74  O   UNL A   1      49.201  37.470  28.849  1.00  0.00    -0.237 OA
ATOM     75  O   UNL A   1      46.889  38.222  28.398  1.00  0.00    -0.237 OA
ATOM     76  O   UNL A   1      47.599  37.730  30.709  1.00  0.00    -0.744 OA
ENDBRANCH  72  73
ENDBRANCH  51  65
BRANCH  52  77
ATOM     77  C   UNL A   1      43.341  23.764  27.107  1.00  0.00     0.058 A 
ATOM     78  C   UNL A   1      43.140  22.866  28.167  1.00  0.00     0.135 A 
ATOM     79  C   UNL A   1      43.064  23.312  25.808  1.00  0.00     0.135 A 
ATOM     80  F   UNL A   1      43.397  23.249  29.427  1.00  0.00    -0.206 F 
ATOM     81  C   UNL A   1      42.703  21.564  27.946  1.00  0.00     0.059 A 
ATOM     82  C   UNL A   1      42.597  22.024  25.564  1.00  0.00     0.059 A 
ATOM     83  F   UNL A   1      43.221  24.136  24.760  1.00  0.00    -0.206 F 
ATOM     84  C   UNL A   1      42.430  21.153  26.640  1.00  0.00     0.060 A 
BRANCH  84  85
ATOM     85  S   UNL A   1      41.820  19.475  26.371  1.00  0.00     0.124 S 
ATOM     86  O   UNL A   1      40.383  19.699  26.266  1.00  0.00    -0.237 OA
ATOM     87  O   UNL A   1      42.502  19.097  25.138  1.00  0.00    -0.237 OA
ATOM     88  O   UNL A   1      42.262  18.763  27.567  1.00  0.00    -0.744 OA
ENDBRANCH  84  85
ENDBRANCH  52  77
BRANCH  64  89
ATOM     89  C   UNL A   1      49.530  26.918  26.419  1.00  0.00     0.058 A 
ATOM     90  C   UNL A   1      50.420  26.320  27.326  1.00  0.00     0.135 A 
ATOM     91  C   UNL A   1      49.922  26.997  25.072  1.00  0.00     0.135 A 
ATOM     92  F   UNL A   1      50.099  26.225  28.625  1.00  0.00    -0.206 F 
ATOM     93  C   UNL A   1      51.660  25.840  26.916  1.00  0.00     0.059 A 
ATOM     94  C   UNL A   1      51.143  26.494  24.636  1.00  0.00     0.059 A 
ATOM     95  F   UNL A   1      49.106  27.550  24.161  1.00  0.00    -0.206 F 
ATOM     96  C   UNL A   1      52.012  25.928  25.568  1.00  0.00     0.060 A 
BRANCH  96  97
ATOM     97  S   UNL A   1      53.609  25.267  25.047  1.00  0.00     0.124 S 
ATOM     98  O   UNL A   1      53.619  25.607  23.628  1.00  0.00    -0.237 OA
ATOM     99  O   UNL A   1      54.542  26.013  25.885  1.00  0.00    -0.237 OA
ATOM    100  O   UNL A   1      53.502  23.842  25.350  1.00  0.00    -0.744 OA
ENDBRANCH  96  97
ENDBRANCH  64  89
ENDBRANCH  38  39
ENDBRANCH  30  33
ENDBRANCH  28  29
ENDBRANCH  27  28
ENDBRANCH  26  27
ENDBRANCH   1  26
TORSDOF 20
ENDMDL
