MODEL 1
REMARK VINA RESULT:     -11.4      0.000      0.000
REMARK SMILES CCOc1ccc2[nH]c(=O)c(C(=O)NCCCCCCNC(=O)c3ccc(-c4c5nc(c(-c6c(F)cc(S(=O)(=O)[O-])cc6F)c6ccc([nH]6)c(-c6c(F)cc(S(=O)(=O)[O-])cc6F)c6nc(c(-c7c(F)cc(S(=O)(=O)[O-])cc7F)c7ccc4[nH]7)C=C6)C=C5)cc3)cc2c1
REMARK SMILES IDX 18 1 17 2 16 3 15 4 14 5 12 6 13 7 11 9 4 10 5 11 92 12 6 13
REMARK SMILES IDX 91 14 7 15 90 16 8 17 9 18 10 20 3 21 2 22 1 23 19 24 20 25
REMARK SMILES IDX 21 26 22 27 23 29 24 30 25 31 89 32 26 33 88 34 27 35 28 36
REMARK SMILES IDX 29 37 82 38 30 39 87 40 81 41 83 42 31 43 86 44 80 45 79 46
REMARK SMILES IDX 32 48 66 49 45 50 65 51 46 52 49 53 64 54 84 55 47 56 48 57
REMARK SMILES IDX 63 59 85 60 50 61 33 62 34 63 43 64 35 65 36 66 42 67 44 68
REMARK SMILES IDX 37 69 38 70 39 71 40 72 41 73 67 74 68 75 77 76 69 77 70 78
REMARK SMILES IDX 76 79 78 80 71 81 72 82 73 83 74 84 75 85 51 86 52 87 61 88
REMARK SMILES IDX 53 89 54 90 60 91 62 92 55 93 56 94 57 95 58 96 59 97
REMARK H PARENT 14 8 8 19 21 28 83 47 49 58
REMARK Flexibility Score: inf
ROOT
ATOM      1  C   UNL A   1      32.073  26.504  26.237  1.00  0.00     0.002 C 
ENDROOT
BRANCH   1   2
ATOM      2  C   UNL A   1      31.040  26.567  25.108  1.00  0.00     0.002 C 
BRANCH   2   3
ATOM      3  C   UNL A   1      30.859  27.925  24.426  1.00  0.00     0.021 C 
BRANCH   3   4
ATOM      4  C   UNL A   1      31.002  27.945  22.907  1.00  0.00     0.116 C 
BRANCH   4   5
ATOM      5  N   UNL A   1      32.309  28.376  22.439  1.00  0.00    -0.352 N 
ATOM      6  C   UNL A   1      33.402  27.642  22.067  1.00  0.00     0.256 C 
ATOM      7  O   UNL A   1      34.402  28.260  21.690  1.00  0.00    -0.269 OA
ATOM      8  H   UNL A   1      32.426  29.351  22.381  1.00  0.00     0.163 HD
BRANCH   6   9
ATOM      9  C   UNL A   1      33.439  26.154  22.198  1.00  0.00     0.105 A 
ATOM     10  C   UNL A   1      34.251  22.271  25.025  1.00  0.00     0.120 A 
ATOM     11  C   UNL A   1      33.410  21.511  24.214  1.00  0.00     0.048 A 
ATOM     12  C   UNL A   1      34.435  23.635  24.778  1.00  0.00     0.056 A 
ATOM     13  C   UNL A   1      32.864  22.066  23.062  1.00  0.00     0.030 A 
ATOM     14  C   UNL A   1      33.851  24.214  23.645  1.00  0.00     0.003 A 
ATOM     15  C   UNL A   1      33.121  23.401  22.768  1.00  0.00     0.049 A 
ATOM     16  C   UNL A   1      33.913  25.653  23.360  1.00  0.00     0.030 A 
ATOM     17  N   UNL A   1      32.712  23.924  21.540  1.00  0.00    -0.321 N 
ATOM     18  C   UNL A   1      33.010  25.198  21.139  1.00  0.00     0.261 A 
ATOM     19  H   UNL A   1      32.185  23.351  20.937  1.00  0.00     0.170 HD
ATOM     20  O   UNL A   1      32.907  25.507  19.955  1.00  0.00    -0.269 OA
BRANCH  10  21
ATOM     21  O   UNL A   1      34.830  21.713  26.133  1.00  0.00    -0.494 OA
BRANCH  21  22
ATOM     22  C   UNL A   1      33.862  21.241  27.086  1.00  0.00     0.226 C 
ATOM     23  C   UNL A   1      33.231  22.371  27.889  1.00  0.00     0.049 C 
ENDBRANCH  21  22
ENDBRANCH  10  21
ENDBRANCH   6   9
ENDBRANCH   4   5
ENDBRANCH   3   4
ENDBRANCH   2   3
ENDBRANCH   1   2
BRANCH   1  24
ATOM     24  C   UNL A   1      32.157  27.729  27.151  1.00  0.00     0.021 C 
BRANCH  24  25
ATOM     25  C   UNL A   1      33.521  28.407  27.230  1.00  0.00     0.116 C 
BRANCH  25  26
ATOM     26  N   UNL A   1      33.430  29.820  27.554  1.00  0.00    -0.352 N 
ATOM     27  C   UNL A   1      34.359  30.648  28.137  1.00  0.00     0.251 C 
ATOM     28  H   UNL A   1      32.576  30.249  27.320  1.00  0.00     0.163 HD
ATOM     29  O   UNL A   1      34.036  31.783  28.474  1.00  0.00    -0.269 OA
BRANCH  27  30
ATOM     30  C   UNL A   1      35.739  30.167  28.381  1.00  0.00     0.039 A 
ATOM     31  C   UNL A   1      36.665  30.222  27.336  1.00  0.00     0.014 A 
ATOM     32  C   UNL A   1      36.118  29.654  29.624  1.00  0.00     0.014 A 
ATOM     33  C   UNL A   1      37.985  29.821  27.557  1.00  0.00     0.010 A 
ATOM     34  C   UNL A   1      37.451  29.325  29.863  1.00  0.00     0.010 A 
ATOM     35  C   UNL A   1      38.400  29.402  28.831  1.00  0.00    -0.014 A 
BRANCH  35  36
ATOM     36  C   UNL A   1      39.819  29.051  29.102  1.00  0.00     0.031 A 
ATOM     37  C   UNL A   1      40.759  30.075  29.681  1.00  0.00     0.074 A 
ATOM     38  C   UNL A   1      40.275  27.826  28.774  1.00  0.00     0.049 A 
ATOM     39  N   UNL A   1      42.039  29.972  29.932  1.00  0.00    -0.248 NA
ATOM     40  C   UNL A   1      40.192  31.396  29.996  1.00  0.00     0.031 C 
ATOM     41  C   UNL A   1      39.475  26.761  28.164  1.00  0.00     0.029 A 
ATOM     42  N   UNL A   1      41.525  27.269  28.895  1.00  0.00    -0.354 N 
ATOM     43  C   UNL A   1      42.431  31.212  30.423  1.00  0.00     0.074 A 
ATOM     44  C   UNL A   1      41.266  32.069  30.382  1.00  0.00     0.031 C 
ATOM     45  C   UNL A   1      40.245  25.675  27.988  1.00  0.00     0.029 A 
ATOM     46  C   UNL A   1      41.603  25.978  28.429  1.00  0.00     0.049 A 
ATOM     47  H   UNL A   1      42.293  27.750  29.279  1.00  0.00     0.167 HD
ATOM     48  C   UNL A   1      43.645  31.595  30.888  1.00  0.00     0.037 A 
ATOM     49  C   UNL A   1      42.652  25.134  28.355  1.00  0.00     0.037 A 
ATOM     50  C   UNL A   1      44.796  30.731  30.941  1.00  0.00     0.049 A 
ATOM     51  C   UNL A   1      43.994  25.587  28.863  1.00  0.00     0.074 A 
ATOM     52  C   UNL A   1      46.056  31.007  31.445  1.00  0.00     0.029 A 
ATOM     53  N   UNL A   1      44.833  29.426  30.469  1.00  0.00    -0.354 N 
ATOM     54  N   UNL A   1      44.330  26.742  29.386  1.00  0.00    -0.248 NA
ATOM     55  C   UNL A   1      45.099  24.622  28.775  1.00  0.00     0.031 C 
ATOM     56  C   UNL A   1      46.869  29.889  31.227  1.00  0.00     0.029 A 
ATOM     57  C   UNL A   1      46.100  28.894  30.645  1.00  0.00     0.049 A 
ATOM     58  H   UNL A   1      44.071  28.949  30.068  1.00  0.00     0.167 HD
ATOM     59  C   UNL A   1      45.677  26.633  29.716  1.00  0.00     0.074 A 
ATOM     60  C   UNL A   1      46.089  25.295  29.346  1.00  0.00     0.031 C 
ATOM     61  C   UNL A   1      46.498  27.557  30.275  1.00  0.00     0.037 A 
BRANCH  48  62
ATOM     62  C   UNL A   1      43.794  33.012  31.376  1.00  0.00     0.058 A 
ATOM     63  C   UNL A   1      44.139  34.060  30.507  1.00  0.00     0.135 A 
ATOM     64  C   UNL A   1      43.550  33.335  32.721  1.00  0.00     0.135 A 
ATOM     65  F   UNL A   1      44.398  33.810  29.213  1.00  0.00    -0.206 F 
ATOM     66  C   UNL A   1      44.267  35.370  30.959  1.00  0.00     0.059 A 
ATOM     67  C   UNL A   1      43.641  34.643  33.188  1.00  0.00     0.059 A 
ATOM     68  F   UNL A   1      43.217  32.374  33.597  1.00  0.00    -0.206 F 
ATOM     69  C   UNL A   1      44.014  35.652  32.302  1.00  0.00     0.060 A 
BRANCH  69  70
ATOM     70  S   UNL A   1      44.178  37.357  32.870  1.00  0.00     0.124 S 
ATOM     71  O   UNL A   1      44.143  38.089  31.607  1.00  0.00    -0.237 OA
ATOM     72  O   UNL A   1      43.006  37.515  33.724  1.00  0.00    -0.237 OA
ATOM     73  O   UNL A   1      45.462  37.365  33.563  1.00  0.00    -0.744 OA
ENDBRANCH  69  70
ENDBRANCH  48  62
BRANCH  49  74
ATOM     74  C   UNL A   1      42.469  23.768  27.791  1.00  0.00     0.058 A 
ATOM     75  C   UNL A   1      42.394  22.644  28.626  1.00  0.00     0.135 A 
ATOM     76  C   UNL A   1      42.358  23.560  26.406  1.00  0.00     0.135 A 
ATOM     77  F   UNL A   1      42.503  22.789  29.956  1.00  0.00    -0.206 F 
ATOM     78  C   UNL A   1      42.232  21.361  28.112  1.00  0.00     0.059 A 
ATOM     79  C   UNL A   1      42.167  22.291  25.870  1.00  0.00     0.059 A 
ATOM     80  F   UNL A   1      42.408  24.603  25.563  1.00  0.00    -0.206 F 
ATOM     81  C   UNL A   1      42.116  21.195  26.731  1.00  0.00     0.060 A 
BRANCH  81  82
ATOM     82  S   UNL A   1      41.864  19.530  26.077  1.00  0.00     0.124 S 
ATOM     83  O   UNL A   1      40.424  19.519  25.850  1.00  0.00    -0.237 OA
ATOM     84  O   UNL A   1      42.700  19.544  24.881  1.00  0.00    -0.237 OA
ATOM     85  O   UNL A   1      42.341  18.671  27.157  1.00  0.00    -0.744 OA
ENDBRANCH  81  82
ENDBRANCH  49  74
BRANCH  61  86
ATOM     86  C   UNL A   1      47.918  27.146  30.555  1.00  0.00     0.058 A 
ATOM     87  C   UNL A   1      48.937  27.309  29.603  1.00  0.00     0.135 A 
ATOM     88  C   UNL A   1      48.274  26.630  31.812  1.00  0.00     0.135 A 
ATOM     89  F   UNL A   1      48.653  27.790  28.383  1.00  0.00    -0.206 F 
ATOM     90  C   UNL A   1      50.253  26.950  29.879  1.00  0.00     0.059 A 
ATOM     91  C   UNL A   1      49.588  26.296  32.121  1.00  0.00     0.059 A 
ATOM     92  F   UNL A   1      47.341  26.465  32.763  1.00  0.00    -0.206 F 
ATOM     93  C   UNL A   1      50.570  26.449  31.143  1.00  0.00     0.060 A 
BRANCH  93  94
ATOM     94  S   UNL A   1      52.288  26.021  31.498  1.00  0.00     0.124 S 
ATOM     95  O   UNL A   1      52.635  27.017  32.506  1.00  0.00    -0.237 OA
ATOM     96  O   UNL A   1      52.172  24.647  31.978  1.00  0.00    -0.237 OA
ATOM     97  O   UNL A   1      52.951  26.175  30.208  1.00  0.00    -0.744 OA
ENDBRANCH  93  94
ENDBRANCH  61  86
ENDBRANCH  35  36
ENDBRANCH  27  30
ENDBRANCH  25  26
ENDBRANCH  24  25
ENDBRANCH   1  24
TORSDOF 18
ENDMDL
MODEL 2
REMARK VINA RESULT:     -11.2      2.602      3.213
REMARK SMILES CCOc1ccc2[nH]c(=O)c(C(=O)NCCCCCCNC(=O)c3ccc(-c4c5nc(c(-c6c(F)cc(S(=O)(=O)[O-])cc6F)c6ccc([nH]6)c(-c6c(F)cc(S(=O)(=O)[O-])cc6F)c6nc(c(-c7c(F)cc(S(=O)(=O)[O-])cc7F)c7ccc4[nH]7)C=C6)C=C5)cc3)cc2c1
REMARK SMILES IDX 18 1 17 2 16 3 15 4 14 5 12 6 13 7 11 9 4 10 5 11 92 12 6 13
REMARK SMILES IDX 91 14 7 15 90 16 8 17 9 18 10 20 3 21 2 22 1 23 19 24 20 25
REMARK SMILES IDX 21 26 22 27 23 29 24 30 25 31 89 32 26 33 88 34 27 35 28 36
REMARK SMILES IDX 29 37 82 38 30 39 87 40 81 41 83 42 31 43 86 44 80 45 79 46
REMARK SMILES IDX 32 48 66 49 45 50 65 51 46 52 49 53 64 54 84 55 47 56 48 57
REMARK SMILES IDX 63 59 85 60 50 61 33 62 34 63 43 64 35 65 36 66 42 67 44 68
REMARK SMILES IDX 37 69 38 70 39 71 40 72 41 73 67 74 68 75 77 76 69 77 70 78
REMARK SMILES IDX 76 79 78 80 71 81 72 82 73 83 74 84 75 85 51 86 52 87 61 88
REMARK SMILES IDX 53 89 54 90 60 91 62 92 55 93 56 94 57 95 58 96 59 97
REMARK H PARENT 14 8 8 19 21 28 83 47 49 58
REMARK Flexibility Score: inf
ROOT
ATOM      1  C   UNL A   1      31.644  27.853  26.146  1.00  0.00     0.002 C 
ENDROOT
BRANCH   1   2
ATOM      2  C   UNL A   1      31.058  27.103  24.947  1.00  0.00     0.002 C 
BRANCH   2   3
ATOM      3  C   UNL A   1      30.324  27.952  23.906  1.00  0.00     0.021 C 
BRANCH   3   4
ATOM      4  C   UNL A   1      30.872  27.902  22.483  1.00  0.00     0.116 C 
BRANCH   4   5
ATOM      5  N   UNL A   1      32.242  28.372  22.358  1.00  0.00    -0.352 N 
ATOM      6  C   UNL A   1      33.407  27.673  22.202  1.00  0.00     0.256 C 
ATOM      7  O   UNL A   1      34.453  28.322  22.106  1.00  0.00    -0.269 OA
ATOM      8  H   UNL A   1      32.347  29.350  22.390  1.00  0.00     0.163 HD
BRANCH   6   9
ATOM      9  C   UNL A   1      33.446  26.180  22.243  1.00  0.00     0.105 A 
ATOM     10  C   UNL A   1      34.342  22.137  24.808  1.00  0.00     0.120 A 
ATOM     11  C   UNL A   1      33.475  21.425  23.979  1.00  0.00     0.048 A 
ATOM     12  C   UNL A   1      34.520  23.513  24.637  1.00  0.00     0.056 A 
ATOM     13  C   UNL A   1      32.893  22.048  22.880  1.00  0.00     0.030 A 
ATOM     14  C   UNL A   1      33.901  24.157  23.559  1.00  0.00     0.003 A 
ATOM     15  C   UNL A   1      33.143  23.398  22.658  1.00  0.00     0.049 A 
ATOM     16  C   UNL A   1      33.956  25.611  23.357  1.00  0.00     0.030 A 
ATOM     17  N   UNL A   1      32.696  23.992  21.477  1.00  0.00    -0.321 N 
ATOM     18  C   UNL A   1      32.984  25.289  21.143  1.00  0.00     0.261 A 
ATOM     19  H   UNL A   1      32.149  23.456  20.858  1.00  0.00     0.170 HD
ATOM     20  O   UNL A   1      32.844  25.667  19.983  1.00  0.00    -0.269 OA
BRANCH  10  21
ATOM     21  O   UNL A   1      34.955  21.514  25.862  1.00  0.00    -0.494 OA
BRANCH  21  22
ATOM     22  C   UNL A   1      36.390  21.560  25.774  1.00  0.00     0.226 C 
ATOM     23  C   UNL A   1      36.965  20.414  24.952  1.00  0.00     0.049 C 
ENDBRANCH  21  22
ENDBRANCH  10  21
ENDBRANCH   6   9
ENDBRANCH   4   5
ENDBRANCH   3   4
ENDBRANCH   2   3
ENDBRANCH   1   2
BRANCH   1  24
ATOM     24  C   UNL A   1      33.121  27.594  26.455  1.00  0.00     0.021 C 
BRANCH  24  25
ATOM     25  C   UNL A   1      34.104  28.624  25.909  1.00  0.00     0.116 C 
BRANCH  25  26
ATOM     26  N   UNL A   1      33.813  29.975  26.358  1.00  0.00    -0.352 N 
ATOM     27  C   UNL A   1      34.423  30.727  27.333  1.00  0.00     0.251 C 
ATOM     28  H   UNL A   1      33.067  30.419  25.893  1.00  0.00     0.163 HD
ATOM     29  O   UNL A   1      33.929  31.796  27.676  1.00  0.00    -0.269 OA
BRANCH  27  30
ATOM     30  C   UNL A   1      35.660  30.239  27.987  1.00  0.00     0.039 A 
ATOM     31  C   UNL A   1      36.874  30.362  27.306  1.00  0.00     0.014 A 
ATOM     32  C   UNL A   1      35.627  29.652  29.254  1.00  0.00     0.014 A 
ATOM     33  C   UNL A   1      38.060  29.955  27.922  1.00  0.00     0.010 A 
ATOM     34  C   UNL A   1      36.818  29.316  29.896  1.00  0.00     0.010 A 
ATOM     35  C   UNL A   1      38.048  29.461  29.237  1.00  0.00    -0.014 A 
BRANCH  35  36
ATOM     36  C   UNL A   1      39.310  29.101  29.936  1.00  0.00     0.031 A 
ATOM     37  C   UNL A   1      39.749  29.867  31.156  1.00  0.00     0.074 A 
ATOM     38  C   UNL A   1      40.090  28.120  29.438  1.00  0.00     0.049 A 
ATOM     39  N   UNL A   1      40.842  29.737  31.863  1.00  0.00    -0.248 NA
ATOM     40  C   UNL A   1      38.855  30.937  31.627  1.00  0.00     0.031 C 
ATOM     41  C   UNL A   1      39.797  27.335  28.237  1.00  0.00     0.029 A 
ATOM     42  N   UNL A   1      41.293  27.621  29.872  1.00  0.00    -0.354 N 
ATOM     43  C   UNL A   1      40.772  30.710  32.853  1.00  0.00     0.074 A 
ATOM     44  C   UNL A   1      39.557  31.459  32.623  1.00  0.00     0.031 C 
ATOM     45  C   UNL A   1      40.777  26.439  28.045  1.00  0.00     0.029 A 
ATOM     46  C   UNL A   1      41.792  26.613  29.080  1.00  0.00     0.049 A 
ATOM     47  H   UNL A   1      41.755  27.953  30.675  1.00  0.00     0.167 HD
ATOM     48  C   UNL A   1      41.630  30.942  33.876  1.00  0.00     0.037 A 
ATOM     49  C   UNL A   1      42.941  25.914  29.169  1.00  0.00     0.037 A 
ATOM     50  C   UNL A   1      42.831  30.180  34.109  1.00  0.00     0.049 A 
ATOM     51  C   UNL A   1      43.886  26.201  30.305  1.00  0.00     0.074 A 
ATOM     52  C   UNL A   1      43.737  30.301  35.149  1.00  0.00     0.029 A 
ATOM     53  N   UNL A   1      43.297  29.161  33.291  1.00  0.00    -0.354 N 
ATOM     54  N   UNL A   1      43.770  27.080  31.272  1.00  0.00    -0.248 NA
ATOM     55  C   UNL A   1      45.115  25.398  30.366  1.00  0.00     0.031 C 
ATOM     56  C   UNL A   1      44.779  29.394  34.929  1.00  0.00     0.029 A 
ATOM     57  C   UNL A   1      44.491  28.664  33.786  1.00  0.00     0.049 A 
ATOM     58  H   UNL A   1      42.845  28.839  32.477  1.00  0.00     0.167 HD
ATOM     59  C   UNL A   1      44.896  26.917  32.072  1.00  0.00     0.074 A 
ATOM     60  C   UNL A   1      45.673  25.846  31.483  1.00  0.00     0.031 C 
ATOM     61  C   UNL A   1      45.254  27.593  33.192  1.00  0.00     0.037 A 
BRANCH  48  62
ATOM     62  C   UNL A   1      41.305  32.067  34.823  1.00  0.00     0.058 A 
ATOM     63  C   UNL A   1      41.853  33.350  34.662  1.00  0.00     0.135 A 
ATOM     64  C   UNL A   1      40.402  31.873  35.882  1.00  0.00     0.135 A 
ATOM     65  F   UNL A   1      42.733  33.592  33.676  1.00  0.00    -0.206 F 
ATOM     66  C   UNL A   1      41.543  34.390  35.532  1.00  0.00     0.059 A 
ATOM     67  C   UNL A   1      40.053  32.908  36.745  1.00  0.00     0.059 A 
ATOM     68  F   UNL A   1      39.847  30.668  36.084  1.00  0.00    -0.206 F 
ATOM     69  C   UNL A   1      40.641  34.159  36.572  1.00  0.00     0.060 A 
BRANCH  69  70
ATOM     70  S   UNL A   1      40.245  35.522  37.687  1.00  0.00     0.124 S 
ATOM     71  O   UNL A   1      39.827  36.557  36.746  1.00  0.00    -0.237 OA
ATOM     72  O   UNL A   1      39.184  34.951  38.511  1.00  0.00    -0.237 OA
ATOM     73  O   UNL A   1      41.505  35.774  38.379  1.00  0.00    -0.744 OA
ENDBRANCH  69  70
ENDBRANCH  48  62
BRANCH  49  74
ATOM     74  C   UNL A   1      43.253  24.864  28.162  1.00  0.00     0.058 A 
ATOM     75  C   UNL A   1      42.906  23.523  28.383  1.00  0.00     0.135 A 
ATOM     76  C   UNL A   1      43.897  25.180  26.954  1.00  0.00     0.135 A 
ATOM     77  F   UNL A   1      42.297  23.167  29.524  1.00  0.00    -0.206 F 
ATOM     78  C   UNL A   1      43.200  22.530  27.453  1.00  0.00     0.059 A 
ATOM     79  C   UNL A   1      44.175  24.210  25.997  1.00  0.00     0.059 A 
ATOM     80  F   UNL A   1      44.237  26.451  26.686  1.00  0.00    -0.206 F 
ATOM     81  C   UNL A   1      43.833  22.885  26.260  1.00  0.00     0.060 A 
BRANCH  81  82
ATOM     82  S   UNL A   1      44.171  21.594  25.043  1.00  0.00     0.124 S 
ATOM     83  O   UNL A   1      43.119  20.630  25.336  1.00  0.00    -0.237 OA
ATOM     84  O   UNL A   1      44.038  22.322  23.784  1.00  0.00    -0.237 OA
ATOM     85  O   UNL A   1      45.528  21.169  25.374  1.00  0.00    -0.744 OA
ENDBRANCH  81  82
ENDBRANCH  49  74
BRANCH  61  86
ATOM     86  C   UNL A   1      46.526  27.175  33.879  1.00  0.00     0.058 A 
ATOM     87  C   UNL A   1      46.545  26.159  34.847  1.00  0.00     0.135 A 
ATOM     88  C   UNL A   1      47.751  27.764  33.525  1.00  0.00     0.135 A 
ATOM     89  F   UNL A   1      45.404  25.566  35.230  1.00  0.00    -0.206 F 
ATOM     90  C   UNL A   1      47.731  25.760  35.459  1.00  0.00     0.059 A 
ATOM     91  C   UNL A   1      48.952  27.359  34.099  1.00  0.00     0.059 A 
ATOM     92  F   UNL A   1      47.791  28.733  32.596  1.00  0.00    -0.206 F 
ATOM     93  C   UNL A   1      48.929  26.363  35.074  1.00  0.00     0.060 A 
BRANCH  93  94
ATOM     94  S   UNL A   1      50.464  25.811  35.850  1.00  0.00     0.124 S 
ATOM     95  O   UNL A   1      51.368  25.755  34.706  1.00  0.00    -0.237 OA
ATOM     96  O   UNL A   1      50.725  26.876  36.813  1.00  0.00    -0.237 OA
ATOM     97  O   UNL A   1      50.106  24.521  36.432  1.00  0.00    -0.744 OA
ENDBRANCH  93  94
ENDBRANCH  61  86
ENDBRANCH  35  36
ENDBRANCH  27  30
ENDBRANCH  25  26
ENDBRANCH  24  25
ENDBRANCH   1  24
TORSDOF 18
ENDMDL
MODEL 3
REMARK VINA RESULT:     -11.2      4.831     10.410
REMARK SMILES CCOc1ccc2[nH]c(=O)c(C(=O)NCCCCCCNC(=O)c3ccc(-c4c5nc(c(-c6c(F)cc(S(=O)(=O)[O-])cc6F)c6ccc([nH]6)c(-c6c(F)cc(S(=O)(=O)[O-])cc6F)c6nc(c(-c7c(F)cc(S(=O)(=O)[O-])cc7F)c7ccc4[nH]7)C=C6)C=C5)cc3)cc2c1
REMARK SMILES IDX 18 1 17 2 16 3 15 4 14 5 12 6 13 7 11 9 4 10 5 11 92 12 6 13
REMARK SMILES IDX 91 14 7 15 90 16 8 17 9 18 10 20 3 21 2 22 1 23 19 24 20 25
REMARK SMILES IDX 21 26 22 27 23 29 24 30 25 31 89 32 26 33 88 34 27 35 28 36
REMARK SMILES IDX 29 37 82 38 30 39 87 40 81 41 83 42 31 43 86 44 80 45 79 46
REMARK SMILES IDX 32 48 66 49 45 50 65 51 46 52 49 53 64 54 84 55 47 56 48 57
REMARK SMILES IDX 63 59 85 60 50 61 33 62 34 63 43 64 35 65 36 66 42 67 44 68
REMARK SMILES IDX 37 69 38 70 39 71 40 72 41 73 67 74 68 75 77 76 69 77 70 78
REMARK SMILES IDX 76 79 78 80 71 81 72 82 73 83 74 84 75 85 51 86 52 87 61 88
REMARK SMILES IDX 53 89 54 90 60 91 62 92 55 93 56 94 57 95 58 96 59 97
REMARK H PARENT 14 8 8 19 21 28 83 47 49 58
REMARK Flexibility Score: inf
ROOT
ATOM      1  C   UNL A   1      35.963  23.235  26.045  1.00  0.00     0.002 C 
ENDROOT
BRANCH   1   2
ATOM      2  C   UNL A   1      35.017  22.745  24.945  1.00  0.00     0.002 C 
BRANCH   2   3
ATOM      3  C   UNL A   1      34.235  21.463  25.240  1.00  0.00     0.021 C 
BRANCH   3   4
ATOM      4  C   UNL A   1      32.860  21.343  24.588  1.00  0.00     0.116 C 
BRANCH   4   5
ATOM      5  N   UNL A   1      31.750  21.559  25.501  1.00  0.00    -0.352 N 
ATOM      6  C   UNL A   1      31.057  22.700  25.798  1.00  0.00     0.256 C 
ATOM      7  O   UNL A   1      30.134  22.612  26.612  1.00  0.00    -0.269 OA
ATOM      8  H   UNL A   1      31.448  20.755  25.982  1.00  0.00     0.163 HD
BRANCH   6   9
ATOM      9  C   UNL A   1      31.451  24.032  25.246  1.00  0.00     0.105 A 
ATOM     10  C   UNL A   1      33.866  28.217  25.868  1.00  0.00     0.120 A 
ATOM     11  C   UNL A   1      33.963  28.360  24.484  1.00  0.00     0.048 A 
ATOM     12  C   UNL A   1      33.272  27.080  26.425  1.00  0.00     0.056 A 
ATOM     13  C   UNL A   1      33.337  27.447  23.643  1.00  0.00     0.030 A 
ATOM     14  C   UNL A   1      32.679  26.131  25.583  1.00  0.00     0.003 A 
ATOM     15  C   UNL A   1      32.668  26.363  24.201  1.00  0.00     0.049 A 
ATOM     16  C   UNL A   1      32.119  24.866  26.073  1.00  0.00     0.030 A 
ATOM     17  N   UNL A   1      31.906  25.531  23.380  1.00  0.00    -0.321 N 
ATOM     18  C   UNL A   1      31.144  24.502  23.866  1.00  0.00     0.261 A 
ATOM     19  H   UNL A   1      31.917  25.690  22.408  1.00  0.00     0.170 HD
ATOM     20  O   UNL A   1      30.266  24.007  23.166  1.00  0.00    -0.269 OA
BRANCH  10  21
ATOM     21  O   UNL A   1      34.439  29.141  26.699  1.00  0.00    -0.494 OA
BRANCH  21  22
ATOM     22  C   UNL A   1      33.619  30.310  26.877  1.00  0.00     0.226 C 
ATOM     23  C   UNL A   1      34.311  31.392  27.696  1.00  0.00     0.049 C 
ENDBRANCH  21  22
ENDBRANCH  10  21
ENDBRANCH   6   9
ENDBRANCH   4   5
ENDBRANCH   3   4
ENDBRANCH   2   3
ENDBRANCH   1   2
BRANCH   1  24
ATOM     24  C   UNL A   1      37.461  23.127  25.751  1.00  0.00     0.021 C 
BRANCH  24  25
ATOM     25  C   UNL A   1      38.347  24.172  26.421  1.00  0.00     0.116 C 
BRANCH  25  26
ATOM     26  N   UNL A   1      39.761  23.961  26.164  1.00  0.00    -0.352 N 
ATOM     27  C   UNL A   1      40.849  24.677  26.602  1.00  0.00     0.251 C 
ATOM     28  H   UNL A   1      39.971  23.190  25.590  1.00  0.00     0.163 HD
ATOM     29  O   UNL A   1      41.962  24.434  26.146  1.00  0.00    -0.269 OA
BRANCH  27  30
ATOM     30  C   UNL A   1      40.679  25.755  27.604  1.00  0.00     0.039 A 
ATOM     31  C   UNL A   1      39.687  25.617  28.578  1.00  0.00     0.014 A 
ATOM     32  C   UNL A   1      41.480  26.899  27.580  1.00  0.00     0.014 A 
ATOM     33  C   UNL A   1      39.541  26.596  29.564  1.00  0.00     0.010 A 
ATOM     34  C   UNL A   1      41.382  27.838  28.606  1.00  0.00     0.010 A 
ATOM     35  C   UNL A   1      40.410  27.698  29.608  1.00  0.00    -0.014 A 
BRANCH  35  36
ATOM     36  C   UNL A   1      40.320  28.706  30.698  1.00  0.00     0.031 A 
ATOM     37  C   UNL A   1      41.193  28.586  31.920  1.00  0.00     0.074 A 
ATOM     38  C   UNL A   1      39.411  29.698  30.613  1.00  0.00     0.049 A 
ATOM     39  N   UNL A   1      41.216  29.332  32.994  1.00  0.00    -0.248 NA
ATOM     40  C   UNL A   1      42.146  27.465  31.948  1.00  0.00     0.031 C 
ATOM     41  C   UNL A   1      38.477  29.896  29.503  1.00  0.00     0.029 A 
ATOM     42  N   UNL A   1      39.115  30.722  31.479  1.00  0.00    -0.354 N 
ATOM     43  C   UNL A   1      42.175  28.768  33.827  1.00  0.00     0.074 A 
ATOM     44  C   UNL A   1      42.672  27.585  33.159  1.00  0.00     0.031 C 
ATOM     45  C   UNL A   1      37.731  30.986  29.743  1.00  0.00     0.029 A 
ATOM     46  C   UNL A   1      38.100  31.540  31.042  1.00  0.00     0.049 A 
ATOM     47  H   UNL A   1      39.586  30.858  32.332  1.00  0.00     0.167 HD
ATOM     48  C   UNL A   1      42.619  29.208  35.029  1.00  0.00     0.037 A 
ATOM     49  C   UNL A   1      37.522  32.610  31.624  1.00  0.00     0.037 A 
ATOM     50  C   UNL A   1      42.132  30.397  35.682  1.00  0.00     0.049 A 
ATOM     51  C   UNL A   1      38.021  33.071  32.967  1.00  0.00     0.074 A 
ATOM     52  C   UNL A   1      42.556  30.959  36.874  1.00  0.00     0.029 A 
ATOM     53  N   UNL A   1      41.110  31.205  35.202  1.00  0.00    -0.354 N 
ATOM     54  N   UNL A   1      38.976  32.564  33.710  1.00  0.00    -0.248 NA
ATOM     55  C   UNL A   1      37.369  34.252  33.549  1.00  0.00     0.031 C 
ATOM     56  C   UNL A   1      41.753  32.072  37.144  1.00  0.00     0.029 A 
ATOM     57  C   UNL A   1      40.871  32.242  36.089  1.00  0.00     0.049 A 
ATOM     58  H   UNL A   1      40.626  31.061  34.357  1.00  0.00     0.167 HD
ATOM     59  C   UNL A   1      39.058  33.380  34.833  1.00  0.00     0.074 A 
ATOM     60  C   UNL A   1      38.067  34.422  34.665  1.00  0.00     0.031 C 
ATOM     61  C   UNL A   1      39.882  33.277  35.907  1.00  0.00     0.037 A 
BRANCH  48  62
ATOM     62  C   UNL A   1      43.686  28.402  35.722  1.00  0.00     0.058 A 
ATOM     63  C   UNL A   1      45.053  28.634  35.496  1.00  0.00     0.135 A 
ATOM     64  C   UNL A   1      43.340  27.410  36.655  1.00  0.00     0.135 A 
ATOM     65  F   UNL A   1      45.444  29.560  34.604  1.00  0.00    -0.206 F 
ATOM     66  C   UNL A   1      46.036  27.893  36.145  1.00  0.00     0.059 A 
ATOM     67  C   UNL A   1      44.307  26.679  37.339  1.00  0.00     0.059 A 
ATOM     68  F   UNL A   1      42.049  27.144  36.912  1.00  0.00    -0.206 F 
ATOM     69  C   UNL A   1      45.652  26.918  37.066  1.00  0.00     0.060 A 
BRANCH  69  70
ATOM     70  S   UNL A   1      46.941  25.971  37.903  1.00  0.00     0.124 S 
ATOM     71  O   UNL A   1      48.129  26.367  37.151  1.00  0.00    -0.237 OA
ATOM     72  O   UNL A   1      46.861  26.478  39.270  1.00  0.00    -0.237 OA
ATOM     73  O   UNL A   1      46.519  24.586  37.724  1.00  0.00    -0.744 OA
ENDBRANCH  69  70
ENDBRANCH  48  62
BRANCH  49  74
ATOM     74  C   UNL A   1      36.416  33.327  30.932  1.00  0.00     0.058 A 
ATOM     75  C   UNL A   1      35.092  33.221  31.380  1.00  0.00     0.135 A 
ATOM     76  C   UNL A   1      36.663  34.139  29.813  1.00  0.00     0.135 A 
ATOM     77  F   UNL A   1      34.803  32.451  32.440  1.00  0.00    -0.206 F 
ATOM     78  C   UNL A   1      34.048  33.879  30.737  1.00  0.00     0.059 A 
ATOM     79  C   UNL A   1      35.641  34.830  29.170  1.00  0.00     0.059 A 
ATOM     80  F   UNL A   1      37.914  34.287  29.351  1.00  0.00    -0.206 F 
ATOM     81  C   UNL A   1      34.333  34.685  29.634  1.00  0.00     0.060 A 
BRANCH  81  82
ATOM     82  S   UNL A   1      32.977  35.568  28.832  1.00  0.00     0.124 S 
ATOM     83  O   UNL A   1      33.697  36.569  28.054  1.00  0.00    -0.237 OA
ATOM     84  O   UNL A   1      32.333  34.506  28.067  1.00  0.00    -0.237 OA
ATOM     85  O   UNL A   1      32.200  36.081  29.957  1.00  0.00    -0.744 OA
ENDBRANCH  81  82
ENDBRANCH  49  74
BRANCH  61  86
ATOM     86  C   UNL A   1      39.771  34.335  36.971  1.00  0.00     0.058 A 
ATOM     87  C   UNL A   1      38.992  34.148  38.123  1.00  0.00     0.135 A 
ATOM     88  C   UNL A   1      40.498  35.532  36.860  1.00  0.00     0.135 A 
ATOM     89  F   UNL A   1      38.272  33.027  38.279  1.00  0.00    -0.206 F 
ATOM     90  C   UNL A   1      38.916  35.122  39.116  1.00  0.00     0.059 A 
ATOM     91  C   UNL A   1      40.463  36.505  37.854  1.00  0.00     0.059 A 
ATOM     92  F   UNL A   1      41.268  35.758  35.784  1.00  0.00    -0.206 F 
ATOM     93  C   UNL A   1      39.659  36.295  38.973  1.00  0.00     0.060 A 
BRANCH  93  94
ATOM     94  S   UNL A   1      39.579  37.534  40.285  1.00  0.00     0.124 S 
ATOM     95  O   UNL A   1      38.765  38.571  39.660  1.00  0.00    -0.237 OA
ATOM     96  O   UNL A   1      38.943  36.795  41.371  1.00  0.00    -0.237 OA
ATOM     97  O   UNL A   1      40.979  37.884  40.508  1.00  0.00    -0.744 OA
ENDBRANCH  93  94
ENDBRANCH  61  86
ENDBRANCH  35  36
ENDBRANCH  27  30
ENDBRANCH  25  26
ENDBRANCH  24  25
ENDBRANCH   1  24
TORSDOF 18
ENDMDL
