MODEL 1
REMARK VINA RESULT:     -12.0      0.000      0.000
REMARK SMILES O=C(COc1ccccc1/C=C1/SC(=S)N(c2ccc(F)c(Cl)c2)C1=O)NCCCCCCNC(=O)c1ccc(-c2c3nc(c(-c4c(F)cc(S(=O)(=O)[O-])cc4F)c4ccc([nH]4)c(-c4c(F)cc(S(=O)(=O)[O-])cc4F)c4nc(c(-c5c(F)cc(S(=O)(=O)[O-])cc5F)c5ccc2[nH]5)C=C4)C=C3)cc1
REMARK SMILES IDX 30 1 29 2 28 3 27 4 1 5 2 6 3 8 4 9 5 10 6 11 10 12 7 13
REMARK SMILES IDX 9 14 8 15 11 16 12 17 13 18 25 19 14 20 16 21 26 22 15 23
REMARK SMILES IDX 17 24 18 25 24 26 19 27 22 28 20 29 23 30 21 31 31 32 32 33
REMARK SMILES IDX 33 34 34 35 35 36 36 38 37 39 38 40 102 41 39 42 101 43
REMARK SMILES IDX 40 44 41 45 42 46 95 47 43 48 100 49 94 50 96 51 44 52 99 53
REMARK SMILES IDX 93 54 92 55 45 57 79 58 58 59 78 60 59 61 62 62 77 63 97 64
REMARK SMILES IDX 60 65 61 66 76 68 98 69 63 70 46 71 47 72 56 73 48 74 49 75
REMARK SMILES IDX 55 76 57 77 50 78 51 79 52 80 53 81 54 82 80 83 81 84 90 85
REMARK SMILES IDX 82 86 83 87 89 88 91 89 84 90 85 91 86 92 87 93 88 94 64 95
REMARK SMILES IDX 65 96 74 97 66 98 67 99 73 100 75 101 68 102 69 103 70 104
REMARK SMILES IDX 71 105 72 106
REMARK H PARENT 27 7 34 37 96 56 62 67
REMARK Flexibility Score: inf
ROOT
ATOM      1  C   UNL A   1      41.703  22.518  28.622  1.00  0.00     0.002 C 
ENDROOT
BRANCH   1   2
ATOM      2  C   UNL A   1      40.827  21.804  27.586  1.00  0.00     0.021 C 
BRANCH   2   3
ATOM      3  C   UNL A   1      39.980  22.669  26.639  1.00  0.00     0.116 C 
BRANCH   3   4
ATOM      4  N   UNL A   1      39.007  21.973  25.799  1.00  0.00    -0.353 N 
ATOM      5  O   UNL A   1      37.505  23.709  25.892  1.00  0.00    -0.271 OA
ATOM      6  C   UNL A   1      37.823  22.611  25.437  1.00  0.00     0.257 C 
ATOM      7  H   UNL A   1      39.188  21.057  25.489  1.00  0.00     0.163 HD
BRANCH   6   8
ATOM      8  C   UNL A   1      36.913  21.879  24.422  1.00  0.00     0.329 C 
BRANCH   8   9
ATOM      9  O   UNL A   1      35.796  22.581  23.868  1.00  0.00    -0.483 OA
BRANCH   9  10
ATOM     10  C   UNL A   1      34.586  22.211  24.416  1.00  0.00     0.127 A 
ATOM     11  C   UNL A   1      34.537  21.176  25.346  1.00  0.00     0.047 A 
ATOM     12  C   UNL A   1      33.383  22.719  23.891  1.00  0.00     0.018 A 
ATOM     13  C   UNL A   1      33.297  20.723  25.814  1.00  0.00     0.004 A 
ATOM     14  C   UNL A   1      32.152  22.322  24.415  1.00  0.00     0.012 A 
ATOM     15  C   UNL A   1      32.111  21.319  25.377  1.00  0.00     0.001 A 
BRANCH  12  16
ATOM     16  C   UNL A   1      33.412  23.594  22.730  1.00  0.00     0.033 C 
ATOM     17  C   UNL A   1      33.344  24.920  22.881  1.00  0.00     0.081 C 
ATOM     18  S   UNL A   1      32.771  25.913  21.623  1.00  0.00    -0.054 SA
ATOM     19  C   UNL A   1      33.445  25.763  24.121  1.00  0.00     0.270 C 
ATOM     20  C   UNL A   1      31.936  26.951  22.762  1.00  0.00     0.152 C 
ATOM     21  N   UNL A   1      32.596  26.865  23.975  1.00  0.00    -0.261 N 
ATOM     22  O   UNL A   1      34.209  25.539  25.036  1.00  0.00    -0.268 OA
ATOM     23  S   UNL A   1      30.611  27.877  22.336  1.00  0.00    -0.051 S 
BRANCH  21  24
ATOM     24  C   UNL A   1      32.801  28.057  24.721  1.00  0.00     0.052 A 
ATOM     25  C   UNL A   1      31.652  28.712  25.194  1.00  0.00     0.030 A 
ATOM     26  C   UNL A   1      34.050  28.346  25.284  1.00  0.00     0.050 A 
ATOM     27  C   UNL A   1      31.736  29.551  26.304  1.00  0.00     0.043 A 
ATOM     28  C   UNL A   1      34.127  29.188  26.394  1.00  0.00     0.078 A 
ATOM     29  C   UNL A   1      32.969  29.763  26.913  1.00  0.00     0.141 A 
ATOM     30  Cl  UNL A   1      35.648  29.423  27.167  1.00  0.00    -0.081 Cl
ATOM     31  F   UNL A   1      33.013  30.502  28.031  1.00  0.00    -0.205 F 
ENDBRANCH  21  24
ENDBRANCH  12  16
ENDBRANCH   9  10
ENDBRANCH   8   9
ENDBRANCH   6   8
ENDBRANCH   3   4
ENDBRANCH   2   3
ENDBRANCH   1   2
BRANCH   1  32
ATOM     32  C   UNL A   1      43.175  22.682  28.240  1.00  0.00     0.002 C 
BRANCH  32  33
ATOM     33  C   UNL A   1      43.947  23.851  28.813  1.00  0.00     0.021 C 
BRANCH  33  34
ATOM     34  C   UNL A   1      44.148  25.027  27.875  1.00  0.00     0.116 C 
BRANCH  34  35
ATOM     35  N   UNL A   1      43.465  24.935  26.584  1.00  0.00    -0.352 N 
ATOM     36  C   UNL A   1      42.356  25.630  26.137  1.00  0.00     0.251 C 
ATOM     37  H   UNL A   1      43.848  24.290  25.946  1.00  0.00     0.163 HD
ATOM     38  O   UNL A   1      41.898  25.425  25.017  1.00  0.00    -0.269 OA
BRANCH  36  39
ATOM     39  C   UNL A   1      41.680  26.576  27.058  1.00  0.00     0.039 A 
ATOM     40  C   UNL A   1      40.829  26.081  28.048  1.00  0.00     0.014 A 
ATOM     41  C   UNL A   1      42.016  27.927  27.036  1.00  0.00     0.014 A 
ATOM     42  C   UNL A   1      40.440  26.918  29.098  1.00  0.00     0.010 A 
ATOM     43  C   UNL A   1      41.767  28.703  28.160  1.00  0.00     0.010 A 
ATOM     44  C   UNL A   1      40.974  28.213  29.207  1.00  0.00    -0.014 A 
BRANCH  44  45
ATOM     45  C   UNL A   1      40.735  29.068  30.404  1.00  0.00     0.031 A 
ATOM     46  C   UNL A   1      41.590  28.901  31.636  1.00  0.00     0.074 A 
ATOM     47  C   UNL A   1      39.692  29.925  30.423  1.00  0.00     0.049 A 
ATOM     48  N   UNL A   1      41.491  29.493  32.799  1.00  0.00    -0.248 NA
ATOM     49  C   UNL A   1      42.662  27.893  31.574  1.00  0.00     0.031 C 
ATOM     50  C   UNL A   1      38.718  30.108  29.342  1.00  0.00     0.029 A 
ATOM     51  N   UNL A   1      39.272  30.807  31.388  1.00  0.00    -0.354 N 
ATOM     52  C   UNL A   1      42.452  28.896  33.610  1.00  0.00     0.074 A 
ATOM     53  C   UNL A   1      43.066  27.845  32.833  1.00  0.00     0.031 C 
ATOM     54  C   UNL A   1      37.861  31.087  29.676  1.00  0.00     0.029 A 
ATOM     55  C   UNL A   1      38.196  31.576  31.008  1.00  0.00     0.049 A 
ATOM     56  H   UNL A   1      39.702  30.882  32.271  1.00  0.00     0.167 HD
ATOM     57  C   UNL A   1      42.823  29.221  34.871  1.00  0.00     0.037 A 
ATOM     58  C   UNL A   1      37.565  32.576  31.653  1.00  0.00     0.037 A 
ATOM     59  C   UNL A   1      42.264  30.321  35.608  1.00  0.00     0.049 A 
ATOM     60  C   UNL A   1      38.048  32.979  33.020  1.00  0.00     0.074 A 
ATOM     61  C   UNL A   1      42.642  30.812  36.844  1.00  0.00     0.029 A 
ATOM     62  N   UNL A   1      41.213  31.111  35.167  1.00  0.00    -0.354 N 
ATOM     63  N   UNL A   1      39.020  32.464  33.736  1.00  0.00    -0.248 NA
ATOM     64  C   UNL A   1      37.356  34.105  33.662  1.00  0.00     0.031 C 
ATOM     65  C   UNL A   1      41.797  31.881  37.165  1.00  0.00     0.029 A 
ATOM     66  C   UNL A   1      40.918  32.078  36.113  1.00  0.00     0.049 A 
ATOM     67  H   UNL A   1      40.745  31.000  34.308  1.00  0.00     0.167 HD
ATOM     68  C   UNL A   1      39.069  33.215  34.904  1.00  0.00     0.074 A 
ATOM     69  C   UNL A   1      38.042  34.231  34.789  1.00  0.00     0.031 C 
ATOM     70  C   UNL A   1      39.887  33.077  35.978  1.00  0.00     0.037 A 
BRANCH  57  71
ATOM     71  C   UNL A   1      43.898  28.385  35.511  1.00  0.00     0.058 A 
ATOM     72  C   UNL A   1      43.591  27.258  36.295  1.00  0.00     0.135 A 
ATOM     73  C   UNL A   1      45.252  28.720  35.355  1.00  0.00     0.135 A 
ATOM     74  F   UNL A   1      42.313  26.900  36.492  1.00  0.00    -0.206 F 
ATOM     75  C   UNL A   1      44.583  26.528  36.942  1.00  0.00     0.059 A 
ATOM     76  C   UNL A   1      46.263  27.984  35.967  1.00  0.00     0.059 A 
ATOM     77  F   UNL A   1      45.605  29.784  34.617  1.00  0.00    -0.206 F 
ATOM     78  C   UNL A   1      45.915  26.904  36.778  1.00  0.00     0.060 A 
BRANCH  78  79
ATOM     79  S   UNL A   1      47.190  25.962  37.644  1.00  0.00     0.124 S 
ATOM     80  O   UNL A   1      48.198  25.812  36.599  1.00  0.00    -0.237 OA
ATOM     81  O   UNL A   1      47.546  26.852  38.744  1.00  0.00    -0.237 OA
ATOM     82  O   UNL A   1      46.500  24.736  38.032  1.00  0.00    -0.744 OA
ENDBRANCH  78  79
ENDBRANCH  57  71
BRANCH  58  83
ATOM     83  C   UNL A   1      36.459  33.317  30.985  1.00  0.00     0.058 A 
ATOM     84  C   UNL A   1      35.145  33.220  31.466  1.00  0.00     0.135 A 
ATOM     85  C   UNL A   1      36.690  34.146  29.877  1.00  0.00     0.135 A 
ATOM     86  F   UNL A   1      34.873  32.435  32.519  1.00  0.00    -0.206 F 
ATOM     87  C   UNL A   1      34.094  33.910  30.868  1.00  0.00     0.059 A 
ATOM     88  C   UNL A   1      35.659  34.863  29.274  1.00  0.00     0.059 A 
ATOM     89  F   UNL A   1      37.931  34.286  29.388  1.00  0.00    -0.206 F 
ATOM     90  C   UNL A   1      34.363  34.734  29.774  1.00  0.00     0.060 A 
BRANCH  90  91
ATOM     91  S   UNL A   1      33.003  35.674  29.045  1.00  0.00     0.124 S 
ATOM     92  O   UNL A   1      32.371  34.670  28.197  1.00  0.00    -0.237 OA
ATOM     93  O   UNL A   1      32.246  36.083  30.224  1.00  0.00    -0.237 OA
ATOM     94  O   UNL A   1      33.685  36.756  28.342  1.00  0.00    -0.744 OA
ENDBRANCH  90  91
ENDBRANCH  58  83
BRANCH  70  95
ATOM     95  C   UNL A   1      39.711  34.059  37.100  1.00  0.00     0.058 A 
ATOM     96  C   UNL A   1      38.854  33.794  38.179  1.00  0.00     0.135 A 
ATOM     97  C   UNL A   1      40.424  35.269  37.105  1.00  0.00     0.135 A 
ATOM     98  F   UNL A   1      38.149  32.654  38.217  1.00  0.00    -0.206 F 
ATOM     99  C   UNL A   1      38.682  34.712  39.209  1.00  0.00     0.059 A 
ATOM    100  C   UNL A   1      40.286  36.189  38.139  1.00  0.00     0.059 A 
ATOM    101  F   UNL A   1      41.267  35.563  36.103  1.00  0.00    -0.206 F 
ATOM    102  C   UNL A   1      39.398  35.909  39.177  1.00  0.00     0.060 A 
BRANCH 102 103
ATOM    103  S   UNL A   1      39.169  37.093  40.520  1.00  0.00     0.124 S 
ATOM    104  O   UNL A   1      38.620  36.241  41.570  1.00  0.00    -0.237 OA
ATOM    105  O   UNL A   1      40.526  37.582  40.745  1.00  0.00    -0.237 OA
ATOM    106  O   UNL A   1      38.243  38.071  39.955  1.00  0.00    -0.744 OA
ENDBRANCH 102 103
ENDBRANCH  70  95
ENDBRANCH  44  45
ENDBRANCH  36  39
ENDBRANCH  34  35
ENDBRANCH  33  34
ENDBRANCH  32  33
ENDBRANCH   1  32
TORSDOF 20
ENDMDL
MODEL 2
REMARK VINA RESULT:     -11.6      1.800      2.367
REMARK SMILES O=C(COc1ccccc1/C=C1/SC(=S)N(c2ccc(F)c(Cl)c2)C1=O)NCCCCCCNC(=O)c1ccc(-c2c3nc(c(-c4c(F)cc(S(=O)(=O)[O-])cc4F)c4ccc([nH]4)c(-c4c(F)cc(S(=O)(=O)[O-])cc4F)c4nc(c(-c5c(F)cc(S(=O)(=O)[O-])cc5F)c5ccc2[nH]5)C=C4)C=C3)cc1
REMARK SMILES IDX 30 1 29 2 28 3 27 4 1 5 2 6 3 8 4 9 5 10 6 11 10 12 7 13
REMARK SMILES IDX 9 14 8 15 11 16 12 17 13 18 25 19 14 20 16 21 26 22 15 23
REMARK SMILES IDX 17 24 18 25 24 26 19 27 22 28 20 29 23 30 21 31 31 32 32 33
REMARK SMILES IDX 33 34 34 35 35 36 36 38 37 39 38 40 102 41 39 42 101 43
REMARK SMILES IDX 40 44 41 45 42 46 95 47 43 48 100 49 94 50 96 51 44 52 99 53
REMARK SMILES IDX 93 54 92 55 45 57 79 58 58 59 78 60 59 61 62 62 77 63 97 64
REMARK SMILES IDX 60 65 61 66 76 68 98 69 63 70 46 71 47 72 56 73 48 74 49 75
REMARK SMILES IDX 55 76 57 77 50 78 51 79 52 80 53 81 54 82 80 83 81 84 90 85
REMARK SMILES IDX 82 86 83 87 89 88 91 89 84 90 85 91 86 92 87 93 88 94 64 95
REMARK SMILES IDX 65 96 74 97 66 98 67 99 73 100 75 101 68 102 69 103 70 104
REMARK SMILES IDX 71 105 72 106
REMARK H PARENT 27 7 34 37 96 56 62 67
REMARK Flexibility Score: inf
ROOT
ATOM      1  C   UNL A   1      41.554  20.406  26.478  1.00  0.00     0.002 C 
ENDROOT
BRANCH   1   2
ATOM      2  C   UNL A   1      40.039  20.498  26.262  1.00  0.00     0.021 C 
BRANCH   2   3
ATOM      3  C   UNL A   1      39.409  21.896  26.157  1.00  0.00     0.116 C 
BRANCH   3   4
ATOM      4  N   UNL A   1      38.301  22.054  25.216  1.00  0.00    -0.353 N 
ATOM      5  O   UNL A   1      37.623  24.035  26.162  1.00  0.00    -0.271 OA
ATOM      6  C   UNL A   1      37.504  23.194  25.271  1.00  0.00     0.257 C 
ATOM      7  H   UNL A   1      38.121  21.357  24.545  1.00  0.00     0.163 HD
BRANCH   6   8
ATOM      8  C   UNL A   1      36.452  23.370  24.150  1.00  0.00     0.329 C 
BRANCH   8   9
ATOM      9  O   UNL A   1      35.171  23.908  24.487  1.00  0.00    -0.483 OA
BRANCH   9  10
ATOM     10  C   UNL A   1      34.224  22.945  24.766  1.00  0.00     0.127 A 
ATOM     11  C   UNL A   1      34.099  21.838  23.930  1.00  0.00     0.047 A 
ATOM     12  C   UNL A   1      33.247  23.173  25.752  1.00  0.00     0.018 A 
ATOM     13  C   UNL A   1      33.063  20.920  24.146  1.00  0.00     0.004 A 
ATOM     14  C   UNL A   1      32.263  22.219  26.016  1.00  0.00     0.012 A 
ATOM     15  C   UNL A   1      32.170  21.092  25.207  1.00  0.00     0.001 A 
BRANCH  12  16
ATOM     16  C   UNL A   1      33.200  24.452  26.443  1.00  0.00     0.033 C 
ATOM     17  C   UNL A   1      32.437  25.445  25.974  1.00  0.00     0.081 C 
ATOM     18  S   UNL A   1      32.797  27.068  26.344  1.00  0.00    -0.054 SA
ATOM     19  C   UNL A   1      31.389  25.441  24.898  1.00  0.00     0.270 C 
ATOM     20  C   UNL A   1      32.351  27.582  24.730  1.00  0.00     0.152 C 
ATOM     21  N   UNL A   1      31.435  26.670  24.233  1.00  0.00    -0.261 N 
ATOM     22  O   UNL A   1      30.597  24.540  24.724  1.00  0.00    -0.268 OA
ATOM     23  S   UNL A   1      32.953  28.974  24.027  1.00  0.00    -0.051 S 
BRANCH  21  24
ATOM     24  C   UNL A   1      30.314  27.161  23.513  1.00  0.00     0.052 A 
ATOM     25  C   UNL A   1      29.048  26.730  23.943  1.00  0.00     0.030 A 
ATOM     26  C   UNL A   1      30.424  28.294  22.696  1.00  0.00     0.050 A 
ATOM     27  C   UNL A   1      27.919  27.498  23.664  1.00  0.00     0.043 A 
ATOM     28  C   UNL A   1      29.289  29.057  22.420  1.00  0.00     0.078 A 
ATOM     29  C   UNL A   1      28.051  28.670  22.927  1.00  0.00     0.141 A 
ATOM     30  Cl  UNL A   1      29.458  30.525  21.536  1.00  0.00    -0.081 Cl
ATOM     31  F   UNL A   1      26.967  29.438  22.746  1.00  0.00    -0.205 F 
ENDBRANCH  21  24
ENDBRANCH  12  16
ENDBRANCH   9  10
ENDBRANCH   8   9
ENDBRANCH   6   8
ENDBRANCH   3   4
ENDBRANCH   2   3
ENDBRANCH   1   2
BRANCH   1  32
ATOM     32  C   UNL A   1      42.374  21.559  25.895  1.00  0.00     0.002 C 
BRANCH  32  33
ATOM     33  C   UNL A   1      43.371  22.266  26.790  1.00  0.00     0.021 C 
BRANCH  33  34
ATOM     34  C   UNL A   1      43.588  23.738  26.492  1.00  0.00     0.116 C 
BRANCH  34  35
ATOM     35  N   UNL A   1      42.571  24.376  25.656  1.00  0.00    -0.352 N 
ATOM     36  C   UNL A   1      41.772  25.469  25.942  1.00  0.00     0.251 C 
ATOM     37  H   UNL A   1      42.437  23.973  24.768  1.00  0.00     0.163 HD
ATOM     38  O   UNL A   1      40.953  25.876  25.125  1.00  0.00    -0.269 OA
BRANCH  36  39
ATOM     39  C   UNL A   1      41.868  26.098  27.282  1.00  0.00     0.039 A 
ATOM     40  C   UNL A   1      42.729  27.180  27.472  1.00  0.00     0.014 A 
ATOM     41  C   UNL A   1      40.991  25.716  28.294  1.00  0.00     0.014 A 
ATOM     42  C   UNL A   1      42.599  27.965  28.623  1.00  0.00     0.010 A 
ATOM     43  C   UNL A   1      40.754  26.588  29.347  1.00  0.00     0.010 A 
ATOM     44  C   UNL A   1      41.553  27.725  29.530  1.00  0.00    -0.014 A 
BRANCH  44  45
ATOM     45  C   UNL A   1      41.265  28.647  30.664  1.00  0.00     0.031 A 
ATOM     46  C   UNL A   1      42.100  28.587  31.919  1.00  0.00     0.074 A 
ATOM     47  C   UNL A   1      40.196  29.471  30.608  1.00  0.00     0.049 A 
ATOM     48  N   UNL A   1      41.960  29.249  33.039  1.00  0.00    -0.248 NA
ATOM     49  C   UNL A   1      43.202  27.611  31.942  1.00  0.00     0.031 C 
ATOM     50  C   UNL A   1      39.239  29.553  29.500  1.00  0.00     0.029 A 
ATOM     51  N   UNL A   1      39.731  30.400  31.507  1.00  0.00    -0.354 N 
ATOM     52  C   UNL A   1      42.922  28.736  33.904  1.00  0.00     0.074 A 
ATOM     53  C   UNL A   1      43.583  27.657  33.208  1.00  0.00     0.031 C 
ATOM     54  C   UNL A   1      38.346  30.525  29.755  1.00  0.00     0.029 A 
ATOM     55  C   UNL A   1      38.640  31.109  31.058  1.00  0.00     0.049 A 
ATOM     56  H   UNL A   1      40.141  30.545  32.390  1.00  0.00     0.167 HD
ATOM     57  C   UNL A   1      43.258  29.153  35.148  1.00  0.00     0.037 A 
ATOM     58  C   UNL A   1      37.967  32.128  31.625  1.00  0.00     0.037 A 
ATOM     59  C   UNL A   1      42.652  30.280  35.802  1.00  0.00     0.049 A 
ATOM     60  C   UNL A   1      38.410  32.633  32.971  1.00  0.00     0.074 A 
ATOM     61  C   UNL A   1      42.991  30.861  37.010  1.00  0.00     0.029 A 
ATOM     62  N   UNL A   1      41.587  31.007  35.292  1.00  0.00    -0.354 N 
ATOM     63  N   UNL A   1      39.383  32.196  33.736  1.00  0.00    -0.248 NA
ATOM     64  C   UNL A   1      37.672  33.776  33.526  1.00  0.00     0.031 C 
ATOM     65  C   UNL A   1      42.108  31.922  37.245  1.00  0.00     0.029 A 
ATOM     66  C   UNL A   1      41.245  32.023  36.167  1.00  0.00     0.049 A 
ATOM     67  H   UNL A   1      41.139  30.826  34.433  1.00  0.00     0.167 HD
ATOM     68  C   UNL A   1      39.386  33.022  34.854  1.00  0.00     0.074 A 
ATOM     69  C   UNL A   1      38.332  33.996  34.655  1.00  0.00     0.031 C 
ATOM     70  C   UNL A   1      40.186  32.979  35.949  1.00  0.00     0.037 A 
BRANCH  57  71
ATOM     71  C   UNL A   1      44.345  28.394  35.860  1.00  0.00     0.058 A 
ATOM     72  C   UNL A   1      44.054  27.336  36.740  1.00  0.00     0.135 A 
ATOM     73  C   UNL A   1      45.694  28.735  35.676  1.00  0.00     0.135 A 
ATOM     74  F   UNL A   1      42.781  26.977  36.967  1.00  0.00    -0.206 F 
ATOM     75  C   UNL A   1      45.056  26.682  37.450  1.00  0.00     0.059 A 
ATOM     76  C   UNL A   1      46.715  28.072  36.351  1.00  0.00     0.059 A 
ATOM     77  F   UNL A   1      46.032  29.735  34.847  1.00  0.00    -0.206 F 
ATOM     78  C   UNL A   1      46.382  27.063  37.255  1.00  0.00     0.060 A 
BRANCH  78  79
ATOM     79  S   UNL A   1      47.670  26.221  38.201  1.00  0.00     0.124 S 
ATOM     80  O   UNL A   1      48.629  25.889  37.152  1.00  0.00    -0.237 OA
ATOM     81  O   UNL A   1      48.094  27.253  39.141  1.00  0.00    -0.237 OA
ATOM     82  O   UNL A   1      46.968  25.088  38.794  1.00  0.00    -0.744 OA
ENDBRANCH  78  79
ENDBRANCH  57  71
BRANCH  58  83
ATOM     83  C   UNL A   1      36.853  32.789  30.891  1.00  0.00     0.058 A 
ATOM     84  C   UNL A   1      35.523  32.604  31.297  1.00  0.00     0.135 A 
ATOM     85  C   UNL A   1      37.089  33.630  29.793  1.00  0.00     0.135 A 
ATOM     86  F   UNL A   1      35.246  31.805  32.338  1.00  0.00    -0.206 F 
ATOM     87  C   UNL A   1      34.464  33.218  30.636  1.00  0.00     0.059 A 
ATOM     88  C   UNL A   1      36.048  34.273  29.128  1.00  0.00     0.059 A 
ATOM     89  F   UNL A   1      38.344  33.853  29.373  1.00  0.00    -0.206 F 
ATOM     90  C   UNL A   1      34.737  34.055  29.553  1.00  0.00     0.060 A 
BRANCH  90  91
ATOM     91  S   UNL A   1      33.359  34.898  28.743  1.00  0.00     0.124 S 
ATOM     92  O   UNL A   1      32.406  35.027  29.839  1.00  0.00    -0.237 OA
ATOM     93  O   UNL A   1      33.982  36.138  28.289  1.00  0.00    -0.237 OA
ATOM     94  O   UNL A   1      32.980  33.971  27.681  1.00  0.00    -0.744 OA
ENDBRANCH  90  91
ENDBRANCH  58  83
BRANCH  70  95
ATOM     95  C   UNL A   1      39.959  34.026  37.001  1.00  0.00     0.058 A 
ATOM     96  C   UNL A   1      40.519  35.308  36.894  1.00  0.00     0.135 A 
ATOM     97  C   UNL A   1      39.152  33.750  38.117  1.00  0.00     0.135 A 
ATOM     98  F   UNL A   1      41.299  35.618  35.847  1.00  0.00    -0.206 F 
ATOM     99  C   UNL A   1      40.319  36.270  37.876  1.00  0.00     0.059 A 
ATOM    100  C   UNL A   1      38.918  34.707  39.098  1.00  0.00     0.059 A 
ATOM    101  F   UNL A   1      38.582  32.544  38.259  1.00  0.00    -0.206 F 
ATOM    102  C   UNL A   1      39.521  35.958  38.978  1.00  0.00     0.060 A 
BRANCH 102 103
ATOM    103  S   UNL A   1      39.265  37.216  40.247  1.00  0.00     0.124 S 
ATOM    104  O   UNL A   1      40.638  37.574  40.585  1.00  0.00    -0.237 OA
ATOM    105  O   UNL A   1      38.501  38.234  39.533  1.00  0.00    -0.237 OA
ATOM    106  O   UNL A   1      38.526  36.502  41.286  1.00  0.00    -0.744 OA
ENDBRANCH 102 103
ENDBRANCH  70  95
ENDBRANCH  44  45
ENDBRANCH  36  39
ENDBRANCH  34  35
ENDBRANCH  33  34
ENDBRANCH  32  33
ENDBRANCH   1  32
TORSDOF 20
ENDMDL
MODEL 3
REMARK VINA RESULT:     -11.5      1.184      2.030
REMARK SMILES O=C(COc1ccccc1/C=C1/SC(=S)N(c2ccc(F)c(Cl)c2)C1=O)NCCCCCCNC(=O)c1ccc(-c2c3nc(c(-c4c(F)cc(S(=O)(=O)[O-])cc4F)c4ccc([nH]4)c(-c4c(F)cc(S(=O)(=O)[O-])cc4F)c4nc(c(-c5c(F)cc(S(=O)(=O)[O-])cc5F)c5ccc2[nH]5)C=C4)C=C3)cc1
REMARK SMILES IDX 30 1 29 2 28 3 27 4 1 5 2 6 3 8 4 9 5 10 6 11 10 12 7 13
REMARK SMILES IDX 9 14 8 15 11 16 12 17 13 18 25 19 14 20 16 21 26 22 15 23
REMARK SMILES IDX 17 24 18 25 24 26 19 27 22 28 20 29 23 30 21 31 31 32 32 33
REMARK SMILES IDX 33 34 34 35 35 36 36 38 37 39 38 40 102 41 39 42 101 43
REMARK SMILES IDX 40 44 41 45 42 46 95 47 43 48 100 49 94 50 96 51 44 52 99 53
REMARK SMILES IDX 93 54 92 55 45 57 79 58 58 59 78 60 59 61 62 62 77 63 97 64
REMARK SMILES IDX 60 65 61 66 76 68 98 69 63 70 46 71 47 72 56 73 48 74 49 75
REMARK SMILES IDX 55 76 57 77 50 78 51 79 52 80 53 81 54 82 80 83 81 84 90 85
REMARK SMILES IDX 82 86 83 87 89 88 91 89 84 90 85 91 86 92 87 93 88 94 64 95
REMARK SMILES IDX 65 96 74 97 66 98 67 99 73 100 75 101 68 102 69 103 70 104
REMARK SMILES IDX 71 105 72 106
REMARK H PARENT 27 7 34 37 96 56 62 67
REMARK Flexibility Score: inf
ROOT
ATOM      1  C   UNL A   1      38.139  23.627  26.121  1.00  0.00     0.002 C 
ENDROOT
BRANCH   1   2
ATOM      2  C   UNL A   1      36.745  23.699  25.487  1.00  0.00     0.021 C 
BRANCH   2   3
ATOM      3  C   UNL A   1      36.559  23.096  24.085  1.00  0.00     0.116 C 
BRANCH   3   4
ATOM      4  N   UNL A   1      35.196  22.738  23.695  1.00  0.00    -0.353 N 
ATOM      5  O   UNL A   1      35.132  20.937  25.120  1.00  0.00    -0.271 OA
ATOM      6  C   UNL A   1      34.555  21.672  24.320  1.00  0.00     0.257 C 
ATOM      7  H   UNL A   1      34.734  23.249  22.992  1.00  0.00     0.163 HD
BRANCH   6   8
ATOM      8  C   UNL A   1      33.064  21.447  23.970  1.00  0.00     0.329 C 
BRANCH   8   9
ATOM      9  O   UNL A   1      32.248  22.583  23.670  1.00  0.00    -0.483 OA
BRANCH   9  10
ATOM     10  C   UNL A   1      31.469  22.997  24.731  1.00  0.00     0.127 A 
ATOM     11  C   UNL A   1      31.166  22.104  25.754  1.00  0.00     0.047 A 
ATOM     12  C   UNL A   1      30.805  24.237  24.682  1.00  0.00     0.018 A 
ATOM     13  C   UNL A   1      30.280  22.488  26.770  1.00  0.00     0.004 A 
ATOM     14  C   UNL A   1      29.985  24.648  25.735  1.00  0.00     0.012 A 
ATOM     15  C   UNL A   1      29.721  23.768  26.779  1.00  0.00     0.001 A 
BRANCH  12  16
ATOM     16  C   UNL A   1      30.894  25.061  23.488  1.00  0.00     0.033 C 
ATOM     17  C   UNL A   1      31.303  26.331  23.572  1.00  0.00     0.081 C 
ATOM     18  S   UNL A   1      30.857  27.471  22.389  1.00  0.00    -0.054 SA
ATOM     19  C   UNL A   1      31.921  27.079  24.720  1.00  0.00     0.270 C 
ATOM     20  C   UNL A   1      30.658  28.720  23.602  1.00  0.00     0.152 C 
ATOM     21  N   UNL A   1      31.476  28.405  24.673  1.00  0.00    -0.261 N 
ATOM     22  O   UNL A   1      32.730  26.602  25.486  1.00  0.00    -0.268 OA
ATOM     23  S   UNL A   1      29.660  30.042  23.380  1.00  0.00    -0.051 S 
BRANCH  21  24
ATOM     24  C   UNL A   1      32.208  29.450  25.296  1.00  0.00     0.052 A 
ATOM     25  C   UNL A   1      31.460  30.479  25.891  1.00  0.00     0.030 A 
ATOM     26  C   UNL A   1      33.554  29.276  25.644  1.00  0.00     0.050 A 
ATOM     27  C   UNL A   1      32.016  31.242  26.916  1.00  0.00     0.043 A 
ATOM     28  C   UNL A   1      34.104  30.045  26.670  1.00  0.00     0.078 A 
ATOM     29  C   UNL A   1      33.327  31.002  27.317  1.00  0.00     0.141 A 
ATOM     30  Cl  UNL A   1      35.715  29.725  27.188  1.00  0.00    -0.081 Cl
ATOM     31  F   UNL A   1      33.812  31.687  28.362  1.00  0.00    -0.205 F 
ENDBRANCH  21  24
ENDBRANCH  12  16
ENDBRANCH   9  10
ENDBRANCH   8   9
ENDBRANCH   6   8
ENDBRANCH   3   4
ENDBRANCH   2   3
ENDBRANCH   1   2
BRANCH   1  32
ATOM     32  C   UNL A   1      38.806  22.250  26.093  1.00  0.00     0.002 C 
BRANCH  32  33
ATOM     33  C   UNL A   1      40.123  22.068  26.818  1.00  0.00     0.021 C 
BRANCH  33  34
ATOM     34  C   UNL A   1      40.840  23.348  27.206  1.00  0.00     0.116 C 
BRANCH  34  35
ATOM     35  N   UNL A   1      41.627  23.982  26.149  1.00  0.00    -0.352 N 
ATOM     36  C   UNL A   1      41.892  25.326  25.950  1.00  0.00     0.251 C 
ATOM     37  H   UNL A   1      42.023  23.369  25.488  1.00  0.00     0.163 HD
ATOM     38  O   UNL A   1      42.570  25.696  24.997  1.00  0.00    -0.269 OA
BRANCH  36  39
ATOM     39  C   UNL A   1      41.282  26.322  26.865  1.00  0.00     0.039 A 
ATOM     40  C   UNL A   1      40.409  25.892  27.865  1.00  0.00     0.014 A 
ATOM     41  C   UNL A   1      41.702  27.649  26.826  1.00  0.00     0.014 A 
ATOM     42  C   UNL A   1      40.079  26.763  28.907  1.00  0.00     0.010 A 
ATOM     43  C   UNL A   1      41.509  28.451  27.942  1.00  0.00     0.010 A 
ATOM     44  C   UNL A   1      40.694  28.023  29.000  1.00  0.00    -0.014 A 
BRANCH  44  45
ATOM     45  C   UNL A   1      40.516  28.903  30.188  1.00  0.00     0.031 A 
ATOM     46  C   UNL A   1      41.398  28.726  31.400  1.00  0.00     0.074 A 
ATOM     47  C   UNL A   1      39.504  29.796  30.221  1.00  0.00     0.049 A 
ATOM     48  N   UNL A   1      41.350  29.338  32.555  1.00  0.00    -0.248 NA
ATOM     49  C   UNL A   1      42.432  27.681  31.327  1.00  0.00     0.031 C 
ATOM     50  C   UNL A   1      38.508  29.996  29.162  1.00  0.00     0.029 A 
ATOM     51  N   UNL A   1      39.141  30.707  31.182  1.00  0.00    -0.354 N 
ATOM     52  C   UNL A   1      42.311  28.721  33.350  1.00  0.00     0.074 A 
ATOM     53  C   UNL A   1      42.868  27.637  32.574  1.00  0.00     0.031 C 
ATOM     54  C   UNL A   1      37.695  31.010  29.503  1.00  0.00     0.029 A 
ATOM     55  C   UNL A   1      38.082  31.507  30.818  1.00  0.00     0.049 A 
ATOM     56  H   UNL A   1      39.596  30.781  32.052  1.00  0.00     0.167 HD
ATOM     57  C   UNL A   1      42.727  29.052  34.596  1.00  0.00     0.037 A 
ATOM     58  C   UNL A   1      37.503  32.538  31.463  1.00  0.00     0.037 A 
ATOM     59  C   UNL A   1      42.226  30.182  35.330  1.00  0.00     0.049 A 
ATOM     60  C   UNL A   1      38.036  32.945  32.810  1.00  0.00     0.074 A 
ATOM     61  C   UNL A   1      42.653  30.678  36.548  1.00  0.00     0.029 A 
ATOM     62  N   UNL A   1      41.191  31.001  34.904  1.00  0.00    -0.354 N 
ATOM     63  N   UNL A   1      39.008  32.407  33.508  1.00  0.00    -0.248 NA
ATOM     64  C   UNL A   1      37.400  34.103  33.452  1.00  0.00     0.031 C 
ATOM     65  C   UNL A   1      41.855  31.780  36.873  1.00  0.00     0.029 A 
ATOM     66  C   UNL A   1      40.955  31.992  35.841  1.00  0.00     0.049 A 
ATOM     67  H   UNL A   1      40.696  30.893  34.059  1.00  0.00     0.167 HD
ATOM     68  C   UNL A   1      39.114  33.174  34.663  1.00  0.00     0.074 A 
ATOM     69  C   UNL A   1      38.120  34.223  34.558  1.00  0.00     0.031 C 
ATOM     70  C   UNL A   1      39.955  33.024  35.717  1.00  0.00     0.037 A 
BRANCH  57  71
ATOM     71  C   UNL A   1      43.790  28.189  35.221  1.00  0.00     0.058 A 
ATOM     72  C   UNL A   1      43.465  27.099  36.048  1.00  0.00     0.135 A 
ATOM     73  C   UNL A   1      45.150  28.462  35.007  1.00  0.00     0.135 A 
ATOM     74  F   UNL A   1      42.182  26.801  36.302  1.00  0.00    -0.206 F 
ATOM     75  C   UNL A   1      44.449  26.345  36.680  1.00  0.00     0.059 A 
ATOM     76  C   UNL A   1      46.151  27.700  35.603  1.00  0.00     0.059 A 
ATOM     77  F   UNL A   1      45.519  29.489  34.226  1.00  0.00    -0.206 F 
ATOM     78  C   UNL A   1      45.789  26.659  36.458  1.00  0.00     0.060 A 
BRANCH  78  79
ATOM     79  S   UNL A   1      47.055  25.688  37.304  1.00  0.00     0.124 S 
ATOM     80  O   UNL A   1      48.125  26.670  37.446  1.00  0.00    -0.237 OA
ATOM     81  O   UNL A   1      46.382  25.302  38.540  1.00  0.00    -0.237 OA
ATOM     82  O   UNL A   1      47.323  24.597  36.373  1.00  0.00    -0.744 OA
ENDBRANCH  78  79
ENDBRANCH  57  71
BRANCH  58  83
ATOM     83  C   UNL A   1      36.405  33.306  30.812  1.00  0.00     0.058 A 
ATOM     84  C   UNL A   1      35.084  33.188  31.270  1.00  0.00     0.135 A 
ATOM     85  C   UNL A   1      36.651  34.183  29.745  1.00  0.00     0.135 A 
ATOM     86  F   UNL A   1      34.799  32.358  32.284  1.00  0.00    -0.206 F 
ATOM     87  C   UNL A   1      34.042  33.902  30.688  1.00  0.00     0.059 A 
ATOM     88  C   UNL A   1      35.628  34.925  29.160  1.00  0.00     0.059 A 
ATOM     89  F   UNL A   1      37.899  34.345  29.280  1.00  0.00    -0.206 F 
ATOM     90  C   UNL A   1      34.324  34.773  29.635  1.00  0.00     0.060 A 
BRANCH  90  91
ATOM     91  S   UNL A   1      32.974  35.743  28.929  1.00  0.00     0.124 S 
ATOM     92  O   UNL A   1      32.334  34.766  28.055  1.00  0.00    -0.237 OA
ATOM     93  O   UNL A   1      32.219  36.129  30.117  1.00  0.00    -0.237 OA
ATOM     94  O   UNL A   1      33.666  36.837  28.253  1.00  0.00    -0.744 OA
ENDBRANCH  90  91
ENDBRANCH  58  83
BRANCH  70  95
ATOM     95  C   UNL A   1      39.843  34.029  36.827  1.00  0.00     0.058 A 
ATOM     96  C   UNL A   1      40.459  35.286  36.743  1.00  0.00     0.135 A 
ATOM     97  C   UNL A   1      39.091  33.738  37.977  1.00  0.00     0.135 A 
ATOM     98  F   UNL A   1      41.191  35.608  35.665  1.00  0.00    -0.206 F 
ATOM     99  C   UNL A   1      40.366  36.210  37.778  1.00  0.00     0.059 A 
ATOM    100  C   UNL A   1      38.963  34.657  39.012  1.00  0.00     0.059 A 
ATOM    101  F   UNL A   1      38.469  32.555  38.099  1.00  0.00    -0.206 F 
ATOM    102  C   UNL A   1      39.620  35.883  38.912  1.00  0.00     0.060 A 
BRANCH 102 103
ATOM    103  S   UNL A   1      39.502  37.089  40.249  1.00  0.00     0.124 S 
ATOM    104  O   UNL A   1      38.582  36.422  41.164  1.00  0.00    -0.237 OA
ATOM    105  O   UNL A   1      40.885  37.193  40.704  1.00  0.00    -0.237 OA
ATOM    106  O   UNL A   1      38.977  38.280  39.585  1.00  0.00    -0.744 OA
ENDBRANCH 102 103
ENDBRANCH  70  95
ENDBRANCH  44  45
ENDBRANCH  36  39
ENDBRANCH  34  35
ENDBRANCH  33  34
ENDBRANCH  32  33
ENDBRANCH   1  32
TORSDOF 20
ENDMDL
