MODEL 1
REMARK VINA RESULT:     -10.8      0.000      0.000
REMARK SMILES O=C(NCCCCCCNC(=O)c1cnc(-c2ccccc2Cl)nc1)c1ccc(-c2c3nc(c(-c4c(F)cc(S(=O)(=O)[O-])cc4F)c4ccc([nH]4)c(-c4c(F)cc(S(=O)(=O)[O-])cc4F)c4nc(c(-c5c(F)cc(S(=O)(=O)[O-])cc5F)c5ccc2[nH]5)C=C4)C=C3)cc1
REMARK SMILES IDX 5 1 4 2 3 3 1 4 2 5 26 7 27 8 91 9 28 10 90 11 29 12 30 13
REMARK SMILES IDX 31 14 84 15 32 16 89 17 83 18 85 19 33 20 88 21 82 22 81 23
REMARK SMILES IDX 34 25 68 26 47 27 67 28 48 29 51 30 66 31 86 32 49 33 50 34
REMARK SMILES IDX 65 36 87 37 52 38 35 39 36 40 45 41 37 42 38 43 44 44 46 45
REMARK SMILES IDX 39 46 40 47 41 48 42 49 43 50 69 51 70 52 79 53 71 54 72 55
REMARK SMILES IDX 78 56 80 57 73 58 74 59 75 60 76 61 77 62 53 63 54 64 63 65
REMARK SMILES IDX 55 66 56 67 62 68 64 69 57 70 58 71 59 72 60 73 61 74 6 75
REMARK SMILES IDX 7 76 8 77 9 78 10 79 11 80 12 82 13 83 14 84 25 85 15 86
REMARK SMILES IDX 24 87 16 88 17 89 18 90 22 91 19 92 21 93 23 94 20 95
REMARK H PARENT 3 6 85 24 51 35 10 81
REMARK Flexibility Score: inf
ROOT
ATOM      1  C   UNL A   1      33.541  27.788  25.343  1.00  0.00     0.021 C 
ENDROOT
BRANCH   1   2
ATOM      2  C   UNL A   1      34.067  28.089  26.742  1.00  0.00     0.116 C 
BRANCH   2   3
ATOM      3  N   UNL A   1      33.792  29.458  27.144  1.00  0.00    -0.352 N 
ATOM      4  O   UNL A   1      34.075  31.359  28.316  1.00  0.00    -0.269 OA
ATOM      5  C   UNL A   1      34.558  30.311  27.898  1.00  0.00     0.251 C 
ATOM      6  H   UNL A   1      32.935  29.827  26.830  1.00  0.00     0.163 HD
BRANCH   5   7
ATOM      7  C   UNL A   1      35.956  29.955  28.218  1.00  0.00     0.039 A 
ATOM      8  C   UNL A   1      36.298  29.460  29.481  1.00  0.00     0.014 A 
ATOM      9  C   UNL A   1      36.932  30.094  27.229  1.00  0.00     0.014 A 
ATOM     10  C   UNL A   1      37.633  29.211  29.791  1.00  0.00     0.010 A 
ATOM     11  C   UNL A   1      38.260  29.774  27.520  1.00  0.00     0.010 A 
ATOM     12  C   UNL A   1      38.623  29.349  28.808  1.00  0.00    -0.014 A 
BRANCH  12  13
ATOM     13  C   UNL A   1      40.032  28.989  29.106  1.00  0.00     0.031 A 
ATOM     14  C   UNL A   1      40.987  30.014  29.648  1.00  0.00     0.074 A 
ATOM     15  C   UNL A   1      40.457  27.742  28.832  1.00  0.00     0.049 A 
ATOM     16  N   UNL A   1      42.273  29.909  29.863  1.00  0.00    -0.248 NA
ATOM     17  C   UNL A   1      40.425  31.330  29.982  1.00  0.00     0.031 C 
ATOM     18  C   UNL A   1      39.619  26.667  28.297  1.00  0.00     0.029 A 
ATOM     19  N   UNL A   1      41.700  27.173  28.941  1.00  0.00    -0.354 N 
ATOM     20  C   UNL A   1      42.682  31.152  30.331  1.00  0.00     0.074 A 
ATOM     21  C   UNL A   1      41.509  32.001  30.346  1.00  0.00     0.031 C 
ATOM     22  C   UNL A   1      40.371  25.571  28.120  1.00  0.00     0.029 A 
ATOM     23  C   UNL A   1      41.753  25.884  28.466  1.00  0.00     0.049 A 
ATOM     24  H   UNL A   1      42.478  27.641  29.322  1.00  0.00     0.167 HD
ATOM     25  C   UNL A   1      43.923  31.544  30.711  1.00  0.00     0.037 A 
ATOM     26  C   UNL A   1      42.801  25.058  28.282  1.00  0.00     0.037 A 
ATOM     27  C   UNL A   1      45.080  30.685  30.682  1.00  0.00     0.049 A 
ATOM     28  C   UNL A   1      44.175  25.521  28.670  1.00  0.00     0.074 A 
ATOM     29  C   UNL A   1      46.373  30.971  31.085  1.00  0.00     0.029 A 
ATOM     30  N   UNL A   1      45.090  29.381  30.204  1.00  0.00    -0.354 N 
ATOM     31  N   UNL A   1      44.541  26.684  29.154  1.00  0.00    -0.248 NA
ATOM     32  C   UNL A   1      45.277  24.566  28.493  1.00  0.00     0.031 C 
ATOM     33  C   UNL A   1      47.177  29.863  30.792  1.00  0.00     0.029 A 
ATOM     34  C   UNL A   1      46.373  28.860  30.273  1.00  0.00     0.049 A 
ATOM     35  H   UNL A   1      44.302  28.898  29.865  1.00  0.00     0.167 HD
ATOM     36  C   UNL A   1      45.911  26.592  29.367  1.00  0.00     0.074 A 
ATOM     37  C   UNL A   1      46.309  25.261  28.955  1.00  0.00     0.031 C 
ATOM     38  C   UNL A   1      46.755  27.527  29.869  1.00  0.00     0.037 A 
BRANCH  25  39
ATOM     39  C   UNL A   1      44.098  32.976  31.145  1.00  0.00     0.058 A 
ATOM     40  C   UNL A   1      43.846  33.394  32.463  1.00  0.00     0.135 A 
ATOM     41  C   UNL A   1      44.522  33.949  30.225  1.00  0.00     0.135 A 
ATOM     42  F   UNL A   1      43.432  32.509  33.385  1.00  0.00    -0.206 F 
ATOM     43  C   UNL A   1      43.951  34.730  32.837  1.00  0.00     0.059 A 
ATOM     44  C   UNL A   1      44.666  35.287  30.585  1.00  0.00     0.059 A 
ATOM     45  F   UNL A   1      44.787  33.610  28.954  1.00  0.00    -0.206 F 
ATOM     46  C   UNL A   1      44.352  35.671  31.888  1.00  0.00     0.060 A 
BRANCH  46  47
ATOM     47  S   UNL A   1      44.426  37.408  32.373  1.00  0.00     0.124 S 
ATOM     48  O   UNL A   1      43.578  37.413  33.561  1.00  0.00    -0.237 OA
ATOM     49  O   UNL A   1      45.852  37.605  32.612  1.00  0.00    -0.237 OA
ATOM     50  O   UNL A   1      43.884  38.110  31.213  1.00  0.00    -0.744 OA
ENDBRANCH  46  47
ENDBRANCH  25  39
BRANCH  26  51
ATOM     51  C   UNL A   1      42.561  23.718  27.685  1.00  0.00     0.058 A 
ATOM     52  C   UNL A   1      42.620  23.520  26.300  1.00  0.00     0.135 A 
ATOM     53  C   UNL A   1      42.368  22.591  28.502  1.00  0.00     0.135 A 
ATOM     54  F   UNL A   1      42.798  24.566  25.480  1.00  0.00    -0.206 F 
ATOM     55  C   UNL A   1      42.508  22.250  25.742  1.00  0.00     0.059 A 
ATOM     56  C   UNL A   1      42.279  21.309  27.970  1.00  0.00     0.059 A 
ATOM     57  F   UNL A   1      42.324  22.727  29.837  1.00  0.00    -0.206 F 
ATOM     58  C   UNL A   1      42.352  21.149  26.588  1.00  0.00     0.060 A 
BRANCH  58  59
ATOM     59  S   UNL A   1      42.313  19.498  25.857  1.00  0.00     0.124 S 
ATOM     60  O   UNL A   1      42.662  18.662  26.999  1.00  0.00    -0.237 OA
ATOM     61  O   UNL A   1      40.932  19.404  25.394  1.00  0.00    -0.237 OA
ATOM     62  O   UNL A   1      43.315  19.574  24.799  1.00  0.00    -0.744 OA
ENDBRANCH  58  59
ENDBRANCH  26  51
BRANCH  38  63
ATOM     63  C   UNL A   1      48.198  27.143  30.055  1.00  0.00     0.058 A 
ATOM     64  C   UNL A   1      49.172  27.421  29.085  1.00  0.00     0.135 A 
ATOM     65  C   UNL A   1      48.624  26.591  31.275  1.00  0.00     0.135 A 
ATOM     66  F   UNL A   1      48.817  27.936  27.898  1.00  0.00    -0.206 F 
ATOM     67  C   UNL A   1      50.521  27.171  29.321  1.00  0.00     0.059 A 
ATOM     68  C   UNL A   1      49.968  26.359  31.542  1.00  0.00     0.059 A 
ATOM     69  F   UNL A   1      47.731  26.309  32.238  1.00  0.00    -0.206 F 
ATOM     70  C   UNL A   1      50.911  26.654  30.559  1.00  0.00     0.060 A 
BRANCH  70  71
ATOM     71  S   UNL A   1      52.672  26.424  30.887  1.00  0.00     0.124 S 
ATOM     72  O   UNL A   1      53.206  26.270  29.537  1.00  0.00    -0.237 OA
ATOM     73  O   UNL A   1      53.024  27.663  31.571  1.00  0.00    -0.237 OA
ATOM     74  O   UNL A   1      52.710  25.224  31.717  1.00  0.00    -0.744 OA
ENDBRANCH  70  71
ENDBRANCH  38  63
ENDBRANCH  12  13
ENDBRANCH   5   7
ENDBRANCH   2   3
ENDBRANCH   1   2
BRANCH   1  75
ATOM     75  C   UNL A   1      32.938  26.390  25.173  1.00  0.00     0.002 C 
BRANCH  75  76
ATOM     76  C   UNL A   1      31.790  26.295  24.164  1.00  0.00     0.002 C 
BRANCH  76  77
ATOM     77  C   UNL A   1      30.404  26.057  24.772  1.00  0.00     0.021 C 
BRANCH  77  78
ATOM     78  C   UNL A   1      30.414  25.659  26.246  1.00  0.00     0.116 C 
BRANCH  78  79
ATOM     79  N   UNL A   1      29.850  24.332  26.451  1.00  0.00    -0.352 N 
ATOM     80  C   UNL A   1      30.459  23.110  26.335  1.00  0.00     0.254 C 
ATOM     81  H   UNL A   1      28.900  24.310  26.710  1.00  0.00     0.163 HD
ATOM     82  O   UNL A   1      29.801  22.073  26.330  1.00  0.00    -0.269 OA
BRANCH  80  83
ATOM     83  C   UNL A   1      31.910  23.038  26.197  1.00  0.00     0.076 A 
ATOM     84  C   UNL A   1      32.534  22.860  24.985  1.00  0.00     0.129 A 
ATOM     85  C   UNL A   1      32.735  23.161  27.290  1.00  0.00     0.129 A 
ATOM     86  N   UNL A   1      33.868  22.718  24.854  1.00  0.00    -0.236 NA
ATOM     87  N   UNL A   1      34.078  23.028  27.216  1.00  0.00    -0.236 NA
ATOM     88  C   UNL A   1      34.589  22.767  25.994  1.00  0.00     0.160 A 
BRANCH  88  89
ATOM     89  C   UNL A   1      36.030  22.542  25.877  1.00  0.00     0.038 A 
ATOM     90  C   UNL A   1      36.916  23.598  26.182  1.00  0.00     0.013 A 
ATOM     91  C   UNL A   1      36.588  21.328  25.441  1.00  0.00     0.052 A 
ATOM     92  C   UNL A   1      38.301  23.441  26.081  1.00  0.00     0.001 A 
ATOM     93  C   UNL A   1      37.978  21.173  25.340  1.00  0.00     0.021 A 
ATOM     94  Cl  UNL A   1      35.620  19.981  24.940  1.00  0.00    -0.084 Cl
ATOM     95  C   UNL A   1      38.831  22.226  25.663  1.00  0.00     0.002 A 
ENDBRANCH  88  89
ENDBRANCH  80  83
ENDBRANCH  78  79
ENDBRANCH  77  78
ENDBRANCH  76  77
ENDBRANCH  75  76
ENDBRANCH   1  75
TORSDOF 17
ENDMDL
MODEL 2
REMARK VINA RESULT:     -10.7      2.409      3.225
REMARK SMILES O=C(NCCCCCCNC(=O)c1cnc(-c2ccccc2Cl)nc1)c1ccc(-c2c3nc(c(-c4c(F)cc(S(=O)(=O)[O-])cc4F)c4ccc([nH]4)c(-c4c(F)cc(S(=O)(=O)[O-])cc4F)c4nc(c(-c5c(F)cc(S(=O)(=O)[O-])cc5F)c5ccc2[nH]5)C=C4)C=C3)cc1
REMARK SMILES IDX 5 1 4 2 3 3 1 4 2 5 26 7 27 8 91 9 28 10 90 11 29 12 30 13
REMARK SMILES IDX 31 14 84 15 32 16 89 17 83 18 85 19 33 20 88 21 82 22 81 23
REMARK SMILES IDX 34 25 68 26 47 27 67 28 48 29 51 30 66 31 86 32 49 33 50 34
REMARK SMILES IDX 65 36 87 37 52 38 35 39 36 40 45 41 37 42 38 43 44 44 46 45
REMARK SMILES IDX 39 46 40 47 41 48 42 49 43 50 69 51 70 52 79 53 71 54 72 55
REMARK SMILES IDX 78 56 80 57 73 58 74 59 75 60 76 61 77 62 53 63 54 64 63 65
REMARK SMILES IDX 55 66 56 67 62 68 64 69 57 70 58 71 59 72 60 73 61 74 6 75
REMARK SMILES IDX 7 76 8 77 9 78 10 79 11 80 12 82 13 83 14 84 25 85 15 86
REMARK SMILES IDX 24 87 16 88 17 89 18 90 22 91 19 92 21 93 23 94 20 95
REMARK H PARENT 3 6 85 24 51 35 10 81
REMARK Flexibility Score: inf
ROOT
ATOM      1  C   UNL A   1      34.239  30.188  26.904  1.00  0.00     0.021 C 
ENDROOT
BRANCH   1   2
ATOM      2  C   UNL A   1      35.268  29.668  27.903  1.00  0.00     0.116 C 
BRANCH   2   3
ATOM      3  N   UNL A   1      35.228  30.401  29.156  1.00  0.00    -0.352 N 
ATOM      4  O   UNL A   1      35.944  31.047  31.191  1.00  0.00    -0.269 OA
ATOM      5  C   UNL A   1      36.217  30.576  30.091  1.00  0.00     0.251 C 
ATOM      6  H   UNL A   1      34.368  30.834  29.366  1.00  0.00     0.163 HD
BRANCH   5   7
ATOM      7  C   UNL A   1      37.605  30.180  29.775  1.00  0.00     0.039 A 
ATOM      8  C   UNL A   1      38.075  30.209  28.458  1.00  0.00     0.014 A 
ATOM      9  C   UNL A   1      38.454  29.801  30.816  1.00  0.00     0.014 A 
ATOM     10  C   UNL A   1      39.358  29.751  28.168  1.00  0.00     0.010 A 
ATOM     11  C   UNL A   1      39.765  29.412  30.532  1.00  0.00     0.010 A 
ATOM     12  C   UNL A   1      40.221  29.365  29.204  1.00  0.00    -0.014 A 
BRANCH  12  13
ATOM     13  C   UNL A   1      41.621  28.973  28.909  1.00  0.00     0.031 A 
ATOM     14  C   UNL A   1      42.720  29.998  28.900  1.00  0.00     0.074 A 
ATOM     15  C   UNL A   1      41.886  27.691  28.596  1.00  0.00     0.049 A 
ATOM     16  N   UNL A   1      43.974  29.858  28.559  1.00  0.00    -0.248 NA
ATOM     17  C   UNL A   1      42.357  31.359  29.318  1.00  0.00     0.031 C 
ATOM     18  C   UNL A   1      40.897  26.612  28.568  1.00  0.00     0.029 A 
ATOM     19  N   UNL A   1      43.056  27.081  28.221  1.00  0.00    -0.354 N 
ATOM     20  C   UNL A   1      44.547  31.117  28.694  1.00  0.00     0.074 A 
ATOM     21  C   UNL A   1      43.495  32.012  29.126  1.00  0.00     0.031 C 
ATOM     22  C   UNL A   1      41.499  25.475  28.190  1.00  0.00     0.029 A 
ATOM     23  C   UNL A   1      42.898  25.757  27.888  1.00  0.00     0.049 A 
ATOM     24  H   UNL A   1      43.923  27.546  28.192  1.00  0.00     0.167 HD
ATOM     25  C   UNL A   1      45.833  31.487  28.476  1.00  0.00     0.037 A 
ATOM     26  C   UNL A   1      43.765  24.875  27.355  1.00  0.00     0.037 A 
ATOM     27  C   UNL A   1      46.866  30.581  28.038  1.00  0.00     0.049 A 
ATOM     28  C   UNL A   1      45.175  25.311  27.081  1.00  0.00     0.074 A 
ATOM     29  C   UNL A   1      48.208  30.844  27.828  1.00  0.00     0.029 A 
ATOM     30  N   UNL A   1      46.667  29.243  27.722  1.00  0.00    -0.354 N 
ATOM     31  N   UNL A   1      45.716  26.494  27.256  1.00  0.00    -0.248 NA
ATOM     32  C   UNL A   1      46.095  24.301  26.542  1.00  0.00     0.031 C 
ATOM     33  C   UNL A   1      48.807  29.684  27.325  1.00  0.00     0.029 A 
ATOM     34  C   UNL A   1      47.856  28.676  27.290  1.00  0.00     0.049 A 
ATOM     35  H   UNL A   1      45.809  28.767  27.795  1.00  0.00     0.167 HD
ATOM     36  C   UNL A   1      47.046  26.363  26.876  1.00  0.00     0.074 A 
ATOM     37  C   UNL A   1      47.228  24.988  26.458  1.00  0.00     0.031 C 
ATOM     38  C   UNL A   1      48.026  27.300  26.885  1.00  0.00     0.037 A 
BRANCH  25  39
ATOM     39  C   UNL A   1      46.180  32.941  28.661  1.00  0.00     0.058 A 
ATOM     40  C   UNL A   1      46.108  33.867  27.607  1.00  0.00     0.135 A 
ATOM     41  C   UNL A   1      46.596  33.416  29.916  1.00  0.00     0.135 A 
ATOM     42  F   UNL A   1      45.723  33.469  26.383  1.00  0.00    -0.206 F 
ATOM     43  C   UNL A   1      46.490  35.194  27.775  1.00  0.00     0.059 A 
ATOM     44  C   UNL A   1      46.952  34.748  30.116  1.00  0.00     0.059 A 
ATOM     45  F   UNL A   1      46.675  32.582  30.964  1.00  0.00    -0.206 F 
ATOM     46  C   UNL A   1      46.921  35.622  29.031  1.00  0.00     0.060 A 
BRANCH  46  47
ATOM     47  S   UNL A   1      47.470  37.332  29.219  1.00  0.00     0.124 S 
ATOM     48  O   UNL A   1      47.544  37.765  27.827  1.00  0.00    -0.237 OA
ATOM     49  O   UNL A   1      46.393  37.921  30.008  1.00  0.00    -0.237 OA
ATOM     50  O   UNL A   1      48.752  37.206  29.906  1.00  0.00    -0.744 OA
ENDBRANCH  46  47
ENDBRANCH  25  39
BRANCH  26  51
ATOM     51  C   UNL A   1      43.291  23.502  27.041  1.00  0.00     0.058 A 
ATOM     52  C   UNL A   1      43.052  23.102  25.721  1.00  0.00     0.135 A 
ATOM     53  C   UNL A   1      43.166  22.536  28.053  1.00  0.00     0.135 A 
ATOM     54  F   UNL A   1      43.155  23.991  24.721  1.00  0.00    -0.206 F 
ATOM     55  C   UNL A   1      42.716  21.788  25.409  1.00  0.00     0.059 A 
ATOM     56  C   UNL A   1      42.857  21.211  27.764  1.00  0.00     0.059 A 
ATOM     57  F   UNL A   1      43.404  22.867  29.333  1.00  0.00    -0.206 F 
ATOM     58  C   UNL A   1      42.636  20.847  26.438  1.00  0.00     0.060 A 
BRANCH  58  59
ATOM     59  S   UNL A   1      42.301  19.125  26.008  1.00  0.00     0.124 S 
ATOM     60  O   UNL A   1      42.744  18.430  27.211  1.00  0.00    -0.237 OA
ATOM     61  O   UNL A   1      40.860  19.144  25.776  1.00  0.00    -0.237 OA
ATOM     62  O   UNL A   1      43.117  18.910  24.817  1.00  0.00    -0.744 OA
ENDBRANCH  58  59
ENDBRANCH  26  51
BRANCH  38  63
ATOM     63  C   UNL A   1      49.411  26.873  26.478  1.00  0.00     0.058 A 
ATOM     64  C   UNL A   1      50.263  26.183  27.352  1.00  0.00     0.135 A 
ATOM     65  C   UNL A   1      49.841  27.063  25.153  1.00  0.00     0.135 A 
ATOM     66  F   UNL A   1      49.907  25.988  28.631  1.00  0.00    -0.206 F 
ATOM     67  C   UNL A   1      51.492  25.688  26.925  1.00  0.00     0.059 A 
ATOM     68  C   UNL A   1      51.051  26.553  24.699  1.00  0.00     0.059 A 
ATOM     69  F   UNL A   1      49.060  27.714  24.276  1.00  0.00    -0.206 F 
ATOM     70  C   UNL A   1      51.871  25.865  25.592  1.00  0.00     0.060 A 
BRANCH  70  71
ATOM     71  S   UNL A   1      53.423  25.136  25.028  1.00  0.00     0.124 S 
ATOM     72  O   UNL A   1      53.423  25.497  23.614  1.00  0.00    -0.237 OA
ATOM     73  O   UNL A   1      54.408  25.822  25.858  1.00  0.00    -0.237 OA
ATOM     74  O   UNL A   1      53.255  23.714  25.312  1.00  0.00    -0.744 OA
ENDBRANCH  70  71
ENDBRANCH  38  63
ENDBRANCH  12  13
ENDBRANCH   5   7
ENDBRANCH   2   3
ENDBRANCH   1   2
BRANCH   1  75
ATOM     75  C   UNL A   1      32.841  29.580  27.051  1.00  0.00     0.002 C 
BRANCH  75  76
ATOM     76  C   UNL A   1      32.774  28.058  26.904  1.00  0.00     0.002 C 
BRANCH  76  77
ATOM     77  C   UNL A   1      31.476  27.516  26.299  1.00  0.00     0.021 C 
BRANCH  77  78
ATOM     78  C   UNL A   1      31.592  27.053  24.849  1.00  0.00     0.116 C 
BRANCH  78  79
ATOM     79  N   UNL A   1      30.870  25.809  24.619  1.00  0.00    -0.352 N 
ATOM     80  C   UNL A   1      31.363  24.538  24.492  1.00  0.00     0.254 C 
ATOM     81  H   UNL A   1      29.891  25.894  24.546  1.00  0.00     0.163 HD
ATOM     82  O   UNL A   1      30.652  23.621  24.089  1.00  0.00    -0.269 OA
BRANCH  80  83
ATOM     83  C   UNL A   1      32.759  24.268  24.824  1.00  0.00     0.076 A 
ATOM     84  C   UNL A   1      33.763  24.285  23.885  1.00  0.00     0.129 A 
ATOM     85  C   UNL A   1      33.143  23.996  26.115  1.00  0.00     0.129 A 
ATOM     86  N   UNL A   1      35.042  23.967  24.165  1.00  0.00    -0.236 NA
ATOM     87  N   UNL A   1      34.410  23.672  26.452  1.00  0.00    -0.236 NA
ATOM     88  C   UNL A   1      35.307  23.629  25.445  1.00  0.00     0.160 A 
BRANCH  88  89
ATOM     89  C   UNL A   1      36.676  23.211  25.750  1.00  0.00     0.038 A 
ATOM     90  C   UNL A   1      37.589  24.164  26.248  1.00  0.00     0.013 A 
ATOM     91  C   UNL A   1      37.147  21.903  25.541  1.00  0.00     0.052 A 
ATOM     92  C   UNL A   1      38.910  23.822  26.549  1.00  0.00     0.001 A 
ATOM     93  C   UNL A   1      38.473  21.562  25.844  1.00  0.00     0.021 A 
ATOM     94  Cl  UNL A   1      36.166  20.655  24.845  1.00  0.00    -0.084 Cl
ATOM     95  C   UNL A   1      39.350  22.519  26.350  1.00  0.00     0.002 A 
ENDBRANCH  88  89
ENDBRANCH  80  83
ENDBRANCH  78  79
ENDBRANCH  77  78
ENDBRANCH  76  77
ENDBRANCH  75  76
ENDBRANCH   1  75
TORSDOF 17
ENDMDL
MODEL 3
REMARK VINA RESULT:     -10.6      3.621      6.297
REMARK SMILES O=C(NCCCCCCNC(=O)c1cnc(-c2ccccc2Cl)nc1)c1ccc(-c2c3nc(c(-c4c(F)cc(S(=O)(=O)[O-])cc4F)c4ccc([nH]4)c(-c4c(F)cc(S(=O)(=O)[O-])cc4F)c4nc(c(-c5c(F)cc(S(=O)(=O)[O-])cc5F)c5ccc2[nH]5)C=C4)C=C3)cc1
REMARK SMILES IDX 5 1 4 2 3 3 1 4 2 5 26 7 27 8 91 9 28 10 90 11 29 12 30 13
REMARK SMILES IDX 31 14 84 15 32 16 89 17 83 18 85 19 33 20 88 21 82 22 81 23
REMARK SMILES IDX 34 25 68 26 47 27 67 28 48 29 51 30 66 31 86 32 49 33 50 34
REMARK SMILES IDX 65 36 87 37 52 38 35 39 36 40 45 41 37 42 38 43 44 44 46 45
REMARK SMILES IDX 39 46 40 47 41 48 42 49 43 50 69 51 70 52 79 53 71 54 72 55
REMARK SMILES IDX 78 56 80 57 73 58 74 59 75 60 76 61 77 62 53 63 54 64 63 65
REMARK SMILES IDX 55 66 56 67 62 68 64 69 57 70 58 71 59 72 60 73 61 74 6 75
REMARK SMILES IDX 7 76 8 77 9 78 10 79 11 80 12 82 13 83 14 84 25 85 15 86
REMARK SMILES IDX 24 87 16 88 17 89 18 90 22 91 19 92 21 93 23 94 20 95
REMARK H PARENT 3 6 85 24 51 35 10 81
REMARK Flexibility Score: inf
ROOT
ATOM      1  C   UNL A   1      35.005  33.482  28.046  1.00  0.00     0.021 C 
ENDROOT
BRANCH   1   2
ATOM      2  C   UNL A   1      34.463  32.463  29.043  1.00  0.00     0.116 C 
BRANCH   2   3
ATOM      3  N   UNL A   1      33.826  31.339  28.380  1.00  0.00    -0.352 N 
ATOM      4  O   UNL A   1      33.729  29.446  27.166  1.00  0.00    -0.269 OA
ATOM      5  C   UNL A   1      34.390  30.193  27.881  1.00  0.00     0.251 C 
ATOM      6  H   UNL A   1      32.849  31.409  28.274  1.00  0.00     0.163 HD
BRANCH   5   7
ATOM      7  C   UNL A   1      35.798  29.870  28.195  1.00  0.00     0.039 A 
ATOM      8  C   UNL A   1      36.812  30.101  27.260  1.00  0.00     0.014 A 
ATOM      9  C   UNL A   1      36.108  29.353  29.455  1.00  0.00     0.014 A 
ATOM     10  C   UNL A   1      38.119  29.712  27.541  1.00  0.00     0.010 A 
ATOM     11  C   UNL A   1      37.432  29.031  29.762  1.00  0.00     0.010 A 
ATOM     12  C   UNL A   1      38.444  29.189  28.801  1.00  0.00    -0.014 A 
BRANCH  12  13
ATOM     13  C   UNL A   1      39.852  28.867  29.140  1.00  0.00     0.031 A 
ATOM     14  C   UNL A   1      40.757  29.910  29.730  1.00  0.00     0.074 A 
ATOM     15  C   UNL A   1      40.324  27.638  28.860  1.00  0.00     0.049 A 
ATOM     16  N   UNL A   1      42.038  29.840  29.986  1.00  0.00    -0.248 NA
ATOM     17  C   UNL A   1      40.145  31.203  30.066  1.00  0.00     0.031 C 
ATOM     18  C   UNL A   1      39.537  26.547  28.280  1.00  0.00     0.029 A 
ATOM     19  N   UNL A   1      41.579  27.104  29.001  1.00  0.00    -0.354 N 
ATOM     20  C   UNL A   1      42.393  31.086  30.488  1.00  0.00     0.074 A 
ATOM     21  C   UNL A   1      41.195  31.899  30.478  1.00  0.00     0.031 C 
ATOM     22  C   UNL A   1      40.327  25.478  28.111  1.00  0.00     0.029 A 
ATOM     23  C   UNL A   1      41.687  25.826  28.508  1.00  0.00     0.049 A 
ATOM     24  H   UNL A   1      42.330  27.588  29.416  1.00  0.00     0.167 HD
ATOM     25  C   UNL A   1      43.608  31.509  30.916  1.00  0.00     0.037 A 
ATOM     26  C   UNL A   1      42.765  25.034  28.346  1.00  0.00     0.037 A 
ATOM     27  C   UNL A   1      44.792  30.685  30.912  1.00  0.00     0.049 A 
ATOM     28  C   UNL A   1      44.110  25.531  28.787  1.00  0.00     0.074 A 
ATOM     29  C   UNL A   1      46.061  31.002  31.362  1.00  0.00     0.029 A 
ATOM     30  N   UNL A   1      44.857  29.390  30.413  1.00  0.00    -0.354 N 
ATOM     31  N   UNL A   1      44.425  26.696  29.302  1.00  0.00    -0.248 NA
ATOM     32  C   UNL A   1      45.246  24.613  28.632  1.00  0.00     0.031 C 
ATOM     33  C   UNL A   1      46.907  29.924  31.079  1.00  0.00     0.029 A 
ATOM     34  C   UNL A   1      46.152  28.907  30.517  1.00  0.00     0.049 A 
ATOM     35  H   UNL A   1      44.095  28.890  30.041  1.00  0.00     0.167 HD
ATOM     36  C   UNL A   1      45.789  26.642  29.559  1.00  0.00     0.074 A 
ATOM     37  C   UNL A   1      46.241  25.331  29.140  1.00  0.00     0.031 C 
ATOM     38  C   UNL A   1      46.588  27.593  30.104  1.00  0.00     0.037 A 
BRANCH  25  39
ATOM     39  C   UNL A   1      43.725  32.938  31.379  1.00  0.00     0.058 A 
ATOM     40  C   UNL A   1      44.110  33.974  30.511  1.00  0.00     0.135 A 
ATOM     41  C   UNL A   1      43.452  33.275  32.714  1.00  0.00     0.135 A 
ATOM     42  F   UNL A   1      44.391  33.711  29.225  1.00  0.00    -0.206 F 
ATOM     43  C   UNL A   1      44.274  35.280  30.965  1.00  0.00     0.059 A 
ATOM     44  C   UNL A   1      43.578  34.581  33.182  1.00  0.00     0.059 A 
ATOM     45  F   UNL A   1      43.071  32.330  33.588  1.00  0.00    -0.206 F 
ATOM     46  C   UNL A   1      44.016  35.571  32.304  1.00  0.00     0.060 A 
BRANCH  46  47
ATOM     47  S   UNL A   1      44.292  37.257  32.890  1.00  0.00     0.124 S 
ATOM     48  O   UNL A   1      44.139  38.019  31.655  1.00  0.00    -0.237 OA
ATOM     49  O   UNL A   1      43.226  37.424  33.872  1.00  0.00    -0.237 OA
ATOM     50  O   UNL A   1      45.645  37.212  33.436  1.00  0.00    -0.744 OA
ENDBRANCH  46  47
ENDBRANCH  25  39
BRANCH  26  51
ATOM     51  C   UNL A   1      42.586  23.698  27.720  1.00  0.00     0.058 A 
ATOM     52  C   UNL A   1      42.661  23.532  26.332  1.00  0.00     0.135 A 
ATOM     53  C   UNL A   1      42.436  22.547  28.511  1.00  0.00     0.135 A 
ATOM     54  F   UNL A   1      42.800  24.602  25.534  1.00  0.00    -0.206 F 
ATOM     55  C   UNL A   1      42.607  22.271  25.747  1.00  0.00     0.059 A 
ATOM     56  C   UNL A   1      42.405  21.274  27.953  1.00  0.00     0.059 A 
ATOM     57  F   UNL A   1      42.378  22.653  29.849  1.00  0.00    -0.206 F 
ATOM     58  C   UNL A   1      42.493  21.146  26.568  1.00  0.00     0.060 A 
BRANCH  58  59
ATOM     59  S   UNL A   1      42.528  19.511  25.803  1.00  0.00     0.124 S 
ATOM     60  O   UNL A   1      42.924  18.669  26.925  1.00  0.00    -0.237 OA
ATOM     61  O   UNL A   1      41.150  19.360  25.346  1.00  0.00    -0.237 OA
ATOM     62  O   UNL A   1      43.518  19.657  24.741  1.00  0.00    -0.744 OA
ENDBRANCH  58  59
ENDBRANCH  26  51
BRANCH  38  63
ATOM     63  C   UNL A   1      48.035  27.249  30.333  1.00  0.00     0.058 A 
ATOM     64  C   UNL A   1      49.032  27.577  29.403  1.00  0.00     0.135 A 
ATOM     65  C   UNL A   1      48.435  26.683  31.556  1.00  0.00     0.135 A 
ATOM     66  F   UNL A   1      48.702  28.106  28.215  1.00  0.00    -0.206 F 
ATOM     67  C   UNL A   1      50.380  27.363  29.681  1.00  0.00     0.059 A 
ATOM     68  C   UNL A   1      49.777  26.487  31.865  1.00  0.00     0.059 A 
ATOM     69  F   UNL A   1      47.519  26.354  32.481  1.00  0.00    -0.206 F 
ATOM     70  C   UNL A   1      50.743  26.831  30.921  1.00  0.00     0.060 A 
BRANCH  70  71
ATOM     71  S   UNL A   1      52.497  26.648  31.305  1.00  0.00     0.124 S 
ATOM     72  O   UNL A   1      53.093  26.650  29.973  1.00  0.00    -0.237 OA
ATOM     73  O   UNL A   1      52.762  27.830  32.119  1.00  0.00    -0.237 OA
ATOM     74  O   UNL A   1      52.559  25.376  32.019  1.00  0.00    -0.744 OA
ENDBRANCH  70  71
ENDBRANCH  38  63
ENDBRANCH  12  13
ENDBRANCH   5   7
ENDBRANCH   2   3
ENDBRANCH   1   2
BRANCH   1  75
ATOM     75  C   UNL A   1      35.115  34.911  28.586  1.00  0.00     0.002 C 
BRANCH  75  76
ATOM     76  C   UNL A   1      33.944  35.832  28.234  1.00  0.00     0.002 C 
BRANCH  76  77
ATOM     77  C   UNL A   1      33.267  36.513  29.426  1.00  0.00     0.021 C 
BRANCH  77  78
ATOM     78  C   UNL A   1      33.261  35.690  30.712  1.00  0.00     0.116 C 
BRANCH  78  79
ATOM     79  N   UNL A   1      33.434  36.528  31.891  1.00  0.00    -0.352 N 
ATOM     80  C   UNL A   1      34.126  36.264  33.042  1.00  0.00     0.254 C 
ATOM     81  H   UNL A   1      32.991  37.408  31.855  1.00  0.00     0.163 HD
ATOM     82  O   UNL A   1      34.004  36.979  34.033  1.00  0.00    -0.269 OA
BRANCH  80  83
ATOM     83  C   UNL A   1      35.012  35.104  33.101  1.00  0.00     0.076 A 
ATOM     84  C   UNL A   1      35.108  34.298  34.210  1.00  0.00     0.129 A 
ATOM     85  C   UNL A   1      35.793  34.751  32.027  1.00  0.00     0.129 A 
ATOM     86  N   UNL A   1      35.973  33.269  34.304  1.00  0.00    -0.236 NA
ATOM     87  N   UNL A   1      36.677  33.730  32.065  1.00  0.00    -0.236 NA
ATOM     88  C   UNL A   1      36.761  33.051  33.229  1.00  0.00     0.160 A 
BRANCH  88  89
ATOM     89  C   UNL A   1      37.756  31.985  33.342  1.00  0.00     0.038 A 
ATOM     90  C   UNL A   1      37.367  30.653  33.084  1.00  0.00     0.013 A 
ATOM     91  C   UNL A   1      39.088  32.211  33.730  1.00  0.00     0.052 A 
ATOM     92  C   UNL A   1      38.274  29.595  33.183  1.00  0.00     0.001 A 
ATOM     93  C   UNL A   1      39.997  31.148  33.829  1.00  0.00     0.021 A 
ATOM     94  Cl  UNL A   1      39.680  33.779  34.171  1.00  0.00    -0.084 Cl
ATOM     95  C   UNL A   1      39.590  29.844  33.553  1.00  0.00     0.002 A 
ENDBRANCH  88  89
ENDBRANCH  80  83
ENDBRANCH  78  79
ENDBRANCH  77  78
ENDBRANCH  76  77
ENDBRANCH  75  76
ENDBRANCH   1  75
TORSDOF 17
ENDMDL
