MODEL 1
REMARK VINA RESULT:     -12.7      0.000      0.000
REMARK SMILES Cc1ccc2cc(C[N@H+]3CC[NH2+][C@H](C(=O)NCCCCCCNC(=O)c4ccc(-c5c6nc(c(-c7c(F)cc(S(=O)(=O)[O-])cc7F)c7ccc([nH]7)c(-c7c(F)cc(S(=O)(=O)[O-])cc7F)c7nc(c(-c8c(F)cc(S(=O)(=O)[O-])cc8F)c8ccc5[nH]8)C=C7)C=C6)cc4)C3)c(N3CCOCC3)nc2c1
REMARK SMILES IDX 19 1 18 2 17 3 16 4 14 5 15 6 13 8 9 9 10 10 92 11 11 13
REMARK SMILES IDX 12 14 8 17 7 18 1 19 2 20 3 21 102 22 4 23 101 24 5 25
REMARK SMILES IDX 100 26 6 27 93 28 94 29 95 30 99 31 96 32 98 33 97 34 20 35
REMARK SMILES IDX 21 36 22 37 23 38 24 39 25 41 26 42 27 43 91 44 28 45 90 46
REMARK SMILES IDX 29 47 30 48 31 49 84 50 32 51 89 52 83 53 85 54 33 55 88 56
REMARK SMILES IDX 82 57 81 58 34 60 68 61 47 62 67 63 48 64 51 65 66 66 86 67
REMARK SMILES IDX 49 68 50 69 65 71 87 72 52 73 35 74 36 75 45 76 37 77 38 78
REMARK SMILES IDX 44 79 46 80 39 81 40 82 41 83 42 84 43 85 69 86 70 87 79 88
REMARK SMILES IDX 71 89 72 90 78 91 80 92 73 93 74 94 75 95 76 96 77 97 53 98
REMARK SMILES IDX 54 99 63 100 55 101 56 102 62 103 64 104 57 105 58 106
REMARK SMILES IDX 59 107 60 108 61 109
REMARK H PARENT 16 7 9 12 12 15 12 16 23 40 85 59 51 70
REMARK Flexibility Score: inf
ROOT
ATOM      1  C   UNL A   1      31.798  28.268  27.612  1.00  0.00     0.002 C 
ENDROOT
BRANCH   1   2
ATOM      2  C   UNL A   1      31.293  27.415  26.446  1.00  0.00     0.021 C 
BRANCH   2   3
ATOM      3  C   UNL A   1      31.737  25.957  26.434  1.00  0.00     0.116 C 
BRANCH   3   4
ATOM      4  N   UNL A   1      30.641  25.028  26.640  1.00  0.00    -0.351 N 
ATOM      5  C   UNL A   1      30.705  23.670  26.802  1.00  0.00     0.284 C 
ATOM      6  O   UNL A   1      29.666  23.069  27.084  1.00  0.00    -0.268 OA
ATOM      7  H   UNL A   1      29.739  25.424  26.667  1.00  0.00     0.163 HD
BRANCH   5   8
ATOM      8  C   UNL A   1      32.030  22.947  26.525  1.00  0.00     0.328 C 
ATOM      9  N   UNL A   1      33.012  20.940  25.296  1.00  0.00    -0.321 N 
ATOM     10  C   UNL A   1      33.940  20.812  26.435  1.00  0.00     0.324 C 
ATOM     11  C   UNL A   1      31.797  21.695  25.644  1.00  0.00     0.339 C 
ATOM     12  H   UNL A   1      32.693  19.991  25.105  1.00  0.00     0.348 HD
ATOM     13  C   UNL A   1      34.046  22.028  27.391  1.00  0.00     0.323 C 
ATOM     14  N   UNL A   1      32.732  22.573  27.783  1.00  0.00    -0.327 N 
ATOM     15  H   UNL A   1      32.855  23.396  28.374  1.00  0.00     0.347 HD
ATOM     16  H   UNL A   1      32.193  21.888  28.312  1.00  0.00     0.347 HD
BRANCH   9  17
ATOM     17  C   UNL A   1      33.633  21.296  24.009  1.00  0.00     0.303 C 
BRANCH  17  18
ATOM     18  C   UNL A   1      33.730  22.765  23.657  1.00  0.00     0.049 A 
ATOM     19  C   UNL A   1      32.107  29.013  23.173  1.00  0.00     0.044 C 
ATOM     20  C   UNL A   1      32.266  27.525  23.061  1.00  0.00    -0.049 A 
ATOM     21  C   UNL A   1      31.263  26.752  22.475  1.00  0.00     0.004 A 
ATOM     22  C   UNL A   1      33.433  26.892  23.526  1.00  0.00     0.032 A 
ATOM     23  C   UNL A   1      31.405  25.370  22.409  1.00  0.00     0.010 A 
ATOM     24  C   UNL A   1      33.596  25.509  23.486  1.00  0.00     0.073 A 
ATOM     25  C   UNL A   1      32.554  24.752  22.929  1.00  0.00     0.001 A 
ATOM     26  N   UNL A   1      34.703  24.933  24.004  1.00  0.00    -0.230 NA
ATOM     27  C   UNL A   1      32.659  23.365  22.981  1.00  0.00     0.023 A 
ATOM     28  C   UNL A   1      34.786  23.583  24.077  1.00  0.00     0.138 A 
BRANCH  28  29
ATOM     29  N   UNL A   1      35.927  23.022  24.624  1.00  0.00    -0.352 N 
ATOM     30  C   UNL A   1      36.682  22.073  23.794  1.00  0.00     0.146 C 
ATOM     31  C   UNL A   1      36.797  23.855  25.461  1.00  0.00     0.146 C 
ATOM     32  C   UNL A   1      37.506  21.177  24.732  1.00  0.00     0.181 C 
ATOM     33  C   UNL A   1      37.655  22.917  26.335  1.00  0.00     0.181 C 
ATOM     34  O   UNL A   1      38.395  21.961  25.547  1.00  0.00    -0.378 OA
ENDBRANCH  28  29
ENDBRANCH  17  18
ENDBRANCH   9  17
ENDBRANCH   5   8
ENDBRANCH   3   4
ENDBRANCH   2   3
ENDBRANCH   1   2
BRANCH   1  35
ATOM     35  C   UNL A   1      32.857  29.318  27.270  1.00  0.00     0.002 C 
BRANCH  35  36
ATOM     36  C   UNL A   1      34.180  28.777  26.732  1.00  0.00     0.021 C 
BRANCH  36  37
ATOM     37  C   UNL A   1      35.430  29.387  27.348  1.00  0.00     0.116 C 
BRANCH  37  38
ATOM     38  N   UNL A   1      35.223  29.846  28.713  1.00  0.00    -0.352 N 
ATOM     39  C   UNL A   1      36.159  30.043  29.701  1.00  0.00     0.251 C 
ATOM     40  H   UNL A   1      34.291  30.041  28.962  1.00  0.00     0.163 HD
ATOM     41  O   UNL A   1      35.811  30.309  30.848  1.00  0.00    -0.269 OA
BRANCH  39  42
ATOM     42  C   UNL A   1      37.592  29.891  29.370  1.00  0.00     0.039 A 
ATOM     43  C   UNL A   1      38.023  30.004  28.046  1.00  0.00     0.014 A 
ATOM     44  C   UNL A   1      38.497  29.567  30.384  1.00  0.00     0.014 A 
ATOM     45  C   UNL A   1      39.321  29.632  27.714  1.00  0.00     0.010 A 
ATOM     46  C   UNL A   1      39.823  29.275  30.056  1.00  0.00     0.010 A 
ATOM     47  C   UNL A   1      40.235  29.260  28.714  1.00  0.00    -0.014 A 
BRANCH  47  48
ATOM     48  C   UNL A   1      41.613  28.857  28.333  1.00  0.00     0.031 A 
ATOM     49  C   UNL A   1      42.757  29.831  28.428  1.00  0.00     0.074 A 
ATOM     50  C   UNL A   1      41.841  27.587  27.951  1.00  0.00     0.049 A 
ATOM     51  N   UNL A   1      44.022  29.647  28.146  1.00  0.00    -0.248 NA
ATOM     52  C   UNL A   1      42.440  31.188  28.900  1.00  0.00     0.031 C 
ATOM     53  C   UNL A   1      40.817  26.546  27.844  1.00  0.00     0.029 A 
ATOM     54  N   UNL A   1      43.004  26.945  27.609  1.00  0.00    -0.354 N 
ATOM     55  C   UNL A   1      44.650  30.863  28.391  1.00  0.00     0.074 A 
ATOM     56  C   UNL A   1      43.620  31.788  28.814  1.00  0.00     0.031 C 
ATOM     57  C   UNL A   1      41.404  25.383  27.526  1.00  0.00     0.029 A 
ATOM     58  C   UNL A   1      42.833  25.609  27.338  1.00  0.00     0.049 A 
ATOM     59  H   UNL A   1      43.877  27.398  27.563  1.00  0.00     0.167 HD
ATOM     60  C   UNL A   1      45.965  31.175  28.288  1.00  0.00     0.037 A 
ATOM     61  C   UNL A   1      43.723  24.669  26.970  1.00  0.00     0.037 A 
ATOM     62  C   UNL A   1      46.986  30.248  27.870  1.00  0.00     0.049 A 
ATOM     63  C   UNL A   1      45.163  25.051  26.802  1.00  0.00     0.074 A 
ATOM     64  C   UNL A   1      48.345  30.468  27.724  1.00  0.00     0.029 A 
ATOM     65  N   UNL A   1      46.761  28.920  27.530  1.00  0.00    -0.354 N 
ATOM     66  N   UNL A   1      45.736  26.211  27.012  1.00  0.00    -0.248 NA
ATOM     67  C   UNL A   1      46.077  24.001  26.333  1.00  0.00     0.031 C 
ATOM     68  C   UNL A   1      48.934  29.286  27.259  1.00  0.00     0.029 A 
ATOM     69  C   UNL A   1      47.951  28.315  27.160  1.00  0.00     0.049 A 
ATOM     70  H   UNL A   1      45.883  28.475  27.550  1.00  0.00     0.167 HD
ATOM     71  C   UNL A   1      47.080  26.033  26.710  1.00  0.00     0.074 A 
ATOM     72  C   UNL A   1      47.237  24.646  26.316  1.00  0.00     0.031 C 
ATOM     73  C   UNL A   1      48.091  26.936  26.756  1.00  0.00     0.037 A 
BRANCH  60  74
ATOM     74  C   UNL A   1      46.367  32.589  28.614  1.00  0.00     0.058 A 
ATOM     75  C   UNL A   1      46.414  33.588  27.628  1.00  0.00     0.135 A 
ATOM     76  C   UNL A   1      46.708  32.952  29.928  1.00  0.00     0.135 A 
ATOM     77  F   UNL A   1      46.111  33.295  26.353  1.00  0.00    -0.206 F 
ATOM     78  C   UNL A   1      46.825  34.884  27.924  1.00  0.00     0.059 A 
ATOM     79  C   UNL A   1      47.097  34.250  30.251  1.00  0.00     0.059 A 
ATOM     80  F   UNL A   1      46.676  32.039  30.911  1.00  0.00    -0.206 F 
ATOM     81  C   UNL A   1      47.174  35.203  29.238  1.00  0.00     0.060 A 
BRANCH  81  82
ATOM     82  S   UNL A   1      47.744  36.879  29.596  1.00  0.00     0.124 S 
ATOM     83  O   UNL A   1      46.574  37.668  29.221  1.00  0.00    -0.237 OA
ATOM     84  O   UNL A   1      48.031  36.813  31.025  1.00  0.00    -0.237 OA
ATOM     85  O   UNL A   1      48.908  37.034  28.731  1.00  0.00    -0.744 OA
ENDBRANCH  81  82
ENDBRANCH  60  74
BRANCH  61  86
ATOM     86  C   UNL A   1      43.256  23.275  26.765  1.00  0.00     0.058 A 
ATOM     87  C   UNL A   1      43.283  22.694  25.490  1.00  0.00     0.135 A 
ATOM     88  C   UNL A   1      42.870  22.468  27.848  1.00  0.00     0.135 A 
ATOM     89  F   UNL A   1      43.637  23.428  24.425  1.00  0.00    -0.206 F 
ATOM     90  C   UNL A   1      42.965  21.353  25.296  1.00  0.00     0.059 A 
ATOM     91  C   UNL A   1      42.570  21.120  27.682  1.00  0.00     0.059 A 
ATOM     92  F   UNL A   1      42.843  22.978  29.088  1.00  0.00    -0.206 F 
ATOM     93  C   UNL A   1      42.627  20.571  26.402  1.00  0.00     0.060 A 
BRANCH  93  94
ATOM     94  S   UNL A   1      42.334  18.805  26.152  1.00  0.00     0.124 S 
ATOM     95  O   UNL A   1      42.655  18.265  27.468  1.00  0.00    -0.237 OA
ATOM     96  O   UNL A   1      40.924  18.782  25.777  1.00  0.00    -0.237 OA
ATOM     97  O   UNL A   1      43.266  18.459  25.083  1.00  0.00    -0.744 OA
ENDBRANCH  93  94
ENDBRANCH  61  86
BRANCH  73  98
ATOM     98  C   UNL A   1      49.462  26.453  26.378  1.00  0.00     0.058 A 
ATOM     99  C   UNL A   1      50.010  26.718  25.113  1.00  0.00     0.135 A 
ATOM    100  C   UNL A   1      50.257  25.765  27.308  1.00  0.00     0.135 A 
ATOM    101  F   UNL A   1      49.286  27.365  24.185  1.00  0.00    -0.206 F 
ATOM    102  C   UNL A   1      51.294  26.303  24.777  1.00  0.00     0.059 A 
ATOM    103  C   UNL A   1      51.553  25.361  27.001  1.00  0.00     0.059 A 
ATOM    104  F   UNL A   1      49.782  25.493  28.533  1.00  0.00    -0.206 F 
ATOM    105  C   UNL A   1      52.060  25.628  25.729  1.00  0.00     0.060 A 
BRANCH 105 106
ATOM    106  S   UNL A   1      53.739  25.129  25.293  1.00  0.00     0.124 S 
ATOM    107  O   UNL A   1      53.660  23.678  25.433  1.00  0.00    -0.237 OA
ATOM    108  O   UNL A   1      53.867  25.627  23.926  1.00  0.00    -0.237 OA
ATOM    109  O   UNL A   1      54.566  25.812  26.282  1.00  0.00    -0.744 OA
ENDBRANCH 105 106
ENDBRANCH  73  98
ENDBRANCH  47  48
ENDBRANCH  39  42
ENDBRANCH  37  38
ENDBRANCH  36  37
ENDBRANCH  35  36
ENDBRANCH   1  35
TORSDOF 19
ENDMDL
MODEL 2
REMARK VINA RESULT:     -12.4      0.585      7.861
REMARK SMILES Cc1ccc2cc(C[N@H+]3CC[NH2+][C@H](C(=O)NCCCCCCNC(=O)c4ccc(-c5c6nc(c(-c7c(F)cc(S(=O)(=O)[O-])cc7F)c7ccc([nH]7)c(-c7c(F)cc(S(=O)(=O)[O-])cc7F)c7nc(c(-c8c(F)cc(S(=O)(=O)[O-])cc8F)c8ccc5[nH]8)C=C7)C=C6)cc4)C3)c(N3CCOCC3)nc2c1
REMARK SMILES IDX 19 1 18 2 17 3 16 4 14 5 15 6 13 8 9 9 10 10 92 11 11 13
REMARK SMILES IDX 12 14 8 17 7 18 1 19 2 20 3 21 102 22 4 23 101 24 5 25
REMARK SMILES IDX 100 26 6 27 93 28 94 29 95 30 99 31 96 32 98 33 97 34 20 35
REMARK SMILES IDX 21 36 22 37 23 38 24 39 25 41 26 42 27 43 91 44 28 45 90 46
REMARK SMILES IDX 29 47 30 48 31 49 84 50 32 51 89 52 83 53 85 54 33 55 88 56
REMARK SMILES IDX 82 57 81 58 34 60 68 61 47 62 67 63 48 64 51 65 66 66 86 67
REMARK SMILES IDX 49 68 50 69 65 71 87 72 52 73 35 74 36 75 45 76 37 77 38 78
REMARK SMILES IDX 44 79 46 80 39 81 40 82 41 83 42 84 43 85 69 86 70 87 79 88
REMARK SMILES IDX 71 89 72 90 78 91 80 92 73 93 74 94 75 95 76 96 77 97 53 98
REMARK SMILES IDX 54 99 63 100 55 101 56 102 62 103 64 104 57 105 58 106
REMARK SMILES IDX 59 107 60 108 61 109
REMARK H PARENT 16 7 9 12 12 15 12 16 23 40 85 59 51 70
REMARK Flexibility Score: inf
ROOT
ATOM      1  C   UNL A   1      31.579  28.220  27.577  1.00  0.00     0.002 C 
ENDROOT
BRANCH   1   2
ATOM      2  C   UNL A   1      31.135  27.362  26.390  1.00  0.00     0.021 C 
BRANCH   2   3
ATOM      3  C   UNL A   1      31.608  25.913  26.391  1.00  0.00     0.116 C 
BRANCH   3   4
ATOM      4  N   UNL A   1      30.523  24.963  26.550  1.00  0.00    -0.351 N 
ATOM      5  C   UNL A   1      30.607  23.606  26.710  1.00  0.00     0.284 C 
ATOM      6  O   UNL A   1      29.570  22.983  26.948  1.00  0.00    -0.268 OA
ATOM      7  H   UNL A   1      29.613  25.340  26.542  1.00  0.00     0.163 HD
BRANCH   5   8
ATOM      8  C   UNL A   1      31.956  22.909  26.482  1.00  0.00     0.328 C 
ATOM      9  N   UNL A   1      33.013  20.882  25.352  1.00  0.00    -0.321 N 
ATOM     10  C   UNL A   1      33.925  20.827  26.509  1.00  0.00     0.324 C 
ATOM     11  C   UNL A   1      31.772  21.616  25.651  1.00  0.00     0.339 C 
ATOM     12  H   UNL A   1      32.722  19.918  25.196  1.00  0.00     0.348 HD
ATOM     13  C   UNL A   1      33.983  22.083  27.415  1.00  0.00     0.323 C 
ATOM     14  N   UNL A   1      32.648  22.607  27.764  1.00  0.00    -0.327 N 
ATOM     15  H   UNL A   1      32.739  23.456  28.322  1.00  0.00     0.347 HD
ATOM     16  H   UNL A   1      32.120  21.930  28.313  1.00  0.00     0.347 HD
BRANCH   9  17
ATOM     17  C   UNL A   1      33.643  21.203  24.061  1.00  0.00     0.303 C 
BRANCH  17  18
ATOM     18  C   UNL A   1      33.761  22.662  23.677  1.00  0.00     0.049 A 
ATOM     19  C   UNL A   1      32.227  28.921  23.062  1.00  0.00     0.044 C 
ATOM     20  C   UNL A   1      32.364  27.429  22.981  1.00  0.00    -0.049 A 
ATOM     21  C   UNL A   1      31.351  26.658  22.412  1.00  0.00     0.004 A 
ATOM     22  C   UNL A   1      33.523  26.789  23.460  1.00  0.00     0.032 A 
ATOM     23  C   UNL A   1      31.473  25.273  22.374  1.00  0.00     0.010 A 
ATOM     24  C   UNL A   1      33.666  25.404  23.449  1.00  0.00     0.073 A 
ATOM     25  C   UNL A   1      32.613  24.650  22.907  1.00  0.00     0.001 A 
ATOM     26  N   UNL A   1      34.764  24.823  23.979  1.00  0.00    -0.230 NA
ATOM     27  C   UNL A   1      32.699  23.263  22.988  1.00  0.00     0.023 A 
ATOM     28  C   UNL A   1      34.829  23.474  24.081  1.00  0.00     0.138 A 
BRANCH  28  29
ATOM     29  N   UNL A   1      35.961  22.908  24.640  1.00  0.00    -0.352 N 
ATOM     30  C   UNL A   1      36.648  21.861  23.870  1.00  0.00     0.146 C 
ATOM     31  C   UNL A   1      36.893  23.767  25.380  1.00  0.00     0.146 C 
ATOM     32  C   UNL A   1      37.463  21.009  24.855  1.00  0.00     0.181 C 
ATOM     33  C   UNL A   1      37.737  22.865  26.304  1.00  0.00     0.181 C 
ATOM     34  O   UNL A   1      38.410  21.816  25.578  1.00  0.00    -0.378 OA
ENDBRANCH  28  29
ENDBRANCH  17  18
ENDBRANCH   9  17
ENDBRANCH   5   8
ENDBRANCH   3   4
ENDBRANCH   2   3
ENDBRANCH   1   2
BRANCH   1  35
ATOM     35  C   UNL A   1      32.485  29.408  27.248  1.00  0.00     0.002 C 
BRANCH  35  36
ATOM     36  C   UNL A   1      33.759  29.078  26.472  1.00  0.00     0.021 C 
BRANCH  36  37
ATOM     37  C   UNL A   1      35.021  28.964  27.315  1.00  0.00     0.116 C 
BRANCH  37  38
ATOM     38  N   UNL A   1      35.042  29.894  28.433  1.00  0.00    -0.352 N 
ATOM     39  C   UNL A   1      36.095  30.219  29.256  1.00  0.00     0.251 C 
ATOM     40  H   UNL A   1      34.192  30.349  28.626  1.00  0.00     0.163 HD
ATOM     41  O   UNL A   1      35.920  30.927  30.244  1.00  0.00    -0.269 OA
BRANCH  39  42
ATOM     42  C   UNL A   1      37.435  29.671  28.955  1.00  0.00     0.039 A 
ATOM     43  C   UNL A   1      38.232  29.162  29.982  1.00  0.00     0.014 A 
ATOM     44  C   UNL A   1      37.918  29.728  27.646  1.00  0.00     0.014 A 
ATOM     45  C   UNL A   1      39.567  28.867  29.731  1.00  0.00     0.010 A 
ATOM     46  C   UNL A   1      39.237  29.350  27.381  1.00  0.00     0.010 A 
ATOM     47  C   UNL A   1      40.087  28.961  28.429  1.00  0.00    -0.014 A 
BRANCH  47  48
ATOM     48  C   UNL A   1      41.518  28.650  28.187  1.00  0.00     0.031 A 
ATOM     49  C   UNL A   1      41.957  27.255  27.827  1.00  0.00     0.074 A 
ATOM     50  C   UNL A   1      42.422  29.646  28.239  1.00  0.00     0.049 A 
ATOM     51  N   UNL A   1      43.161  26.809  27.574  1.00  0.00    -0.248 NA
ATOM     52  C   UNL A   1      40.907  26.228  27.742  1.00  0.00     0.031 C 
ATOM     53  C   UNL A   1      42.114  31.043  28.551  1.00  0.00     0.029 A 
ATOM     54  N   UNL A   1      43.773  29.649  28.002  1.00  0.00    -0.354 N 
ATOM     55  C   UNL A   1      43.019  25.450  27.313  1.00  0.00     0.074 A 
ATOM     56  C   UNL A   1      41.614  25.138  27.472  1.00  0.00     0.031 C 
ATOM     57  C   UNL A   1      43.229  31.777  28.427  1.00  0.00     0.029 A 
ATOM     58  C   UNL A   1      44.343  30.896  28.093  1.00  0.00     0.049 A 
ATOM     59  H   UNL A   1      44.285  28.836  27.789  1.00  0.00     0.167 HD
ATOM     60  C   UNL A   1      43.968  24.550  26.961  1.00  0.00     0.037 A 
ATOM     61  C   UNL A   1      45.620  31.290  27.936  1.00  0.00     0.037 A 
ATOM     62  C   UNL A   1      45.365  24.868  26.801  1.00  0.00     0.049 A 
ATOM     63  C   UNL A   1      46.665  30.266  27.607  1.00  0.00     0.074 A 
ATOM     64  C   UNL A   1      46.408  24.026  26.456  1.00  0.00     0.029 A 
ATOM     65  N   UNL A   1      45.916  26.131  26.977  1.00  0.00    -0.354 N 
ATOM     66  N   UNL A   1      46.518  28.981  27.390  1.00  0.00    -0.248 NA
ATOM     67  C   UNL A   1      48.052  30.740  27.514  1.00  0.00     0.031 C 
ATOM     68  C   UNL A   1      47.594  24.771  26.461  1.00  0.00     0.029 A 
ATOM     69  C   UNL A   1      47.285  26.088  26.763  1.00  0.00     0.049 A 
ATOM     70  H   UNL A   1      45.408  26.939  27.218  1.00  0.00     0.167 HD
ATOM     71  C   UNL A   1      47.791  28.491  27.126  1.00  0.00     0.074 A 
ATOM     72  C   UNL A   1      48.695  29.623  27.197  1.00  0.00     0.031 C 
ATOM     73  C   UNL A   1      48.175  27.220  26.850  1.00  0.00     0.037 A 
BRANCH  60  74
ATOM     74  C   UNL A   1      43.525  23.127  26.745  1.00  0.00     0.058 A 
ATOM     75  C   UNL A   1      43.120  22.311  27.814  1.00  0.00     0.135 A 
ATOM     76  C   UNL A   1      43.503  22.572  25.455  1.00  0.00     0.135 A 
ATOM     77  F   UNL A   1      43.135  22.786  29.070  1.00  0.00    -0.206 F 
ATOM     78  C   UNL A   1      42.751  20.984  27.617  1.00  0.00     0.059 A 
ATOM     79  C   UNL A   1      43.112  21.254  25.232  1.00  0.00     0.059 A 
ATOM     80  F   UNL A   1      43.875  23.307  24.396  1.00  0.00    -0.206 F 
ATOM     81  C   UNL A   1      42.758  20.461  26.323  1.00  0.00     0.060 A 
BRANCH  81  82
ATOM     82  S   UNL A   1      42.315  18.726  26.091  1.00  0.00     0.124 S 
ATOM     83  O   UNL A   1      43.207  18.343  25.001  1.00  0.00    -0.237 OA
ATOM     84  O   UNL A   1      42.625  18.147  27.394  1.00  0.00    -0.237 OA
ATOM     85  O   UNL A   1      40.898  18.780  25.751  1.00  0.00    -0.744 OA
ENDBRANCH  81  82
ENDBRANCH  60  74
BRANCH  61  86
ATOM     86  C   UNL A   1      45.952  32.730  28.070  1.00  0.00     0.058 A 
ATOM     87  C   UNL A   1      45.796  33.602  26.985  1.00  0.00     0.135 A 
ATOM     88  C   UNL A   1      46.334  33.278  29.305  1.00  0.00     0.135 A 
ATOM     89  F   UNL A   1      45.440  33.122  25.784  1.00  0.00    -0.206 F 
ATOM     90  C   UNL A   1      45.985  34.974  27.122  1.00  0.00     0.059 A 
ATOM     91  C   UNL A   1      46.506  34.648  29.473  1.00  0.00     0.059 A 
ATOM     92  F   UNL A   1      46.483  32.483  30.376  1.00  0.00    -0.206 F 
ATOM     93  C   UNL A   1      46.323  35.488  28.375  1.00  0.00     0.060 A 
BRANCH  93  94
ATOM     94  S   UNL A   1      46.447  37.280  28.567  1.00  0.00     0.124 S 
ATOM     95  O   UNL A   1      46.250  37.438  30.003  1.00  0.00    -0.237 OA
ATOM     96  O   UNL A   1      47.795  37.546  28.073  1.00  0.00    -0.237 OA
ATOM     97  O   UNL A   1      45.368  37.783  27.722  1.00  0.00    -0.744 OA
ENDBRANCH  93  94
ENDBRANCH  61  86
BRANCH  73  98
ATOM     98  C   UNL A   1      49.636  26.983  26.595  1.00  0.00     0.058 A 
ATOM     99  C   UNL A   1      50.513  26.628  27.631  1.00  0.00     0.135 A 
ATOM    100  C   UNL A   1      50.154  27.058  25.293  1.00  0.00     0.135 A 
ATOM    101  F   UNL A   1      50.069  26.552  28.897  1.00  0.00    -0.206 F 
ATOM    102  C   UNL A   1      51.858  26.372  27.388  1.00  0.00     0.059 A 
ATOM    103  C   UNL A   1      51.491  26.783  25.022  1.00  0.00     0.059 A 
ATOM    104  F   UNL A   1      49.355  27.387  24.265  1.00  0.00    -0.206 F 
ATOM    105  C   UNL A   1      52.338  26.449  26.079  1.00  0.00     0.060 A 
BRANCH 105 106
ATOM    106  S   UNL A   1      54.078  26.077  25.772  1.00  0.00     0.124 S 
ATOM    107  O   UNL A   1      54.101  25.963  24.317  1.00  0.00    -0.237 OA
ATOM    108  O   UNL A   1      54.750  27.248  26.327  1.00  0.00    -0.237 OA
ATOM    109  O   UNL A   1      54.294  24.832  26.503  1.00  0.00    -0.744 OA
ENDBRANCH 105 106
ENDBRANCH  73  98
ENDBRANCH  47  48
ENDBRANCH  39  42
ENDBRANCH  37  38
ENDBRANCH  36  37
ENDBRANCH  35  36
ENDBRANCH   1  35
TORSDOF 19
ENDMDL
MODEL 3
REMARK VINA RESULT:     -12.0      1.695      3.771
REMARK SMILES Cc1ccc2cc(C[N@H+]3CC[NH2+][C@H](C(=O)NCCCCCCNC(=O)c4ccc(-c5c6nc(c(-c7c(F)cc(S(=O)(=O)[O-])cc7F)c7ccc([nH]7)c(-c7c(F)cc(S(=O)(=O)[O-])cc7F)c7nc(c(-c8c(F)cc(S(=O)(=O)[O-])cc8F)c8ccc5[nH]8)C=C7)C=C6)cc4)C3)c(N3CCOCC3)nc2c1
REMARK SMILES IDX 19 1 18 2 17 3 16 4 14 5 15 6 13 8 9 9 10 10 92 11 11 13
REMARK SMILES IDX 12 14 8 17 7 18 1 19 2 20 3 21 102 22 4 23 101 24 5 25
REMARK SMILES IDX 100 26 6 27 93 28 94 29 95 30 99 31 96 32 98 33 97 34 20 35
REMARK SMILES IDX 21 36 22 37 23 38 24 39 25 41 26 42 27 43 91 44 28 45 90 46
REMARK SMILES IDX 29 47 30 48 31 49 84 50 32 51 89 52 83 53 85 54 33 55 88 56
REMARK SMILES IDX 82 57 81 58 34 60 68 61 47 62 67 63 48 64 51 65 66 66 86 67
REMARK SMILES IDX 49 68 50 69 65 71 87 72 52 73 35 74 36 75 45 76 37 77 38 78
REMARK SMILES IDX 44 79 46 80 39 81 40 82 41 83 42 84 43 85 69 86 70 87 79 88
REMARK SMILES IDX 71 89 72 90 78 91 80 92 73 93 74 94 75 95 76 96 77 97 53 98
REMARK SMILES IDX 54 99 63 100 55 101 56 102 62 103 64 104 57 105 58 106
REMARK SMILES IDX 59 107 60 108 61 109
REMARK H PARENT 16 7 9 12 12 15 12 16 23 40 85 59 51 70
REMARK Flexibility Score: inf
ROOT
ATOM      1  C   UNL A   1      34.674  28.942  26.506  1.00  0.00     0.002 C 
ENDROOT
BRANCH   1   2
ATOM      2  C   UNL A   1      33.807  27.742  26.118  1.00  0.00     0.021 C 
BRANCH   2   3
ATOM      3  C   UNL A   1      32.823  27.961  24.974  1.00  0.00     0.116 C 
BRANCH   3   4
ATOM      4  N   UNL A   1      33.460  27.956  23.670  1.00  0.00    -0.351 N 
ATOM      5  C   UNL A   1      33.394  26.989  22.703  1.00  0.00     0.284 C 
ATOM      6  O   UNL A   1      33.913  27.224  21.610  1.00  0.00    -0.268 OA
ATOM      7  H   UNL A   1      34.008  28.746  23.453  1.00  0.00     0.163 HD
BRANCH   5   8
ATOM      8  C   UNL A   1      32.778  25.627  23.051  1.00  0.00     0.328 C 
ATOM      9  N   UNL A   1      32.937  23.143  22.498  1.00  0.00    -0.321 N 
ATOM     10  C   UNL A   1      31.472  23.107  22.654  1.00  0.00     0.324 C 
ATOM     11  C   UNL A   1      33.440  24.499  22.222  1.00  0.00     0.339 C 
ATOM     12  H   UNL A   1      33.128  22.609  21.651  1.00  0.00     0.348 HD
ATOM     13  C   UNL A   1      30.813  24.321  23.357  1.00  0.00     0.323 C 
ATOM     14  N   UNL A   1      31.303  25.619  22.853  1.00  0.00    -0.327 N 
ATOM     15  H   UNL A   1      30.875  26.383  23.376  1.00  0.00     0.347 HD
ATOM     16  H   UNL A   1      31.065  25.743  21.870  1.00  0.00     0.347 HD
BRANCH   9  17
ATOM     17  C   UNL A   1      33.700  22.375  23.497  1.00  0.00     0.303 C 
BRANCH  17  18
ATOM     18  C   UNL A   1      33.118  21.061  23.969  1.00  0.00     0.049 A 
ATOM     19  C   UNL A   1      32.802  14.828  25.686  1.00  0.00     0.044 C 
ATOM     20  C   UNL A   1      32.900  16.156  24.997  1.00  0.00    -0.049 A 
ATOM     21  C   UNL A   1      33.417  16.242  23.704  1.00  0.00     0.004 A 
ATOM     22  C   UNL A   1      32.456  17.329  25.635  1.00  0.00     0.032 A 
ATOM     23  C   UNL A   1      33.537  17.484  23.088  1.00  0.00     0.010 A 
ATOM     24  C   UNL A   1      32.577  18.587  25.048  1.00  0.00     0.073 A 
ATOM     25  C   UNL A   1      33.138  18.648  23.764  1.00  0.00     0.001 A 
ATOM     26  N   UNL A   1      32.200  19.697  25.720  1.00  0.00    -0.230 NA
ATOM     27  C   UNL A   1      33.361  19.907  23.213  1.00  0.00     0.023 A 
ATOM     28  C   UNL A   1      32.447  20.919  25.191  1.00  0.00     0.138 A 
BRANCH  28  29
ATOM     29  N   UNL A   1      32.060  22.037  25.908  1.00  0.00    -0.352 N 
ATOM     30  C   UNL A   1      30.646  22.140  26.296  1.00  0.00     0.146 C 
ATOM     31  C   UNL A   1      32.966  22.574  26.929  1.00  0.00     0.146 C 
ATOM     32  C   UNL A   1      30.329  23.624  26.536  1.00  0.00     0.181 C 
ATOM     33  C   UNL A   1      32.569  24.043  27.191  1.00  0.00     0.181 C 
ATOM     34  O   UNL A   1      31.180  24.177  27.557  1.00  0.00    -0.378 OA
ENDBRANCH  28  29
ENDBRANCH  17  18
ENDBRANCH   9  17
ENDBRANCH   5   8
ENDBRANCH   3   4
ENDBRANCH   2   3
ENDBRANCH   1   2
BRANCH   1  35
ATOM     35  C   UNL A   1      34.118  29.847  27.607  1.00  0.00     0.002 C 
BRANCH  35  36
ATOM     36  C   UNL A   1      34.560  31.308  27.552  1.00  0.00     0.021 C 
BRANCH  36  37
ATOM     37  C   UNL A   1      35.663  31.690  28.529  1.00  0.00     0.116 C 
BRANCH  37  38
ATOM     38  N   UNL A   1      35.494  31.082  29.840  1.00  0.00    -0.352 N 
ATOM     39  C   UNL A   1      36.398  30.337  30.560  1.00  0.00     0.251 C 
ATOM     40  H   UNL A   1      34.618  31.221  30.266  1.00  0.00     0.163 HD
ATOM     41  O   UNL A   1      36.060  29.779  31.600  1.00  0.00    -0.269 OA
BRANCH  39  42
ATOM     42  C   UNL A   1      37.775  30.186  30.043  1.00  0.00     0.039 A 
ATOM     43  C   UNL A   1      37.991  29.907  28.692  1.00  0.00     0.014 A 
ATOM     44  C   UNL A   1      38.850  30.261  30.932  1.00  0.00     0.014 A 
ATOM     45  C   UNL A   1      39.261  29.539  28.263  1.00  0.00     0.010 A 
ATOM     46  C   UNL A   1      40.140  29.971  30.478  1.00  0.00     0.010 A 
ATOM     47  C   UNL A   1      40.350  29.563  29.151  1.00  0.00    -0.014 A 
BRANCH  47  48
ATOM     48  C   UNL A   1      41.695  29.156  28.672  1.00  0.00     0.031 A 
ATOM     49  C   UNL A   1      42.855  30.115  28.715  1.00  0.00     0.074 A 
ATOM     50  C   UNL A   1      41.883  27.893  28.246  1.00  0.00     0.049 A 
ATOM     51  N   UNL A   1      44.096  29.925  28.347  1.00  0.00    -0.248 NA
ATOM     52  C   UNL A   1      42.585  31.464  29.239  1.00  0.00     0.031 C 
ATOM     53  C   UNL A   1      40.842  26.865  28.182  1.00  0.00     0.029 A 
ATOM     54  N   UNL A   1      43.014  27.247  27.814  1.00  0.00    -0.354 N 
ATOM     55  C   UNL A   1      44.753  31.128  28.579  1.00  0.00     0.074 A 
ATOM     56  C   UNL A   1      43.763  32.054  29.090  1.00  0.00     0.031 C 
ATOM     57  C   UNL A   1      41.394  25.705  27.799  1.00  0.00     0.029 A 
ATOM     58  C   UNL A   1      42.810  25.920  27.524  1.00  0.00     0.049 A 
ATOM     59  H   UNL A   1      43.887  27.693  27.722  1.00  0.00     0.167 HD
ATOM     60  C   UNL A   1      46.062  31.429  28.398  1.00  0.00     0.037 A 
ATOM     61  C   UNL A   1      43.663  24.980  27.076  1.00  0.00     0.037 A 
ATOM     62  C   UNL A   1      47.043  30.502  27.892  1.00  0.00     0.049 A 
ATOM     63  C   UNL A   1      45.093  25.351  26.823  1.00  0.00     0.074 A 
ATOM     64  C   UNL A   1      48.391  30.713  27.663  1.00  0.00     0.029 A 
ATOM     65  N   UNL A   1      46.780  29.185  27.537  1.00  0.00    -0.354 N 
ATOM     66  N   UNL A   1      45.692  26.501  27.023  1.00  0.00    -0.248 NA
ATOM     67  C   UNL A   1      45.963  24.305  26.271  1.00  0.00     0.031 C 
ATOM     68  C   UNL A   1      48.935  29.536  27.133  1.00  0.00     0.029 A 
ATOM     69  C   UNL A   1      47.937  28.577  27.075  1.00  0.00     0.049 A 
ATOM     70  H   UNL A   1      45.901  28.749  27.604  1.00  0.00     0.167 HD
ATOM     71  C   UNL A   1      47.012  26.316  26.630  1.00  0.00     0.074 A 
ATOM     72  C   UNL A   1      47.126  24.938  26.193  1.00  0.00     0.031 C 
ATOM     73  C   UNL A   1      48.034  27.208  26.630  1.00  0.00     0.037 A 
BRANCH  60  74
ATOM     74  C   UNL A   1      46.500  32.831  28.730  1.00  0.00     0.058 A 
ATOM     75  C   UNL A   1      46.965  33.175  30.011  1.00  0.00     0.135 A 
ATOM     76  C   UNL A   1      46.457  33.844  27.758  1.00  0.00     0.135 A 
ATOM     77  F   UNL A   1      47.014  32.249  30.983  1.00  0.00    -0.206 F 
ATOM     78  C   UNL A   1      47.329  34.480  30.326  1.00  0.00     0.059 A 
ATOM     79  C   UNL A   1      46.843  35.151  28.046  1.00  0.00     0.059 A 
ATOM     80  F   UNL A   1      46.027  33.572  26.517  1.00  0.00    -0.206 F 
ATOM     81  C   UNL A   1      47.257  35.464  29.339  1.00  0.00     0.060 A 
BRANCH  81  82
ATOM     82  S   UNL A   1      47.696  37.160  29.778  1.00  0.00     0.124 S 
ATOM     83  O   UNL A   1      47.020  37.310  31.063  1.00  0.00    -0.237 OA
ATOM     84  O   UNL A   1      49.152  37.102  29.832  1.00  0.00    -0.237 OA
ATOM     85  O   UNL A   1      47.141  37.948  28.683  1.00  0.00    -0.744 OA
ENDBRANCH  81  82
ENDBRANCH  60  74
BRANCH  61  86
ATOM     86  C   UNL A   1      43.167  23.597  26.869  1.00  0.00     0.058 A 
ATOM     87  C   UNL A   1      42.943  23.105  25.576  1.00  0.00     0.135 A 
ATOM     88  C   UNL A   1      43.005  22.711  27.947  1.00  0.00     0.135 A 
ATOM     89  F   UNL A   1      43.079  23.917  24.516  1.00  0.00    -0.206 F 
ATOM     90  C   UNL A   1      42.596  21.776  25.354  1.00  0.00     0.059 A 
ATOM     91  C   UNL A   1      42.680  21.373  27.748  1.00  0.00     0.059 A 
ATOM     92  F   UNL A   1      43.221  23.134  29.201  1.00  0.00    -0.206 F 
ATOM     93  C   UNL A   1      42.484  20.914  26.447  1.00  0.00     0.060 A 
BRANCH  93  94
ATOM     94  S   UNL A   1      42.151  19.166  26.135  1.00  0.00     0.124 S 
ATOM     95  O   UNL A   1      40.716  19.180  25.880  1.00  0.00    -0.237 OA
ATOM     96  O   UNL A   1      43.004  18.895  24.982  1.00  0.00    -0.237 OA
ATOM     97  O   UNL A   1      42.566  18.520  27.377  1.00  0.00    -0.744 OA
ENDBRANCH  93  94
ENDBRANCH  61  86
BRANCH  73  98
ATOM     98  C   UNL A   1      49.372  26.721  26.152  1.00  0.00     0.058 A 
ATOM     99  C   UNL A   1      49.819  26.970  24.846  1.00  0.00     0.135 A 
ATOM    100  C   UNL A   1      50.238  26.043  27.025  1.00  0.00     0.135 A 
ATOM    101  F   UNL A   1      49.025  27.607  23.970  1.00  0.00    -0.206 F 
ATOM    102  C   UNL A   1      51.074  26.551  24.416  1.00  0.00     0.059 A 
ATOM    103  C   UNL A   1      51.506  25.635  26.624  1.00  0.00     0.059 A 
ATOM    104  F   UNL A   1      49.860  25.785  28.287  1.00  0.00    -0.206 F 
ATOM    105  C   UNL A   1      51.912  25.887  25.313  1.00  0.00     0.060 A 
BRANCH 105 106
ATOM    106  S   UNL A   1      53.552  25.383  24.753  1.00  0.00     0.124 S 
ATOM    107  O   UNL A   1      53.453  25.608  23.314  1.00  0.00    -0.237 OA
ATOM    108  O   UNL A   1      54.425  26.300  25.479  1.00  0.00    -0.237 OA
ATOM    109  O   UNL A   1      53.639  23.985  25.165  1.00  0.00    -0.744 OA
ENDBRANCH 105 106
ENDBRANCH  73  98
ENDBRANCH  47  48
ENDBRANCH  39  42
ENDBRANCH  37  38
ENDBRANCH  36  37
ENDBRANCH  35  36
ENDBRANCH   1  35
TORSDOF 19
ENDMDL
