MODEL 1
REMARK VINA RESULT:     -12.9      0.000      0.000
REMARK SMILES CCC[N@@H+]1CC2(CCN(C(=O)Cn3nnnc3C)CC2)C[C@H]1C(=O)NCCCCCCNC(=O)c1ccc(-c2c3nc(c(-c4c(F)cc(S(=O)(=O)[O-])cc4F)c4ccc([nH]4)c(-c4c(F)cc(S(=O)(=O)[O-])cc4F)c4nc(c(-c5c(F)cc(S(=O)(=O)[O-])cc5F)c5ccc2[nH]5)C=C4)C=C3)cc1
REMARK SMILES IDX 29 1 28 2 27 3 26 4 25 5 23 6 24 7 22 9 4 10 5 11 6 13 21 14
REMARK SMILES IDX 7 15 20 16 8 17 19 18 9 19 10 20 11 21 3 22 2 23 1 24 12 25
REMARK SMILES IDX 13 26 14 27 17 28 15 29 16 30 18 31 30 32 31 33 32 34 33 35
REMARK SMILES IDX 34 37 35 38 36 39 100 40 37 41 99 42 38 43 39 44 40 45 93 46
REMARK SMILES IDX 41 47 98 48 92 49 94 50 42 51 97 52 91 53 90 54 43 56 77 57
REMARK SMILES IDX 56 58 76 59 57 60 60 61 75 62 95 63 58 64 59 65 74 67 96 68
REMARK SMILES IDX 61 69 44 70 45 71 54 72 46 73 47 74 53 75 55 76 48 77 49 78
REMARK SMILES IDX 50 79 51 80 52 81 78 82 79 83 88 84 80 85 81 86 87 87 89 88
REMARK SMILES IDX 82 89 83 90 84 91 85 92 86 93 62 94 63 95 72 96 64 97 65 98
REMARK SMILES IDX 71 99 73 100 66 101 67 102 68 103 69 104 70 105
REMARK H PARENT 25 8 4 12 32 36 94 55 60 66
REMARK Flexibility Score: inf
ROOT
ATOM      1  C   UNL A   1      35.435  23.211  26.243  1.00  0.00     0.002 C 
ENDROOT
BRANCH   1   2
ATOM      2  C   UNL A   1      34.610  22.256  27.124  1.00  0.00     0.002 C 
BRANCH   2   3
ATOM      3  C   UNL A   1      33.524  22.903  27.978  1.00  0.00     0.021 C 
BRANCH   3   4
ATOM      4  C   UNL A   1      32.284  23.297  27.198  1.00  0.00     0.116 C 
BRANCH   4   5
ATOM      5  N   UNL A   1      32.056  24.699  27.043  1.00  0.00    -0.351 N 
ATOM      6  C   UNL A   1      31.698  25.405  25.937  1.00  0.00     0.278 C 
ATOM      7  O   UNL A   1      31.404  26.593  26.150  1.00  0.00    -0.268 OA
ATOM      8  H   UNL A   1      32.176  25.235  27.860  1.00  0.00     0.163 HD
BRANCH   6   9
ATOM      9  C   UNL A   1      31.598  24.851  24.479  1.00  0.00     0.274 C 
ATOM     10  N   UNL A   1      32.899  24.662  23.827  1.00  0.00    -0.324 N 
ATOM     11  C   UNL A   1      33.149  23.218  23.691  1.00  0.00     0.270 C 
ATOM     12  H   UNL A   1      33.626  25.069  24.416  1.00  0.00     0.348 HD
ATOM     13  C   UNL A   1      31.797  22.465  23.825  1.00  0.00     0.029 C 
ATOM     14  C   UNL A   1      30.788  23.592  24.157  1.00  0.00     0.088 C 
ATOM     15  C   UNL A   1      31.605  21.397  24.929  1.00  0.00     0.034 C 
ATOM     16  C   UNL A   1      31.590  21.663  22.507  1.00  0.00     0.034 C 
ATOM     17  C   UNL A   1      32.629  20.292  24.863  1.00  0.00     0.120 C 
ATOM     18  C   UNL A   1      32.574  20.464  22.412  1.00  0.00     0.120 C 
ATOM     19  N   UNL A   1      32.494  19.598  23.594  1.00  0.00    -0.341 N 
ATOM     20  C   UNL A   1      32.382  18.220  23.438  1.00  0.00     0.244 C 
ATOM     21  O   UNL A   1      32.302  17.707  22.318  1.00  0.00    -0.273 OA
BRANCH  10  22
ATOM     22  C   UNL A   1      33.022  25.402  22.548  1.00  0.00     0.262 C 
BRANCH  22  23
ATOM     23  C   UNL A   1      32.627  26.897  22.450  1.00  0.00     0.058 C 
ATOM     24  C   UNL A   1      33.745  27.882  22.117  1.00  0.00     0.010 C 
ENDBRANCH  22  23
ENDBRANCH  10  22
BRANCH  20  25
ATOM     25  C   UNL A   1      32.164  17.343  24.657  1.00  0.00     0.248 C 
BRANCH  25  26
ATOM     26  N   UNL A   1      33.186  16.352  24.899  1.00  0.00    -0.220 N 
ATOM     27  N   UNL A   1      32.864  15.086  25.196  1.00  0.00    -0.044 NA
ATOM     28  C   UNL A   1      34.553  16.493  24.911  1.00  0.00     0.148 A 
ATOM     29  N   UNL A   1      34.018  14.456  25.356  1.00  0.00    -0.024 NA
ATOM     30  N   UNL A   1      35.072  15.314  25.181  1.00  0.00    -0.114 NA
ATOM     31  C   UNL A   1      35.316  17.724  24.608  1.00  0.00     0.091 C 
ENDBRANCH  25  26
ENDBRANCH  20  25
ENDBRANCH   6   9
ENDBRANCH   4   5
ENDBRANCH   3   4
ENDBRANCH   2   3
ENDBRANCH   1   2
BRANCH   1  32
ATOM     32  C   UNL A   1      36.357  22.574  25.190  1.00  0.00     0.021 C 
BRANCH  32  33
ATOM     33  C   UNL A   1      37.807  23.010  25.303  1.00  0.00     0.116 C 
BRANCH  33  34
ATOM     34  N   UNL A   1      38.592  22.088  26.128  1.00  0.00    -0.352 N 
ATOM     35  C   UNL A   1      39.698  22.368  26.900  1.00  0.00     0.251 C 
ATOM     36  H   UNL A   1      38.291  21.151  26.131  1.00  0.00     0.163 HD
ATOM     37  O   UNL A   1      40.466  21.463  27.242  1.00  0.00    -0.269 OA
BRANCH  35  38
ATOM     38  C   UNL A   1      39.935  23.754  27.321  1.00  0.00     0.039 A 
ATOM     39  C   UNL A   1      38.921  24.715  27.329  1.00  0.00     0.014 A 
ATOM     40  C   UNL A   1      41.219  24.069  27.755  1.00  0.00     0.014 A 
ATOM     41  C   UNL A   1      39.204  25.977  27.848  1.00  0.00     0.010 A 
ATOM     42  C   UNL A   1      41.430  25.223  28.453  1.00  0.00     0.010 A 
ATOM     43  C   UNL A   1      40.461  26.214  28.424  1.00  0.00    -0.014 A 
BRANCH  43  44
ATOM     44  C   UNL A   1      40.774  27.467  29.099  1.00  0.00     0.031 A 
ATOM     45  C   UNL A   1      41.868  28.242  28.454  1.00  0.00     0.074 A 
ATOM     46  C   UNL A   1      39.974  27.978  30.063  1.00  0.00     0.049 A 
ATOM     47  N   UNL A   1      43.052  28.468  28.915  1.00  0.00    -0.248 NA
ATOM     48  C   UNL A   1      41.688  28.669  27.054  1.00  0.00     0.031 C 
ATOM     49  C   UNL A   1      38.689  27.456  30.555  1.00  0.00     0.029 A 
ATOM     50  N   UNL A   1      40.082  29.152  30.740  1.00  0.00    -0.354 N 
ATOM     51  C   UNL A   1      43.675  29.286  27.977  1.00  0.00     0.074 A 
ATOM     52  C   UNL A   1      42.887  29.185  26.777  1.00  0.00     0.031 C 
ATOM     53  C   UNL A   1      38.037  28.417  31.244  1.00  0.00     0.029 A 
ATOM     54  C   UNL A   1      38.923  29.552  31.402  1.00  0.00     0.049 A 
ATOM     55  H   UNL A   1      40.913  29.677  30.761  1.00  0.00     0.167 HD
ATOM     56  C   UNL A   1      44.623  30.188  28.355  1.00  0.00     0.037 A 
ATOM     57  C   UNL A   1      38.706  30.745  32.014  1.00  0.00     0.037 A 
ATOM     58  C   UNL A   1      45.097  29.902  29.689  1.00  0.00     0.049 A 
ATOM     59  C   UNL A   1      40.046  31.334  32.275  1.00  0.00     0.074 A 
ATOM     60  C   UNL A   1      45.712  28.822  30.292  1.00  0.00     0.029 A 
ATOM     61  N   UNL A   1      44.588  30.666  30.712  1.00  0.00    -0.354 N 
ATOM     62  N   UNL A   1      40.921  30.809  33.092  1.00  0.00    -0.248 NA
ATOM     63  C   UNL A   1      40.595  32.222  31.262  1.00  0.00     0.031 C 
ATOM     64  C   UNL A   1      45.129  28.744  31.591  1.00  0.00     0.029 A 
ATOM     65  C   UNL A   1      44.254  29.822  31.741  1.00  0.00     0.049 A 
ATOM     66  H   UNL A   1      44.482  31.645  30.708  1.00  0.00     0.167 HD
ATOM     67  C   UNL A   1      42.141  30.945  32.443  1.00  0.00     0.074 A 
ATOM     68  C   UNL A   1      41.887  31.893  31.358  1.00  0.00     0.031 C 
ATOM     69  C   UNL A   1      43.161  30.062  32.661  1.00  0.00     0.037 A 
BRANCH  56  70
ATOM     70  C   UNL A   1      44.830  31.543  27.712  1.00  0.00     0.058 A 
ATOM     71  C   UNL A   1      46.045  31.799  27.041  1.00  0.00     0.135 A 
ATOM     72  C   UNL A   1      44.032  32.679  27.972  1.00  0.00     0.135 A 
ATOM     73  F   UNL A   1      46.884  30.796  26.737  1.00  0.00    -0.206 F 
ATOM     74  C   UNL A   1      46.475  33.092  26.739  1.00  0.00     0.059 A 
ATOM     75  C   UNL A   1      44.417  33.970  27.630  1.00  0.00     0.059 A 
ATOM     76  F   UNL A   1      42.888  32.614  28.661  1.00  0.00    -0.206 F 
ATOM     77  C   UNL A   1      45.659  34.173  27.054  1.00  0.00     0.060 A 
BRANCH  77  78
ATOM     78  S   UNL A   1      46.258  35.846  26.768  1.00  0.00     0.124 S 
ATOM     79  O   UNL A   1      45.018  36.612  26.823  1.00  0.00    -0.237 OA
ATOM     80  O   UNL A   1      47.177  36.033  27.886  1.00  0.00    -0.237 OA
ATOM     81  O   UNL A   1      46.888  35.757  25.454  1.00  0.00    -0.744 OA
ENDBRANCH  77  78
ENDBRANCH  56  70
BRANCH  57  82
ATOM     82  C   UNL A   1      37.450  31.545  32.048  1.00  0.00     0.058 A 
ATOM     83  C   UNL A   1      36.861  31.939  33.263  1.00  0.00     0.135 A 
ATOM     84  C   UNL A   1      36.956  32.182  30.889  1.00  0.00     0.135 A 
ATOM     85  F   UNL A   1      37.281  31.403  34.419  1.00  0.00    -0.206 F 
ATOM     86  C   UNL A   1      35.878  32.937  33.332  1.00  0.00     0.059 A 
ATOM     87  C   UNL A   1      35.973  33.171  30.933  1.00  0.00     0.059 A 
ATOM     88  F   UNL A   1      37.481  31.924  29.682  1.00  0.00    -0.206 F 
ATOM     89  C   UNL A   1      35.455  33.562  32.160  1.00  0.00     0.060 A 
BRANCH  89  90
ATOM     90  S   UNL A   1      34.316  34.968  32.256  1.00  0.00     0.124 S 
ATOM     91  O   UNL A   1      34.166  35.332  30.851  1.00  0.00    -0.237 OA
ATOM     92  O   UNL A   1      33.144  34.375  32.888  1.00  0.00    -0.237 OA
ATOM     93  O   UNL A   1      35.040  35.935  33.076  1.00  0.00    -0.744 OA
ENDBRANCH  89  90
ENDBRANCH  57  82
BRANCH  69  94
ATOM     94  C   UNL A   1      43.053  29.115  33.833  1.00  0.00     0.058 A 
ATOM     95  C   UNL A   1      43.282  29.466  35.176  1.00  0.00     0.135 A 
ATOM     96  C   UNL A   1      42.526  27.837  33.591  1.00  0.00     0.135 A 
ATOM     97  F   UNL A   1      43.694  30.697  35.506  1.00  0.00    -0.206 F 
ATOM     98  C   UNL A   1      43.027  28.578  36.225  1.00  0.00     0.059 A 
ATOM     99  C   UNL A   1      42.236  26.947  34.621  1.00  0.00     0.059 A 
ATOM    100  F   UNL A   1      42.229  27.461  32.336  1.00  0.00    -0.206 F 
ATOM    101  C   UNL A   1      42.499  27.319  35.936  1.00  0.00     0.060 A 
BRANCH 101 102
ATOM    102  S   UNL A   1      42.095  26.198  37.293  1.00  0.00     0.124 S 
ATOM    103  O   UNL A   1      42.230  24.890  36.662  1.00  0.00    -0.237 OA
ATOM    104  O   UNL A   1      43.106  26.528  38.293  1.00  0.00    -0.237 OA
ATOM    105  O   UNL A   1      40.730  26.577  37.654  1.00  0.00    -0.744 OA
ENDBRANCH 101 102
ENDBRANCH  69  94
ENDBRANCH  43  44
ENDBRANCH  35  38
ENDBRANCH  33  34
ENDBRANCH  32  33
ENDBRANCH   1  32
TORSDOF 20
ENDMDL
MODEL 2
REMARK VINA RESULT:     -12.5      2.480      5.399
REMARK SMILES CCC[N@@H+]1CC2(CCN(C(=O)Cn3nnnc3C)CC2)C[C@H]1C(=O)NCCCCCCNC(=O)c1ccc(-c2c3nc(c(-c4c(F)cc(S(=O)(=O)[O-])cc4F)c4ccc([nH]4)c(-c4c(F)cc(S(=O)(=O)[O-])cc4F)c4nc(c(-c5c(F)cc(S(=O)(=O)[O-])cc5F)c5ccc2[nH]5)C=C4)C=C3)cc1
REMARK SMILES IDX 29 1 28 2 27 3 26 4 25 5 23 6 24 7 22 9 4 10 5 11 6 13 21 14
REMARK SMILES IDX 7 15 20 16 8 17 19 18 9 19 10 20 11 21 3 22 2 23 1 24 12 25
REMARK SMILES IDX 13 26 14 27 17 28 15 29 16 30 18 31 30 32 31 33 32 34 33 35
REMARK SMILES IDX 34 37 35 38 36 39 100 40 37 41 99 42 38 43 39 44 40 45 93 46
REMARK SMILES IDX 41 47 98 48 92 49 94 50 42 51 97 52 91 53 90 54 43 56 77 57
REMARK SMILES IDX 56 58 76 59 57 60 60 61 75 62 95 63 58 64 59 65 74 67 96 68
REMARK SMILES IDX 61 69 44 70 45 71 54 72 46 73 47 74 53 75 55 76 48 77 49 78
REMARK SMILES IDX 50 79 51 80 52 81 78 82 79 83 88 84 80 85 81 86 87 87 89 88
REMARK SMILES IDX 82 89 83 90 84 91 85 92 86 93 62 94 63 95 72 96 64 97 65 98
REMARK SMILES IDX 71 99 73 100 66 101 67 102 68 103 69 104 70 105
REMARK H PARENT 25 8 4 12 32 36 94 55 60 66
REMARK Flexibility Score: inf
ROOT
ATOM      1  C   UNL A   1      35.380  22.833  26.177  1.00  0.00     0.002 C 
ENDROOT
BRANCH   1   2
ATOM      2  C   UNL A   1      34.835  21.396  26.096  1.00  0.00     0.002 C 
BRANCH   2   3
ATOM      3  C   UNL A   1      33.638  21.083  26.989  1.00  0.00     0.021 C 
BRANCH   3   4
ATOM      4  C   UNL A   1      33.326  22.169  28.000  1.00  0.00     0.116 C 
BRANCH   4   5
ATOM      5  N   UNL A   1      32.038  22.779  27.892  1.00  0.00    -0.351 N 
ATOM      6  C   UNL A   1      31.505  23.510  26.877  1.00  0.00     0.278 C 
ATOM      7  O   UNL A   1      30.295  23.764  26.999  1.00  0.00    -0.268 OA
ATOM      8  H   UNL A   1      31.448  22.650  28.670  1.00  0.00     0.163 HD
BRANCH   6   9
ATOM      9  C   UNL A   1      32.258  24.010  25.603  1.00  0.00     0.274 C 
ATOM     10  N   UNL A   1      31.692  23.509  24.346  1.00  0.00    -0.324 N 
ATOM     11  C   UNL A   1      31.049  24.630  23.642  1.00  0.00     0.270 C 
ATOM     12  H   UNL A   1      30.986  22.804  24.558  1.00  0.00     0.348 HD
ATOM     13  C   UNL A   1      31.608  25.961  24.215  1.00  0.00     0.029 C 
ATOM     14  C   UNL A   1      32.530  25.499  25.368  1.00  0.00     0.088 C 
ATOM     15  C   UNL A   1      30.649  27.003  24.840  1.00  0.00     0.034 C 
ATOM     16  C   UNL A   1      32.254  26.733  23.026  1.00  0.00     0.034 C 
ATOM     17  C   UNL A   1      29.561  27.446  23.895  1.00  0.00     0.120 C 
ATOM     18  C   UNL A   1      31.174  27.276  22.048  1.00  0.00     0.120 C 
ATOM     19  N   UNL A   1      30.169  28.088  22.742  1.00  0.00    -0.341 N 
ATOM     20  C   UNL A   1      29.812  29.334  22.234  1.00  0.00     0.244 C 
ATOM     21  O   UNL A   1      30.360  29.795  21.228  1.00  0.00    -0.273 OA
BRANCH  10  22
ATOM     22  C   UNL A   1      32.679  22.781  23.511  1.00  0.00     0.262 C 
BRANCH  22  23
ATOM     23  C   UNL A   1      32.220  21.746  22.453  1.00  0.00     0.058 C 
ATOM     24  C   UNL A   1      32.294  20.275  22.856  1.00  0.00     0.010 C 
ENDBRANCH  22  23
ENDBRANCH  10  22
BRANCH  20  25
ATOM     25  C   UNL A   1      28.875  30.226  23.026  1.00  0.00     0.248 C 
BRANCH  25  26
ATOM     26  N   UNL A   1      28.385  31.389  22.325  1.00  0.00    -0.220 N 
ATOM     27  N   UNL A   1      27.572  31.267  21.267  1.00  0.00    -0.044 NA
ATOM     28  C   UNL A   1      28.650  32.719  22.549  1.00  0.00     0.148 A 
ATOM     29  N   UNL A   1      27.319  32.504  20.871  1.00  0.00    -0.024 NA
ATOM     30  N   UNL A   1      27.978  33.414  21.656  1.00  0.00    -0.114 NA
ATOM     31  C   UNL A   1      29.480  33.282  23.637  1.00  0.00     0.091 C 
ENDBRANCH  25  26
ENDBRANCH  20  25
ENDBRANCH   6   9
ENDBRANCH   4   5
ENDBRANCH   3   4
ENDBRANCH   2   3
ENDBRANCH   1   2
BRANCH   1  32
ATOM     32  C   UNL A   1      36.265  23.314  25.015  1.00  0.00     0.021 C 
BRANCH  32  33
ATOM     33  C   UNL A   1      37.652  23.757  25.445  1.00  0.00     0.116 C 
BRANCH  33  34
ATOM     34  N   UNL A   1      38.530  22.616  25.716  1.00  0.00    -0.352 N 
ATOM     35  C   UNL A   1      39.750  22.613  26.355  1.00  0.00     0.251 C 
ATOM     36  H   UNL A   1      38.208  21.741  25.401  1.00  0.00     0.163 HD
ATOM     37  O   UNL A   1      40.537  21.675  26.196  1.00  0.00    -0.269 OA
BRANCH  35  38
ATOM     38  C   UNL A   1      40.089  23.735  27.239  1.00  0.00     0.039 A 
ATOM     39  C   UNL A   1      41.378  23.926  27.742  1.00  0.00     0.014 A 
ATOM     40  C   UNL A   1      39.070  24.637  27.530  1.00  0.00     0.014 A 
ATOM     41  C   UNL A   1      41.640  25.077  28.482  1.00  0.00     0.010 A 
ATOM     42  C   UNL A   1      39.379  25.854  28.064  1.00  0.00     0.010 A 
ATOM     43  C   UNL A   1      40.633  26.045  28.624  1.00  0.00    -0.014 A 
BRANCH  43  44
ATOM     44  C   UNL A   1      40.883  27.326  29.272  1.00  0.00     0.031 A 
ATOM     45  C   UNL A   1      41.961  28.125  28.629  1.00  0.00     0.074 A 
ATOM     46  C   UNL A   1      40.044  27.830  30.205  1.00  0.00     0.049 A 
ATOM     47  N   UNL A   1      43.125  28.409  29.107  1.00  0.00    -0.248 NA
ATOM     48  C   UNL A   1      41.795  28.508  27.214  1.00  0.00     0.031 C 
ATOM     49  C   UNL A   1      38.770  27.271  30.685  1.00  0.00     0.029 A 
ATOM     50  N   UNL A   1      40.093  29.024  30.853  1.00  0.00    -0.354 N 
ATOM     51  C   UNL A   1      43.736  29.226  28.160  1.00  0.00     0.074 A 
ATOM     52  C   UNL A   1      42.978  29.063  26.948  1.00  0.00     0.031 C 
ATOM     53  C   UNL A   1      38.067  28.224  31.334  1.00  0.00     0.029 A 
ATOM     54  C   UNL A   1      38.905  29.397  31.480  1.00  0.00     0.049 A 
ATOM     55  H   UNL A   1      40.903  29.582  30.876  1.00  0.00     0.167 HD
ATOM     56  C   UNL A   1      44.640  30.174  28.533  1.00  0.00     0.037 A 
ATOM     57  C   UNL A   1      38.630  30.595  32.055  1.00  0.00     0.037 A 
ATOM     58  C   UNL A   1      45.096  29.941  29.883  1.00  0.00     0.049 A 
ATOM     59  C   UNL A   1      39.940  31.243  32.327  1.00  0.00     0.074 A 
ATOM     60  C   UNL A   1      45.739  28.902  30.528  1.00  0.00     0.029 A 
ATOM     61  N   UNL A   1      44.537  30.711  30.875  1.00  0.00    -0.354 N 
ATOM     62  N   UNL A   1      40.817  30.774  33.176  1.00  0.00    -0.248 NA
ATOM     63  C   UNL A   1      40.477  32.125  31.302  1.00  0.00     0.031 C 
ATOM     64  C   UNL A   1      45.132  28.836  31.816  1.00  0.00     0.029 A 
ATOM     65  C   UNL A   1      44.214  29.882  31.920  1.00  0.00     0.049 A 
ATOM     66  H   UNL A   1      44.393  31.684  30.843  1.00  0.00     0.167 HD
ATOM     67  C   UNL A   1      42.045  30.940  32.548  1.00  0.00     0.074 A 
ATOM     68  C   UNL A   1      41.778  31.849  31.433  1.00  0.00     0.031 C 
ATOM     69  C   UNL A   1      43.093  30.103  32.810  1.00  0.00     0.037 A 
BRANCH  56  70
ATOM     70  C   UNL A   1      44.809  31.519  27.858  1.00  0.00     0.058 A 
ATOM     71  C   UNL A   1      46.009  31.786  27.165  1.00  0.00     0.135 A 
ATOM     72  C   UNL A   1      43.990  32.642  28.105  1.00  0.00     0.135 A 
ATOM     73  F   UNL A   1      46.867  30.795  26.871  1.00  0.00    -0.206 F 
ATOM     74  C   UNL A   1      46.407  33.081  26.829  1.00  0.00     0.059 A 
ATOM     75  C   UNL A   1      44.341  33.934  27.729  1.00  0.00     0.059 A 
ATOM     76  F   UNL A   1      42.857  32.567  28.810  1.00  0.00    -0.206 F 
ATOM     77  C   UNL A   1      45.572  34.151  27.133  1.00  0.00     0.060 A 
BRANCH  77  78
ATOM     78  S   UNL A   1      46.130  35.830  26.802  1.00  0.00     0.124 S 
ATOM     79  O   UNL A   1      44.912  36.594  27.047  1.00  0.00    -0.237 OA
ATOM     80  O   UNL A   1      47.196  35.992  27.785  1.00  0.00    -0.237 OA
ATOM     81  O   UNL A   1      46.570  35.770  25.412  1.00  0.00    -0.744 OA
ENDBRANCH  77  78
ENDBRANCH  56  70
BRANCH  57  82
ATOM     82  C   UNL A   1      37.344  31.347  32.042  1.00  0.00     0.058 A 
ATOM     83  C   UNL A   1      36.770  31.845  33.226  1.00  0.00     0.135 A 
ATOM     84  C   UNL A   1      36.795  31.839  30.838  1.00  0.00     0.135 A 
ATOM     85  F   UNL A   1      37.241  31.450  34.419  1.00  0.00    -0.206 F 
ATOM     86  C   UNL A   1      35.750  32.806  33.219  1.00  0.00     0.059 A 
ATOM     87  C   UNL A   1      35.774  32.789  30.807  1.00  0.00     0.059 A 
ATOM     88  F   UNL A   1      37.300  31.474  29.649  1.00  0.00    -0.206 F 
ATOM     89  C   UNL A   1      35.272  33.288  32.001  1.00  0.00     0.060 A 
BRANCH  89  90
ATOM     90  S   UNL A   1      34.080  34.652  31.982  1.00  0.00     0.124 S 
ATOM     91  O   UNL A   1      33.059  34.175  32.909  1.00  0.00    -0.237 OA
ATOM     92  O   UNL A   1      34.886  35.775  32.445  1.00  0.00    -0.237 OA
ATOM     93  O   UNL A   1      33.667  34.721  30.583  1.00  0.00    -0.744 OA
ENDBRANCH  89  90
ENDBRANCH  57  82
BRANCH  69  94
ATOM     94  C   UNL A   1      42.997  29.183  34.004  1.00  0.00     0.058 A 
ATOM     95  C   UNL A   1      42.354  27.931  34.007  1.00  0.00     0.135 A 
ATOM     96  C   UNL A   1      43.741  29.518  35.145  1.00  0.00     0.135 A 
ATOM     97  F   UNL A   1      41.701  27.488  32.925  1.00  0.00    -0.206 F 
ATOM     98  C   UNL A   1      42.425  27.068  35.105  1.00  0.00     0.059 A 
ATOM     99  C   UNL A   1      43.850  28.663  36.238  1.00  0.00     0.059 A 
ATOM    100  F   UNL A   1      44.427  30.673  35.184  1.00  0.00    -0.206 F 
ATOM    101  C   UNL A   1      43.180  27.443  36.217  1.00  0.00     0.060 A 
BRANCH 101 102
ATOM    102  S   UNL A   1      43.338  26.298  37.605  1.00  0.00     0.124 S 
ATOM    103  O   UNL A   1      43.952  25.135  36.976  1.00  0.00    -0.237 OA
ATOM    104  O   UNL A   1      44.185  27.039  38.535  1.00  0.00    -0.237 OA
ATOM    105  O   UNL A   1      41.958  26.110  38.049  1.00  0.00    -0.744 OA
ENDBRANCH 101 102
ENDBRANCH  69  94
ENDBRANCH  43  44
ENDBRANCH  35  38
ENDBRANCH  33  34
ENDBRANCH  32  33
ENDBRANCH   1  32
TORSDOF 20
ENDMDL
MODEL 3
REMARK VINA RESULT:     -12.5      2.886      5.686
REMARK SMILES CCC[N@@H+]1CC2(CCN(C(=O)Cn3nnnc3C)CC2)C[C@H]1C(=O)NCCCCCCNC(=O)c1ccc(-c2c3nc(c(-c4c(F)cc(S(=O)(=O)[O-])cc4F)c4ccc([nH]4)c(-c4c(F)cc(S(=O)(=O)[O-])cc4F)c4nc(c(-c5c(F)cc(S(=O)(=O)[O-])cc5F)c5ccc2[nH]5)C=C4)C=C3)cc1
REMARK SMILES IDX 29 1 28 2 27 3 26 4 25 5 23 6 24 7 22 9 4 10 5 11 6 13 21 14
REMARK SMILES IDX 7 15 20 16 8 17 19 18 9 19 10 20 11 21 3 22 2 23 1 24 12 25
REMARK SMILES IDX 13 26 14 27 17 28 15 29 16 30 18 31 30 32 31 33 32 34 33 35
REMARK SMILES IDX 34 37 35 38 36 39 100 40 37 41 99 42 38 43 39 44 40 45 93 46
REMARK SMILES IDX 41 47 98 48 92 49 94 50 42 51 97 52 91 53 90 54 43 56 77 57
REMARK SMILES IDX 56 58 76 59 57 60 60 61 75 62 95 63 58 64 59 65 74 67 96 68
REMARK SMILES IDX 61 69 44 70 45 71 54 72 46 73 47 74 53 75 55 76 48 77 49 78
REMARK SMILES IDX 50 79 51 80 52 81 78 82 79 83 88 84 80 85 81 86 87 87 89 88
REMARK SMILES IDX 82 89 83 90 84 91 85 92 86 93 62 94 63 95 72 96 64 97 65 98
REMARK SMILES IDX 71 99 73 100 66 101 67 102 68 103 69 104 70 105
REMARK H PARENT 25 8 4 12 32 36 94 55 60 66
REMARK Flexibility Score: inf
ROOT
ATOM      1  C   UNL A   1      39.663  22.496  27.193  1.00  0.00     0.002 C 
ENDROOT
BRANCH   1   2
ATOM      2  C   UNL A   1      38.738  23.438  26.403  1.00  0.00     0.002 C 
BRANCH   2   3
ATOM      3  C   UNL A   1      37.824  22.775  25.377  1.00  0.00     0.021 C 
BRANCH   3   4
ATOM      4  C   UNL A   1      36.663  22.016  25.989  1.00  0.00     0.116 C 
BRANCH   4   5
ATOM      5  N   UNL A   1      35.669  22.807  26.644  1.00  0.00    -0.351 N 
ATOM      6  C   UNL A   1      34.610  23.481  26.121  1.00  0.00     0.278 C 
ATOM      7  O   UNL A   1      33.818  23.940  26.961  1.00  0.00    -0.268 OA
ATOM      8  H   UNL A   1      35.765  22.874  27.621  1.00  0.00     0.163 HD
BRANCH   6   9
ATOM      9  C   UNL A   1      34.306  23.689  24.602  1.00  0.00     0.274 C 
ATOM     10  N   UNL A   1      33.030  23.109  24.169  1.00  0.00    -0.324 N 
ATOM     11  C   UNL A   1      32.096  24.207  23.865  1.00  0.00     0.270 C 
ATOM     12  H   UNL A   1      32.645  22.550  24.930  1.00  0.00     0.348 HD
ATOM     13  C   UNL A   1      32.915  25.508  23.645  1.00  0.00     0.029 C 
ATOM     14  C   UNL A   1      34.369  25.077  23.958  1.00  0.00     0.088 C 
ATOM     15  C   UNL A   1      32.652  26.753  24.525  1.00  0.00     0.034 C 
ATOM     16  C   UNL A   1      32.595  26.010  22.205  1.00  0.00     0.034 C 
ATOM     17  C   UNL A   1      31.217  27.216  24.477  1.00  0.00     0.120 C 
ATOM     18  C   UNL A   1      31.147  26.565  22.108  1.00  0.00     0.120 C 
ATOM     19  N   UNL A   1      30.891  27.602  23.115  1.00  0.00    -0.341 N 
ATOM     20  C   UNL A   1      30.303  28.805  22.738  1.00  0.00     0.244 C 
ATOM     21  O   UNL A   1      30.030  29.042  21.557  1.00  0.00    -0.273 OA
BRANCH  10  22
ATOM     22  C   UNL A   1      33.177  22.140  23.056  1.00  0.00     0.262 C 
BRANCH  22  23
ATOM     23  C   UNL A   1      32.697  20.675  23.207  1.00  0.00     0.058 C 
ATOM     24  C   UNL A   1      31.912  20.086  22.036  1.00  0.00     0.010 C 
ENDBRANCH  22  23
ENDBRANCH  10  22
BRANCH  20  25
ATOM     25  C   UNL A   1      30.166  29.923  23.754  1.00  0.00     0.248 C 
BRANCH  25  26
ATOM     26  N   UNL A   1      29.072  30.837  23.527  1.00  0.00    -0.220 N 
ATOM     27  N   UNL A   1      29.280  32.159  23.452  1.00  0.00    -0.044 NA
ATOM     28  C   UNL A   1      27.729  30.575  23.392  1.00  0.00     0.148 A 
ATOM     29  N   UNL A   1      28.087  32.693  23.242  1.00  0.00    -0.024 NA
ATOM     30  N   UNL A   1      27.118  31.725  23.200  1.00  0.00    -0.114 NA
ATOM     31  C   UNL A   1      27.087  29.243  23.388  1.00  0.00     0.091 C 
ENDBRANCH  25  26
ENDBRANCH  20  25
ENDBRANCH   6   9
ENDBRANCH   4   5
ENDBRANCH   3   4
ENDBRANCH   2   3
ENDBRANCH   1   2
BRANCH   1  32
ATOM     32  C   UNL A   1      40.173  21.241  26.466  1.00  0.00     0.021 C 
BRANCH  32  33
ATOM     33  C   UNL A   1      41.219  20.464  27.245  1.00  0.00     0.116 C 
BRANCH  33  34
ATOM     34  N   UNL A   1      42.392  20.154  26.425  1.00  0.00    -0.352 N 
ATOM     35  C   UNL A   1      43.213  21.028  25.748  1.00  0.00     0.251 C 
ATOM     36  H   UNL A   1      42.624  19.200  26.349  1.00  0.00     0.163 HD
ATOM     37  O   UNL A   1      43.924  20.627  24.820  1.00  0.00    -0.269 OA
BRANCH  35  38
ATOM     38  C   UNL A   1      43.239  22.437  26.158  1.00  0.00     0.039 A 
ATOM     39  C   UNL A   1      42.684  23.452  25.375  1.00  0.00     0.014 A 
ATOM     40  C   UNL A   1      43.811  22.723  27.394  1.00  0.00     0.014 A 
ATOM     41  C   UNL A   1      42.651  24.747  25.889  1.00  0.00     0.010 A 
ATOM     42  C   UNL A   1      43.583  23.936  27.977  1.00  0.00     0.010 A 
ATOM     43  C   UNL A   1      43.091  24.974  27.202  1.00  0.00    -0.014 A 
BRANCH  43  44
ATOM     44  C   UNL A   1      42.961  26.276  27.842  1.00  0.00     0.031 A 
ATOM     45  C   UNL A   1      44.021  27.246  27.454  1.00  0.00     0.074 A 
ATOM     46  C   UNL A   1      41.846  26.631  28.520  1.00  0.00     0.049 A 
ATOM     47  N   UNL A   1      44.967  27.718  28.194  1.00  0.00    -0.248 NA
ATOM     48  C   UNL A   1      44.153  27.601  26.029  1.00  0.00     0.031 C 
ATOM     49  C   UNL A   1      40.600  25.867  28.691  1.00  0.00     0.029 A 
ATOM     50  N   UNL A   1      41.537  27.815  29.113  1.00  0.00    -0.354 N 
ATOM     51  C   UNL A   1      45.655  28.628  27.396  1.00  0.00     0.074 A 
ATOM     52  C   UNL A   1      45.260  28.346  26.042  1.00  0.00     0.031 C 
ATOM     53  C   UNL A   1      39.612  26.688  29.110  1.00  0.00     0.029 A 
ATOM     54  C   UNL A   1      40.187  27.983  29.414  1.00  0.00     0.049 A 
ATOM     55  H   UNL A   1      42.214  28.499  29.315  1.00  0.00     0.167 HD
ATOM     56  C   UNL A   1      46.272  29.711  27.945  1.00  0.00     0.037 A 
ATOM     57  C   UNL A   1      39.587  29.117  29.858  1.00  0.00     0.037 A 
ATOM     58  C   UNL A   1      46.409  29.552  29.374  1.00  0.00     0.049 A 
ATOM     59  C   UNL A   1      40.666  29.972  30.419  1.00  0.00     0.074 A 
ATOM     60  C   UNL A   1      47.029  28.632  30.195  1.00  0.00     0.029 A 
ATOM     61  N   UNL A   1      45.503  30.215  30.167  1.00  0.00    -0.354 N 
ATOM     62  N   UNL A   1      41.367  29.652  31.475  1.00  0.00    -0.248 NA
ATOM     63  C   UNL A   1      41.291  30.934  29.526  1.00  0.00     0.031 C 
ATOM     64  C   UNL A   1      46.139  28.462  31.296  1.00  0.00     0.029 A 
ATOM     65  C   UNL A   1      45.067  29.340  31.130  1.00  0.00     0.049 A 
ATOM     66  H   UNL A   1      45.216  31.152  30.063  1.00  0.00     0.167 HD
ATOM     67  C   UNL A   1      42.669  30.022  31.164  1.00  0.00     0.074 A 
ATOM     68  C   UNL A   1      42.545  30.877  29.983  1.00  0.00     0.031 C 
ATOM     69  C   UNL A   1      43.740  29.369  31.708  1.00  0.00     0.037 A 
BRANCH  56  70
ATOM     70  C   UNL A   1      46.385  31.068  27.281  1.00  0.00     0.058 A 
ATOM     71  C   UNL A   1      47.642  31.709  27.252  1.00  0.00     0.135 A 
ATOM     72  C   UNL A   1      45.282  31.883  26.944  1.00  0.00     0.135 A 
ATOM     73  F   UNL A   1      48.763  31.034  27.552  1.00  0.00    -0.206 F 
ATOM     74  C   UNL A   1      47.779  33.074  27.000  1.00  0.00     0.059 A 
ATOM     75  C   UNL A   1      45.404  33.233  26.635  1.00  0.00     0.059 A 
ATOM     76  F   UNL A   1      44.020  31.445  26.992  1.00  0.00    -0.206 F 
ATOM     77  C   UNL A   1      46.650  33.832  26.710  1.00  0.00     0.060 A 
BRANCH  77  78
ATOM     78  S   UNL A   1      46.809  35.612  26.494  1.00  0.00     0.124 S 
ATOM     79  O   UNL A   1      47.573  35.686  25.254  1.00  0.00    -0.237 OA
ATOM     80  O   UNL A   1      45.414  36.031  26.413  1.00  0.00    -0.237 OA
ATOM     81  O   UNL A   1      47.516  36.034  27.699  1.00  0.00    -0.744 OA
ENDBRANCH  77  78
ENDBRANCH  56  70
BRANCH  57  82
ATOM     82  C   UNL A   1      38.241  29.645  29.499  1.00  0.00     0.058 A 
ATOM     83  C   UNL A   1      37.367  30.156  30.475  1.00  0.00     0.135 A 
ATOM     84  C   UNL A   1      37.896  29.921  28.159  1.00  0.00     0.135 A 
ATOM     85  F   UNL A   1      37.625  29.961  31.778  1.00  0.00    -0.206 F 
ATOM     86  C   UNL A   1      36.247  30.934  30.147  1.00  0.00     0.059 A 
ATOM     87  C   UNL A   1      36.782  30.686  27.808  1.00  0.00     0.059 A 
ATOM     88  F   UNL A   1      38.685  29.529  27.147  1.00  0.00    -0.206 F 
ATOM     89  C   UNL A   1      35.975  31.211  28.809  1.00  0.00     0.060 A 
BRANCH  89  90
ATOM     90  S   UNL A   1      34.636  32.354  28.384  1.00  0.00     0.124 S 
ATOM     91  O   UNL A   1      35.346  33.391  27.643  1.00  0.00    -0.237 OA
ATOM     92  O   UNL A   1      33.743  31.509  27.600  1.00  0.00    -0.237 OA
ATOM     93  O   UNL A   1      34.116  32.765  29.686  1.00  0.00    -0.744 OA
ENDBRANCH  89  90
ENDBRANCH  57  82
BRANCH  69  94
ATOM     94  C   UNL A   1      43.498  28.442  32.875  1.00  0.00     0.058 A 
ATOM     95  C   UNL A   1      43.413  27.040  32.787  1.00  0.00     0.135 A 
ATOM     96  C   UNL A   1      43.528  28.997  34.164  1.00  0.00     0.135 A 
ATOM     97  F   UNL A   1      43.474  26.419  31.602  1.00  0.00    -0.206 F 
ATOM     98  C   UNL A   1      43.331  26.233  33.925  1.00  0.00     0.059 A 
ATOM     99  C   UNL A   1      43.477  28.211  35.311  1.00  0.00     0.059 A 
ATOM    100  F   UNL A   1      43.668  30.324  34.319  1.00  0.00    -0.206 F 
ATOM    101  C   UNL A   1      43.367  26.829  35.186  1.00  0.00     0.060 A 
BRANCH 101 102
ATOM    102  S   UNL A   1      43.340  25.785  36.659  1.00  0.00     0.124 S 
ATOM    103  O   UNL A   1      44.760  25.569  36.910  1.00  0.00    -0.237 OA
ATOM    104  O   UNL A   1      42.643  26.622  37.631  1.00  0.00    -0.237 OA
ATOM    105  O   UNL A   1      42.597  24.603  36.225  1.00  0.00    -0.744 OA
ENDBRANCH 101 102
ENDBRANCH  69  94
ENDBRANCH  43  44
ENDBRANCH  35  38
ENDBRANCH  33  34
ENDBRANCH  32  33
ENDBRANCH   1  32
TORSDOF 20
ENDMDL
