MODEL 1
REMARK VINA RESULT:     -11.1      0.000      0.000
REMARK SMILES CN(C)C(=O)c1ccc(NC[C@@H]2CC[C@@H](C(=O)NCCCCCCNC(=O)c3ccc(-c4c5nc(c(-c6c(F)cc(S(=O)(=O)[O-])cc6F)c6ccc([nH]6)c(-c6c(F)cc(S(=O)(=O)[O-])cc6F)c6nc(c(-c7c(F)cc(S(=O)(=O)[O-])cc7F)c7ccc4[nH]7)C=C6)C=C5)cc3)O2)nn1
REMARK SMILES IDX 21 1 20 2 19 3 18 4 16 5 17 6 15 8 12 9 13 10 94 11 14 12
REMARK SMILES IDX 11 13 10 14 9 16 6 17 7 18 96 19 8 20 95 21 4 22 1 23 2 24
REMARK SMILES IDX 3 25 5 26 22 27 23 28 24 29 25 30 26 31 27 33 28 34 29 35
REMARK SMILES IDX 93 36 30 37 92 38 31 39 32 40 33 41 86 42 34 43 91 44 85 45
REMARK SMILES IDX 87 46 35 47 90 48 84 49 83 50 36 52 70 53 49 54 69 55 50 56
REMARK SMILES IDX 53 57 68 58 88 59 51 60 52 61 67 63 89 64 54 65 37 66 38 67
REMARK SMILES IDX 47 68 39 69 40 70 46 71 48 72 41 73 42 74 43 75 44 76 45 77
REMARK SMILES IDX 71 78 72 79 81 80 73 81 74 82 80 83 82 84 75 85 76 86 77 87
REMARK SMILES IDX 78 88 79 89 55 90 56 91 65 92 57 93 58 94 64 95 66 96 59 97
REMARK SMILES IDX 60 98 61 99 62 100 63 101
REMARK H PARENT 18 7 10 15 25 32 87 51 53 62
REMARK Flexibility Score: inf
ROOT
ATOM      1  C   UNL A   1      37.246  21.456  24.541  1.00  0.00     0.002 C 
ENDROOT
BRANCH   1   2
ATOM      2  C   UNL A   1      36.423  20.246  25.006  1.00  0.00     0.021 C 
BRANCH   2   3
ATOM      3  C   UNL A   1      35.004  20.595  25.457  1.00  0.00     0.116 C 
BRANCH   3   4
ATOM      4  N   UNL A   1      34.038  20.163  24.460  1.00  0.00    -0.354 N 
ATOM      5  C   UNL A   1      32.873  20.775  24.089  1.00  0.00     0.249 C 
ATOM      6  O   UNL A   1      32.142  20.201  23.280  1.00  0.00    -0.272 OA
ATOM      7  H   UNL A   1      34.251  19.323  23.992  1.00  0.00     0.163 HD
BRANCH   5   8
ATOM      8  C   UNL A   1      32.538  22.140  24.702  1.00  0.00     0.207 C 
ATOM      9  C   UNL A   1      30.952  23.627  23.859  1.00  0.00     0.138 C 
ATOM     10  C   UNL A   1      30.701  23.478  25.350  1.00  0.00     0.037 C 
ATOM     11  O   UNL A   1      32.260  23.075  23.643  1.00  0.00    -0.363 OA
ATOM     12  C   UNL A   1      31.318  22.128  25.614  1.00  0.00     0.045 C 
BRANCH   9  13
ATOM     13  C   UNL A   1      30.830  25.053  23.311  1.00  0.00     0.146 C 
BRANCH  13  14
ATOM     14  N   UNL A   1      30.398  26.004  24.329  1.00  0.00    -0.366 N 
ATOM     15  H   UNL A   1      29.443  26.089  24.551  1.00  0.00     0.162 HD
BRANCH  14  16
ATOM     16  C   UNL A   1      31.335  26.791  24.985  1.00  0.00     0.148 A 
ATOM     17  C   UNL A   1      33.139  28.357  26.317  1.00  0.00     0.151 A 
ATOM     18  C   UNL A   1      32.195  27.669  27.056  1.00  0.00     0.040 A 
ATOM     19  N   UNL A   1      33.198  28.262  24.974  1.00  0.00    -0.143 NA
ATOM     20  C   UNL A   1      31.296  26.856  26.373  1.00  0.00     0.051 A 
ATOM     21  N   UNL A   1      32.293  27.462  24.313  1.00  0.00    -0.132 NA
BRANCH  17  22
ATOM     22  C   UNL A   1      34.091  29.291  26.958  1.00  0.00     0.273 C 
ATOM     23  C   UNL A   1      34.727  31.517  27.682  1.00  0.00     0.146 C 
ATOM     24  N   UNL A   1      33.725  30.631  27.127  1.00  0.00    -0.343 N 
ATOM     25  C   UNL A   1      32.380  31.157  26.984  1.00  0.00     0.146 C 
ATOM     26  O   UNL A   1      35.187  28.852  27.296  1.00  0.00    -0.267 OA
ENDBRANCH  17  22
ENDBRANCH  14  16
ENDBRANCH  13  14
ENDBRANCH   9  13
ENDBRANCH   5   8
ENDBRANCH   3   4
ENDBRANCH   2   3
ENDBRANCH   1   2
BRANCH   1  27
ATOM     27  C   UNL A   1      38.053  22.150  25.644  1.00  0.00     0.002 C 
BRANCH  27  28
ATOM     28  C   UNL A   1      37.580  23.561  26.001  1.00  0.00     0.021 C 
BRANCH  28  29
ATOM     29  C   UNL A   1      38.631  24.431  26.684  1.00  0.00     0.116 C 
BRANCH  29  30
ATOM     30  N   UNL A   1      39.841  24.563  25.884  1.00  0.00    -0.352 N 
ATOM     31  C   UNL A   1      40.901  25.419  26.051  1.00  0.00     0.251 C 
ATOM     32  H   UNL A   1      39.907  23.952  25.116  1.00  0.00     0.163 HD
ATOM     33  O   UNL A   1      41.753  25.528  25.172  1.00  0.00    -0.269 OA
BRANCH  31  34
ATOM     34  C   UNL A   1      40.998  26.228  27.283  1.00  0.00     0.039 A 
ATOM     35  C   UNL A   1      41.834  27.346  27.297  1.00  0.00     0.014 A 
ATOM     36  C   UNL A   1      40.242  25.897  28.412  1.00  0.00     0.014 A 
ATOM     37  C   UNL A   1      41.843  28.186  28.414  1.00  0.00     0.010 A 
ATOM     38  C   UNL A   1      40.205  26.768  29.498  1.00  0.00     0.010 A 
ATOM     39  C   UNL A   1      40.991  27.931  29.502  1.00  0.00    -0.014 A 
BRANCH  39  40
ATOM     40  C   UNL A   1      40.869  28.894  30.627  1.00  0.00     0.031 A 
ATOM     41  C   UNL A   1      41.739  28.756  31.844  1.00  0.00     0.074 A 
ATOM     42  C   UNL A   1      39.920  29.852  30.578  1.00  0.00     0.049 A 
ATOM     43  N   UNL A   1      41.696  29.424  32.967  1.00  0.00    -0.248 NA
ATOM     44  C   UNL A   1      42.780  27.717  31.802  1.00  0.00     0.031 C 
ATOM     45  C   UNL A   1      38.993  30.068  29.463  1.00  0.00     0.029 A 
ATOM     46  N   UNL A   1      39.567  30.817  31.489  1.00  0.00    -0.354 N 
ATOM     47  C   UNL A   1      42.696  28.885  33.769  1.00  0.00     0.074 A 
ATOM     48  C   UNL A   1      43.299  27.804  33.019  1.00  0.00     0.031 C 
ATOM     49  C   UNL A   1      38.197  31.112  29.746  1.00  0.00     0.029 A 
ATOM     50  C   UNL A   1      38.516  31.607  31.082  1.00  0.00     0.049 A 
ATOM     51  H   UNL A   1      40.025  30.934  32.353  1.00  0.00     0.167 HD
ATOM     52  C   UNL A   1      43.085  29.270  35.009  1.00  0.00     0.037 A 
ATOM     53  C   UNL A   1      37.858  32.593  31.723  1.00  0.00     0.037 A 
ATOM     54  C   UNL A   1      42.486  30.359  35.740  1.00  0.00     0.049 A 
ATOM     55  C   UNL A   1      38.255  32.943  33.128  1.00  0.00     0.074 A 
ATOM     56  C   UNL A   1      42.849  30.867  36.975  1.00  0.00     0.029 A 
ATOM     57  N   UNL A   1      41.395  31.100  35.310  1.00  0.00    -0.354 N 
ATOM     58  N   UNL A   1      39.227  32.447  33.856  1.00  0.00    -0.248 NA
ATOM     59  C   UNL A   1      37.449  33.966  33.810  1.00  0.00     0.031 C 
ATOM     60  C   UNL A   1      41.944  31.875  37.317  1.00  0.00     0.029 A 
ATOM     61  C   UNL A   1      41.046  32.033  36.273  1.00  0.00     0.049 A 
ATOM     62  H   UNL A   1      40.935  30.980  34.447  1.00  0.00     0.167 HD
ATOM     63  C   UNL A   1      39.161  33.111  35.075  1.00  0.00     0.074 A 
ATOM     64  C   UNL A   1      38.061  34.049  34.984  1.00  0.00     0.031 C 
ATOM     65  C   UNL A   1      39.945  32.958  36.171  1.00  0.00     0.037 A 
BRANCH  52  66
ATOM     66  C   UNL A   1      44.208  28.511  35.660  1.00  0.00     0.058 A 
ATOM     67  C   UNL A   1      45.551  28.873  35.471  1.00  0.00     0.135 A 
ATOM     68  C   UNL A   1      43.936  27.440  36.527  1.00  0.00     0.135 A 
ATOM     69  F   UNL A   1      45.869  29.881  34.643  1.00  0.00    -0.206 F 
ATOM     70  C   UNL A   1      46.586  28.185  36.096  1.00  0.00     0.059 A 
ATOM     71  C   UNL A   1      44.953  26.755  37.186  1.00  0.00     0.059 A 
ATOM     72  F   UNL A   1      42.669  27.052  36.745  1.00  0.00    -0.206 F 
ATOM     73  C   UNL A   1      46.276  27.127  36.953  1.00  0.00     0.060 A 
BRANCH  73  74
ATOM     74  S   UNL A   1      47.631  26.250  37.763  1.00  0.00     0.124 S 
ATOM     75  O   UNL A   1      48.129  27.268  38.682  1.00  0.00    -0.237 OA
ATOM     76  O   UNL A   1      46.945  25.119  38.380  1.00  0.00    -0.237 OA
ATOM     77  O   UNL A   1      48.525  25.911  36.660  1.00  0.00    -0.744 OA
ENDBRANCH  73  74
ENDBRANCH  52  66
BRANCH  53  78
ATOM     78  C   UNL A   1      36.704  33.269  31.072  1.00  0.00     0.058 A 
ATOM     79  C   UNL A   1      36.869  34.212  30.051  1.00  0.00     0.135 A 
ATOM     80  C   UNL A   1      35.396  32.978  31.482  1.00  0.00     0.135 A 
ATOM     81  F   UNL A   1      38.103  34.552  29.647  1.00  0.00    -0.206 F 
ATOM     82  C   UNL A   1      35.776  34.839  29.460  1.00  0.00     0.059 A 
ATOM     83  C   UNL A   1      34.283  33.557  30.884  1.00  0.00     0.059 A 
ATOM     84  F   UNL A   1      35.209  32.110  32.483  1.00  0.00    -0.206 F 
ATOM     85  C   UNL A   1      34.487  34.499  29.879  1.00  0.00     0.060 A 
BRANCH  85  86
ATOM     86  S   UNL A   1      33.080  35.301  29.075  1.00  0.00     0.124 S 
ATOM     87  O   UNL A   1      32.211  35.572  30.215  1.00  0.00    -0.237 OA
ATOM     88  O   UNL A   1      33.706  36.467  28.461  1.00  0.00    -0.237 OA
ATOM     89  O   UNL A   1      32.600  34.288  28.142  1.00  0.00    -0.744 OA
ENDBRANCH  85  86
ENDBRANCH  53  78
BRANCH  65  90
ATOM     90  C   UNL A   1      39.657  33.836  37.355  1.00  0.00     0.058 A 
ATOM     91  C   UNL A   1      38.844  33.401  38.413  1.00  0.00     0.135 A 
ATOM     92  C   UNL A   1      40.252  35.104  37.461  1.00  0.00     0.135 A 
ATOM     93  F   UNL A   1      38.241  32.204  38.353  1.00  0.00    -0.206 F 
ATOM     94  C   UNL A   1      38.623  34.198  39.532  1.00  0.00     0.059 A 
ATOM     95  C   UNL A   1      40.067  35.905  38.582  1.00  0.00     0.059 A 
ATOM     96  F   UNL A   1      41.041  35.564  36.477  1.00  0.00    -0.206 F 
ATOM     97  C   UNL A   1      39.246  35.445  39.611  1.00  0.00     0.060 A 
BRANCH  97  98
ATOM     98  S   UNL A   1      38.997  36.440  41.096  1.00  0.00     0.124 S 
ATOM     99  O   UNL A   1      38.655  37.740  40.528  1.00  0.00    -0.237 OA
ATOM    100  O   UNL A   1      37.910  35.733  41.765  1.00  0.00    -0.237 OA
ATOM    101  O   UNL A   1      40.290  36.371  41.772  1.00  0.00    -0.744 OA
ENDBRANCH  97  98
ENDBRANCH  65  90
ENDBRANCH  39  40
ENDBRANCH  31  34
ENDBRANCH  29  30
ENDBRANCH  28  29
ENDBRANCH  27  28
ENDBRANCH   1  27
TORSDOF 20
ENDMDL
MODEL 2
REMARK VINA RESULT:     -10.9      6.483     12.038
REMARK SMILES CN(C)C(=O)c1ccc(NC[C@@H]2CC[C@@H](C(=O)NCCCCCCNC(=O)c3ccc(-c4c5nc(c(-c6c(F)cc(S(=O)(=O)[O-])cc6F)c6ccc([nH]6)c(-c6c(F)cc(S(=O)(=O)[O-])cc6F)c6nc(c(-c7c(F)cc(S(=O)(=O)[O-])cc7F)c7ccc4[nH]7)C=C6)C=C5)cc3)O2)nn1
REMARK SMILES IDX 21 1 20 2 19 3 18 4 16 5 17 6 15 8 12 9 13 10 94 11 14 12
REMARK SMILES IDX 11 13 10 14 9 16 6 17 7 18 96 19 8 20 95 21 4 22 1 23 2 24
REMARK SMILES IDX 3 25 5 26 22 27 23 28 24 29 25 30 26 31 27 33 28 34 29 35
REMARK SMILES IDX 93 36 30 37 92 38 31 39 32 40 33 41 86 42 34 43 91 44 85 45
REMARK SMILES IDX 87 46 35 47 90 48 84 49 83 50 36 52 70 53 49 54 69 55 50 56
REMARK SMILES IDX 53 57 68 58 88 59 51 60 52 61 67 63 89 64 54 65 37 66 38 67
REMARK SMILES IDX 47 68 39 69 40 70 46 71 48 72 41 73 42 74 43 75 44 76 45 77
REMARK SMILES IDX 71 78 72 79 81 80 73 81 74 82 80 83 82 84 75 85 76 86 77 87
REMARK SMILES IDX 78 88 79 89 55 90 56 91 65 92 57 93 58 94 64 95 66 96 59 97
REMARK SMILES IDX 60 98 61 99 62 100 63 101
REMARK H PARENT 18 7 10 15 25 32 87 51 53 62
REMARK Flexibility Score: inf
ROOT
ATOM      1  C   UNL A   1      32.098  30.501  26.960  1.00  0.00     0.002 C 
ENDROOT
BRANCH   1   2
ATOM      2  C   UNL A   1      31.395  30.540  25.596  1.00  0.00     0.021 C 
BRANCH   2   3
ATOM      3  C   UNL A   1      31.780  29.390  24.665  1.00  0.00     0.116 C 
BRANCH   3   4
ATOM      4  N   UNL A   1      31.066  29.502  23.404  1.00  0.00    -0.354 N 
ATOM      5  C   UNL A   1      30.251  28.580  22.807  1.00  0.00     0.249 C 
ATOM      6  O   UNL A   1      29.804  28.831  21.685  1.00  0.00    -0.272 OA
ATOM      7  H   UNL A   1      31.182  30.350  22.918  1.00  0.00     0.163 HD
BRANCH   5   8
ATOM      8  C   UNL A   1      29.942  27.281  23.561  1.00  0.00     0.207 C 
ATOM      9  C   UNL A   1      31.333  25.410  23.620  1.00  0.00     0.138 C 
ATOM     10  C   UNL A   1      30.918  25.724  25.047  1.00  0.00     0.037 C 
ATOM     11  O   UNL A   1      30.432  26.164  22.795  1.00  0.00    -0.363 OA
ATOM     12  C   UNL A   1      30.589  27.192  24.936  1.00  0.00     0.045 C 
BRANCH   9  13
ATOM     13  C   UNL A   1      31.344  23.922  23.252  1.00  0.00     0.146 C 
BRANCH  13  14
ATOM     14  N   UNL A   1      32.475  23.568  22.402  1.00  0.00    -0.366 N 
ATOM     15  H   UNL A   1      32.409  23.672  21.426  1.00  0.00     0.162 HD
BRANCH  14  16
ATOM     16  C   UNL A   1      33.645  23.085  22.971  1.00  0.00     0.148 A 
ATOM     17  C   UNL A   1      35.922  22.128  24.146  1.00  0.00     0.151 A 
ATOM     18  C   UNL A   1      34.706  21.625  24.567  1.00  0.00     0.040 A 
ATOM     19  N   UNL A   1      36.010  23.055  23.172  1.00  0.00    -0.143 NA
ATOM     20  C   UNL A   1      33.553  22.100  23.949  1.00  0.00     0.051 A 
ATOM     21  N   UNL A   1      34.859  23.522  22.579  1.00  0.00    -0.132 NA
BRANCH  17  22
ATOM     22  C   UNL A   1      37.190  21.724  24.794  1.00  0.00     0.273 C 
ATOM     23  C   UNL A   1      39.136  22.219  26.155  1.00  0.00     0.146 C 
ATOM     24  N   UNL A   1      37.858  22.638  25.616  1.00  0.00    -0.343 N 
ATOM     25  C   UNL A   1      37.295  23.872  26.130  1.00  0.00     0.146 C 
ATOM     26  O   UNL A   1      37.622  20.598  24.560  1.00  0.00    -0.267 OA
ENDBRANCH  17  22
ENDBRANCH  14  16
ENDBRANCH  13  14
ENDBRANCH   9  13
ENDBRANCH   5   8
ENDBRANCH   3   4
ENDBRANCH   2   3
ENDBRANCH   1   2
BRANCH   1  27
ATOM     27  C   UNL A   1      32.969  29.264  27.203  1.00  0.00     0.002 C 
BRANCH  27  28
ATOM     28  C   UNL A   1      34.476  29.501  27.089  1.00  0.00     0.021 C 
BRANCH  28  29
ATOM     29  C   UNL A   1      35.240  29.382  28.405  1.00  0.00     0.116 C 
BRANCH  29  30
ATOM     30  N   UNL A   1      35.466  30.679  29.028  1.00  0.00    -0.352 N 
ATOM     31  C   UNL A   1      36.623  31.197  29.555  1.00  0.00     0.251 C 
ATOM     32  H   UNL A   1      34.678  31.265  29.080  1.00  0.00     0.163 HD
ATOM     33  O   UNL A   1      36.594  32.233  30.215  1.00  0.00    -0.269 OA
BRANCH  31  34
ATOM     34  C   UNL A   1      37.902  30.488  29.343  1.00  0.00     0.039 A 
ATOM     35  C   UNL A   1      38.298  30.177  28.040  1.00  0.00     0.014 A 
ATOM     36  C   UNL A   1      38.720  30.156  30.428  1.00  0.00     0.014 A 
ATOM     37  C   UNL A   1      39.558  29.614  27.819  1.00  0.00     0.010 A 
ATOM     38  C   UNL A   1      39.999  29.654  30.200  1.00  0.00     0.010 A 
ATOM     39  C   UNL A   1      40.438  29.396  28.892  1.00  0.00    -0.014 A 
BRANCH  39  40
ATOM     40  C   UNL A   1      41.836  28.949  28.664  1.00  0.00     0.031 A 
ATOM     41  C   UNL A   1      42.967  29.938  28.703  1.00  0.00     0.074 A 
ATOM     42  C   UNL A   1      42.076  27.659  28.351  1.00  0.00     0.049 A 
ATOM     43  N   UNL A   1      44.229  29.758  28.414  1.00  0.00    -0.248 NA
ATOM     44  C   UNL A   1      42.631  31.316  29.097  1.00  0.00     0.031 C 
ATOM     45  C   UNL A   1      41.057  26.610  28.251  1.00  0.00     0.029 A 
ATOM     46  N   UNL A   1      43.246  27.009  28.046  1.00  0.00    -0.354 N 
ATOM     47  C   UNL A   1      44.839  30.995  28.584  1.00  0.00     0.074 A 
ATOM     48  C   UNL A   1      43.799  31.929  28.957  1.00  0.00     0.031 C 
ATOM     49  C   UNL A   1      41.649  25.447  27.934  1.00  0.00     0.029 A 
ATOM     50  C   UNL A   1      43.079  25.675  27.753  1.00  0.00     0.049 A 
ATOM     51  H   UNL A   1      44.123  27.456  28.039  1.00  0.00     0.167 HD
ATOM     52  C   UNL A   1      46.149  31.317  28.457  1.00  0.00     0.037 A 
ATOM     53  C   UNL A   1      43.969  24.746  27.349  1.00  0.00     0.037 A 
ATOM     54  C   UNL A   1      47.179  30.374  28.098  1.00  0.00     0.049 A 
ATOM     55  C   UNL A   1      45.399  25.148  27.134  1.00  0.00     0.074 A 
ATOM     56  C   UNL A   1      48.544  30.587  28.004  1.00  0.00     0.029 A 
ATOM     57  N   UNL A   1      46.960  29.045  27.765  1.00  0.00    -0.354 N 
ATOM     58  N   UNL A   1      45.965  26.315  27.335  1.00  0.00    -0.248 NA
ATOM     59  C   UNL A   1      46.308  24.119  26.611  1.00  0.00     0.031 C 
ATOM     60  C   UNL A   1      49.142  29.405  27.559  1.00  0.00     0.029 A 
ATOM     61  C   UNL A   1      48.158  28.438  27.425  1.00  0.00     0.049 A 
ATOM     62  H   UNL A   1      46.082  28.600  27.769  1.00  0.00     0.167 HD
ATOM     63  C   UNL A   1      47.299  26.154  26.982  1.00  0.00     0.074 A 
ATOM     64  C   UNL A   1      47.458  24.777  26.563  1.00  0.00     0.031 C 
ATOM     65  C   UNL A   1      48.302  27.066  27.005  1.00  0.00     0.037 A 
BRANCH  52  66
ATOM     66  C   UNL A   1      46.550  32.746  28.702  1.00  0.00     0.058 A 
ATOM     67  C   UNL A   1      46.918  33.201  29.978  1.00  0.00     0.135 A 
ATOM     68  C   UNL A   1      46.616  33.660  27.637  1.00  0.00     0.135 A 
ATOM     69  F   UNL A   1      46.861  32.373  31.033  1.00  0.00    -0.206 F 
ATOM     70  C   UNL A   1      47.313  34.517  30.195  1.00  0.00     0.059 A 
ATOM     71  C   UNL A   1      47.036  34.974  27.826  1.00  0.00     0.059 A 
ATOM     72  F   UNL A   1      46.275  33.279  26.396  1.00  0.00    -0.206 F 
ATOM     73  C   UNL A   1      47.369  35.396  29.112  1.00  0.00     0.060 A 
BRANCH  73  74
ATOM     74  S   UNL A   1      47.892  37.098  29.411  1.00  0.00     0.124 S 
ATOM     75  O   UNL A   1      48.732  37.354  28.246  1.00  0.00    -0.237 OA
ATOM     76  O   UNL A   1      46.620  37.813  29.445  1.00  0.00    -0.237 OA
ATOM     77  O   UNL A   1      48.597  37.020  30.687  1.00  0.00    -0.744 OA
ENDBRANCH  73  74
ENDBRANCH  52  66
BRANCH  53  78
ATOM     78  C   UNL A   1      43.520  23.361  27.045  1.00  0.00     0.058 A 
ATOM     79  C   UNL A   1      43.347  22.903  25.734  1.00  0.00     0.135 A 
ATOM     80  C   UNL A   1      43.243  22.467  28.087  1.00  0.00     0.135 A 
ATOM     81  F   UNL A   1      43.565  23.731  24.701  1.00  0.00    -0.206 F 
ATOM     82  C   UNL A   1      42.919  21.605  25.471  1.00  0.00     0.059 A 
ATOM     83  C   UNL A   1      42.853  21.153  27.856  1.00  0.00     0.059 A 
ATOM     84  F   UNL A   1      43.361  22.889  29.352  1.00  0.00    -0.206 F 
ATOM     85  C   UNL A   1      42.681  20.735  26.538  1.00  0.00     0.060 A 
BRANCH  85  86
ATOM     86  S   UNL A   1      42.158  19.045  26.173  1.00  0.00     0.124 S 
ATOM     87  O   UNL A   1      42.419  18.379  27.445  1.00  0.00    -0.237 OA
ATOM     88  O   UNL A   1      40.752  19.230  25.829  1.00  0.00    -0.237 OA
ATOM     89  O   UNL A   1      43.023  18.653  25.066  1.00  0.00    -0.744 OA
ENDBRANCH  85  86
ENDBRANCH  53  78
BRANCH  65  90
ATOM     90  C   UNL A   1      49.668  26.603  26.584  1.00  0.00     0.058 A 
ATOM     91  C   UNL A   1      50.546  25.988  27.490  1.00  0.00     0.135 A 
ATOM     92  C   UNL A   1      50.077  26.719  25.246  1.00  0.00     0.135 A 
ATOM     93  F   UNL A   1      50.207  25.866  28.783  1.00  0.00    -0.206 F 
ATOM     94  C   UNL A   1      51.789  25.513  27.085  1.00  0.00     0.059 A 
ATOM     95  C   UNL A   1      51.303  26.227  24.813  1.00  0.00     0.059 A 
ATOM     96  F   UNL A   1      49.271  27.296  24.341  1.00  0.00    -0.206 F 
ATOM     97  C   UNL A   1      52.155  25.630  25.741  1.00  0.00     0.060 A 
BRANCH  97  98
ATOM     98  S   UNL A   1      53.746  24.953  25.220  1.00  0.00     0.124 S 
ATOM     99  O   UNL A   1      53.421  23.543  25.035  1.00  0.00    -0.237 OA
ATOM    100  O   UNL A   1      54.019  25.707  24.001  1.00  0.00    -0.237 OA
ATOM    101  O   UNL A   1      54.627  25.253  26.346  1.00  0.00    -0.744 OA
ENDBRANCH  97  98
ENDBRANCH  65  90
ENDBRANCH  39  40
ENDBRANCH  31  34
ENDBRANCH  29  30
ENDBRANCH  28  29
ENDBRANCH  27  28
ENDBRANCH   1  27
TORSDOF 20
ENDMDL
MODEL 3
REMARK VINA RESULT:     -10.9      6.441     10.960
REMARK SMILES CN(C)C(=O)c1ccc(NC[C@@H]2CC[C@@H](C(=O)NCCCCCCNC(=O)c3ccc(-c4c5nc(c(-c6c(F)cc(S(=O)(=O)[O-])cc6F)c6ccc([nH]6)c(-c6c(F)cc(S(=O)(=O)[O-])cc6F)c6nc(c(-c7c(F)cc(S(=O)(=O)[O-])cc7F)c7ccc4[nH]7)C=C6)C=C5)cc3)O2)nn1
REMARK SMILES IDX 21 1 20 2 19 3 18 4 16 5 17 6 15 8 12 9 13 10 94 11 14 12
REMARK SMILES IDX 11 13 10 14 9 16 6 17 7 18 96 19 8 20 95 21 4 22 1 23 2 24
REMARK SMILES IDX 3 25 5 26 22 27 23 28 24 29 25 30 26 31 27 33 28 34 29 35
REMARK SMILES IDX 93 36 30 37 92 38 31 39 32 40 33 41 86 42 34 43 91 44 85 45
REMARK SMILES IDX 87 46 35 47 90 48 84 49 83 50 36 52 70 53 49 54 69 55 50 56
REMARK SMILES IDX 53 57 68 58 88 59 51 60 52 61 67 63 89 64 54 65 37 66 38 67
REMARK SMILES IDX 47 68 39 69 40 70 46 71 48 72 41 73 42 74 43 75 44 76 45 77
REMARK SMILES IDX 71 78 72 79 81 80 73 81 74 82 80 83 82 84 75 85 76 86 77 87
REMARK SMILES IDX 78 88 79 89 55 90 56 91 65 92 57 93 58 94 64 95 66 96 59 97
REMARK SMILES IDX 60 98 61 99 62 100 63 101
REMARK H PARENT 18 7 10 15 25 32 87 51 53 62
REMARK Flexibility Score: inf
ROOT
ATOM      1  C   UNL A   1      40.044  23.218  26.499  1.00  0.00     0.002 C 
ENDROOT
BRANCH   1   2
ATOM      2  C   UNL A   1      38.927  24.271  26.507  1.00  0.00     0.021 C 
BRANCH   2   3
ATOM      3  C   UNL A   1      37.554  23.724  26.116  1.00  0.00     0.116 C 
BRANCH   3   4
ATOM      4  N   UNL A   1      37.455  23.598  24.671  1.00  0.00    -0.354 N 
ATOM      5  C   UNL A   1      36.436  23.060  23.935  1.00  0.00     0.249 C 
ATOM      6  O   UNL A   1      36.580  22.966  22.714  1.00  0.00    -0.272 OA
ATOM      7  H   UNL A   1      38.220  23.946  24.157  1.00  0.00     0.163 HD
BRANCH   5   8
ATOM      8  C   UNL A   1      35.170  22.599  24.668  1.00  0.00     0.207 C 
ATOM      9  C   UNL A   1      33.124  22.153  23.644  1.00  0.00     0.138 C 
ATOM     10  C   UNL A   1      33.449  20.984  24.557  1.00  0.00     0.037 C 
ATOM     11  O   UNL A   1      34.020  23.201  24.045  1.00  0.00    -0.363 OA
ATOM     12  C   UNL A   1      34.951  21.092  24.642  1.00  0.00     0.045 C 
BRANCH   9  13
ATOM     13  C   UNL A   1      31.660  22.610  23.659  1.00  0.00     0.146 C 
BRANCH  13  14
ATOM     14  N   UNL A   1      31.417  23.726  22.751  1.00  0.00    -0.366 N 
ATOM     15  H   UNL A   1      31.277  23.558  21.791  1.00  0.00     0.162 HD
BRANCH  14  16
ATOM     16  C   UNL A   1      31.384  25.024  23.242  1.00  0.00     0.148 A 
ATOM     17  C   UNL A   1      31.261  27.573  24.227  1.00  0.00     0.151 A 
ATOM     18  C   UNL A   1      30.600  26.571  24.913  1.00  0.00     0.040 A 
ATOM     19  N   UNL A   1      31.968  27.321  23.107  1.00  0.00    -0.143 NA
ATOM     20  C   UNL A   1      30.687  25.274  24.419  1.00  0.00     0.051 A 
ATOM     21  N   UNL A   1      32.033  26.033  22.625  1.00  0.00    -0.132 NA
BRANCH  17  22
ATOM     22  C   UNL A   1      31.169  28.988  24.648  1.00  0.00     0.273 C 
ATOM     23  C   UNL A   1      31.778  30.812  26.127  1.00  0.00     0.146 C 
ATOM     24  N   UNL A   1      31.972  29.442  25.700  1.00  0.00    -0.343 N 
ATOM     25  C   UNL A   1      33.106  28.728  26.258  1.00  0.00     0.146 C 
ATOM     26  O   UNL A   1      30.361  29.709  24.068  1.00  0.00    -0.267 OA
ENDBRANCH  17  22
ENDBRANCH  14  16
ENDBRANCH  13  14
ENDBRANCH   9  13
ENDBRANCH   5   8
ENDBRANCH   3   4
ENDBRANCH   2   3
ENDBRANCH   1   2
BRANCH   1  27
ATOM     27  C   UNL A   1      39.605  21.807  26.903  1.00  0.00     0.002 C 
BRANCH  27  28
ATOM     28  C   UNL A   1      40.095  20.688  25.981  1.00  0.00     0.021 C 
BRANCH  28  29
ATOM     29  C   UNL A   1      40.831  19.555  26.690  1.00  0.00     0.116 C 
BRANCH  29  30
ATOM     30  N   UNL A   1      41.963  19.066  25.916  1.00  0.00    -0.352 N 
ATOM     31  C   UNL A   1      43.036  19.761  25.415  1.00  0.00     0.251 C 
ATOM     32  H   UNL A   1      41.958  18.101  25.724  1.00  0.00     0.163 HD
ATOM     33  O   UNL A   1      43.804  19.225  24.620  1.00  0.00    -0.269 OA
BRANCH  31  34
ATOM     34  C   UNL A   1      43.246  21.166  25.820  1.00  0.00     0.039 A 
ATOM     35  C   UNL A   1      43.452  21.459  27.169  1.00  0.00     0.014 A 
ATOM     36  C   UNL A   1      43.268  22.186  24.864  1.00  0.00     0.014 A 
ATOM     37  C   UNL A   1      43.770  22.766  27.549  1.00  0.00     0.010 A 
ATOM     38  C   UNL A   1      43.646  23.474  25.236  1.00  0.00     0.010 A 
ATOM     39  C   UNL A   1      43.921  23.772  26.580  1.00  0.00    -0.014 A 
BRANCH  39  40
ATOM     40  C   UNL A   1      44.412  25.126  26.944  1.00  0.00     0.031 A 
ATOM     41  C   UNL A   1      43.459  26.170  27.454  1.00  0.00     0.074 A 
ATOM     42  C   UNL A   1      45.711  25.434  26.747  1.00  0.00     0.049 A 
ATOM     43  N   UNL A   1      43.680  27.433  27.709  1.00  0.00    -0.248 NA
ATOM     44  C   UNL A   1      42.070  25.744  27.686  1.00  0.00     0.031 C 
ATOM     45  C   UNL A   1      46.728  24.515  26.228  1.00  0.00     0.029 A 
ATOM     46  N   UNL A   1      46.399  26.605  26.946  1.00  0.00    -0.354 N 
ATOM     47  C   UNL A   1      42.461  27.956  28.125  1.00  0.00     0.074 A 
ATOM     48  C   UNL A   1      41.494  26.883  28.045  1.00  0.00     0.031 C 
ATOM     49  C   UNL A   1      47.910  25.149  26.173  1.00  0.00     0.029 A 
ATOM     50  C   UNL A   1      47.729  26.534  26.599  1.00  0.00     0.049 A 
ATOM     51  H   UNL A   1      45.979  27.421  27.304  1.00  0.00     0.167 HD
ATOM     52  C   UNL A   1      42.182  29.212  28.552  1.00  0.00     0.037 A 
ATOM     53  C   UNL A   1      48.686  27.482  26.589  1.00  0.00     0.037 A 
ATOM     54  C   UNL A   1      43.158  30.269  28.641  1.00  0.00     0.049 A 
ATOM     55  C   UNL A   1      48.330  28.885  26.986  1.00  0.00     0.074 A 
ATOM     56  C   UNL A   1      42.988  31.556  29.120  1.00  0.00     0.029 A 
ATOM     57  N   UNL A   1      44.481  30.165  28.236  1.00  0.00    -0.354 N 
ATOM     58  N   UNL A   1      47.181  29.353  27.412  1.00  0.00    -0.248 NA
ATOM     59  C   UNL A   1      49.390  29.897  26.875  1.00  0.00     0.031 C 
ATOM     60  C   UNL A   1      44.191  32.248  28.951  1.00  0.00     0.029 A 
ATOM     61  C   UNL A   1      45.128  31.378  28.415  1.00  0.00     0.049 A 
ATOM     62  H   UNL A   1      44.899  29.350  27.874  1.00  0.00     0.167 HD
ATOM     63  C   UNL A   1      47.385  30.708  27.638  1.00  0.00     0.074 A 
ATOM     64  C   UNL A   1      48.769  30.984  27.310  1.00  0.00     0.031 C 
ATOM     65  C   UNL A   1      46.505  31.640  28.080  1.00  0.00     0.037 A 
BRANCH  52  66
ATOM     66  C   UNL A   1      40.765  29.519  28.952  1.00  0.00     0.058 A 
ATOM     67  C   UNL A   1      39.742  29.654  28.001  1.00  0.00     0.135 A 
ATOM     68  C   UNL A   1      40.415  29.628  30.309  1.00  0.00     0.135 A 
ATOM     69  F   UNL A   1      40.022  29.573  26.690  1.00  0.00    -0.206 F 
ATOM     70  C   UNL A   1      38.427  29.912  28.377  1.00  0.00     0.059 A 
ATOM     71  C   UNL A   1      39.102  29.857  30.709  1.00  0.00     0.059 A 
ATOM     72  F   UNL A   1      41.354  29.507  31.261  1.00  0.00    -0.206 F 
ATOM     73  C   UNL A   1      38.117  30.012  29.734  1.00  0.00     0.060 A 
BRANCH  73  74
ATOM     74  S   UNL A   1      36.405  30.339  30.204  1.00  0.00     0.124 S 
ATOM     75  O   UNL A   1      36.278  29.538  31.418  1.00  0.00    -0.237 OA
ATOM     76  O   UNL A   1      36.406  31.785  30.398  1.00  0.00    -0.237 OA
ATOM     77  O   UNL A   1      35.639  29.863  29.056  1.00  0.00    -0.744 OA
ENDBRANCH  73  74
ENDBRANCH  52  66
BRANCH  53  78
ATOM     78  C   UNL A   1      50.058  27.156  26.115  1.00  0.00     0.058 A 
ATOM     79  C   UNL A   1      51.057  26.695  26.980  1.00  0.00     0.135 A 
ATOM     80  C   UNL A   1      50.391  27.314  24.763  1.00  0.00     0.135 A 
ATOM     81  F   UNL A   1      50.799  26.560  28.290  1.00  0.00    -0.206 F 
ATOM     82  C   UNL A   1      52.337  26.403  26.518  1.00  0.00     0.059 A 
ATOM     83  C   UNL A   1      51.648  26.992  24.265  1.00  0.00     0.059 A 
ATOM     84  F   UNL A   1      49.468  27.790  23.920  1.00  0.00    -0.206 F 
ATOM     85  C   UNL A   1      52.621  26.547  25.157  1.00  0.00     0.060 A 
BRANCH  85  86
ATOM     86  S   UNL A   1      54.279  26.130  24.573  1.00  0.00     0.124 S 
ATOM     87  O   UNL A   1      55.094  27.100  25.295  1.00  0.00    -0.237 OA
ATOM     88  O   UNL A   1      54.412  24.742  25.003  1.00  0.00    -0.237 OA
ATOM     89  O   UNL A   1      54.191  26.329  23.130  1.00  0.00    -0.744 OA
ENDBRANCH  85  86
ENDBRANCH  53  78
BRANCH  65  90
ATOM     90  C   UNL A   1      47.013  33.043  28.256  1.00  0.00     0.058 A 
ATOM     91  C   UNL A   1      47.641  33.454  29.441  1.00  0.00     0.135 A 
ATOM     92  C   UNL A   1      46.925  33.968  27.203  1.00  0.00     0.135 A 
ATOM     93  F   UNL A   1      47.737  32.612  30.482  1.00  0.00    -0.206 F 
ATOM     94  C   UNL A   1      48.157  34.738  29.580  1.00  0.00     0.059 A 
ATOM     95  C   UNL A   1      47.458  35.248  27.310  1.00  0.00     0.059 A 
ATOM     96  F   UNL A   1      46.336  33.622  26.047  1.00  0.00    -0.206 F 
ATOM     97  C   UNL A   1      48.068  35.626  28.505  1.00  0.00     0.060 A 
BRANCH  97  98
ATOM     98  S   UNL A   1      48.796  37.268  28.681  1.00  0.00     0.124 S 
ATOM     99  O   UNL A   1      49.599  37.108  29.888  1.00  0.00    -0.237 OA
ATOM    100  O   UNL A   1      49.544  37.411  27.436  1.00  0.00    -0.237 OA
ATOM    101  O   UNL A   1      47.634  38.143  28.810  1.00  0.00    -0.744 OA
ENDBRANCH  97  98
ENDBRANCH  65  90
ENDBRANCH  39  40
ENDBRANCH  31  34
ENDBRANCH  29  30
ENDBRANCH  28  29
ENDBRANCH  27  28
ENDBRANCH   1  27
TORSDOF 20
ENDMDL
