MODEL 1
REMARK VINA RESULT:     -10.4      0.000      0.000
REMARK SMILES C[C@H](Oc1ccc(-c2ccccc2)cc1)C(=O)N[C@H](C)C(=O)NCCCCCCNC(=O)c1ccc(-c2c3nc(c(-c4c(F)cc(S(=O)(=O)[O-])cc4F)c4ccc([nH]4)c(-c4c(F)cc(S(=O)(=O)[O-])cc4F)c4nc(c(-c5c(F)cc(S(=O)(=O)[O-])cc5F)c5ccc2[nH]5)C=C4)C=C3)cc1
REMARK SMILES IDX 25 1 24 2 23 3 21 4 22 5 19 7 20 8 18 9 16 10 17 11 2 13
REMARK SMILES IDX 1 14 3 15 4 16 5 17 15 18 6 19 14 20 7 21 8 22 9 23 13 24
REMARK SMILES IDX 10 25 12 26 11 27 26 28 27 29 28 30 29 31 30 32 31 33 32 35
REMARK SMILES IDX 33 36 34 37 98 38 35 39 97 40 36 41 37 42 38 43 91 44 39 45
REMARK SMILES IDX 96 46 90 47 92 48 40 49 95 50 89 51 88 52 41 54 75 55 54 56
REMARK SMILES IDX 74 57 55 58 58 59 73 60 93 61 56 62 57 63 72 65 94 66 59 67
REMARK SMILES IDX 42 68 43 69 52 70 44 71 45 72 51 73 53 74 46 75 47 76 48 77
REMARK SMILES IDX 49 78 50 79 76 80 77 81 86 82 78 83 79 84 85 85 87 86 80 87
REMARK SMILES IDX 81 88 82 89 83 90 84 91 60 92 61 93 70 94 62 95 63 96 69 97
REMARK SMILES IDX 71 98 64 99 65 100 66 101 67 102 68 103
REMARK H PARENT 23 6 18 12 30 34 92 53 58 64
REMARK Flexibility Score: inf
ROOT
ATOM      1  C   UNL A   1      34.954  21.712  26.532  1.00  0.00     0.021 C 
ENDROOT
BRANCH   1   2
ATOM      2  C   UNL A   1      35.017  20.908  25.235  1.00  0.00     0.116 C 
BRANCH   2   3
ATOM      3  N   UNL A   1      34.125  19.769  25.236  1.00  0.00    -0.354 N 
ATOM      4  C   UNL A   1      32.810  19.707  24.874  1.00  0.00     0.242 C 
ATOM      5  O   UNL A   1      32.235  18.618  24.965  1.00  0.00    -0.273 OA
ATOM      6  H   UNL A   1      34.522  18.921  25.541  1.00  0.00     0.163 HD
BRANCH   4   7
ATOM      7  C   UNL A   1      32.033  20.983  24.470  1.00  0.00     0.168 C 
ATOM      8  C   UNL A   1      31.574  21.685  25.728  1.00  0.00     0.041 C 
BRANCH   7   9
ATOM      9  N   UNL A   1      32.745  21.721  23.412  1.00  0.00    -0.341 N 
ATOM     10  C   UNL A   1      32.783  22.956  22.856  1.00  0.00     0.261 C 
ATOM     11  O   UNL A   1      33.496  23.041  21.844  1.00  0.00    -0.271 OA
ATOM     12  H   UNL A   1      33.398  21.131  22.971  1.00  0.00     0.164 HD
BRANCH  10  13
ATOM     13  C   UNL A   1      32.147  24.242  23.428  1.00  0.00     0.258 C 
ATOM     14  C   UNL A   1      30.647  24.207  23.154  1.00  0.00     0.064 C 
BRANCH  13  15
ATOM     15  O   UNL A   1      32.955  25.372  23.145  1.00  0.00    -0.481 OA
BRANCH  15  16
ATOM     16  C   UNL A   1      33.130  26.496  23.882  1.00  0.00     0.120 A 
ATOM     17  C   UNL A   1      33.554  27.748  23.470  1.00  0.00     0.047 A 
ATOM     18  C   UNL A   1      32.954  26.278  25.254  1.00  0.00     0.047 A 
ATOM     19  C   UNL A   1      33.926  28.714  24.411  1.00  0.00     0.012 A 
ATOM     20  C   UNL A   1      33.309  27.247  26.199  1.00  0.00     0.012 A 
ATOM     21  C   UNL A   1      33.836  28.476  25.791  1.00  0.00    -0.018 A 
BRANCH  21  22
ATOM     22  C   UNL A   1      34.294  29.490  26.755  1.00  0.00    -0.018 A 
ATOM     23  C   UNL A   1      35.494  29.313  27.462  1.00  0.00     0.009 A 
ATOM     24  C   UNL A   1      33.530  30.637  27.033  1.00  0.00     0.009 A 
ATOM     25  C   UNL A   1      35.911  30.235  28.424  1.00  0.00     0.001 A 
ATOM     26  C   UNL A   1      33.947  31.563  27.993  1.00  0.00     0.001 A 
ATOM     27  C   UNL A   1      35.136  31.360  28.690  1.00  0.00     0.000 A 
ENDBRANCH  21  22
ENDBRANCH  15  16
ENDBRANCH  13  15
ENDBRANCH  10  13
ENDBRANCH   7   9
ENDBRANCH   4   7
ENDBRANCH   2   3
ENDBRANCH   1   2
BRANCH   1  28
ATOM     28  C   UNL A   1      35.037  23.228  26.337  1.00  0.00     0.002 C 
BRANCH  28  29
ATOM     29  C   UNL A   1      35.583  23.677  24.978  1.00  0.00     0.002 C 
BRANCH  29  30
ATOM     30  C   UNL A   1      37.111  23.734  24.870  1.00  0.00     0.021 C 
BRANCH  30  31
ATOM     31  C   UNL A   1      37.851  23.665  26.203  1.00  0.00     0.116 C 
BRANCH  31  32
ATOM     32  N   UNL A   1      39.023  22.807  26.131  1.00  0.00    -0.352 N 
ATOM     33  C   UNL A   1      40.346  23.113  26.310  1.00  0.00     0.251 C 
ATOM     34  H   UNL A   1      38.837  21.863  25.923  1.00  0.00     0.163 HD
ATOM     35  O   UNL A   1      41.206  22.289  25.990  1.00  0.00    -0.269 OA
BRANCH  33  36
ATOM     36  C   UNL A   1      40.749  24.421  26.867  1.00  0.00     0.039 A 
ATOM     37  C   UNL A   1      41.096  24.501  28.218  1.00  0.00     0.014 A 
ATOM     38  C   UNL A   1      40.754  25.573  26.075  1.00  0.00     0.014 A 
ATOM     39  C   UNL A   1      41.499  25.725  28.760  1.00  0.00     0.010 A 
ATOM     40  C   UNL A   1      41.220  26.778  26.599  1.00  0.00     0.010 A 
ATOM     41  C   UNL A   1      41.593  26.868  27.948  1.00  0.00    -0.014 A 
BRANCH  41  42
ATOM     42  C   UNL A   1      42.077  28.161  28.501  1.00  0.00     0.031 A 
ATOM     43  C   UNL A   1      43.553  28.456  28.560  1.00  0.00     0.074 A 
ATOM     44  C   UNL A   1      41.189  29.052  28.982  1.00  0.00     0.049 A 
ATOM     45  N   UNL A   1      44.166  29.500  29.055  1.00  0.00    -0.248 NA
ATOM     46  C   UNL A   1      44.460  27.434  28.011  1.00  0.00     0.031 C 
ATOM     47  C   UNL A   1      39.736  28.867  29.016  1.00  0.00     0.029 A 
ATOM     48  N   UNL A   1      41.375  30.293  29.540  1.00  0.00    -0.354 N 
ATOM     49  C   UNL A   1      45.524  29.267  28.872  1.00  0.00     0.074 A 
ATOM     50  C   UNL A   1      45.650  27.951  28.282  1.00  0.00     0.031 C 
ATOM     51  C   UNL A   1      39.163  29.961  29.544  1.00  0.00     0.029 A 
ATOM     52  C   UNL A   1      40.205  30.910  29.920  1.00  0.00     0.049 A 
ATOM     53  H   UNL A   1      42.262  30.701  29.658  1.00  0.00     0.167 HD
ATOM     54  C   UNL A   1      46.570  30.085  29.140  1.00  0.00     0.037 A 
ATOM     55  C   UNL A   1      39.997  32.102  30.511  1.00  0.00     0.037 A 
ATOM     56  C   UNL A   1      46.442  31.398  29.716  1.00  0.00     0.049 A 
ATOM     57  C   UNL A   1      41.181  32.979  30.827  1.00  0.00     0.074 A 
ATOM     58  C   UNL A   1      47.440  32.310  30.014  1.00  0.00     0.029 A 
ATOM     59  N   UNL A   1      45.240  31.993  30.075  1.00  0.00    -0.354 N 
ATOM     60  N   UNL A   1      42.455  32.756  30.609  1.00  0.00    -0.248 NA
ATOM     61  C   UNL A   1      40.898  34.274  31.462  1.00  0.00     0.031 C 
ATOM     62  C   UNL A   1      46.845  33.442  30.582  1.00  0.00     0.029 A 
ATOM     63  C   UNL A   1      45.473  33.254  30.597  1.00  0.00     0.049 A 
ATOM     64  H   UNL A   1      44.353  31.578  29.973  1.00  0.00     0.167 HD
ATOM     65  C   UNL A   1      43.121  33.896  31.046  1.00  0.00     0.074 A 
ATOM     66  C   UNL A   1      42.108  34.811  31.529  1.00  0.00     0.031 C 
ATOM     67  C   UNL A   1      44.450  34.161  31.053  1.00  0.00     0.037 A 
BRANCH  54  68
ATOM     68  C   UNL A   1      47.949  29.594  28.789  1.00  0.00     0.058 A 
ATOM     69  C   UNL A   1      48.710  28.845  29.702  1.00  0.00     0.135 A 
ATOM     70  C   UNL A   1      48.495  29.821  27.515  1.00  0.00     0.135 A 
ATOM     71  F   UNL A   1      48.244  28.612  30.939  1.00  0.00    -0.206 F 
ATOM     72  C   UNL A   1      49.970  28.358  29.373  1.00  0.00     0.059 A 
ATOM     73  C   UNL A   1      49.742  29.319  27.155  1.00  0.00     0.059 A 
ATOM     74  F   UNL A   1      47.812  30.531  26.604  1.00  0.00    -0.206 F 
ATOM     75  C   UNL A   1      50.477  28.598  28.095  1.00  0.00     0.060 A 
BRANCH  75  76
ATOM     76  S   UNL A   1      52.105  27.938  27.679  1.00  0.00     0.124 S 
ATOM     77  O   UNL A   1      52.051  26.618  28.301  1.00  0.00    -0.237 OA
ATOM     78  O   UNL A   1      52.084  27.952  26.220  1.00  0.00    -0.237 OA
ATOM     79  O   UNL A   1      53.025  28.885  28.299  1.00  0.00    -0.744 OA
ENDBRANCH  75  76
ENDBRANCH  54  68
BRANCH  55  80
ATOM     80  C   UNL A   1      38.617  32.552  30.841  1.00  0.00     0.058 A 
ATOM     81  C   UNL A   1      37.925  33.435  29.998  1.00  0.00     0.135 A 
ATOM     82  C   UNL A   1      37.977  32.137  32.019  1.00  0.00     0.135 A 
ATOM     83  F   UNL A   1      38.495  33.862  28.861  1.00  0.00    -0.206 F 
ATOM     84  C   UNL A   1      36.667  33.926  30.332  1.00  0.00     0.059 A 
ATOM     85  C   UNL A   1      36.706  32.591  32.360  1.00  0.00     0.059 A 
ATOM     86  F   UNL A   1      38.586  31.276  32.849  1.00  0.00    -0.206 F 
ATOM     87  C   UNL A   1      36.068  33.503  31.519  1.00  0.00     0.060 A 
BRANCH  87  88
ATOM     88  S   UNL A   1      34.436  34.147  31.946  1.00  0.00     0.124 S 
ATOM     89  O   UNL A   1      33.928  33.096  32.819  1.00  0.00    -0.237 OA
ATOM     90  O   UNL A   1      34.765  35.412  32.594  1.00  0.00    -0.237 OA
ATOM     91  O   UNL A   1      33.775  34.268  30.650  1.00  0.00    -0.744 OA
ENDBRANCH  87  88
ENDBRANCH  55  80
BRANCH  67  92
ATOM     92  C   UNL A   1      44.882  35.513  31.550  1.00  0.00     0.058 A 
ATOM     93  C   UNL A   1      44.977  36.621  30.694  1.00  0.00     0.135 A 
ATOM     94  C   UNL A   1      45.168  35.709  32.911  1.00  0.00     0.135 A 
ATOM     95  F   UNL A   1      44.719  36.487  29.383  1.00  0.00    -0.206 F 
ATOM     96  C   UNL A   1      45.371  37.870  31.163  1.00  0.00     0.059 A 
ATOM     97  C   UNL A   1      45.537  36.956  33.408  1.00  0.00     0.059 A 
ATOM     98  F   UNL A   1      45.082  34.685  33.775  1.00  0.00    -0.206 F 
ATOM     99  C   UNL A   1      45.650  38.027  32.523  1.00  0.00     0.060 A 
BRANCH  99 100
ATOM    100  S   UNL A   1      46.137  39.658  33.123  1.00  0.00     0.124 S 
ATOM    101  O   UNL A   1      47.392  39.871  32.410  1.00  0.00    -0.237 OA
ATOM    102  O   UNL A   1      45.017  40.494  32.701  1.00  0.00    -0.237 OA
ATOM    103  O   UNL A   1      46.258  39.467  34.566  1.00  0.00    -0.744 OA
ENDBRANCH  99 100
ENDBRANCH  67  92
ENDBRANCH  41  42
ENDBRANCH  33  36
ENDBRANCH  31  32
ENDBRANCH  30  31
ENDBRANCH  29  30
ENDBRANCH  28  29
ENDBRANCH   1  28
TORSDOF 21
ENDMDL
MODEL 2
REMARK VINA RESULT:      -9.8      1.096      8.092
REMARK SMILES C[C@H](Oc1ccc(-c2ccccc2)cc1)C(=O)N[C@H](C)C(=O)NCCCCCCNC(=O)c1ccc(-c2c3nc(c(-c4c(F)cc(S(=O)(=O)[O-])cc4F)c4ccc([nH]4)c(-c4c(F)cc(S(=O)(=O)[O-])cc4F)c4nc(c(-c5c(F)cc(S(=O)(=O)[O-])cc5F)c5ccc2[nH]5)C=C4)C=C3)cc1
REMARK SMILES IDX 25 1 24 2 23 3 21 4 22 5 19 7 20 8 18 9 16 10 17 11 2 13
REMARK SMILES IDX 1 14 3 15 4 16 5 17 15 18 6 19 14 20 7 21 8 22 9 23 13 24
REMARK SMILES IDX 10 25 12 26 11 27 26 28 27 29 28 30 29 31 30 32 31 33 32 35
REMARK SMILES IDX 33 36 34 37 98 38 35 39 97 40 36 41 37 42 38 43 91 44 39 45
REMARK SMILES IDX 96 46 90 47 92 48 40 49 95 50 89 51 88 52 41 54 75 55 54 56
REMARK SMILES IDX 74 57 55 58 58 59 73 60 93 61 56 62 57 63 72 65 94 66 59 67
REMARK SMILES IDX 42 68 43 69 52 70 44 71 45 72 51 73 53 74 46 75 47 76 48 77
REMARK SMILES IDX 49 78 50 79 76 80 77 81 86 82 78 83 79 84 85 85 87 86 80 87
REMARK SMILES IDX 81 88 82 89 83 90 84 91 60 92 61 93 70 94 62 95 63 96 69 97
REMARK SMILES IDX 71 98 64 99 65 100 66 101 67 102 68 103
REMARK H PARENT 23 6 18 12 30 34 92 53 58 64
REMARK Flexibility Score: inf
ROOT
ATOM      1  C   UNL A   1      34.499  21.278  26.238  1.00  0.00     0.021 C 
ENDROOT
BRANCH   1   2
ATOM      2  C   UNL A   1      34.947  20.444  25.040  1.00  0.00     0.116 C 
BRANCH   2   3
ATOM      3  N   UNL A   1      33.950  19.481  24.622  1.00  0.00    -0.354 N 
ATOM      4  C   UNL A   1      32.814  19.684  23.892  1.00  0.00     0.242 C 
ATOM      5  O   UNL A   1      32.096  18.707  23.657  1.00  0.00    -0.273 OA
ATOM      6  H   UNL A   1      34.115  18.552  24.904  1.00  0.00     0.163 HD
BRANCH   4   7
ATOM      7  C   UNL A   1      32.381  21.108  23.468  1.00  0.00     0.168 C 
ATOM      8  C   UNL A   1      31.898  21.058  22.036  1.00  0.00     0.041 C 
BRANCH   7   9
ATOM      9  N   UNL A   1      31.565  21.744  24.517  1.00  0.00    -0.341 N 
ATOM     10  C   UNL A   1      31.055  22.958  24.840  1.00  0.00     0.261 C 
ATOM     11  O   UNL A   1      30.524  23.008  25.960  1.00  0.00    -0.271 OA
ATOM     12  H   UNL A   1      31.309  21.079  25.196  1.00  0.00     0.164 HD
BRANCH  10  13
ATOM     13  C   UNL A   1      30.967  24.194  23.918  1.00  0.00     0.258 C 
ATOM     14  C   UNL A   1      32.301  24.357  23.195  1.00  0.00     0.064 C 
BRANCH  13  15
ATOM     15  O   UNL A   1      30.310  25.265  24.574  1.00  0.00    -0.481 OA
BRANCH  15  16
ATOM     16  C   UNL A   1      30.849  26.381  25.123  1.00  0.00     0.120 A 
ATOM     17  C   UNL A   1      30.901  27.664  24.606  1.00  0.00     0.047 A 
ATOM     18  C   UNL A   1      31.529  26.123  26.319  1.00  0.00     0.047 A 
ATOM     19  C   UNL A   1      31.726  28.630  25.195  1.00  0.00     0.012 A 
ATOM     20  C   UNL A   1      32.341  27.091  26.921  1.00  0.00     0.012 A 
ATOM     21  C   UNL A   1      32.480  28.357  26.346  1.00  0.00    -0.018 A 
BRANCH  21  22
ATOM     22  C   UNL A   1      33.385  29.375  26.904  1.00  0.00    -0.018 A 
ATOM     23  C   UNL A   1      32.922  30.673  27.174  1.00  0.00     0.009 A 
ATOM     24  C   UNL A   1      34.744  29.100  27.138  1.00  0.00     0.009 A 
ATOM     25  C   UNL A   1      33.784  31.666  27.645  1.00  0.00     0.001 A 
ATOM     26  C   UNL A   1      35.607  30.091  27.614  1.00  0.00     0.001 A 
ATOM     27  C   UNL A   1      35.126  31.375  27.863  1.00  0.00     0.000 A 
ENDBRANCH  21  22
ENDBRANCH  15  16
ENDBRANCH  13  15
ENDBRANCH  10  13
ENDBRANCH   7   9
ENDBRANCH   4   7
ENDBRANCH   2   3
ENDBRANCH   1   2
BRANCH   1  28
ATOM     28  C   UNL A   1      34.605  22.790  26.026  1.00  0.00     0.002 C 
BRANCH  28  29
ATOM     29  C   UNL A   1      35.245  23.215  24.701  1.00  0.00     0.002 C 
BRANCH  29  30
ATOM     30  C   UNL A   1      36.555  24.002  24.826  1.00  0.00     0.021 C 
BRANCH  30  31
ATOM     31  C   UNL A   1      37.201  23.957  26.209  1.00  0.00     0.116 C 
BRANCH  31  32
ATOM     32  N   UNL A   1      38.118  22.836  26.345  1.00  0.00    -0.352 N 
ATOM     33  C   UNL A   1      39.459  22.832  26.619  1.00  0.00     0.251 C 
ATOM     34  H   UNL A   1      37.712  21.948  26.222  1.00  0.00     0.163 HD
ATOM     35  O   UNL A   1      40.102  21.788  26.476  1.00  0.00    -0.269 OA
BRANCH  33  36
ATOM     36  C   UNL A   1      40.142  24.062  27.071  1.00  0.00     0.039 A 
ATOM     37  C   UNL A   1      40.084  25.201  26.265  1.00  0.00     0.014 A 
ATOM     38  C   UNL A   1      40.867  24.088  28.266  1.00  0.00     0.014 A 
ATOM     39  C   UNL A   1      40.707  26.380  26.683  1.00  0.00     0.010 A 
ATOM     40  C   UNL A   1      41.429  25.282  28.714  1.00  0.00     0.010 A 
ATOM     41  C   UNL A   1      41.360  26.440  27.926  1.00  0.00    -0.014 A 
BRANCH  41  42
ATOM     42  C   UNL A   1      41.975  27.705  28.407  1.00  0.00     0.031 A 
ATOM     43  C   UNL A   1      41.106  28.824  28.918  1.00  0.00     0.074 A 
ATOM     44  C   UNL A   1      43.312  27.859  28.350  1.00  0.00     0.049 A 
ATOM     45  N   UNL A   1      41.453  30.018  29.327  1.00  0.00    -0.248 NA
ATOM     46  C   UNL A   1      39.655  28.579  28.954  1.00  0.00     0.031 C 
ATOM     47  C   UNL A   1      44.258  26.863  27.839  1.00  0.00     0.029 A 
ATOM     48  N   UNL A   1      44.111  28.912  28.718  1.00  0.00    -0.354 N 
ATOM     49  C   UNL A   1      40.271  30.661  29.675  1.00  0.00     0.074 A 
ATOM     50  C   UNL A   1      39.190  29.751  29.365  1.00  0.00     0.031 C 
ATOM     51  C   UNL A   1      45.507  27.344  27.948  1.00  0.00     0.029 A 
ATOM     52  C   UNL A   1      45.452  28.693  28.501  1.00  0.00     0.049 A 
ATOM     53  H   UNL A   1      43.758  29.746  29.102  1.00  0.00     0.167 HD
ATOM     54  C   UNL A   1      40.102  31.884  30.232  1.00  0.00     0.037 A 
ATOM     55  C   UNL A   1      46.515  29.492  28.715  1.00  0.00     0.037 A 
ATOM     56  C   UNL A   1      41.180  32.783  30.550  1.00  0.00     0.049 A 
ATOM     57  C   UNL A   1      46.296  30.860  29.305  1.00  0.00     0.074 A 
ATOM     58  C   UNL A   1      41.114  34.039  31.128  1.00  0.00     0.029 A 
ATOM     59  N   UNL A   1      42.525  32.520  30.327  1.00  0.00    -0.354 N 
ATOM     60  N   UNL A   1      45.172  31.434  29.664  1.00  0.00    -0.248 NA
ATOM     61  C   UNL A   1      47.490  31.687  29.529  1.00  0.00     0.031 C 
ATOM     62  C   UNL A   1      42.413  34.549  31.224  1.00  0.00     0.029 A 
ATOM     63  C   UNL A   1      43.293  33.592  30.748  1.00  0.00     0.049 A 
ATOM     64  H   UNL A   1      42.879  31.692  29.927  1.00  0.00     0.167 HD
ATOM     65  C   UNL A   1      45.527  32.672  30.188  1.00  0.00     0.074 A 
ATOM     66  C   UNL A   1      46.971  32.759  30.111  1.00  0.00     0.031 C 
ATOM     67  C   UNL A   1      44.732  33.652  30.684  1.00  0.00     0.037 A 
BRANCH  54  68
ATOM     68  C   UNL A   1      38.697  32.315  30.557  1.00  0.00     0.058 A 
ATOM     69  C   UNL A   1      38.083  31.945  31.766  1.00  0.00     0.135 A 
ATOM     70  C   UNL A   1      37.976  33.150  29.687  1.00  0.00     0.135 A 
ATOM     71  F   UNL A   1      38.720  31.136  32.626  1.00  0.00    -0.206 F 
ATOM     72  C   UNL A   1      36.799  32.369  32.090  1.00  0.00     0.059 A 
ATOM     73  C   UNL A   1      36.701  33.608  30.004  1.00  0.00     0.059 A 
ATOM     74  F   UNL A   1      38.515  33.533  28.519  1.00  0.00    -0.206 F 
ATOM     75  C   UNL A   1      36.117  33.203  31.203  1.00  0.00     0.060 A 
BRANCH  75  76
ATOM     76  S   UNL A   1      34.459  33.761  31.653  1.00  0.00     0.124 S 
ATOM     77  O   UNL A   1      34.760  34.871  32.551  1.00  0.00    -0.237 OA
ATOM     78  O   UNL A   1      33.893  34.128  30.359  1.00  0.00    -0.237 OA
ATOM     79  O   UNL A   1      33.865  32.587  32.284  1.00  0.00    -0.744 OA
ENDBRANCH  75  76
ENDBRANCH  54  68
BRANCH  55  80
ATOM     80  C   UNL A   1      47.889  29.027  28.380  1.00  0.00     0.058 A 
ATOM     81  C   UNL A   1      48.369  29.082  27.062  1.00  0.00     0.135 A 
ATOM     82  C   UNL A   1      48.735  28.486  29.360  1.00  0.00     0.135 A 
ATOM     83  F   UNL A   1      47.597  29.588  26.088  1.00  0.00    -0.206 F 
ATOM     84  C   UNL A   1      49.620  28.578  26.720  1.00  0.00     0.059 A 
ATOM     85  C   UNL A   1      50.002  28.004  29.048  1.00  0.00     0.059 A 
ATOM     86  F   UNL A   1      48.333  28.430  30.640  1.00  0.00    -0.206 F 
ATOM     87  C   UNL A   1      50.427  28.034  27.720  1.00  0.00     0.060 A 
BRANCH  87  88
ATOM     88  S   UNL A   1      52.048  27.380  27.267  1.00  0.00     0.124 S 
ATOM     89  O   UNL A   1      52.140  27.774  25.867  1.00  0.00    -0.237 OA
ATOM     90  O   UNL A   1      52.932  28.085  28.189  1.00  0.00    -0.237 OA
ATOM     91  O   UNL A   1      51.910  25.948  27.514  1.00  0.00    -0.744 OA
ENDBRANCH  87  88
ENDBRANCH  55  80
BRANCH  67  92
ATOM     92  C   UNL A   1      45.408  34.879  31.229  1.00  0.00     0.058 A 
ATOM     93  C   UNL A   1      45.819  34.966  32.568  1.00  0.00     0.135 A 
ATOM     94  C   UNL A   1      45.682  35.970  30.387  1.00  0.00     0.135 A 
ATOM     95  F   UNL A   1      45.577  33.953  33.416  1.00  0.00    -0.206 F 
ATOM     96  C   UNL A   1      46.449  36.102  33.063  1.00  0.00     0.059 A 
ATOM     97  C   UNL A   1      46.337  37.106  30.854  1.00  0.00     0.059 A 
ATOM     98  F   UNL A   1      45.321  35.936  29.095  1.00  0.00    -0.206 F 
ATOM     99  C   UNL A   1      46.704  37.168  32.197  1.00  0.00     0.060 A 
BRANCH  99 100
ATOM    100  S   UNL A   1      47.544  38.629  32.846  1.00  0.00     0.124 S 
ATOM    101  O   UNL A   1      46.473  39.619  32.825  1.00  0.00    -0.237 OA
ATOM    102  O   UNL A   1      47.969  38.182  34.170  1.00  0.00    -0.237 OA
ATOM    103  O   UNL A   1      48.625  38.851  31.891  1.00  0.00    -0.744 OA
ENDBRANCH  99 100
ENDBRANCH  67  92
ENDBRANCH  41  42
ENDBRANCH  33  36
ENDBRANCH  31  32
ENDBRANCH  30  31
ENDBRANCH  29  30
ENDBRANCH  28  29
ENDBRANCH   1  28
TORSDOF 21
ENDMDL
MODEL 3
REMARK VINA RESULT:      -9.6      5.152     11.564
REMARK SMILES C[C@H](Oc1ccc(-c2ccccc2)cc1)C(=O)N[C@H](C)C(=O)NCCCCCCNC(=O)c1ccc(-c2c3nc(c(-c4c(F)cc(S(=O)(=O)[O-])cc4F)c4ccc([nH]4)c(-c4c(F)cc(S(=O)(=O)[O-])cc4F)c4nc(c(-c5c(F)cc(S(=O)(=O)[O-])cc5F)c5ccc2[nH]5)C=C4)C=C3)cc1
REMARK SMILES IDX 25 1 24 2 23 3 21 4 22 5 19 7 20 8 18 9 16 10 17 11 2 13
REMARK SMILES IDX 1 14 3 15 4 16 5 17 15 18 6 19 14 20 7 21 8 22 9 23 13 24
REMARK SMILES IDX 10 25 12 26 11 27 26 28 27 29 28 30 29 31 30 32 31 33 32 35
REMARK SMILES IDX 33 36 34 37 98 38 35 39 97 40 36 41 37 42 38 43 91 44 39 45
REMARK SMILES IDX 96 46 90 47 92 48 40 49 95 50 89 51 88 52 41 54 75 55 54 56
REMARK SMILES IDX 74 57 55 58 58 59 73 60 93 61 56 62 57 63 72 65 94 66 59 67
REMARK SMILES IDX 42 68 43 69 52 70 44 71 45 72 51 73 53 74 46 75 47 76 48 77
REMARK SMILES IDX 49 78 50 79 76 80 77 81 86 82 78 83 79 84 85 85 87 86 80 87
REMARK SMILES IDX 81 88 82 89 83 90 84 91 60 92 61 93 70 94 62 95 63 96 69 97
REMARK SMILES IDX 71 98 64 99 65 100 66 101 67 102 68 103
REMARK H PARENT 23 6 18 12 30 34 92 53 58 64
REMARK Flexibility Score: inf
ROOT
ATOM      1  C   UNL A   1      37.558  32.497  32.628  1.00  0.00     0.021 C 
ENDROOT
BRANCH   1   2
ATOM      2  C   UNL A   1      37.545  32.677  34.144  1.00  0.00     0.116 C 
BRANCH   2   3
ATOM      3  N   UNL A   1      37.732  31.433  34.859  1.00  0.00    -0.354 N 
ATOM      4  C   UNL A   1      38.196  31.232  36.127  1.00  0.00     0.242 C 
ATOM      5  O   UNL A   1      38.283  30.069  36.535  1.00  0.00    -0.273 OA
ATOM      6  H   UNL A   1      37.491  30.618  34.361  1.00  0.00     0.163 HD
BRANCH   4   7
ATOM      7  C   UNL A   1      38.705  32.414  36.988  1.00  0.00     0.168 C 
ATOM      8  C   UNL A   1      37.703  32.673  38.089  1.00  0.00     0.041 C 
BRANCH   7   9
ATOM      9  N   UNL A   1      40.139  32.265  37.292  1.00  0.00    -0.341 N 
ATOM     10  C   UNL A   1      41.293  31.895  36.687  1.00  0.00     0.261 C 
ATOM     11  O   UNL A   1      42.266  31.801  37.452  1.00  0.00    -0.271 OA
ATOM     12  H   UNL A   1      40.313  32.512  38.229  1.00  0.00     0.164 HD
BRANCH  10  13
ATOM     13  C   UNL A   1      41.521  31.719  35.169  1.00  0.00     0.258 C 
ATOM     14  C   UNL A   1      41.562  30.227  34.854  1.00  0.00     0.064 C 
BRANCH  13  15
ATOM     15  O   UNL A   1      42.496  32.634  34.697  1.00  0.00    -0.481 OA
BRANCH  15  16
ATOM     16  C   UNL A   1      42.700  33.077  33.432  1.00  0.00     0.120 A 
ATOM     17  C   UNL A   1      43.897  33.327  32.782  1.00  0.00     0.047 A 
ATOM     18  C   UNL A   1      41.510  33.422  32.779  1.00  0.00     0.047 A 
ATOM     19  C   UNL A   1      43.911  34.029  31.572  1.00  0.00     0.012 A 
ATOM     20  C   UNL A   1      41.519  34.108  31.560  1.00  0.00     0.012 A 
ATOM     21  C   UNL A   1      42.728  34.455  30.949  1.00  0.00    -0.018 A 
BRANCH  21  22
ATOM     22  C   UNL A   1      42.780  35.245  29.709  1.00  0.00    -0.018 A 
ATOM     23  C   UNL A   1      41.661  35.324  28.864  1.00  0.00     0.009 A 
ATOM     24  C   UNL A   1      43.956  35.903  29.306  1.00  0.00     0.009 A 
ATOM     25  C   UNL A   1      41.716  36.018  27.654  1.00  0.00     0.001 A 
ATOM     26  C   UNL A   1      44.010  36.603  28.098  1.00  0.00     0.001 A 
ATOM     27  C   UNL A   1      42.891  36.656  27.270  1.00  0.00     0.000 A 
ENDBRANCH  21  22
ENDBRANCH  15  16
ENDBRANCH  13  15
ENDBRANCH  10  13
ENDBRANCH   7   9
ENDBRANCH   4   7
ENDBRANCH   2   3
ENDBRANCH   1   2
BRANCH   1  28
ATOM     28  C   UNL A   1      37.950  33.755  31.848  1.00  0.00     0.002 C 
BRANCH  28  29
ATOM     29  C   UNL A   1      38.100  33.559  30.336  1.00  0.00     0.002 C 
BRANCH  29  30
ATOM     30  C   UNL A   1      36.826  33.787  29.514  1.00  0.00     0.021 C 
BRANCH  30  31
ATOM     31  C   UNL A   1      36.501  32.680  28.514  1.00  0.00     0.116 C 
BRANCH  31  32
ATOM     32  N   UNL A   1      35.945  31.504  29.166  1.00  0.00    -0.352 N 
ATOM     33  C   UNL A   1      36.475  30.250  29.309  1.00  0.00     0.251 C 
ATOM     34  H   UNL A   1      35.055  31.631  29.566  1.00  0.00     0.163 HD
ATOM     35  O   UNL A   1      35.753  29.330  29.703  1.00  0.00    -0.269 OA
BRANCH  33  36
ATOM     36  C   UNL A   1      37.892  29.987  28.984  1.00  0.00     0.039 A 
ATOM     37  C   UNL A   1      38.845  30.068  30.002  1.00  0.00     0.014 A 
ATOM     38  C   UNL A   1      38.291  29.695  27.676  1.00  0.00     0.014 A 
ATOM     39  C   UNL A   1      40.188  29.804  29.720  1.00  0.00     0.010 A 
ATOM     40  C   UNL A   1      39.619  29.366  27.409  1.00  0.00     0.010 A 
ATOM     41  C   UNL A   1      40.583  29.421  28.427  1.00  0.00    -0.014 A 
BRANCH  41  42
ATOM     42  C   UNL A   1      41.999  29.081  28.129  1.00  0.00     0.031 A 
ATOM     43  C   UNL A   1      42.387  27.660  27.812  1.00  0.00     0.074 A 
ATOM     44  C   UNL A   1      42.939  30.044  28.180  1.00  0.00     0.049 A 
ATOM     45  N   UNL A   1      43.575  27.162  27.580  1.00  0.00    -0.248 NA
ATOM     46  C   UNL A   1      41.303  26.665  27.771  1.00  0.00     0.031 C 
ATOM     47  C   UNL A   1      42.695  31.450  28.513  1.00  0.00     0.029 A 
ATOM     48  N   UNL A   1      44.293  29.990  27.957  1.00  0.00    -0.354 N 
ATOM     49  C   UNL A   1      43.381  25.803  27.360  1.00  0.00     0.074 A 
ATOM     50  C   UNL A   1      41.971  25.542  27.553  1.00  0.00     0.031 C 
ATOM     51  C   UNL A   1      43.853  32.126  28.450  1.00  0.00     0.029 A 
ATOM     52  C   UNL A   1      44.929  31.201  28.109  1.00  0.00     0.049 A 
ATOM     53  H   UNL A   1      44.765  29.162  27.711  1.00  0.00     0.167 HD
ATOM     54  C   UNL A   1      44.288  24.864  26.998  1.00  0.00     0.037 A 
ATOM     55  C   UNL A   1      46.230  31.526  27.995  1.00  0.00     0.037 A 
ATOM     56  C   UNL A   1      45.689  25.128  26.796  1.00  0.00     0.049 A 
ATOM     57  C   UNL A   1      47.222  30.456  27.623  1.00  0.00     0.074 A 
ATOM     58  C   UNL A   1      46.686  24.247  26.416  1.00  0.00     0.029 A 
ATOM     59  N   UNL A   1      46.291  26.370  26.947  1.00  0.00    -0.354 N 
ATOM     60  N   UNL A   1      47.012  29.184  27.379  1.00  0.00    -0.248 NA
ATOM     61  C   UNL A   1      48.629  30.865  27.500  1.00  0.00     0.031 C 
ATOM     62  C   UNL A   1      47.896  24.947  26.370  1.00  0.00     0.029 A 
ATOM     63  C   UNL A   1      47.645  26.275  26.676  1.00  0.00     0.049 A 
ATOM     64  H   UNL A   1      45.823  27.196  27.210  1.00  0.00     0.167 HD
ATOM     65  C   UNL A   1      48.251  28.651  27.041  1.00  0.00     0.074 A 
ATOM     66  C   UNL A   1      49.203  29.741  27.098  1.00  0.00     0.031 C 
ATOM     67  C   UNL A   1      48.575  27.375  26.717  1.00  0.00     0.037 A 
BRANCH  54  68
ATOM     68  C   UNL A   1      43.789  23.462  26.773  1.00  0.00     0.058 A 
ATOM     69  C   UNL A   1      43.383  22.652  27.846  1.00  0.00     0.135 A 
ATOM     70  C   UNL A   1      43.661  22.940  25.475  1.00  0.00     0.135 A 
ATOM     71  F   UNL A   1      43.499  23.094  29.108  1.00  0.00    -0.206 F 
ATOM     72  C   UNL A   1      42.888  21.368  27.643  1.00  0.00     0.059 A 
ATOM     73  C   UNL A   1      43.142  21.669  25.247  1.00  0.00     0.059 A 
ATOM     74  F   UNL A   1      44.035  23.670  24.413  1.00  0.00    -0.206 F 
ATOM     75  C   UNL A   1      42.768  20.886  26.339  1.00  0.00     0.060 A 
BRANCH  75  76
ATOM     76  S   UNL A   1      42.102  19.226  26.094  1.00  0.00     0.124 S 
ATOM     77  O   UNL A   1      42.907  18.752  24.973  1.00  0.00    -0.237 OA
ATOM     78  O   UNL A   1      42.371  18.590  27.380  1.00  0.00    -0.237 OA
ATOM     79  O   UNL A   1      40.694  19.464  25.798  1.00  0.00    -0.744 OA
ENDBRANCH  75  76
ENDBRANCH  54  68
BRANCH  55  80
ATOM     80  C   UNL A   1      46.683  32.926  28.225  1.00  0.00     0.058 A 
ATOM     81  C   UNL A   1      46.777  33.838  27.163  1.00  0.00     0.135 A 
ATOM     82  C   UNL A   1      47.062  33.369  29.501  1.00  0.00     0.135 A 
ATOM     83  F   UNL A   1      46.428  33.462  25.923  1.00  0.00    -0.206 F 
ATOM     84  C   UNL A   1      47.273  35.124  27.348  1.00  0.00     0.059 A 
ATOM     85  C   UNL A   1      47.533  34.660  29.717  1.00  0.00     0.059 A 
ATOM     86  F   UNL A   1      46.971  32.543  30.556  1.00  0.00    -0.206 F 
ATOM     87  C   UNL A   1      47.655  35.524  28.629  1.00  0.00     0.060 A 
BRANCH  87  88
ATOM     88  S   UNL A   1      48.300  37.194  28.861  1.00  0.00     0.124 S 
ATOM     89  O   UNL A   1      47.087  37.932  29.192  1.00  0.00    -0.237 OA
ATOM     90  O   UNL A   1      49.253  37.008  29.951  1.00  0.00    -0.237 OA
ATOM     91  O   UNL A   1      48.896  37.505  27.565  1.00  0.00    -0.744 OA
ENDBRANCH  87  88
ENDBRANCH  55  80
BRANCH  67  92
ATOM     92  C   UNL A   1      50.007  27.099  26.349  1.00  0.00     0.058 A 
ATOM     93  C   UNL A   1      50.473  27.238  25.032  1.00  0.00     0.135 A 
ATOM     94  C   UNL A   1      50.933  26.725  27.336  1.00  0.00     0.135 A 
ATOM     95  F   UNL A   1      49.628  27.589  24.049  1.00  0.00    -0.206 F 
ATOM     96  C   UNL A   1      51.800  26.987  24.701  1.00  0.00     0.059 A 
ATOM     97  C   UNL A   1      52.271  26.495  27.033  1.00  0.00     0.059 A 
ATOM     98  F   UNL A   1      50.543  26.587  28.613  1.00  0.00    -0.206 F 
ATOM     99  C   UNL A   1      52.693  26.615  25.710  1.00  0.00     0.060 A 
BRANCH  99 100
ATOM    100  S   UNL A   1      54.418  26.315  25.270  1.00  0.00     0.124 S 
ATOM    101  O   UNL A   1      54.542  27.072  24.030  1.00  0.00    -0.237 OA
ATOM    102  O   UNL A   1      55.132  26.859  26.421  1.00  0.00    -0.237 OA
ATOM    103  O   UNL A   1      54.484  24.863  25.130  1.00  0.00    -0.744 OA
ENDBRANCH  99 100
ENDBRANCH  67  92
ENDBRANCH  41  42
ENDBRANCH  33  36
ENDBRANCH  31  32
ENDBRANCH  30  31
ENDBRANCH  29  30
ENDBRANCH  28  29
ENDBRANCH   1  28
TORSDOF 21
ENDMDL
