MODEL 1
REMARK VINA RESULT:     -11.3      0.000      0.000
REMARK SMILES CC[C@@H](Oc1ccccc1/C=C1/SC(=O)N(c2ccc(C)c(C)c2)C1=O)C(=O)NCCCCCCNC(=O)c1ccc(-c2c3nc(c(-c4c(F)cc(S(=O)(=O)[O-])cc4F)c4ccc([nH]4)c(-c4c(F)cc(S(=O)(=O)[O-])cc4F)c4nc(c(-c5c(F)cc(S(=O)(=O)[O-])cc5F)c5ccc2[nH]5)C=C4)C=C3)cc1
REMARK SMILES IDX 32 1 31 2 30 3 29 4 27 5 28 6 3 8 2 9 1 10 4 11 5 12 6 13
REMARK SMILES IDX 10 14 7 15 9 16 8 17 11 18 12 19 13 20 25 21 14 22 16 23
REMARK SMILES IDX 26 24 15 25 17 26 18 27 24 28 19 29 22 30 20 31 23 32 21 33
REMARK SMILES IDX 33 34 34 35 35 36 36 37 37 38 38 40 39 41 40 42 104 43 41 44
REMARK SMILES IDX 103 45 42 46 43 47 44 48 97 49 45 50 102 51 96 52 98 53
REMARK SMILES IDX 46 54 101 55 95 56 94 57 47 59 81 60 60 61 80 62 61 63 64 64
REMARK SMILES IDX 79 65 99 66 62 67 63 68 78 70 100 71 65 72 48 73 49 74 58 75
REMARK SMILES IDX 50 76 51 77 57 78 59 79 52 80 53 81 54 82 55 83 56 84 82 85
REMARK SMILES IDX 83 86 92 87 84 88 85 89 91 90 93 91 86 92 87 93 88 94 89 95
REMARK SMILES IDX 90 96 66 97 67 98 76 99 68 100 69 101 75 102 77 103 70 104
REMARK SMILES IDX 71 105 72 106 73 107 74 108
REMARK H PARENT 29 7 36 39 98 58 64 69
REMARK Flexibility Score: inf
ROOT
ATOM      1  C   UNL A   1      40.102  21.464  26.867  1.00  0.00     0.002 C 
ENDROOT
BRANCH   1   2
ATOM      2  C   UNL A   1      39.070  22.199  25.998  1.00  0.00     0.021 C 
BRANCH   2   3
ATOM      3  C   UNL A   1      38.061  21.304  25.279  1.00  0.00     0.116 C 
BRANCH   3   4
ATOM      4  N   UNL A   1      37.678  21.808  23.972  1.00  0.00    -0.353 N 
ATOM      5  C   UNL A   1      36.577  22.529  23.593  1.00  0.00     0.261 C 
ATOM      6  O   UNL A   1      36.542  22.943  22.428  1.00  0.00    -0.271 OA
ATOM      7  H   UNL A   1      38.308  21.599  23.245  1.00  0.00     0.163 HD
BRANCH   5   8
ATOM      8  C   UNL A   1      35.367  22.736  24.532  1.00  0.00     0.261 C 
BRANCH   8   9
ATOM      9  C   UNL A   1      35.429  24.171  25.086  1.00  0.00     0.052 C 
ATOM     10  C   UNL A   1      36.021  24.232  26.489  1.00  0.00     0.008 C 
ENDBRANCH   8   9
BRANCH   8  11
ATOM     11  O   UNL A   1      34.143  22.513  23.824  1.00  0.00    -0.480 OA
BRANCH  11  12
ATOM     12  C   UNL A   1      33.016  22.498  24.605  1.00  0.00     0.127 A 
ATOM     13  C   UNL A   1      32.926  21.582  25.653  1.00  0.00     0.047 A 
ATOM     14  C   UNL A   1      31.896  23.268  24.237  1.00  0.00     0.018 A 
ATOM     15  C   UNL A   1      31.734  21.465  26.370  1.00  0.00     0.004 A 
ATOM     16  C   UNL A   1      30.717  23.167  24.982  1.00  0.00     0.012 A 
ATOM     17  C   UNL A   1      30.636  22.263  26.043  1.00  0.00     0.001 A 
BRANCH  14  18
ATOM     18  C   UNL A   1      31.929  24.162  23.075  1.00  0.00     0.033 C 
ATOM     19  C   UNL A   1      32.143  25.483  23.150  1.00  0.00     0.084 C 
ATOM     20  S   UNL A   1      31.916  26.540  21.805  1.00  0.00    -0.022 SA
ATOM     21  C   UNL A   1      32.519  26.269  24.364  1.00  0.00     0.272 C 
ATOM     22  C   UNL A   1      32.066  27.977  22.807  1.00  0.00     0.298 C 
ATOM     23  N   UNL A   1      32.440  27.615  24.074  1.00  0.00    -0.236 N 
ATOM     24  O   UNL A   1      32.864  25.773  25.425  1.00  0.00    -0.268 OA
ATOM     25  O   UNL A   1      31.796  29.091  22.375  1.00  0.00    -0.260 OA
BRANCH  23  26
ATOM     26  C   UNL A   1      32.785  28.577  25.040  1.00  0.00     0.053 A 
ATOM     27  C   UNL A   1      34.008  28.470  25.697  1.00  0.00     0.027 A 
ATOM     28  C   UNL A   1      31.909  29.619  25.353  1.00  0.00     0.030 A 
ATOM     29  C   UNL A   1      34.361  29.422  26.649  1.00  0.00     0.006 A 
ATOM     30  C   UNL A   1      32.271  30.605  26.285  1.00  0.00    -0.046 A 
ATOM     31  C   UNL A   1      33.516  30.506  26.936  1.00  0.00    -0.048 A 
ATOM     32  C   UNL A   1      31.339  31.758  26.541  1.00  0.00     0.044 C 
ATOM     33  C   UNL A   1      33.943  31.494  27.986  1.00  0.00     0.044 C 
ENDBRANCH  23  26
ENDBRANCH  14  18
ENDBRANCH  11  12
ENDBRANCH   8  11
ENDBRANCH   5   8
ENDBRANCH   3   4
ENDBRANCH   2   3
ENDBRANCH   1   2
BRANCH   1  34
ATOM     34  C   UNL A   1      41.571  21.561  26.418  1.00  0.00     0.002 C 
BRANCH  34  35
ATOM     35  C   UNL A   1      42.543  22.128  27.456  1.00  0.00     0.021 C 
BRANCH  35  36
ATOM     36  C   UNL A   1      43.038  23.541  27.174  1.00  0.00     0.116 C 
BRANCH  36  37
ATOM     37  N   UNL A   1      42.283  24.175  26.102  1.00  0.00    -0.352 N 
ATOM     38  C   UNL A   1      41.447  25.268  26.090  1.00  0.00     0.251 C 
ATOM     39  H   UNL A   1      42.390  23.742  25.224  1.00  0.00     0.163 HD
ATOM     40  O   UNL A   1      40.742  25.445  25.095  1.00  0.00    -0.269 OA
BRANCH  38  41
ATOM     41  C   UNL A   1      41.352  26.231  27.221  1.00  0.00     0.039 A 
ATOM     42  C   UNL A   1      40.381  26.011  28.211  1.00  0.00     0.014 A 
ATOM     43  C   UNL A   1      42.111  27.399  27.280  1.00  0.00     0.014 A 
ATOM     44  C   UNL A   1      40.205  26.925  29.260  1.00  0.00     0.010 A 
ATOM     45  C   UNL A   1      42.003  28.260  28.375  1.00  0.00     0.010 A 
ATOM     46  C   UNL A   1      41.033  28.052  29.366  1.00  0.00    -0.014 A 
BRANCH  46  47
ATOM     47  C   UNL A   1      40.882  29.066  30.448  1.00  0.00     0.031 A 
ATOM     48  C   UNL A   1      41.728  28.959  31.693  1.00  0.00     0.074 A 
ATOM     49  C   UNL A   1      39.929  30.015  30.375  1.00  0.00     0.049 A 
ATOM     50  N   UNL A   1      41.609  29.584  32.837  1.00  0.00    -0.248 NA
ATOM     51  C   UNL A   1      42.831  27.987  31.654  1.00  0.00     0.031 C 
ATOM     52  C   UNL A   1      39.030  30.226  29.241  1.00  0.00     0.029 A 
ATOM     53  N   UNL A   1      39.537  30.961  31.291  1.00  0.00    -0.354 N 
ATOM     54  C   UNL A   1      42.581  29.040  33.669  1.00  0.00     0.074 A 
ATOM     55  C   UNL A   1      43.262  28.016  32.906  1.00  0.00     0.031 C 
ATOM     56  C   UNL A   1      38.192  31.235  29.528  1.00  0.00     0.029 A 
ATOM     57  C   UNL A   1      38.455  31.706  30.885  1.00  0.00     0.049 A 
ATOM     58  H   UNL A   1      39.987  31.094  32.156  1.00  0.00     0.167 HD
ATOM     59  C   UNL A   1      42.887  29.368  34.948  1.00  0.00     0.037 A 
ATOM     60  C   UNL A   1      37.733  32.639  31.537  1.00  0.00     0.037 A 
ATOM     61  C   UNL A   1      42.245  30.424  35.686  1.00  0.00     0.049 A 
ATOM     62  C   UNL A   1      38.103  33.016  32.945  1.00  0.00     0.074 A 
ATOM     63  C   UNL A   1      42.526  30.879  36.962  1.00  0.00     0.029 A 
ATOM     64  N   UNL A   1      41.194  31.195  35.210  1.00  0.00    -0.354 N 
ATOM     65  N   UNL A   1      39.043  32.513  33.710  1.00  0.00    -0.248 NA
ATOM     66  C   UNL A   1      37.322  34.087  33.581  1.00  0.00     0.031 C 
ATOM     67  C   UNL A   1      41.624  31.902  37.271  1.00  0.00     0.029 A 
ATOM     68  C   UNL A   1      40.809  32.116  36.170  1.00  0.00     0.049 A 
ATOM     69  H   UNL A   1      40.782  31.101  34.320  1.00  0.00     0.167 HD
ATOM     70  C   UNL A   1      38.987  33.225  34.904  1.00  0.00     0.074 A 
ATOM     71  C   UNL A   1      37.918  34.192  34.762  1.00  0.00     0.031 C 
ATOM     72  C   UNL A   1      39.757  33.090  36.011  1.00  0.00     0.037 A 
BRANCH  59  73
ATOM     73  C   UNL A   1      43.956  28.558  35.633  1.00  0.00     0.058 A 
ATOM     74  C   UNL A   1      45.319  28.876  35.520  1.00  0.00     0.135 A 
ATOM     75  C   UNL A   1      43.610  27.436  36.406  1.00  0.00     0.135 A 
ATOM     76  F   UNL A   1      45.707  29.933  34.787  1.00  0.00    -0.206 F 
ATOM     77  C   UNL A   1      46.303  28.080  36.096  1.00  0.00     0.059 A 
ATOM     78  C   UNL A   1      44.577  26.643  37.018  1.00  0.00     0.059 A 
ATOM     79  F   UNL A   1      42.322  27.091  36.559  1.00  0.00    -0.206 F 
ATOM     80  C   UNL A   1      45.922  26.957  36.833  1.00  0.00     0.060 A 
BRANCH  80  81
ATOM     81  S   UNL A   1      47.209  25.903  37.533  1.00  0.00     0.124 S 
ATOM     82  O   UNL A   1      48.417  26.544  37.025  1.00  0.00    -0.237 OA
ATOM     83  O   UNL A   1      46.978  26.033  38.968  1.00  0.00    -0.237 OA
ATOM     84  O   UNL A   1      46.912  24.588  36.971  1.00  0.00    -0.744 OA
ENDBRANCH  80  81
ENDBRANCH  59  73
BRANCH  60  85
ATOM     85  C   UNL A   1      36.592  33.289  30.840  1.00  0.00     0.058 A 
ATOM     86  C   UNL A   1      35.273  33.067  31.261  1.00  0.00     0.135 A 
ATOM     87  C   UNL A   1      36.800  34.200  29.792  1.00  0.00     0.135 A 
ATOM     88  F   UNL A   1      35.024  32.199  32.254  1.00  0.00    -0.206 F 
ATOM     89  C   UNL A   1      34.201  33.731  30.676  1.00  0.00     0.059 A 
ATOM     90  C   UNL A   1      35.746  34.892  29.204  1.00  0.00     0.059 A 
ATOM     91  F   UNL A   1      38.046  34.462  29.367  1.00  0.00    -0.206 F 
ATOM     92  C   UNL A   1      34.448  34.651  29.655  1.00  0.00     0.060 A 
BRANCH  92  93
ATOM     93  S   UNL A   1      33.058  35.581  28.974  1.00  0.00     0.124 S 
ATOM     94  O   UNL A   1      32.364  34.553  28.205  1.00  0.00    -0.237 OA
ATOM     95  O   UNL A   1      32.379  36.041  30.182  1.00  0.00    -0.237 OA
ATOM     96  O   UNL A   1      33.707  36.628  28.191  1.00  0.00    -0.744 OA
ENDBRANCH  92  93
ENDBRANCH  60  85
BRANCH  72  97
ATOM     97  C   UNL A   1      39.524  34.038  37.153  1.00  0.00     0.058 A 
ATOM     98  C   UNL A   1      38.724  33.689  38.252  1.00  0.00     0.135 A 
ATOM     99  C   UNL A   1      40.202  35.268  37.198  1.00  0.00     0.135 A 
ATOM    100  F   UNL A   1      38.049  32.530  38.254  1.00  0.00    -0.206 F 
ATOM    101  C   UNL A   1      38.608  34.526  39.358  1.00  0.00     0.059 A 
ATOM    102  C   UNL A   1      40.116  36.110  38.301  1.00  0.00     0.059 A 
ATOM    103  F   UNL A   1      40.985  35.645  36.174  1.00  0.00    -0.206 F 
ATOM    104  C   UNL A   1      39.317  35.729  39.378  1.00  0.00     0.060 A 
BRANCH 104 105
ATOM    105  S   UNL A   1      39.225  36.766  40.855  1.00  0.00     0.124 S 
ATOM    106  O   UNL A   1      38.451  35.923  41.759  1.00  0.00    -0.237 OA
ATOM    107  O   UNL A   1      40.632  36.943  41.200  1.00  0.00    -0.237 OA
ATOM    108  O   UNL A   1      38.547  37.969  40.383  1.00  0.00    -0.744 OA
ENDBRANCH 104 105
ENDBRANCH  72  97
ENDBRANCH  46  47
ENDBRANCH  38  41
ENDBRANCH  36  37
ENDBRANCH  35  36
ENDBRANCH  34  35
ENDBRANCH   1  34
TORSDOF 21
ENDMDL
MODEL 2
REMARK VINA RESULT:     -11.0      6.141      8.546
REMARK SMILES CC[C@@H](Oc1ccccc1/C=C1/SC(=O)N(c2ccc(C)c(C)c2)C1=O)C(=O)NCCCCCCNC(=O)c1ccc(-c2c3nc(c(-c4c(F)cc(S(=O)(=O)[O-])cc4F)c4ccc([nH]4)c(-c4c(F)cc(S(=O)(=O)[O-])cc4F)c4nc(c(-c5c(F)cc(S(=O)(=O)[O-])cc5F)c5ccc2[nH]5)C=C4)C=C3)cc1
REMARK SMILES IDX 32 1 31 2 30 3 29 4 27 5 28 6 3 8 2 9 1 10 4 11 5 12 6 13
REMARK SMILES IDX 10 14 7 15 9 16 8 17 11 18 12 19 13 20 25 21 14 22 16 23
REMARK SMILES IDX 26 24 15 25 17 26 18 27 24 28 19 29 22 30 20 31 23 32 21 33
REMARK SMILES IDX 33 34 34 35 35 36 36 37 37 38 38 40 39 41 40 42 104 43 41 44
REMARK SMILES IDX 103 45 42 46 43 47 44 48 97 49 45 50 102 51 96 52 98 53
REMARK SMILES IDX 46 54 101 55 95 56 94 57 47 59 81 60 60 61 80 62 61 63 64 64
REMARK SMILES IDX 79 65 99 66 62 67 63 68 78 70 100 71 65 72 48 73 49 74 58 75
REMARK SMILES IDX 50 76 51 77 57 78 59 79 52 80 53 81 54 82 55 83 56 84 82 85
REMARK SMILES IDX 83 86 92 87 84 88 85 89 91 90 93 91 86 92 87 93 88 94 89 95
REMARK SMILES IDX 90 96 66 97 67 98 76 99 68 100 69 101 75 102 77 103 70 104
REMARK SMILES IDX 71 105 72 106 73 107 74 108
REMARK H PARENT 29 7 36 39 98 58 64 69
REMARK Flexibility Score: inf
ROOT
ATOM      1  C   UNL A   1      40.875  22.188  26.477  1.00  0.00     0.002 C 
ENDROOT
BRANCH   1   2
ATOM      2  C   UNL A   1      39.697  22.933  27.122  1.00  0.00     0.021 C 
BRANCH   2   3
ATOM      3  C   UNL A   1      38.458  23.091  26.239  1.00  0.00     0.116 C 
BRANCH   3   4
ATOM      4  N   UNL A   1      37.706  21.857  26.084  1.00  0.00    -0.353 N 
ATOM      5  C   UNL A   1      36.460  21.645  25.559  1.00  0.00     0.261 C 
ATOM      6  O   UNL A   1      36.089  20.473  25.431  1.00  0.00    -0.271 OA
ATOM      7  H   UNL A   1      38.164  21.049  26.408  1.00  0.00     0.163 HD
BRANCH   5   8
ATOM      8  C   UNL A   1      35.496  22.809  25.232  1.00  0.00     0.261 C 
BRANCH   8   9
ATOM      9  C   UNL A   1      36.189  23.737  24.218  1.00  0.00     0.052 C 
ATOM     10  C   UNL A   1      36.594  23.012  22.941  1.00  0.00     0.008 C 
ENDBRANCH   8   9
BRANCH   8  11
ATOM     11  O   UNL A   1      34.265  22.304  24.705  1.00  0.00    -0.480 OA
BRANCH  11  12
ATOM     12  C   UNL A   1      33.143  22.662  25.407  1.00  0.00     0.127 A 
ATOM     13  C   UNL A   1      32.711  21.854  26.459  1.00  0.00     0.047 A 
ATOM     14  C   UNL A   1      32.341  23.726  24.954  1.00  0.00     0.018 A 
ATOM     15  C   UNL A   1      31.500  22.133  27.095  1.00  0.00     0.004 A 
ATOM     16  C   UNL A   1      31.145  24.018  25.618  1.00  0.00     0.012 A 
ATOM     17  C   UNL A   1      30.725  23.219  26.683  1.00  0.00     0.001 A 
BRANCH  14  18
ATOM     18  C   UNL A   1      32.719  24.527  23.785  1.00  0.00     0.033 C 
ATOM     19  C   UNL A   1      33.069  25.820  23.842  1.00  0.00     0.084 C 
ATOM     20  S   UNL A   1      33.251  26.797  22.431  1.00  0.00    -0.022 SA
ATOM     21  C   UNL A   1      33.277  26.644  25.070  1.00  0.00     0.272 C 
ATOM     22  C   UNL A   1      33.361  28.277  23.375  1.00  0.00     0.298 C 
ATOM     23  N   UNL A   1      33.420  27.968  24.707  1.00  0.00    -0.236 N 
ATOM     24  O   UNL A   1      33.334  26.191  26.203  1.00  0.00    -0.268 OA
ATOM     25  O   UNL A   1      33.321  29.380  22.843  1.00  0.00    -0.260 OA
BRANCH  23  26
ATOM     26  C   UNL A   1      33.672  28.953  25.678  1.00  0.00     0.053 A 
ATOM     27  C   UNL A   1      32.645  29.815  26.053  1.00  0.00     0.027 A 
ATOM     28  C   UNL A   1      34.940  29.083  26.250  1.00  0.00     0.030 A 
ATOM     29  C   UNL A   1      32.883  30.789  27.018  1.00  0.00     0.006 A 
ATOM     30  C   UNL A   1      35.182  30.037  27.251  1.00  0.00    -0.046 A 
ATOM     31  C   UNL A   1      34.136  30.896  27.643  1.00  0.00    -0.048 A 
ATOM     32  C   UNL A   1      36.536  30.097  27.903  1.00  0.00     0.044 C 
ATOM     33  C   UNL A   1      34.340  31.978  28.667  1.00  0.00     0.044 C 
ENDBRANCH  23  26
ENDBRANCH  14  18
ENDBRANCH  11  12
ENDBRANCH   8  11
ENDBRANCH   5   8
ENDBRANCH   3   4
ENDBRANCH   2   3
ENDBRANCH   1   2
BRANCH   1  34
ATOM     34  C   UNL A   1      41.296  20.865  27.141  1.00  0.00     0.002 C 
BRANCH  34  35
ATOM     35  C   UNL A   1      41.418  19.662  26.201  1.00  0.00     0.021 C 
BRANCH  35  36
ATOM     36  C   UNL A   1      42.630  18.772  26.443  1.00  0.00     0.116 C 
BRANCH  36  37
ATOM     37  N   UNL A   1      43.472  18.671  25.260  1.00  0.00    -0.352 N 
ATOM     38  C   UNL A   1      44.147  19.621  24.530  1.00  0.00     0.251 C 
ATOM     39  H   UNL A   1      43.579  17.753  24.920  1.00  0.00     0.163 HD
ATOM     40  O   UNL A   1      44.590  19.295  23.427  1.00  0.00    -0.269 OA
BRANCH  38  41
ATOM     41  C   UNL A   1      44.355  21.016  25.005  1.00  0.00     0.039 A 
ATOM     42  C   UNL A   1      43.783  22.068  24.273  1.00  0.00     0.014 A 
ATOM     43  C   UNL A   1      45.183  21.328  26.083  1.00  0.00     0.014 A 
ATOM     44  C   UNL A   1      44.007  23.404  24.640  1.00  0.00     0.010 A 
ATOM     45  C   UNL A   1      45.327  22.650  26.508  1.00  0.00     0.010 A 
ATOM     46  C   UNL A   1      44.765  23.709  25.779  1.00  0.00    -0.014 A 
BRANCH  46  47
ATOM     47  C   UNL A   1      45.049  25.108  26.209  1.00  0.00     0.031 A 
ATOM     48  C   UNL A   1      46.392  25.723  25.901  1.00  0.00     0.074 A 
ATOM     49  C   UNL A   1      44.163  25.792  26.958  1.00  0.00     0.049 A 
ATOM     50  N   UNL A   1      46.931  26.821  26.367  1.00  0.00    -0.248 NA
ATOM     51  C   UNL A   1      47.258  24.978  24.974  1.00  0.00     0.031 C 
ATOM     52  C   UNL A   1      42.836  25.316  27.345  1.00  0.00     0.029 A 
ATOM     53  N   UNL A   1      44.262  27.025  27.557  1.00  0.00    -0.354 N 
ATOM     54  C   UNL A   1      48.216  26.867  25.837  1.00  0.00     0.074 A 
ATOM     55  C   UNL A   1      48.384  25.673  25.037  1.00  0.00     0.031 C 
ATOM     56  C   UNL A   1      42.245  26.243  28.115  1.00  0.00     0.029 A 
ATOM     57  C   UNL A   1      43.170  27.354  28.324  1.00  0.00     0.049 A 
ATOM     58  H   UNL A   1      45.041  27.617  27.447  1.00  0.00     0.167 HD
ATOM     59  C   UNL A   1      49.167  27.820  25.993  1.00  0.00     0.037 A 
ATOM     60  C   UNL A   1      42.945  28.410  29.130  1.00  0.00     0.037 A 
ATOM     61  C   UNL A   1      48.978  29.033  26.744  1.00  0.00     0.049 A 
ATOM     62  C   UNL A   1      43.997  29.477  29.269  1.00  0.00     0.074 A 
ATOM     63  C   UNL A   1      49.855  30.091  26.908  1.00  0.00     0.029 A 
ATOM     64  N   UNL A   1      47.829  29.353  27.454  1.00  0.00    -0.354 N 
ATOM     65  N   UNL A   1      45.197  29.520  28.740  1.00  0.00    -0.248 NA
ATOM     66  C   UNL A   1      43.669  30.638  30.109  1.00  0.00     0.031 C 
ATOM     67  C   UNL A   1      49.250  31.035  27.744  1.00  0.00     0.029 A 
ATOM     68  C   UNL A   1      47.978  30.587  28.065  1.00  0.00     0.049 A 
ATOM     69  H   UNL A   1      47.027  28.786  27.514  1.00  0.00     0.167 HD
ATOM     70  C   UNL A   1      45.755  30.725  29.157  1.00  0.00     0.074 A 
ATOM     71  C   UNL A   1      44.764  31.379  29.986  1.00  0.00     0.031 C 
ATOM     72  C   UNL A   1      46.976  31.240  28.870  1.00  0.00     0.037 A 
BRANCH  59  73
ATOM     73  C   UNL A   1      50.506  27.573  25.349  1.00  0.00     0.058 A 
ATOM     74  C   UNL A   1      51.621  27.149  26.089  1.00  0.00     0.135 A 
ATOM     75  C   UNL A   1      50.678  27.776  23.969  1.00  0.00     0.135 A 
ATOM     76  F   UNL A   1      51.516  26.948  27.412  1.00  0.00    -0.206 F 
ATOM     77  C   UNL A   1      52.872  26.995  25.499  1.00  0.00     0.059 A 
ATOM     78  C   UNL A   1      51.912  27.596  23.351  1.00  0.00     0.059 A 
ATOM     79  F   UNL A   1      49.644  28.170  23.209  1.00  0.00    -0.206 F 
ATOM     80  C   UNL A   1      53.009  27.234  24.130  1.00  0.00     0.060 A 
BRANCH  80  81
ATOM     81  S   UNL A   1      54.645  27.079  23.384  1.00  0.00     0.124 S 
ATOM     82  O   UNL A   1      54.308  26.631  22.037  1.00  0.00    -0.237 OA
ATOM     83  O   UNL A   1      55.169  28.438  23.487  1.00  0.00    -0.237 OA
ATOM     84  O   UNL A   1      55.310  26.090  24.227  1.00  0.00    -0.744 OA
ENDBRANCH  80  81
ENDBRANCH  59  73
BRANCH  60  85
ATOM     85  C   UNL A   1      41.651  28.507  29.854  1.00  0.00     0.058 A 
ATOM     86  C   UNL A   1      41.557  28.151  31.207  1.00  0.00     0.135 A 
ATOM     87  C   UNL A   1      40.503  29.025  29.232  1.00  0.00     0.135 A 
ATOM     88  F   UNL A   1      42.625  27.644  31.842  1.00  0.00    -0.206 F 
ATOM     89  C   UNL A   1      40.376  28.314  31.922  1.00  0.00     0.059 A 
ATOM     90  C   UNL A   1      39.316  29.216  29.931  1.00  0.00     0.059 A 
ATOM     91  F   UNL A   1      40.549  29.399  27.944  1.00  0.00    -0.206 F 
ATOM     92  C   UNL A   1      39.263  28.858  31.278  1.00  0.00     0.060 A 
BRANCH  92  93
ATOM     93  S   UNL A   1      37.767  29.159  32.245  1.00  0.00     0.124 S 
ATOM     94  O   UNL A   1      37.706  27.961  33.074  1.00  0.00    -0.237 OA
ATOM     95  O   UNL A   1      38.097  30.400  32.938  1.00  0.00    -0.237 OA
ATOM     96  O   UNL A   1      36.729  29.277  31.225  1.00  0.00    -0.744 OA
ENDBRANCH  92  93
ENDBRANCH  60  85
BRANCH  72  97
ATOM     97  C   UNL A   1      47.310  32.604  29.406  1.00  0.00     0.058 A 
ATOM     98  C   UNL A   1      46.982  33.774  28.705  1.00  0.00     0.135 A 
ATOM     99  C   UNL A   1      47.864  32.739  30.690  1.00  0.00     0.135 A 
ATOM    100  F   UNL A   1      46.458  33.699  27.473  1.00  0.00    -0.206 F 
ATOM    101  C   UNL A   1      47.189  35.033  29.261  1.00  0.00     0.059 A 
ATOM    102  C   UNL A   1      48.061  33.987  31.272  1.00  0.00     0.059 A 
ATOM    103  F   UNL A   1      48.190  31.649  31.403  1.00  0.00    -0.206 F 
ATOM    104  C   UNL A   1      47.719  35.129  30.550  1.00  0.00     0.060 A 
BRANCH 104 105
ATOM    105  S   UNL A   1      47.904  36.765  31.293  1.00  0.00     0.124 S 
ATOM    106  O   UNL A   1      46.526  37.242  31.305  1.00  0.00    -0.237 OA
ATOM    107  O   UNL A   1      48.478  36.452  32.598  1.00  0.00    -0.237 OA
ATOM    108  O   UNL A   1      48.801  37.457  30.372  1.00  0.00    -0.744 OA
ENDBRANCH 104 105
ENDBRANCH  72  97
ENDBRANCH  46  47
ENDBRANCH  38  41
ENDBRANCH  36  37
ENDBRANCH  35  36
ENDBRANCH  34  35
ENDBRANCH   1  34
TORSDOF 21
ENDMDL
MODEL 3
REMARK VINA RESULT:     -10.7      5.829     10.193
REMARK SMILES CC[C@@H](Oc1ccccc1/C=C1/SC(=O)N(c2ccc(C)c(C)c2)C1=O)C(=O)NCCCCCCNC(=O)c1ccc(-c2c3nc(c(-c4c(F)cc(S(=O)(=O)[O-])cc4F)c4ccc([nH]4)c(-c4c(F)cc(S(=O)(=O)[O-])cc4F)c4nc(c(-c5c(F)cc(S(=O)(=O)[O-])cc5F)c5ccc2[nH]5)C=C4)C=C3)cc1
REMARK SMILES IDX 32 1 31 2 30 3 29 4 27 5 28 6 3 8 2 9 1 10 4 11 5 12 6 13
REMARK SMILES IDX 10 14 7 15 9 16 8 17 11 18 12 19 13 20 25 21 14 22 16 23
REMARK SMILES IDX 26 24 15 25 17 26 18 27 24 28 19 29 22 30 20 31 23 32 21 33
REMARK SMILES IDX 33 34 34 35 35 36 36 37 37 38 38 40 39 41 40 42 104 43 41 44
REMARK SMILES IDX 103 45 42 46 43 47 44 48 97 49 45 50 102 51 96 52 98 53
REMARK SMILES IDX 46 54 101 55 95 56 94 57 47 59 81 60 60 61 80 62 61 63 64 64
REMARK SMILES IDX 79 65 99 66 62 67 63 68 78 70 100 71 65 72 48 73 49 74 58 75
REMARK SMILES IDX 50 76 51 77 57 78 59 79 52 80 53 81 54 82 55 83 56 84 82 85
REMARK SMILES IDX 83 86 92 87 84 88 85 89 91 90 93 91 86 92 87 93 88 94 89 95
REMARK SMILES IDX 90 96 66 97 67 98 76 99 68 100 69 101 75 102 77 103 70 104
REMARK SMILES IDX 71 105 72 106 73 107 74 108
REMARK H PARENT 29 7 36 39 98 58 64 69
REMARK Flexibility Score: inf
ROOT
ATOM      1  C   UNL A   1      37.244  22.284  25.388  1.00  0.00     0.002 C 
ENDROOT
BRANCH   1   2
ATOM      2  C   UNL A   1      36.799  23.477  24.528  1.00  0.00     0.021 C 
BRANCH   2   3
ATOM      3  C   UNL A   1      35.288  23.635  24.357  1.00  0.00     0.116 C 
BRANCH   3   4
ATOM      4  N   UNL A   1      34.807  23.162  23.070  1.00  0.00    -0.353 N 
ATOM      5  C   UNL A   1      33.788  23.630  22.284  1.00  0.00     0.261 C 
ATOM      6  O   UNL A   1      33.653  23.121  21.165  1.00  0.00    -0.271 OA
ATOM      7  H   UNL A   1      35.288  22.385  22.707  1.00  0.00     0.163 HD
BRANCH   5   8
ATOM      8  C   UNL A   1      32.769  24.674  22.795  1.00  0.00     0.261 C 
BRANCH   8   9
ATOM      9  C   UNL A   1      32.714  25.830  21.779  1.00  0.00     0.052 C 
ATOM     10  C   UNL A   1      33.437  27.077  22.271  1.00  0.00     0.008 C 
ENDBRANCH   8   9
BRANCH   8  11
ATOM     11  O   UNL A   1      31.480  24.075  22.958  1.00  0.00    -0.480 OA
BRANCH  11  12
ATOM     12  C   UNL A   1      31.020  24.030  24.249  1.00  0.00     0.127 A 
ATOM     13  C   UNL A   1      31.313  22.916  25.037  1.00  0.00     0.047 A 
ATOM     14  C   UNL A   1      30.114  25.005  24.707  1.00  0.00     0.018 A 
ATOM     15  C   UNL A   1      30.741  22.797  26.305  1.00  0.00     0.004 A 
ATOM     16  C   UNL A   1      29.572  24.892  25.991  1.00  0.00     0.012 A 
ATOM     17  C   UNL A   1      29.882  23.787  26.785  1.00  0.00     0.001 A 
BRANCH  14  18
ATOM     18  C   UNL A   1      29.706  26.130  23.859  1.00  0.00     0.033 C 
ATOM     19  C   UNL A   1      30.119  27.393  24.038  1.00  0.00     0.084 C 
ATOM     20  S   UNL A   1      29.422  28.728  23.195  1.00  0.00    -0.022 SA
ATOM     21  C   UNL A   1      31.147  27.877  25.008  1.00  0.00     0.272 C 
ATOM     22  C   UNL A   1      30.247  29.902  24.211  1.00  0.00     0.298 C 
ATOM     23  N   UNL A   1      31.133  29.256  25.032  1.00  0.00    -0.236 N 
ATOM     24  O   UNL A   1      31.889  27.146  25.647  1.00  0.00    -0.268 OA
ATOM     25  O   UNL A   1      29.966  31.094  24.171  1.00  0.00    -0.260 OA
BRANCH  23  26
ATOM     26  C   UNL A   1      32.040  29.968  25.836  1.00  0.00     0.053 A 
ATOM     27  C   UNL A   1      31.633  31.162  26.424  1.00  0.00     0.027 A 
ATOM     28  C   UNL A   1      33.340  29.497  26.032  1.00  0.00     0.030 A 
ATOM     29  C   UNL A   1      32.523  31.870  27.229  1.00  0.00     0.006 A 
ATOM     30  C   UNL A   1      34.234  30.182  26.870  1.00  0.00    -0.046 A 
ATOM     31  C   UNL A   1      33.815  31.381  27.480  1.00  0.00    -0.048 A 
ATOM     32  C   UNL A   1      35.600  29.606  27.123  1.00  0.00     0.044 C 
ATOM     33  C   UNL A   1      34.738  32.196  28.343  1.00  0.00     0.044 C 
ENDBRANCH  23  26
ENDBRANCH  14  18
ENDBRANCH  11  12
ENDBRANCH   8  11
ENDBRANCH   5   8
ENDBRANCH   3   4
ENDBRANCH   2   3
ENDBRANCH   1   2
BRANCH   1  34
ATOM     34  C   UNL A   1      37.066  20.887  24.767  1.00  0.00     0.002 C 
BRANCH  34  35
ATOM     35  C   UNL A   1      38.275  19.954  24.882  1.00  0.00     0.021 C 
BRANCH  35  36
ATOM     36  C   UNL A   1      39.357  20.414  25.851  1.00  0.00     0.116 C 
BRANCH  36  37
ATOM     37  N   UNL A   1      40.425  19.432  25.974  1.00  0.00    -0.352 N 
ATOM     38  C   UNL A   1      41.787  19.569  26.116  1.00  0.00     0.251 C 
ATOM     39  H   UNL A   1      40.116  18.497  25.952  1.00  0.00     0.163 HD
ATOM     40  O   UNL A   1      42.488  18.570  25.953  1.00  0.00    -0.269 OA
BRANCH  38  41
ATOM     41  C   UNL A   1      42.443  20.864  26.445  1.00  0.00     0.039 A 
ATOM     42  C   UNL A   1      42.695  21.167  27.792  1.00  0.00     0.014 A 
ATOM     43  C   UNL A   1      42.718  21.833  25.482  1.00  0.00     0.014 A 
ATOM     44  C   UNL A   1      43.247  22.403  28.160  1.00  0.00     0.010 A 
ATOM     45  C   UNL A   1      43.358  23.024  25.835  1.00  0.00     0.010 A 
ATOM     46  C   UNL A   1      43.608  23.338  27.179  1.00  0.00    -0.014 A 
BRANCH  46  47
ATOM     47  C   UNL A   1      44.184  24.673  27.509  1.00  0.00     0.031 A 
ATOM     48  C   UNL A   1      43.312  25.723  28.151  1.00  0.00     0.074 A 
ATOM     49  C   UNL A   1      45.443  24.989  27.147  1.00  0.00     0.049 A 
ATOM     50  N   UNL A   1      43.533  27.003  28.315  1.00  0.00    -0.248 NA
ATOM     51  C   UNL A   1      41.997  25.276  28.636  1.00  0.00     0.031 C 
ATOM     52  C   UNL A   1      46.392  24.081  26.506  1.00  0.00     0.029 A 
ATOM     53  N   UNL A   1      46.128  26.176  27.239  1.00  0.00    -0.354 N 
ATOM     54  C   UNL A   1      42.366  27.521  28.867  1.00  0.00     0.074 A 
ATOM     55  C   UNL A   1      41.432  26.422  28.983  1.00  0.00     0.031 C 
ATOM     56  C   UNL A   1      47.535  24.741  26.261  1.00  0.00     0.029 A 
ATOM     57  C   UNL A   1      47.382  26.133  26.675  1.00  0.00     0.049 A 
ATOM     58  H   UNL A   1      45.758  26.982  27.667  1.00  0.00     0.167 HD
ATOM     59  C   UNL A   1      42.099  28.793  29.251  1.00  0.00     0.037 A 
ATOM     60  C   UNL A   1      48.295  27.106  26.483  1.00  0.00     0.037 A 
ATOM     61  C   UNL A   1      43.049  29.873  29.185  1.00  0.00     0.049 A 
ATOM     62  C   UNL A   1      47.998  28.507  26.943  1.00  0.00     0.074 A 
ATOM     63  C   UNL A   1      42.899  31.181  29.610  1.00  0.00     0.029 A 
ATOM     64  N   UNL A   1      44.331  29.767  28.664  1.00  0.00    -0.354 N 
ATOM     65  N   UNL A   1      46.901  28.976  27.488  1.00  0.00    -0.248 NA
ATOM     66  C   UNL A   1      49.058  29.510  26.767  1.00  0.00     0.031 C 
ATOM     67  C   UNL A   1      44.077  31.875  29.316  1.00  0.00     0.029 A 
ATOM     68  C   UNL A   1      44.979  30.988  28.748  1.00  0.00     0.049 A 
ATOM     69  H   UNL A   1      44.722  28.944  28.290  1.00  0.00     0.167 HD
ATOM     70  C   UNL A   1      47.149  30.321  27.749  1.00  0.00     0.074 A 
ATOM     71  C   UNL A   1      48.498  30.591  27.297  1.00  0.00     0.031 C 
ATOM     72  C   UNL A   1      46.332  31.241  28.316  1.00  0.00     0.037 A 
BRANCH  59  73
ATOM     73  C   UNL A   1      40.712  29.085  29.761  1.00  0.00     0.058 A 
ATOM     74  C   UNL A   1      39.685  29.527  28.912  1.00  0.00     0.135 A 
ATOM     75  C   UNL A   1      40.410  28.932  31.125  1.00  0.00     0.135 A 
ATOM     76  F   UNL A   1      39.919  29.699  27.601  1.00  0.00    -0.206 F 
ATOM     77  C   UNL A   1      38.428  29.865  29.404  1.00  0.00     0.059 A 
ATOM     78  C   UNL A   1      39.151  29.232  31.634  1.00  0.00     0.059 A 
ATOM     79  F   UNL A   1      41.351  28.501  31.981  1.00  0.00    -0.206 F 
ATOM     80  C   UNL A   1      38.175  29.725  30.770  1.00  0.00     0.060 A 
BRANCH  80  81
ATOM     81  S   UNL A   1      36.557  30.214  31.405  1.00  0.00     0.124 S 
ATOM     82  O   UNL A   1      36.611  29.691  32.767  1.00  0.00    -0.237 OA
ATOM     83  O   UNL A   1      36.596  31.668  31.283  1.00  0.00    -0.237 OA
ATOM     84  O   UNL A   1      35.623  29.538  30.509  1.00  0.00    -0.744 OA
ENDBRANCH  80  81
ENDBRANCH  59  73
BRANCH  60  85
ATOM     85  C   UNL A   1      49.588  26.767  25.831  1.00  0.00     0.058 A 
ATOM     86  C   UNL A   1      49.813  27.071  24.482  1.00  0.00     0.135 A 
ATOM     87  C   UNL A   1      50.646  26.203  26.562  1.00  0.00     0.135 A 
ATOM     88  F   UNL A   1      48.827  27.603  23.742  1.00  0.00    -0.206 F 
ATOM     89  C   UNL A   1      51.044  26.838  23.878  1.00  0.00     0.059 A 
ATOM     90  C   UNL A   1      51.894  25.979  25.986  1.00  0.00     0.059 A 
ATOM     91  F   UNL A   1      50.487  25.914  27.862  1.00  0.00    -0.206 F 
ATOM     92  C   UNL A   1      52.082  26.302  24.642  1.00  0.00     0.060 A 
BRANCH  92  93
ATOM     93  S   UNL A   1      53.704  26.100  23.874  1.00  0.00     0.124 S 
ATOM     94  O   UNL A   1      54.220  24.930  24.577  1.00  0.00    -0.237 OA
ATOM     95  O   UNL A   1      53.354  25.899  22.471  1.00  0.00    -0.237 OA
ATOM     96  O   UNL A   1      54.374  27.363  24.170  1.00  0.00    -0.744 OA
ENDBRANCH  92  93
ENDBRANCH  60  85
BRANCH  72  97
ATOM     97  C   UNL A   1      46.874  32.625  28.539  1.00  0.00     0.058 A 
ATOM     98  C   UNL A   1      46.710  33.645  27.591  1.00  0.00     0.135 A 
ATOM     99  C   UNL A   1      47.467  32.958  29.769  1.00  0.00     0.135 A 
ATOM    100  F   UNL A   1      46.156  33.376  26.399  1.00  0.00    -0.206 F 
ATOM    101  C   UNL A   1      47.111  34.951  27.855  1.00  0.00     0.059 A 
ATOM    102  C   UNL A   1      47.857  34.261  30.061  1.00  0.00     0.059 A 
ATOM    103  F   UNL A   1      47.641  32.019  30.712  1.00  0.00    -0.206 F 
ATOM    104  C   UNL A   1      47.674  35.252  29.098  1.00  0.00     0.060 A 
BRANCH 104 105
ATOM    105  S   UNL A   1      48.113  36.966  29.460  1.00  0.00     0.124 S 
ATOM    106  O   UNL A   1      49.213  36.796  30.402  1.00  0.00    -0.237 OA
ATOM    107  O   UNL A   1      48.479  37.480  28.143  1.00  0.00    -0.237 OA
ATOM    108  O   UNL A   1      46.884  37.520  30.021  1.00  0.00    -0.744 OA
ENDBRANCH 104 105
ENDBRANCH  72  97
ENDBRANCH  46  47
ENDBRANCH  38  41
ENDBRANCH  36  37
ENDBRANCH  35  36
ENDBRANCH  34  35
ENDBRANCH   1  34
TORSDOF 21
ENDMDL
