MODEL 1
REMARK VINA RESULT:     -12.3      0.000      0.000
REMARK SMILES Cc1c(Cl)cccc1NC(=O)C[C@](C)(C(=O)NCCCCCCNC(=O)c1ccc(-c2c3nc(c(-c4c(F)cc(S(=O)(=O)[O-])cc4F)c4ccc([nH]4)c(-c4c(F)cc(S(=O)(=O)[O-])cc4F)c4nc(c(-c5c(F)cc(S(=O)(=O)[O-])cc5F)c5ccc2[nH]5)C=C4)C=C3)cc1)c1ccccc1
REMARK SMILES IDX 20 1 19 2 18 3 17 4 15 5 16 6 13 8 14 9 12 10 10 11 9 12
REMARK SMILES IDX 11 14 8 15 1 16 2 17 3 18 4 19 5 20 7 21 6 22 93 23 94 24
REMARK SMILES IDX 98 25 95 26 97 27 96 28 21 29 22 30 23 31 24 32 25 33 26 35
REMARK SMILES IDX 27 36 28 37 92 38 29 39 91 40 30 41 31 42 32 43 85 44 33 45
REMARK SMILES IDX 90 46 84 47 86 48 34 49 89 50 83 51 82 52 35 54 69 55 48 56
REMARK SMILES IDX 68 57 49 58 52 59 67 60 87 61 50 62 51 63 66 65 88 66 53 67
REMARK SMILES IDX 36 68 37 69 46 70 38 71 39 72 45 73 47 74 40 75 41 76 42 77
REMARK SMILES IDX 43 78 44 79 70 80 71 81 80 82 72 83 73 84 79 85 81 86 74 87
REMARK SMILES IDX 75 88 76 89 77 90 78 91 54 92 55 93 64 94 56 95 57 96 63 97
REMARK SMILES IDX 65 98 58 99 59 100 60 101 61 102 62 103
REMARK H PARENT 17 7 9 13 24 34 86 53 52 64
REMARK Flexibility Score: inf
ROOT
ATOM      1  C   UNL A   1      33.725  31.497  27.725  1.00  0.00     0.002 C 
ENDROOT
BRANCH   1   2
ATOM      2  C   UNL A   1      32.976  30.197  27.418  1.00  0.00     0.021 C 
BRANCH   2   3
ATOM      3  C   UNL A   1      32.310  30.159  25.854  1.00  0.00     0.116 C 
BRANCH   3   4
ATOM      4  N   UNL A   1      33.051  29.436  24.038  1.00  0.00    -0.355 N 
ATOM      5  C   UNL A   1      33.224  28.451  23.025  1.00  0.00     0.230 C 
ATOM      6  O   UNL A   1      33.915  28.948  22.114  1.00  0.00    -0.274 OA
ATOM      7  H   UNL A   1      33.563  30.201  23.690  1.00  0.00     0.163 HD
BRANCH   5   8
ATOM      8  C   UNL A   1      32.758  26.907  22.932  1.00  0.00     0.080 C 
ATOM      9  C   UNL A   1      31.337  26.879  22.252  1.00  0.00     0.027 C 
BRANCH   8  10
ATOM     10  C   UNL A   1      33.764  25.917  22.245  1.00  0.00     0.121 C 
BRANCH  10  11
ATOM     11  C   UNL A   1      33.247  24.894  21.253  1.00  0.00     0.225 C 
ATOM     12  N   UNL A   1      33.270  23.563  21.550  1.00  0.00    -0.326 N 
ATOM     13  H   UNL A   1      33.320  22.916  20.809  1.00  0.00     0.169 HD
ATOM     14  O   UNL A   1      32.835  25.237  20.142  1.00  0.00    -0.275 OA
BRANCH  12  15
ATOM     15  C   UNL A   1      33.223  23.079  22.856  1.00  0.00     0.045 A 
ATOM     16  C   UNL A   1      36.089  23.189  23.087  1.00  0.00     0.048 C 
ATOM     17  C   UNL A   1      34.821  22.468  23.456  1.00  0.00    -0.009 A 
ATOM     18  C   UNL A   1      34.862  21.276  24.802  1.00  0.00     0.046 A 
ATOM     19  Cl  UNL A   1      36.367  20.663  25.375  1.00  0.00    -0.084 Cl
ATOM     20  C   UNL A   1      33.333  20.591  25.471  1.00  0.00     0.021 A 
ATOM     21  C   UNL A   1      31.655  22.495  23.603  1.00  0.00     0.026 A 
ATOM     22  C   UNL A   1      31.727  21.234  24.915  1.00  0.00     0.004 A 
ENDBRANCH  12  15
ENDBRANCH  10  11
ENDBRANCH   8  10
BRANCH   8  23
ATOM     23  C   UNL A   1      32.438  26.211  24.319  1.00  0.00    -0.032 A 
ATOM     24  C   UNL A   1      33.523  25.664  25.061  1.00  0.00     0.005 A 
ATOM     25  C   UNL A   1      31.164  26.057  24.870  1.00  0.00     0.005 A 
ATOM     26  C   UNL A   1      33.332  24.880  26.193  1.00  0.00     0.000 A 
ATOM     27  C   UNL A   1      30.970  25.277  26.018  1.00  0.00     0.000 A 
ATOM     28  C   UNL A   1      32.046  24.666  26.661  1.00  0.00     0.000 A 
ENDBRANCH   8  23
ENDBRANCH   5   8
ENDBRANCH   3   4
ENDBRANCH   2   3
ENDBRANCH   1   2
BRANCH   1  29
ATOM     29  C   UNL A   1      35.177  31.283  28.190  1.00  0.00     0.002 C 
BRANCH  29  30
ATOM     30  C   UNL A   1      35.546  29.803  28.277  1.00  0.00     0.021 C 
BRANCH  30  31
ATOM     31  C   UNL A   1      36.200  29.490  29.611  1.00  0.00     0.116 C 
BRANCH  31  32
ATOM     32  N   UNL A   1      36.134  30.657  30.497  1.00  0.00    -0.352 N 
ATOM     33  C   UNL A   1      37.151  31.283  31.145  1.00  0.00     0.251 C 
ATOM     34  H   UNL A   1      35.236  31.036  30.640  1.00  0.00     0.163 HD
ATOM     35  O   UNL A   1      36.961  32.079  32.050  1.00  0.00    -0.269 OA
BRANCH  33  36
ATOM     36  C   UNL A   1      38.480  30.942  30.659  1.00  0.00     0.039 A 
ATOM     37  C   UNL A   1      39.340  30.234  31.485  1.00  0.00     0.014 A 
ATOM     38  C   UNL A   1      38.729  31.155  29.298  1.00  0.00     0.014 A 
ATOM     39  C   UNL A   1      40.502  29.734  30.924  1.00  0.00     0.010 A 
ATOM     40  C   UNL A   1      39.806  30.527  28.719  1.00  0.00     0.010 A 
ATOM     41  C   UNL A   1      40.729  29.871  29.541  1.00  0.00    -0.014 A 
BRANCH  41  42
ATOM     42  C   UNL A   1      41.993  29.418  28.947  1.00  0.00     0.031 A 
ATOM     43  C   UNL A   1      43.128  30.395  28.850  1.00  0.00     0.074 A 
ATOM     44  C   UNL A   1      42.096  28.152  28.510  1.00  0.00     0.049 A 
ATOM     45  N   UNL A   1      44.332  30.209  28.384  1.00  0.00    -0.248 NA
ATOM     46  C   UNL A   1      42.870  31.777  29.299  1.00  0.00     0.031 C 
ATOM     47  C   UNL A   1      41.017  27.159  28.519  1.00  0.00     0.029 A 
ATOM     48  N   UNL A   1      43.165  27.479  27.990  1.00  0.00    -0.354 N 
ATOM     49  C   UNL A   1      44.960  31.444  28.479  1.00  0.00     0.074 A 
ATOM     50  C   UNL A   1      43.984  32.395  28.946  1.00  0.00     0.031 C 
ATOM     51  C   UNL A   1      41.499  25.985  28.087  1.00  0.00     0.029 A 
ATOM     52  C   UNL A   1      42.903  26.158  27.726  1.00  0.00     0.049 A 
ATOM     53  H   UNL A   1      44.038  27.900  27.823  1.00  0.00     0.167 HD
ATOM     54  C   UNL A   1      46.256  31.743  28.243  1.00  0.00     0.037 A 
ATOM     55  C   UNL A   1      43.717  25.200  27.250  1.00  0.00     0.037 A 
ATOM     56  C   UNL A   1      47.213  30.767  27.803  1.00  0.00     0.049 A 
ATOM     57  C   UNL A   1      45.151  25.562  26.976  1.00  0.00     0.074 A 
ATOM     58  C   UNL A   1      48.562  30.934  27.564  1.00  0.00     0.029 A 
ATOM     59  N   UNL A   1      46.913  29.439  27.533  1.00  0.00    -0.354 N 
ATOM     60  N   UNL A   1      45.755  26.718  27.130  1.00  0.00    -0.248 NA
ATOM     61  C   UNL A   1      46.017  24.489  26.476  1.00  0.00     0.031 C 
ATOM     62  C   UNL A   1      49.065  29.722  27.083  1.00  0.00     0.029 A 
ATOM     63  C   UNL A   1      48.047  28.779  27.098  1.00  0.00     0.049 A 
ATOM     64  H   UNL A   1      46.024  29.027  27.634  1.00  0.00     0.167 HD
ATOM     65  C   UNL A   1      47.082  26.504  26.776  1.00  0.00     0.074 A 
ATOM     66  C   UNL A   1      47.190  25.103  26.418  1.00  0.00     0.031 C 
ATOM     67  C   UNL A   1      48.119  27.380  26.752  1.00  0.00     0.037 A 
BRANCH  54  68
ATOM     68  C   UNL A   1      46.689  33.167  28.452  1.00  0.00     0.058 A 
ATOM     69  C   UNL A   1      46.663  34.115  27.414  1.00  0.00     0.135 A 
ATOM     70  C   UNL A   1      47.141  33.592  29.711  1.00  0.00     0.135 A 
ATOM     71  F   UNL A   1      46.268  33.759  26.180  1.00  0.00    -0.206 F 
ATOM     72  C   UNL A   1      47.101  35.420  27.607  1.00  0.00     0.059 A 
ATOM     73  C   UNL A   1      47.547  34.903  29.937  1.00  0.00     0.059 A 
ATOM     74  F   UNL A   1      47.202  32.727  30.735  1.00  0.00    -0.206 F 
ATOM     75  C   UNL A   1      47.537  35.806  28.875  1.00  0.00     0.060 A 
BRANCH  75  76
ATOM     76  S   UNL A   1      48.089  37.507  29.112  1.00  0.00     0.124 S 
ATOM     77  O   UNL A   1      48.013  38.031  27.752  1.00  0.00    -0.237 OA
ATOM     78  O   UNL A   1      47.098  38.025  30.049  1.00  0.00    -0.237 OA
ATOM     79  O   UNL A   1      49.437  37.355  29.649  1.00  0.00    -0.744 OA
ENDBRANCH  75  76
ENDBRANCH  54  68
BRANCH  55  80
ATOM     80  C   UNL A   1      43.202  23.822  27.042  1.00  0.00     0.058 A 
ATOM     81  C   UNL A   1      42.896  23.347  25.758  1.00  0.00     0.135 A 
ATOM     82  C   UNL A   1      43.027  22.943  28.122  1.00  0.00     0.135 A 
ATOM     83  F   UNL A   1      43.049  24.147  24.692  1.00  0.00    -0.206 F 
ATOM     84  C   UNL A   1      42.413  22.059  25.554  1.00  0.00     0.059 A 
ATOM     85  C   UNL A   1      42.576  21.640  27.940  1.00  0.00     0.059 A 
ATOM     86  F   UNL A   1      43.328  23.339  29.369  1.00  0.00    -0.206 F 
ATOM     87  C   UNL A   1      42.261  21.211  26.652  1.00  0.00     0.060 A 
BRANCH  87  88
ATOM     88  S   UNL A   1      41.674  19.527  26.370  1.00  0.00     0.124 S 
ATOM     89  O   UNL A   1      40.235  19.732  26.266  1.00  0.00    -0.237 OA
ATOM     90  O   UNL A   1      42.361  19.170  25.133  1.00  0.00    -0.237 OA
ATOM     91  O   UNL A   1      42.126  18.811  27.560  1.00  0.00    -0.744 OA
ENDBRANCH  87  88
ENDBRANCH  55  80
BRANCH  67  92
ATOM     92  C   UNL A   1      49.467  26.835  26.370  1.00  0.00     0.058 A 
ATOM     93  C   UNL A   1      49.977  26.959  25.068  1.00  0.00     0.135 A 
ATOM     94  C   UNL A   1      50.278  26.223  27.339  1.00  0.00     0.135 A 
ATOM     95  F   UNL A   1      49.240  27.535  24.104  1.00  0.00    -0.206 F 
ATOM     96  C   UNL A   1      51.229  26.459  24.731  1.00  0.00     0.059 A 
ATOM     97  C   UNL A   1      51.550  25.753  27.034  1.00  0.00     0.059 A 
ATOM     98  F   UNL A   1      49.844  26.094  28.604  1.00  0.00    -0.206 F 
ATOM     99  C   UNL A   1      52.009  25.860  25.723  1.00  0.00     0.060 A 
BRANCH  99 100
ATOM    100  S   UNL A   1      53.640  25.235  25.275  1.00  0.00     0.124 S 
ATOM    101  O   UNL A   1      53.734  25.638  23.875  1.00  0.00    -0.237 OA
ATOM    102  O   UNL A   1      54.511  25.951  26.202  1.00  0.00    -0.237 OA
ATOM    103  O   UNL A   1      53.530  23.798  25.509  1.00  0.00    -0.744 OA
ENDBRANCH  99 100
ENDBRANCH  67  92
ENDBRANCH  41  42
ENDBRANCH  33  36
ENDBRANCH  31  32
ENDBRANCH  30  31
ENDBRANCH  29  30
ENDBRANCH   1  29
TORSDOF 20
ENDMDL
MODEL 2
REMARK VINA RESULT:     -12.2      6.265     11.511
REMARK SMILES Cc1c(Cl)cccc1NC(=O)C[C@](C)(C(=O)NCCCCCCNC(=O)c1ccc(-c2c3nc(c(-c4c(F)cc(S(=O)(=O)[O-])cc4F)c4ccc([nH]4)c(-c4c(F)cc(S(=O)(=O)[O-])cc4F)c4nc(c(-c5c(F)cc(S(=O)(=O)[O-])cc5F)c5ccc2[nH]5)C=C4)C=C3)cc1)c1ccccc1
REMARK SMILES IDX 20 1 19 2 18 3 17 4 15 5 16 6 13 8 14 9 12 10 10 11 9 12
REMARK SMILES IDX 11 14 8 15 1 16 2 17 3 18 4 19 5 20 7 21 6 22 93 23 94 24
REMARK SMILES IDX 98 25 95 26 97 27 96 28 21 29 22 30 23 31 24 32 25 33 26 35
REMARK SMILES IDX 27 36 28 37 92 38 29 39 91 40 30 41 31 42 32 43 85 44 33 45
REMARK SMILES IDX 90 46 84 47 86 48 34 49 89 50 83 51 82 52 35 54 69 55 48 56
REMARK SMILES IDX 68 57 49 58 52 59 67 60 87 61 50 62 51 63 66 65 88 66 53 67
REMARK SMILES IDX 36 68 37 69 46 70 38 71 39 72 45 73 47 74 40 75 41 76 42 77
REMARK SMILES IDX 43 78 44 79 70 80 71 81 80 82 72 83 73 84 79 85 81 86 74 87
REMARK SMILES IDX 75 88 76 89 77 90 78 91 54 92 55 93 64 94 56 95 57 96 63 97
REMARK SMILES IDX 65 98 58 99 59 100 60 101 61 102 62 103
REMARK H PARENT 17 7 9 13 24 34 86 53 52 64
REMARK Flexibility Score: inf
ROOT
ATOM      1  C   UNL A   1      38.928  24.787  27.638  1.00  0.00     0.002 C 
ENDROOT
BRANCH   1   2
ATOM      2  C   UNL A   1      38.767  23.617  26.663  1.00  0.00     0.021 C 
BRANCH   2   3
ATOM      3  C   UNL A   1      37.358  23.720  25.718  1.00  0.00     0.116 C 
BRANCH   3   4
ATOM      4  N   UNL A   1      35.621  22.558  25.668  1.00  0.00    -0.355 N 
ATOM      5  C   UNL A   1      34.223  22.349  25.506  1.00  0.00     0.230 C 
ATOM      6  O   UNL A   1      33.992  21.132  25.647  1.00  0.00    -0.274 OA
ATOM      7  H   UNL A   1      35.956  21.654  25.863  1.00  0.00     0.163 HD
BRANCH   5   8
ATOM      8  C   UNL A   1      33.000  23.377  25.261  1.00  0.00     0.080 C 
ATOM      9  C   UNL A   1      31.851  22.583  24.530  1.00  0.00     0.027 C 
BRANCH   8  10
ATOM     10  C   UNL A   1      32.476  24.150  26.522  1.00  0.00     0.121 C 
BRANCH  10  11
ATOM     11  C   UNL A   1      30.988  24.197  26.807  1.00  0.00     0.225 C 
ATOM     12  N   UNL A   1      30.266  25.325  26.549  1.00  0.00    -0.326 N 
ATOM     13  H   UNL A   1      29.451  25.493  27.076  1.00  0.00     0.169 HD
ATOM     14  O   UNL A   1      30.407  23.235  27.315  1.00  0.00    -0.275 OA
BRANCH  12  15
ATOM     15  C   UNL A   1      30.630  26.249  25.572  1.00  0.00     0.045 A 
ATOM     16  C   UNL A   1      32.146  27.787  27.474  1.00  0.00     0.048 C 
ATOM     17  C   UNL A   1      31.269  27.804  26.252  1.00  0.00    -0.009 A 
ATOM     18  C   UNL A   1      31.203  29.298  25.254  1.00  0.00     0.046 A 
ATOM     19  Cl  UNL A   1      31.781  30.793  25.886  1.00  0.00    -0.084 Cl
ATOM     20  C   UNL A   1      30.396  29.291  23.640  1.00  0.00     0.021 A 
ATOM     21  C   UNL A   1      29.920  26.186  23.884  1.00  0.00     0.026 A 
ATOM     22  C   UNL A   1      29.801  27.730  22.925  1.00  0.00     0.004 A 
ENDBRANCH  12  15
ENDBRANCH  10  11
ENDBRANCH   8  10
BRANCH   8  23
ATOM     23  C   UNL A   1      33.283  24.527  24.209  1.00  0.00    -0.032 A 
ATOM     24  C   UNL A   1      33.847  25.746  24.683  1.00  0.00     0.005 A 
ATOM     25  C   UNL A   1      32.995  24.462  22.843  1.00  0.00     0.005 A 
ATOM     26  C   UNL A   1      33.966  26.875  23.880  1.00  0.00     0.000 A 
ATOM     27  C   UNL A   1      33.125  25.595  22.029  1.00  0.00     0.000 A 
ATOM     28  C   UNL A   1      33.580  26.805  22.551  1.00  0.00     0.000 A 
ENDBRANCH   8  23
ENDBRANCH   5   8
ENDBRANCH   3   4
ENDBRANCH   2   3
ENDBRANCH   1   2
BRANCH   1  29
ATOM     29  C   UNL A   1      39.927  25.857  27.164  1.00  0.00     0.002 C 
BRANCH  29  30
ATOM     30  C   UNL A   1      40.692  25.425  25.914  1.00  0.00     0.021 C 
BRANCH  30  31
ATOM     31  C   UNL A   1      41.791  26.420  25.584  1.00  0.00     0.116 C 
BRANCH  31  32
ATOM     32  N   UNL A   1      43.098  25.755  25.597  1.00  0.00    -0.352 N 
ATOM     33  C   UNL A   1      44.155  25.988  26.420  1.00  0.00     0.251 C 
ATOM     34  H   UNL A   1      43.228  25.050  24.923  1.00  0.00     0.163 HD
ATOM     35  O   UNL A   1      45.275  25.563  26.186  1.00  0.00    -0.269 OA
BRANCH  33  36
ATOM     36  C   UNL A   1      43.838  26.765  27.608  1.00  0.00     0.039 A 
ATOM     37  C   UNL A   1      43.989  28.144  27.574  1.00  0.00     0.014 A 
ATOM     38  C   UNL A   1      43.181  26.094  28.647  1.00  0.00     0.014 A 
ATOM     39  C   UNL A   1      43.474  28.873  28.631  1.00  0.00     0.010 A 
ATOM     40  C   UNL A   1      42.543  26.836  29.611  1.00  0.00     0.010 A 
ATOM     41  C   UNL A   1      42.742  28.221  29.642  1.00  0.00    -0.014 A 
BRANCH  41  42
ATOM     42  C   UNL A   1      42.260  28.969  30.810  1.00  0.00     0.031 A 
ATOM     43  C   UNL A   1      43.059  28.905  32.080  1.00  0.00     0.074 A 
ATOM     44  C   UNL A   1      41.127  29.681  30.711  1.00  0.00     0.049 A 
ATOM     45  N   UNL A   1      42.834  29.496  33.220  1.00  0.00    -0.248 NA
ATOM     46  C   UNL A   1      44.247  28.029  32.087  1.00  0.00     0.031 C 
ATOM     47  C   UNL A   1      40.265  29.747  29.526  1.00  0.00     0.029 A 
ATOM     48  N   UNL A   1      40.514  30.503  31.614  1.00  0.00    -0.354 N 
ATOM     49  C   UNL A   1      43.843  29.060  34.068  1.00  0.00     0.074 A 
ATOM     50  C   UNL A   1      44.619  28.078  33.354  1.00  0.00     0.031 C 
ATOM     51  C   UNL A   1      39.270  30.616  29.756  1.00  0.00     0.029 A 
ATOM     52  C   UNL A   1      39.398  31.127  31.117  1.00  0.00     0.049 A 
ATOM     53  H   UNL A   1      40.843  30.635  32.532  1.00  0.00     0.167 HD
ATOM     54  C   UNL A   1      44.124  29.481  35.320  1.00  0.00     0.037 A 
ATOM     55  C   UNL A   1      38.579  32.017  31.704  1.00  0.00     0.037 A 
ATOM     56  C   UNL A   1      43.347  30.481  35.997  1.00  0.00     0.049 A 
ATOM     57  C   UNL A   1      38.902  32.458  33.106  1.00  0.00     0.074 A 
ATOM     58  C   UNL A   1      43.549  31.022  37.251  1.00  0.00     0.029 A 
ATOM     59  N   UNL A   1      42.214  31.086  35.470  1.00  0.00    -0.354 N 
ATOM     60  N   UNL A   1      39.896  32.088  33.880  1.00  0.00    -0.248 NA
ATOM     61  C   UNL A   1      38.000  33.444  33.710  1.00  0.00     0.031 C 
ATOM     62  C   UNL A   1      42.497  31.906  37.511  1.00  0.00     0.029 A 
ATOM     63  C   UNL A   1      41.685  31.975  36.388  1.00  0.00     0.049 A 
ATOM     64  H   UNL A   1      41.841  30.909  34.577  1.00  0.00     0.167 HD
ATOM     65  C   UNL A   1      39.759  32.821  35.053  1.00  0.00     0.074 A 
ATOM     66  C   UNL A   1      38.593  33.666  34.874  1.00  0.00     0.031 C 
ATOM     67  C   UNL A   1      40.524  32.804  36.174  1.00  0.00     0.037 A 
BRANCH  54  68
ATOM     68  C   UNL A   1      45.302  28.858  36.015  1.00  0.00     0.058 A 
ATOM     69  C   UNL A   1      46.600  29.389  35.905  1.00  0.00     0.135 A 
ATOM     70  C   UNL A   1      45.133  27.709  36.802  1.00  0.00     0.135 A 
ATOM     71  F   UNL A   1      46.828  30.470  35.140  1.00  0.00    -0.206 F 
ATOM     72  C   UNL A   1      47.689  28.785  36.520  1.00  0.00     0.059 A 
ATOM     73  C   UNL A   1      46.203  27.110  37.459  1.00  0.00     0.059 A 
ATOM     74  F   UNL A   1      43.920  27.150  36.931  1.00  0.00    -0.206 F 
ATOM     75  C   UNL A   1      47.479  27.647  37.300  1.00  0.00     0.060 A 
BRANCH  75  76
ATOM     76  S   UNL A   1      48.902  26.882  38.103  1.00  0.00     0.124 S 
ATOM     77  O   UNL A   1      48.473  26.859  39.498  1.00  0.00    -0.237 OA
ATOM     78  O   UNL A   1      48.972  25.585  37.438  1.00  0.00    -0.237 OA
ATOM     79  O   UNL A   1      49.997  27.799  37.800  1.00  0.00    -0.744 OA
ENDBRANCH  75  76
ENDBRANCH  54  68
BRANCH  55  80
ATOM     80  C   UNL A   1      37.416  32.563  30.958  1.00  0.00     0.058 A 
ATOM     81  C   UNL A   1      36.145  31.980  31.067  1.00  0.00     0.135 A 
ATOM     82  C   UNL A   1      37.548  33.694  30.138  1.00  0.00     0.135 A 
ATOM     83  F   UNL A   1      35.966  30.899  31.841  1.00  0.00    -0.206 F 
ATOM     84  C   UNL A   1      35.051  32.484  30.371  1.00  0.00     0.059 A 
ATOM     85  C   UNL A   1      36.462  34.236  29.458  1.00  0.00     0.059 A 
ATOM     86  F   UNL A   1      38.737  34.305  30.017  1.00  0.00    -0.206 F 
ATOM     87  C   UNL A   1      35.219  33.616  29.573  1.00  0.00     0.060 A 
BRANCH  87  88
ATOM     88  S   UNL A   1      33.783  34.286  28.709  1.00  0.00     0.124 S 
ATOM     89  O   UNL A   1      34.387  35.352  27.918  1.00  0.00    -0.237 OA
ATOM     90  O   UNL A   1      33.310  33.124  27.962  1.00  0.00    -0.237 OA
ATOM     91  O   UNL A   1      32.911  34.723  29.795  1.00  0.00    -0.744 OA
ENDBRANCH  87  88
ENDBRANCH  55  80
BRANCH  67  92
ATOM     92  C   UNL A   1      40.150  33.760  37.272  1.00  0.00     0.058 A 
ATOM     93  C   UNL A   1      40.754  35.021  37.397  1.00  0.00     0.135 A 
ATOM     94  C   UNL A   1      39.136  33.423  38.183  1.00  0.00     0.135 A 
ATOM     95  F   UNL A   1      41.730  35.392  36.552  1.00  0.00    -0.206 F 
ATOM     96  C   UNL A   1      40.392  35.899  38.412  1.00  0.00     0.059 A 
ATOM     97  C   UNL A   1      38.729  34.302  39.180  1.00  0.00     0.059 A 
ATOM     98  F   UNL A   1      38.515  32.235  38.098  1.00  0.00    -0.206 F 
ATOM     99  C   UNL A   1      39.376  35.530  39.296  1.00  0.00     0.060 A 
BRANCH  99 100
ATOM    100  S   UNL A   1      38.903  36.689  40.595  1.00  0.00     0.124 S 
ATOM    101  O   UNL A   1      40.180  36.915  41.266  1.00  0.00    -0.237 OA
ATOM    102  O   UNL A   1      38.380  37.816  39.829  1.00  0.00    -0.237 OA
ATOM    103  O   UNL A   1      37.910  35.948  41.367  1.00  0.00    -0.744 OA
ENDBRANCH  99 100
ENDBRANCH  67  92
ENDBRANCH  41  42
ENDBRANCH  33  36
ENDBRANCH  31  32
ENDBRANCH  30  31
ENDBRANCH  29  30
ENDBRANCH   1  29
TORSDOF 20
ENDMDL
MODEL 3
REMARK VINA RESULT:     -12.1      1.381      2.075
REMARK SMILES Cc1c(Cl)cccc1NC(=O)C[C@](C)(C(=O)NCCCCCCNC(=O)c1ccc(-c2c3nc(c(-c4c(F)cc(S(=O)(=O)[O-])cc4F)c4ccc([nH]4)c(-c4c(F)cc(S(=O)(=O)[O-])cc4F)c4nc(c(-c5c(F)cc(S(=O)(=O)[O-])cc5F)c5ccc2[nH]5)C=C4)C=C3)cc1)c1ccccc1
REMARK SMILES IDX 20 1 19 2 18 3 17 4 15 5 16 6 13 8 14 9 12 10 10 11 9 12
REMARK SMILES IDX 11 14 8 15 1 16 2 17 3 18 4 19 5 20 7 21 6 22 93 23 94 24
REMARK SMILES IDX 98 25 95 26 97 27 96 28 21 29 22 30 23 31 24 32 25 33 26 35
REMARK SMILES IDX 27 36 28 37 92 38 29 39 91 40 30 41 31 42 32 43 85 44 33 45
REMARK SMILES IDX 90 46 84 47 86 48 34 49 89 50 83 51 82 52 35 54 69 55 48 56
REMARK SMILES IDX 68 57 49 58 52 59 67 60 87 61 50 62 51 63 66 65 88 66 53 67
REMARK SMILES IDX 36 68 37 69 46 70 38 71 39 72 45 73 47 74 40 75 41 76 42 77
REMARK SMILES IDX 43 78 44 79 70 80 71 81 80 82 72 83 73 84 79 85 81 86 74 87
REMARK SMILES IDX 75 88 76 89 77 90 78 91 54 92 55 93 64 94 56 95 57 96 63 97
REMARK SMILES IDX 65 98 58 99 59 100 60 101 61 102 62 103
REMARK H PARENT 17 7 9 13 24 34 86 53 52 64
REMARK Flexibility Score: inf
ROOT
ATOM      1  C   UNL A   1      34.627  30.928  27.657  1.00  0.00     0.002 C 
ENDROOT
BRANCH   1   2
ATOM      2  C   UNL A   1      33.206  31.500  27.641  1.00  0.00     0.021 C 
BRANCH   2   3
ATOM      3  C   UNL A   1      32.211  30.790  26.459  1.00  0.00     0.116 C 
BRANCH   3   4
ATOM      4  N   UNL A   1      31.645  28.807  26.117  1.00  0.00    -0.355 N 
ATOM      5  C   UNL A   1      31.312  27.692  25.297  1.00  0.00     0.230 C 
ATOM      6  O   UNL A   1      31.084  26.717  26.040  1.00  0.00    -0.274 OA
ATOM      7  H   UNL A   1      31.565  28.442  27.027  1.00  0.00     0.163 HD
BRANCH   5   8
ATOM      8  C   UNL A   1      31.135  27.544  23.698  1.00  0.00     0.080 C 
ATOM      9  C   UNL A   1      32.367  28.250  23.015  1.00  0.00     0.027 C 
BRANCH   8  10
ATOM     10  C   UNL A   1      30.908  26.089  23.155  1.00  0.00     0.121 C 
BRANCH  10  11
ATOM     11  C   UNL A   1      31.652  25.628  21.917  1.00  0.00     0.225 C 
ATOM     12  N   UNL A   1      32.643  24.696  22.007  1.00  0.00    -0.326 N 
ATOM     13  H   UNL A   1      33.354  24.698  21.327  1.00  0.00     0.169 HD
ATOM     14  O   UNL A   1      31.408  26.116  20.810  1.00  0.00    -0.275 OA
BRANCH  12  15
ATOM     15  C   UNL A   1      32.690  23.739  23.019  1.00  0.00     0.045 A 
ATOM     16  C   UNL A   1      34.252  25.476  24.700  1.00  0.00     0.048 C 
ATOM     17  C   UNL A   1      33.972  24.064  24.260  1.00  0.00    -0.009 A 
ATOM     18  C   UNL A   1      34.610  22.705  25.249  1.00  0.00     0.046 A 
ATOM     19  Cl  UNL A   1      35.844  22.984  26.418  1.00  0.00    -0.084 Cl
ATOM     20  C   UNL A   1      34.079  21.010  24.932  1.00  0.00     0.021 A 
ATOM     21  C   UNL A   1      32.041  22.045  22.764  1.00  0.00     0.026 A 
ATOM     22  C   UNL A   1      32.758  20.677  23.731  1.00  0.00     0.004 A 
ENDBRANCH  12  15
ENDBRANCH  10  11
ENDBRANCH   8  10
BRANCH   8  23
ATOM     23  C   UNL A   1      29.935  28.367  23.071  1.00  0.00    -0.032 A 
ATOM     24  C   UNL A   1      30.247  29.463  22.217  1.00  0.00     0.005 A 
ATOM     25  C   UNL A   1      28.579  28.129  23.311  1.00  0.00     0.005 A 
ATOM     26  C   UNL A   1      29.281  30.354  21.764  1.00  0.00     0.000 A 
ATOM     27  C   UNL A   1      27.603  29.020  22.845  1.00  0.00     0.000 A 
ATOM     28  C   UNL A   1      27.954  30.144  22.100  1.00  0.00     0.000 A 
ENDBRANCH   8  23
ENDBRANCH   5   8
ENDBRANCH   3   4
ENDBRANCH   2   3
ENDBRANCH   1   2
BRANCH   1  29
ATOM     29  C   UNL A   1      35.726  31.998  27.793  1.00  0.00     0.002 C 
BRANCH  29  30
ATOM     30  C   UNL A   1      35.511  32.898  29.009  1.00  0.00     0.021 C 
BRANCH  30  31
ATOM     31  C   UNL A   1      36.630  32.714  30.019  1.00  0.00     0.116 C 
BRANCH  31  32
ATOM     32  N   UNL A   1      36.232  31.745  31.046  1.00  0.00    -0.352 N 
ATOM     33  C   UNL A   1      36.797  30.543  31.334  1.00  0.00     0.251 C 
ATOM     34  H   UNL A   1      35.457  31.997  31.597  1.00  0.00     0.163 HD
ATOM     35  O   UNL A   1      36.241  29.706  32.028  1.00  0.00    -0.269 OA
BRANCH  33  36
ATOM     36  C   UNL A   1      38.122  30.344  30.766  1.00  0.00     0.039 A 
ATOM     37  C   UNL A   1      39.202  30.163  31.618  1.00  0.00     0.014 A 
ATOM     38  C   UNL A   1      38.192  30.120  29.386  1.00  0.00     0.014 A 
ATOM     39  C   UNL A   1      40.400  29.757  31.058  1.00  0.00     0.010 A 
ATOM     40  C   UNL A   1      39.339  29.574  28.864  1.00  0.00     0.010 A 
ATOM     41  C   UNL A   1      40.466  29.452  29.685  1.00  0.00    -0.014 A 
BRANCH  41  42
ATOM     42  C   UNL A   1      41.748  29.100  29.063  1.00  0.00     0.031 A 
ATOM     43  C   UNL A   1      42.817  30.150  28.983  1.00  0.00     0.074 A 
ATOM     44  C   UNL A   1      41.925  27.858  28.584  1.00  0.00     0.049 A 
ATOM     45  N   UNL A   1      44.024  30.056  28.497  1.00  0.00    -0.248 NA
ATOM     46  C   UNL A   1      42.477  31.499  29.478  1.00  0.00     0.031 C 
ATOM     47  C   UNL A   1      40.911  26.798  28.575  1.00  0.00     0.029 A 
ATOM     48  N   UNL A   1      43.027  27.270  28.031  1.00  0.00    -0.354 N 
ATOM     49  C   UNL A   1      44.573  31.325  28.624  1.00  0.00     0.074 A 
ATOM     50  C   UNL A   1      43.545  32.197  29.132  1.00  0.00     0.031 C 
ATOM     51  C   UNL A   1      41.462  25.671  28.100  1.00  0.00     0.029 A 
ATOM     52  C   UNL A   1      42.846  25.944  27.728  1.00  0.00     0.049 A 
ATOM     53  H   UNL A   1      43.870  27.751  27.867  1.00  0.00     0.167 HD
ATOM     54  C   UNL A   1      45.844  31.714  28.382  1.00  0.00     0.037 A 
ATOM     55  C   UNL A   1      43.713  25.055  27.213  1.00  0.00     0.037 A 
ATOM     56  C   UNL A   1      46.855  30.815  27.900  1.00  0.00     0.049 A 
ATOM     57  C   UNL A   1      45.118  25.516  26.934  1.00  0.00     0.074 A 
ATOM     58  C   UNL A   1      48.187  31.075  27.651  1.00  0.00     0.029 A 
ATOM     59  N   UNL A   1      46.636  29.479  27.592  1.00  0.00    -0.354 N 
ATOM     60  N   UNL A   1      45.649  26.704  27.117  1.00  0.00    -0.248 NA
ATOM     61  C   UNL A   1      46.043  24.517  26.391  1.00  0.00     0.031 C 
ATOM     62  C   UNL A   1      48.760  29.913  27.126  1.00  0.00     0.029 A 
ATOM     63  C   UNL A   1      47.804  28.907  27.124  1.00  0.00     0.049 A 
ATOM     64  H   UNL A   1      45.777  29.009  27.691  1.00  0.00     0.167 HD
ATOM     65  C   UNL A   1      46.982  26.586  26.742  1.00  0.00     0.074 A 
ATOM     66  C   UNL A   1      47.174  25.206  26.338  1.00  0.00     0.031 C 
ATOM     67  C   UNL A   1      47.960  27.527  26.733  1.00  0.00     0.037 A 
BRANCH  54  68
ATOM     68  C   UNL A   1      46.188  33.156  28.631  1.00  0.00     0.058 A 
ATOM     69  C   UNL A   1      46.149  34.120  27.608  1.00  0.00     0.135 A 
ATOM     70  C   UNL A   1      46.567  33.582  29.913  1.00  0.00     0.135 A 
ATOM     71  F   UNL A   1      45.822  33.765  26.354  1.00  0.00    -0.206 F 
ATOM     72  C   UNL A   1      46.505  35.442  27.839  1.00  0.00     0.059 A 
ATOM     73  C   UNL A   1      46.890  34.909  30.176  1.00  0.00     0.059 A 
ATOM     74  F   UNL A   1      46.637  32.703  30.925  1.00  0.00    -0.206 F 
ATOM     75  C   UNL A   1      46.870  35.829  29.129  1.00  0.00     0.060 A 
BRANCH  75  76
ATOM     76  S   UNL A   1      47.317  37.553  29.414  1.00  0.00     0.124 S 
ATOM     77  O   UNL A   1      46.165  38.251  28.850  1.00  0.00    -0.237 OA
ATOM     78  O   UNL A   1      47.441  37.603  30.868  1.00  0.00    -0.237 OA
ATOM     79  O   UNL A   1      48.566  37.708  28.676  1.00  0.00    -0.744 OA
ENDBRANCH  75  76
ENDBRANCH  54  68
BRANCH  55  80
ATOM     80  C   UNL A   1      43.284  23.654  26.968  1.00  0.00     0.058 A 
ATOM     81  C   UNL A   1      42.945  23.213  25.680  1.00  0.00     0.135 A 
ATOM     82  C   UNL A   1      43.227  22.720  28.014  1.00  0.00     0.135 A 
ATOM     83  F   UNL A   1      42.986  24.066  24.646  1.00  0.00    -0.206 F 
ATOM     84  C   UNL A   1      42.541  21.903  25.441  1.00  0.00     0.059 A 
ATOM     85  C   UNL A   1      42.858  21.397  27.795  1.00  0.00     0.059 A 
ATOM     86  F   UNL A   1      43.565  23.083  29.261  1.00  0.00    -0.206 F 
ATOM     87  C   UNL A   1      42.506  21.001  26.506  1.00  0.00     0.060 A 
BRANCH  87  88
ATOM     88  S   UNL A   1      42.023  19.294  26.177  1.00  0.00     0.124 S 
ATOM     89  O   UNL A   1      42.370  18.642  27.433  1.00  0.00    -0.237 OA
ATOM     90  O   UNL A   1      40.595  19.432  25.900  1.00  0.00    -0.237 OA
ATOM     91  O   UNL A   1      42.844  18.927  25.027  1.00  0.00    -0.744 OA
ENDBRANCH  87  88
ENDBRANCH  55  80
BRANCH  67  92
ATOM     92  C   UNL A   1      49.335  27.081  26.318  1.00  0.00     0.058 A 
ATOM     93  C   UNL A   1      49.754  27.115  24.979  1.00  0.00     0.135 A 
ATOM     94  C   UNL A   1      50.260  26.661  27.287  1.00  0.00     0.135 A 
ATOM     95  F   UNL A   1      48.907  27.507  24.013  1.00  0.00    -0.206 F 
ATOM     96  C   UNL A   1      51.031  26.709  24.610  1.00  0.00     0.059 A 
ATOM     97  C   UNL A   1      51.556  26.291  26.947  1.00  0.00     0.059 A 
ATOM     98  F   UNL A   1      49.915  26.626  28.585  1.00  0.00    -0.206 F 
ATOM     99  C   UNL A   1      51.925  26.301  25.603  1.00  0.00     0.060 A 
BRANCH  99 100
ATOM    100  S   UNL A   1      53.586  25.798  25.112  1.00  0.00     0.124 S 
ATOM    101  O   UNL A   1      53.763  24.575  25.888  1.00  0.00    -0.237 OA
ATOM    102  O   UNL A   1      53.441  25.620  23.671  1.00  0.00    -0.237 OA
ATOM    103  O   UNL A   1      54.418  26.926  25.519  1.00  0.00    -0.744 OA
ENDBRANCH  99 100
ENDBRANCH  67  92
ENDBRANCH  41  42
ENDBRANCH  33  36
ENDBRANCH  31  32
ENDBRANCH  30  31
ENDBRANCH  29  30
ENDBRANCH   1  29
TORSDOF 20
ENDMDL
