MODEL 1
REMARK VINA RESULT:     -11.8      0.000      0.000
REMARK SMILES Cc1cc(OC(F)(F)F)cc2c1O[C@@H](C(F)(F)F)C(C(=O)NCCCCCCNC(=O)c1ccc(-c3c4nc(c(-c5c(F)cc(S(=O)(=O)[O-])cc5F)c5ccc([nH]5)c(-c5c(F)cc(S(=O)(=O)[O-])cc5F)c5nc(c(-c6c(F)cc(S(=O)(=O)[O-])cc6F)c6ccc3[nH]6)C=C5)C=C4)cc1)=C2
REMARK SMILES IDX 26 1 25 2 24 3 23 4 22 5 20 6 21 7 19 9 1 10 2 11 3 12 12 13
REMARK SMILES IDX 4 14 11 15 13 16 10 17 98 18 14 19 5 20 6 21 7 22 8 23 9 24
REMARK SMILES IDX 15 25 16 26 17 27 18 28 27 29 28 30 29 31 30 32 31 34 32 35
REMARK SMILES IDX 33 36 97 37 34 38 96 39 35 40 36 41 37 42 90 43 38 44 95 45
REMARK SMILES IDX 89 46 91 47 39 48 94 49 88 50 87 51 40 53 74 54 53 55 73 56
REMARK SMILES IDX 54 57 57 58 72 59 92 60 55 61 56 62 71 64 93 65 58 66 41 67
REMARK SMILES IDX 42 68 51 69 43 70 44 71 50 72 52 73 45 74 46 75 47 76 48 77
REMARK SMILES IDX 49 78 75 79 76 80 85 81 77 82 78 83 84 84 86 85 79 86 80 87
REMARK SMILES IDX 81 88 82 89 83 90 59 91 60 92 69 93 61 94 62 95 68 96 70 97
REMARK SMILES IDX 63 98 64 99 65 100 66 101 67 102
REMARK H PARENT 22 8 29 33 91 52 57 63
REMARK Flexibility Score: inf
ROOT
ATOM      1  C   UNL A   1      31.965  28.052  24.924  1.00  0.00     0.002 C 
ENDROOT
BRANCH   1   2
ATOM      2  C   UNL A   1      30.730  27.279  24.444  1.00  0.00     0.002 C 
BRANCH   2   3
ATOM      3  C   UNL A   1      30.990  26.279  23.315  1.00  0.00     0.021 C 
BRANCH   3   4
ATOM      4  C   UNL A   1      30.835  24.819  23.736  1.00  0.00     0.116 C 
BRANCH   4   5
ATOM      5  N   UNL A   1      30.871  24.672  25.181  1.00  0.00    -0.352 N 
ATOM      6  C   UNL A   1      31.583  23.971  26.093  1.00  0.00     0.251 C 
ATOM      7  O   UNL A   1      31.283  24.190  27.273  1.00  0.00    -0.270 OA
ATOM      8  H   UNL A   1      30.194  25.238  25.615  1.00  0.00     0.163 HD
BRANCH   6   9
ATOM      9  C   UNL A   1      32.666  22.986  25.782  1.00  0.00     0.067 C 
ATOM     10  C   UNL A   1      37.037  20.425  24.997  1.00  0.00     0.048 C 
ATOM     11  C   UNL A   1      35.578  20.062  24.977  1.00  0.00    -0.005 A 
ATOM     12  C   UNL A   1      35.170  18.775  24.598  1.00  0.00     0.054 A 
ATOM     13  C   UNL A   1      34.604  21.018  25.292  1.00  0.00     0.131 A 
ATOM     14  C   UNL A   1      33.814  18.441  24.557  1.00  0.00     0.130 A 
ATOM     15  C   UNL A   1      33.247  20.703  25.247  1.00  0.00     0.021 A 
ATOM     16  O   UNL A   1      35.052  22.245  25.683  1.00  0.00    -0.475 OA
ATOM     17  C   UNL A   1      32.858  19.412  24.881  1.00  0.00     0.058 A 
ATOM     18  C   UNL A   1      32.261  21.715  25.605  1.00  0.00     0.025 C 
ATOM     19  C   UNL A   1      34.113  23.348  25.608  1.00  0.00     0.314 C 
BRANCH  14  20
ATOM     20  O   UNL A   1      33.293  17.224  24.220  1.00  0.00    -0.406 OA
BRANCH  20  21
ATOM     21  C   UNL A   1      33.307  16.207  25.207  1.00  0.00     0.573 C 
ATOM     22  F   UNL A   1      34.561  15.980  25.655  1.00  0.00    -0.132 F 
ATOM     23  F   UNL A   1      32.504  16.520  26.246  1.00  0.00    -0.132 F 
ATOM     24  F   UNL A   1      32.848  15.062  24.654  1.00  0.00    -0.132 F 
ENDBRANCH  20  21
ENDBRANCH  14  20
BRANCH  19  25
ATOM     25  C   UNL A   1      34.391  24.164  24.333  1.00  0.00     0.429 C 
ATOM     26  F   UNL A   1      35.706  24.094  24.005  1.00  0.00    -0.167 F 
ATOM     27  F   UNL A   1      33.684  23.722  23.268  1.00  0.00    -0.167 F 
ATOM     28  F   UNL A   1      34.097  25.475  24.475  1.00  0.00    -0.167 F 
ENDBRANCH  19  25
ENDBRANCH   6   9
ENDBRANCH   4   5
ENDBRANCH   3   4
ENDBRANCH   2   3
ENDBRANCH   1   2
BRANCH   1  29
ATOM     29  C   UNL A   1      32.444  27.707  26.338  1.00  0.00     0.021 C 
BRANCH  29  30
ATOM     30  C   UNL A   1      33.784  28.331  26.718  1.00  0.00     0.116 C 
BRANCH  30  31
ATOM     31  N   UNL A   1      33.632  29.739  27.046  1.00  0.00    -0.352 N 
ATOM     32  C   UNL A   1      34.434  30.526  27.829  1.00  0.00     0.251 C 
ATOM     33  H   UNL A   1      32.847  30.186  26.654  1.00  0.00     0.163 HD
ATOM     34  O   UNL A   1      34.023  31.606  28.248  1.00  0.00    -0.269 OA
BRANCH  32  35
ATOM     35  C   UNL A   1      35.799  30.072  28.158  1.00  0.00     0.039 A 
ATOM     36  C   UNL A   1      36.063  29.556  29.430  1.00  0.00     0.014 A 
ATOM     37  C   UNL A   1      36.824  30.199  27.215  1.00  0.00     0.014 A 
ATOM     38  C   UNL A   1      37.356  29.141  29.750  1.00  0.00     0.010 A 
ATOM     39  C   UNL A   1      38.103  29.742  27.520  1.00  0.00     0.010 A 
ATOM     40  C   UNL A   1      38.381  29.229  28.795  1.00  0.00    -0.014 A 
BRANCH  40  41
ATOM     41  C   UNL A   1      39.779  28.869  29.127  1.00  0.00     0.031 A 
ATOM     42  C   UNL A   1      40.659  29.894  29.787  1.00  0.00     0.074 A 
ATOM     43  C   UNL A   1      40.266  27.661  28.792  1.00  0.00     0.049 A 
ATOM     44  N   UNL A   1      41.935  29.835  30.060  1.00  0.00    -0.248 NA
ATOM     45  C   UNL A   1      40.016  31.161  30.173  1.00  0.00     0.031 C 
ATOM     46  C   UNL A   1      39.504  26.590  28.149  1.00  0.00     0.029 A 
ATOM     47  N   UNL A   1      41.525  27.137  28.933  1.00  0.00    -0.354 N 
ATOM     48  C   UNL A   1      42.251  31.054  30.649  1.00  0.00     0.074 A 
ATOM     49  C   UNL A   1      41.043  31.851  30.647  1.00  0.00     0.031 C 
ATOM     50  C   UNL A   1      40.312  25.534  27.955  1.00  0.00     0.029 A 
ATOM     51  C   UNL A   1      41.654  25.866  28.426  1.00  0.00     0.049 A 
ATOM     52  H   UNL A   1      42.266  27.626  29.358  1.00  0.00     0.167 HD
ATOM     53  C   UNL A   1      43.435  31.462  31.164  1.00  0.00     0.037 A 
ATOM     54  C   UNL A   1      42.736  25.070  28.342  1.00  0.00     0.037 A 
ATOM     55  C   UNL A   1      44.630  30.661  31.163  1.00  0.00     0.049 A 
ATOM     56  C   UNL A   1      44.054  25.567  28.874  1.00  0.00     0.074 A 
ATOM     57  C   UNL A   1      45.878  30.975  31.672  1.00  0.00     0.029 A 
ATOM     58  N   UNL A   1      44.727  29.384  30.629  1.00  0.00    -0.354 N 
ATOM     59  N   UNL A   1      44.337  26.717  29.439  1.00  0.00    -0.248 NA
ATOM     60  C   UNL A   1      45.200  24.655  28.760  1.00  0.00     0.031 C 
ATOM     61  C   UNL A   1      46.739  29.903  31.409  1.00  0.00     0.029 A 
ATOM     62  C   UNL A   1      46.016  28.903  30.779  1.00  0.00     0.049 A 
ATOM     63  H   UNL A   1      43.987  28.893  30.203  1.00  0.00     0.167 HD
ATOM     64  C   UNL A   1      45.688  26.661  29.764  1.00  0.00     0.074 A 
ATOM     65  C   UNL A   1      46.160  25.355  29.350  1.00  0.00     0.031 C 
ATOM     66  C   UNL A   1      46.469  27.603  30.349  1.00  0.00     0.037 A 
BRANCH  53  67
ATOM     67  C   UNL A   1      43.488  32.837  31.771  1.00  0.00     0.058 A 
ATOM     68  C   UNL A   1      43.358  33.032  33.154  1.00  0.00     0.135 A 
ATOM     69  C   UNL A   1      43.703  33.967  30.967  1.00  0.00     0.135 A 
ATOM     70  F   UNL A   1      43.129  31.986  33.966  1.00  0.00    -0.206 F 
ATOM     71  C   UNL A   1      43.419  34.300  33.720  1.00  0.00     0.059 A 
ATOM     72  C   UNL A   1      43.793  35.245  31.515  1.00  0.00     0.059 A 
ATOM     73  F   UNL A   1      43.827  33.839  29.637  1.00  0.00    -0.206 F 
ATOM     74  C   UNL A   1      43.639  35.402  32.891  1.00  0.00     0.060 A 
BRANCH  74  75
ATOM     75  S   UNL A   1      43.731  37.039  33.645  1.00  0.00     0.124 S 
ATOM     76  O   UNL A   1      42.394  37.172  34.217  1.00  0.00    -0.237 OA
ATOM     77  O   UNL A   1      44.818  36.878  34.605  1.00  0.00    -0.237 OA
ATOM     78  O   UNL A   1      44.020  37.918  32.516  1.00  0.00    -0.744 OA
ENDBRANCH  74  75
ENDBRANCH  53  67
BRANCH  54  79
ATOM     79  C   UNL A   1      42.617  23.713  27.746  1.00  0.00     0.058 A 
ATOM     80  C   UNL A   1      42.726  23.526  26.361  1.00  0.00     0.135 A 
ATOM     81  C   UNL A   1      42.409  22.579  28.545  1.00  0.00     0.135 A 
ATOM     82  F   UNL A   1      42.914  24.582  25.555  1.00  0.00    -0.206 F 
ATOM     83  C   UNL A   1      42.623  22.265  25.785  1.00  0.00     0.059 A 
ATOM     84  C   UNL A   1      42.326  21.303  27.995  1.00  0.00     0.059 A 
ATOM     85  F   UNL A   1      42.311  22.702  29.877  1.00  0.00    -0.206 F 
ATOM     86  C   UNL A   1      42.429  21.158  26.612  1.00  0.00     0.060 A 
BRANCH  86  87
ATOM     87  S   UNL A   1      42.359  19.519  25.856  1.00  0.00     0.124 S 
ATOM     88  O   UNL A   1      42.755  18.664  26.969  1.00  0.00    -0.237 OA
ATOM     89  O   UNL A   1      40.961  19.431  25.448  1.00  0.00    -0.237 OA
ATOM     90  O   UNL A   1      43.319  19.614  24.760  1.00  0.00    -0.744 OA
ENDBRANCH  86  87
ENDBRANCH  54  79
BRANCH  66  91
ATOM     91  C   UNL A   1      47.910  27.245  30.588  1.00  0.00     0.058 A 
ATOM     92  C   UNL A   1      48.337  26.685  31.802  1.00  0.00     0.135 A 
ATOM     93  C   UNL A   1      48.872  27.443  29.583  1.00  0.00     0.135 A 
ATOM     94  F   UNL A   1      47.459  26.478  32.796  1.00  0.00    -0.206 F 
ATOM     95  C   UNL A   1      49.674  26.372  32.027  1.00  0.00     0.059 A 
ATOM     96  C   UNL A   1      50.209  27.109  29.776  1.00  0.00     0.059 A 
ATOM     97  F   UNL A   1      48.515  27.960  28.397  1.00  0.00    -0.206 F 
ATOM     98  C   UNL A   1      50.603  26.592  31.010  1.00  0.00     0.060 A 
BRANCH  98  99
ATOM     99  S   UNL A   1      52.334  26.186  31.318  1.00  0.00     0.124 S 
ATOM    100  O   UNL A   1      52.236  24.795  31.747  1.00  0.00    -0.237 OA
ATOM    101  O   UNL A   1      52.944  26.405  30.011  1.00  0.00    -0.237 OA
ATOM    102  O   UNL A   1      52.727  27.137  32.354  1.00  0.00    -0.744 OA
ENDBRANCH  98  99
ENDBRANCH  66  91
ENDBRANCH  40  41
ENDBRANCH  32  35
ENDBRANCH  30  31
ENDBRANCH  29  30
ENDBRANCH   1  29
TORSDOF 19
ENDMDL
MODEL 2
REMARK VINA RESULT:     -11.6      3.229      4.338
REMARK SMILES Cc1cc(OC(F)(F)F)cc2c1O[C@@H](C(F)(F)F)C(C(=O)NCCCCCCNC(=O)c1ccc(-c3c4nc(c(-c5c(F)cc(S(=O)(=O)[O-])cc5F)c5ccc([nH]5)c(-c5c(F)cc(S(=O)(=O)[O-])cc5F)c5nc(c(-c6c(F)cc(S(=O)(=O)[O-])cc6F)c6ccc3[nH]6)C=C5)C=C4)cc1)=C2
REMARK SMILES IDX 26 1 25 2 24 3 23 4 22 5 20 6 21 7 19 9 1 10 2 11 3 12 12 13
REMARK SMILES IDX 4 14 11 15 13 16 10 17 98 18 14 19 5 20 6 21 7 22 8 23 9 24
REMARK SMILES IDX 15 25 16 26 17 27 18 28 27 29 28 30 29 31 30 32 31 34 32 35
REMARK SMILES IDX 33 36 97 37 34 38 96 39 35 40 36 41 37 42 90 43 38 44 95 45
REMARK SMILES IDX 89 46 91 47 39 48 94 49 88 50 87 51 40 53 74 54 53 55 73 56
REMARK SMILES IDX 54 57 57 58 72 59 92 60 55 61 56 62 71 64 93 65 58 66 41 67
REMARK SMILES IDX 42 68 51 69 43 70 44 71 50 72 52 73 45 74 46 75 47 76 48 77
REMARK SMILES IDX 49 78 75 79 76 80 85 81 77 82 78 83 84 84 86 85 79 86 80 87
REMARK SMILES IDX 81 88 82 89 83 90 59 91 60 92 69 93 61 94 62 95 68 96 70 97
REMARK SMILES IDX 63 98 64 99 65 100 66 101 67 102
REMARK H PARENT 22 8 29 33 91 52 57 63
REMARK Flexibility Score: inf
ROOT
ATOM      1  C   UNL A   1      33.742  28.889  25.862  1.00  0.00     0.002 C 
ENDROOT
BRANCH   1   2
ATOM      2  C   UNL A   1      32.810  29.485  24.799  1.00  0.00     0.002 C 
BRANCH   2   3
ATOM      3  C   UNL A   1      32.883  28.817  23.424  1.00  0.00     0.021 C 
BRANCH   3   4
ATOM      4  C   UNL A   1      32.312  27.400  23.396  1.00  0.00     0.116 C 
BRANCH   4   5
ATOM      5  N   UNL A   1      32.485  26.780  22.093  1.00  0.00    -0.352 N 
ATOM      6  C   UNL A   1      32.861  25.575  21.606  1.00  0.00     0.251 C 
ATOM      7  O   UNL A   1      32.833  25.477  20.373  1.00  0.00    -0.270 OA
ATOM      8  H   UNL A   1      32.272  27.408  21.366  1.00  0.00     0.163 HD
BRANCH   6   9
ATOM      9  C   UNL A   1      33.292  24.400  22.426  1.00  0.00     0.067 C 
ATOM     10  C   UNL A   1      33.775  19.999  25.010  1.00  0.00     0.048 C 
ATOM     11  C   UNL A   1      34.703  21.130  24.660  1.00  0.00    -0.005 A 
ATOM     12  C   UNL A   1      36.015  21.152  25.154  1.00  0.00     0.054 A 
ATOM     13  C   UNL A   1      34.254  22.199  23.876  1.00  0.00     0.131 A 
ATOM     14  C   UNL A   1      36.872  22.213  24.850  1.00  0.00     0.130 A 
ATOM     15  C   UNL A   1      35.094  23.269  23.570  1.00  0.00     0.021 A 
ATOM     16  O   UNL A   1      32.980  22.115  23.395  1.00  0.00    -0.475 OA
ATOM     17  C   UNL A   1      36.403  23.269  24.059  1.00  0.00     0.058 A 
ATOM     18  C   UNL A   1      34.602  24.353  22.729  1.00  0.00     0.025 C 
ATOM     19  C   UNL A   1      32.358  23.349  22.953  1.00  0.00     0.314 C 
BRANCH  14  20
ATOM     20  O   UNL A   1      38.170  22.343  25.255  1.00  0.00    -0.406 OA
BRANCH  20  21
ATOM     21  C   UNL A   1      38.442  23.251  26.308  1.00  0.00     0.573 C 
ATOM     22  F   UNL A   1      37.311  23.588  26.966  1.00  0.00    -0.132 F 
ATOM     23  F   UNL A   1      39.337  22.740  27.179  1.00  0.00    -0.132 F 
ATOM     24  F   UNL A   1      38.969  24.379  25.780  1.00  0.00    -0.132 F 
ENDBRANCH  20  21
ENDBRANCH  14  20
BRANCH  19  25
ATOM     25  C   UNL A   1      31.415  23.863  24.055  1.00  0.00     0.429 C 
ATOM     26  F   UNL A   1      30.875  22.823  24.739  1.00  0.00    -0.167 F 
ATOM     27  F   UNL A   1      32.048  24.652  24.954  1.00  0.00    -0.167 F 
ATOM     28  F   UNL A   1      30.382  24.585  23.567  1.00  0.00    -0.167 F 
ENDBRANCH  19  25
ENDBRANCH   6   9
ENDBRANCH   4   5
ENDBRANCH   3   4
ENDBRANCH   2   3
ENDBRANCH   1   2
BRANCH   1  29
ATOM     29  C   UNL A   1      33.846  29.689  27.164  1.00  0.00     0.021 C 
BRANCH  29  30
ATOM     30  C   UNL A   1      35.160  29.498  27.916  1.00  0.00     0.116 C 
BRANCH  30  31
ATOM     31  N   UNL A   1      35.225  30.361  29.085  1.00  0.00    -0.352 N 
ATOM     32  C   UNL A   1      36.245  30.501  29.988  1.00  0.00     0.251 C 
ATOM     33  H   UNL A   1      34.430  30.917  29.249  1.00  0.00     0.163 HD
ATOM     34  O   UNL A   1      36.040  31.042  31.073  1.00  0.00    -0.269 OA
BRANCH  32  35
ATOM     35  C   UNL A   1      37.592  30.008  29.646  1.00  0.00     0.039 A 
ATOM     36  C   UNL A   1      38.419  29.510  30.657  1.00  0.00     0.014 A 
ATOM     37  C   UNL A   1      38.048  30.078  28.325  1.00  0.00     0.014 A 
ATOM     38  C   UNL A   1      39.700  29.057  30.339  1.00  0.00     0.010 A 
ATOM     39  C   UNL A   1      39.308  29.584  28.002  1.00  0.00     0.010 A 
ATOM     40  C   UNL A   1      40.149  29.088  29.010  1.00  0.00    -0.014 A 
BRANCH  40  41
ATOM     41  C   UNL A   1      41.529  28.687  28.651  1.00  0.00     0.031 A 
ATOM     42  C   UNL A   1      42.605  29.736  28.609  1.00  0.00     0.074 A 
ATOM     43  C   UNL A   1      41.799  27.414  28.315  1.00  0.00     0.049 A 
ATOM     44  N   UNL A   1      43.846  29.631  28.212  1.00  0.00    -0.248 NA
ATOM     45  C   UNL A   1      42.226  31.086  29.056  1.00  0.00     0.031 C 
ATOM     46  C   UNL A   1      40.833  26.314  28.321  1.00  0.00     0.029 A 
ATOM     47  N   UNL A   1      42.965  26.832  27.890  1.00  0.00    -0.354 N 
ATOM     48  C   UNL A   1      44.397  30.899  28.360  1.00  0.00     0.074 A 
ATOM     49  C   UNL A   1      43.341  31.767  28.835  1.00  0.00     0.031 C 
ATOM     50  C   UNL A   1      41.449  25.189  27.920  1.00  0.00     0.029 A 
ATOM     51  C   UNL A   1      42.840  25.495  27.598  1.00  0.00     0.049 A 
ATOM     52  H   UNL A   1      43.812  27.326  27.802  1.00  0.00     0.167 HD
ATOM     53  C   UNL A   1      45.672  31.298  28.141  1.00  0.00     0.037 A 
ATOM     54  C   UNL A   1      43.745  24.624  27.112  1.00  0.00     0.037 A 
ATOM     55  C   UNL A   1      46.716  30.426  27.670  1.00  0.00     0.049 A 
ATOM     56  C   UNL A   1      45.144  25.103  26.826  1.00  0.00     0.074 A 
ATOM     57  C   UNL A   1      48.045  30.725  27.429  1.00  0.00     0.029 A 
ATOM     58  N   UNL A   1      46.550  29.081  27.372  1.00  0.00    -0.354 N 
ATOM     59  N   UNL A   1      45.654  26.302  26.981  1.00  0.00    -0.248 NA
ATOM     60  C   UNL A   1      46.089  24.109  26.302  1.00  0.00     0.031 C 
ATOM     61  C   UNL A   1      48.673  29.572  26.947  1.00  0.00     0.029 A 
ATOM     62  C   UNL A   1      47.746  28.541  26.932  1.00  0.00     0.049 A 
ATOM     63  H   UNL A   1      45.704  28.584  27.458  1.00  0.00     0.167 HD
ATOM     64  C   UNL A   1      46.985  26.202  26.591  1.00  0.00     0.074 A 
ATOM     65  C   UNL A   1      47.205  24.820  26.212  1.00  0.00     0.031 C 
ATOM     66  C   UNL A   1      47.941  27.165  26.547  1.00  0.00     0.037 A 
BRANCH  53  67
ATOM     67  C   UNL A   1      46.003  32.739  28.410  1.00  0.00     0.058 A 
ATOM     68  C   UNL A   1      45.964  33.702  27.390  1.00  0.00     0.135 A 
ATOM     69  C   UNL A   1      46.331  33.169  29.705  1.00  0.00     0.135 A 
ATOM     70  F   UNL A   1      45.677  33.341  26.129  1.00  0.00    -0.206 F 
ATOM     71  C   UNL A   1      46.259  35.039  27.639  1.00  0.00     0.059 A 
ATOM     72  C   UNL A   1      46.604  34.506  29.983  1.00  0.00     0.059 A 
ATOM     73  F   UNL A   1      46.390  32.289  30.717  1.00  0.00    -0.206 F 
ATOM     74  C   UNL A   1      46.576  35.431  28.941  1.00  0.00     0.060 A 
BRANCH  74  75
ATOM     75  S   UNL A   1      46.939  37.172  29.247  1.00  0.00     0.124 S 
ATOM     76  O   UNL A   1      47.654  37.102  30.518  1.00  0.00    -0.237 OA
ATOM     77  O   UNL A   1      47.745  37.530  28.084  1.00  0.00    -0.237 OA
ATOM     78  O   UNL A   1      45.618  37.790  29.304  1.00  0.00    -0.744 OA
ENDBRANCH  74  75
ENDBRANCH  53  67
BRANCH  54  79
ATOM     79  C   UNL A   1      43.362  23.206  26.882  1.00  0.00     0.058 A 
ATOM     80  C   UNL A   1      43.232  22.700  25.580  1.00  0.00     0.135 A 
ATOM     81  C   UNL A   1      43.135  22.326  27.951  1.00  0.00     0.135 A 
ATOM     82  F   UNL A   1      43.429  23.506  24.526  1.00  0.00    -0.206 F 
ATOM     83  C   UNL A   1      42.881  21.375  25.344  1.00  0.00     0.059 A 
ATOM     84  C   UNL A   1      42.807  20.990  27.741  1.00  0.00     0.059 A 
ATOM     85  F   UNL A   1      43.260  22.757  29.215  1.00  0.00    -0.206 F 
ATOM     86  C   UNL A   1      42.676  20.526  26.432  1.00  0.00     0.060 A 
BRANCH  86  87
ATOM     87  S   UNL A   1      42.281  18.793  26.111  1.00  0.00     0.124 S 
ATOM     88  O   UNL A   1      43.192  18.481  25.016  1.00  0.00    -0.237 OA
ATOM     89  O   UNL A   1      42.586  18.169  27.394  1.00  0.00    -0.237 OA
ATOM     90  O   UNL A   1      40.864  18.831  25.761  1.00  0.00    -0.744 OA
ENDBRANCH  86  87
ENDBRANCH  54  79
BRANCH  66  91
ATOM     91  C   UNL A   1      49.311  26.748  26.087  1.00  0.00     0.058 A 
ATOM     92  C   UNL A   1      50.244  26.186  26.972  1.00  0.00     0.135 A 
ATOM     93  C   UNL A   1      49.688  26.893  24.742  1.00  0.00     0.135 A 
ATOM     94  F   UNL A   1      49.936  26.029  28.269  1.00  0.00    -0.206 F 
ATOM     95  C   UNL A   1      51.517  25.820  26.548  1.00  0.00     0.059 A 
ATOM     96  C   UNL A   1      50.945  26.506  24.290  1.00  0.00     0.059 A 
ATOM     97  F   UNL A   1      48.828  27.411  23.850  1.00  0.00    -0.206 F 
ATOM     98  C   UNL A   1      51.860  25.988  25.206  1.00  0.00     0.060 A 
BRANCH  98  99
ATOM     99  S   UNL A   1      53.517  25.513  24.671  1.00  0.00     0.124 S 
ATOM    100  O   UNL A   1      53.516  25.960  23.283  1.00  0.00    -0.237 OA
ATOM    101  O   UNL A   1      54.369  26.271  25.582  1.00  0.00    -0.237 OA
ATOM    102  O   UNL A   1      53.534  24.065  24.864  1.00  0.00    -0.744 OA
ENDBRANCH  98  99
ENDBRANCH  66  91
ENDBRANCH  40  41
ENDBRANCH  32  35
ENDBRANCH  30  31
ENDBRANCH  29  30
ENDBRANCH   1  29
TORSDOF 19
ENDMDL
MODEL 3
REMARK VINA RESULT:     -11.4      1.448      2.248
REMARK SMILES Cc1cc(OC(F)(F)F)cc2c1O[C@@H](C(F)(F)F)C(C(=O)NCCCCCCNC(=O)c1ccc(-c3c4nc(c(-c5c(F)cc(S(=O)(=O)[O-])cc5F)c5ccc([nH]5)c(-c5c(F)cc(S(=O)(=O)[O-])cc5F)c5nc(c(-c6c(F)cc(S(=O)(=O)[O-])cc6F)c6ccc3[nH]6)C=C5)C=C4)cc1)=C2
REMARK SMILES IDX 26 1 25 2 24 3 23 4 22 5 20 6 21 7 19 9 1 10 2 11 3 12 12 13
REMARK SMILES IDX 4 14 11 15 13 16 10 17 98 18 14 19 5 20 6 21 7 22 8 23 9 24
REMARK SMILES IDX 15 25 16 26 17 27 18 28 27 29 28 30 29 31 30 32 31 34 32 35
REMARK SMILES IDX 33 36 97 37 34 38 96 39 35 40 36 41 37 42 90 43 38 44 95 45
REMARK SMILES IDX 89 46 91 47 39 48 94 49 88 50 87 51 40 53 74 54 53 55 73 56
REMARK SMILES IDX 54 57 57 58 72 59 92 60 55 61 56 62 71 64 93 65 58 66 41 67
REMARK SMILES IDX 42 68 51 69 43 70 44 71 50 72 52 73 45 74 46 75 47 76 48 77
REMARK SMILES IDX 49 78 75 79 76 80 85 81 77 82 78 83 84 84 86 85 79 86 80 87
REMARK SMILES IDX 81 88 82 89 83 90 59 91 60 92 69 93 61 94 62 95 68 96 70 97
REMARK SMILES IDX 63 98 64 99 65 100 66 101 67 102
REMARK H PARENT 22 8 29 33 91 52 57 63
REMARK Flexibility Score: inf
ROOT
ATOM      1  C   UNL A   1      32.014  29.104  25.696  1.00  0.00     0.002 C 
ENDROOT
BRANCH   1   2
ATOM      2  C   UNL A   1      31.312  28.453  24.497  1.00  0.00     0.002 C 
BRANCH   2   3
ATOM      3  C   UNL A   1      30.626  27.118  24.793  1.00  0.00     0.021 C 
BRANCH   3   4
ATOM      4  C   UNL A   1      29.942  26.493  23.579  1.00  0.00     0.116 C 
BRANCH   4   5
ATOM      5  N   UNL A   1      30.903  26.134  22.549  1.00  0.00    -0.352 N 
ATOM      6  C   UNL A   1      31.865  25.200  22.368  1.00  0.00     0.251 C 
ATOM      7  O   UNL A   1      32.442  25.250  21.275  1.00  0.00    -0.270 OA
ATOM      8  H   UNL A   1      30.836  26.734  21.773  1.00  0.00     0.163 HD
BRANCH   6   9
ATOM      9  C   UNL A   1      32.263  24.155  23.361  1.00  0.00     0.067 C 
ATOM     10  C   UNL A   1      33.714  21.415  27.444  1.00  0.00     0.048 C 
ATOM     11  C   UNL A   1      33.247  21.080  26.054  1.00  0.00    -0.005 A 
ATOM     12  C   UNL A   1      33.227  19.750  25.613  1.00  0.00     0.054 A 
ATOM     13  C   UNL A   1      32.871  22.096  25.168  1.00  0.00     0.131 A 
ATOM     14  C   UNL A   1      32.815  19.437  24.314  1.00  0.00     0.130 A 
ATOM     15  C   UNL A   1      32.466  21.801  23.867  1.00  0.00     0.021 A 
ATOM     16  O   UNL A   1      32.879  23.370  25.655  1.00  0.00    -0.475 OA
ATOM     17  C   UNL A   1      32.438  20.469  23.447  1.00  0.00     0.058 A 
ATOM     18  C   UNL A   1      32.057  22.882  22.978  1.00  0.00     0.025 C 
ATOM     19  C   UNL A   1      32.908  24.449  24.686  1.00  0.00     0.314 C 
BRANCH  14  20
ATOM     20  O   UNL A   1      32.737  18.185  23.773  1.00  0.00    -0.406 OA
BRANCH  20  21
ATOM     21  C   UNL A   1      33.833  17.310  23.979  1.00  0.00     0.573 C 
ATOM     22  F   UNL A   1      33.696  16.621  25.132  1.00  0.00    -0.132 F 
ATOM     23  F   UNL A   1      33.974  16.449  22.949  1.00  0.00    -0.132 F 
ATOM     24  F   UNL A   1      34.964  18.047  24.065  1.00  0.00    -0.132 F 
ENDBRANCH  20  21
ENDBRANCH  14  20
BRANCH  19  25
ATOM     25  C   UNL A   1      34.347  24.979  24.561  1.00  0.00     0.429 C 
ATOM     26  F   UNL A   1      35.038  24.744  25.705  1.00  0.00    -0.167 F 
ATOM     27  F   UNL A   1      35.030  24.398  23.549  1.00  0.00    -0.167 F 
ATOM     28  F   UNL A   1      34.398  26.313  24.346  1.00  0.00    -0.167 F 
ENDBRANCH  19  25
ENDBRANCH   6   9
ENDBRANCH   4   5
ENDBRANCH   3   4
ENDBRANCH   2   3
ENDBRANCH   1   2
BRANCH   1  29
ATOM     29  C   UNL A   1      32.690  28.130  26.666  1.00  0.00     0.021 C 
BRANCH  29  30
ATOM     30  C   UNL A   1      34.006  28.637  27.250  1.00  0.00     0.116 C 
BRANCH  30  31
ATOM     31  N   UNL A   1      33.847  29.962  27.827  1.00  0.00    -0.352 N 
ATOM     32  C   UNL A   1      34.714  30.654  28.630  1.00  0.00     0.251 C 
ATOM     33  H   UNL A   1      33.005  30.423  27.611  1.00  0.00     0.163 HD
ATOM     34  O   UNL A   1      34.321  31.627  29.270  1.00  0.00    -0.269 OA
BRANCH  32  35
ATOM     35  C   UNL A   1      36.124  30.229  28.715  1.00  0.00     0.039 A 
ATOM     36  C   UNL A   1      36.635  29.782  29.936  1.00  0.00     0.014 A 
ATOM     37  C   UNL A   1      36.949  30.315  27.588  1.00  0.00     0.014 A 
ATOM     38  C   UNL A   1      37.972  29.394  30.024  1.00  0.00     0.010 A 
ATOM     39  C   UNL A   1      38.270  29.884  27.665  1.00  0.00     0.010 A 
ATOM     40  C   UNL A   1      38.795  29.440  28.887  1.00  0.00    -0.014 A 
BRANCH  40  41
ATOM     41  C   UNL A   1      40.236  29.109  28.964  1.00  0.00     0.031 A 
ATOM     42  C   UNL A   1      41.211  30.183  29.357  1.00  0.00     0.074 A 
ATOM     43  C   UNL A   1      40.668  27.879  28.632  1.00  0.00     0.049 A 
ATOM     44  N   UNL A   1      42.518  30.147  29.377  1.00  0.00    -0.248 NA
ATOM     45  C   UNL A   1      40.637  31.475  29.765  1.00  0.00     0.031 C 
ATOM     46  C   UNL A   1      39.812  26.760  28.235  1.00  0.00     0.029 A 
ATOM     47  N   UNL A   1      41.938  27.369  28.562  1.00  0.00    -0.354 N 
ATOM     48  C   UNL A   1      42.923  31.409  29.797  1.00  0.00     0.074 A 
ATOM     49  C   UNL A   1      41.725  32.202  29.973  1.00  0.00     0.031 C 
ATOM     50  C   UNL A   1      40.584  25.693  27.967  1.00  0.00     0.029 A 
ATOM     51  C   UNL A   1      41.986  26.063  28.138  1.00  0.00     0.049 A 
ATOM     52  H   UNL A   1      42.741  27.890  28.793  1.00  0.00     0.167 HD
ATOM     53  C   UNL A   1      44.177  31.858  30.035  1.00  0.00     0.037 A 
ATOM     54  C   UNL A   1      43.044  25.264  27.903  1.00  0.00     0.037 A 
ATOM     55  C   UNL A   1      45.362  31.060  29.860  1.00  0.00     0.049 A 
ATOM     56  C   UNL A   1      44.433  25.802  28.125  1.00  0.00     0.074 A 
ATOM     57  C   UNL A   1      46.681  31.414  30.087  1.00  0.00     0.029 A 
ATOM     58  N   UNL A   1      45.373  29.745  29.416  1.00  0.00    -0.354 N 
ATOM     59  N   UNL A   1      44.802  26.994  28.533  1.00  0.00    -0.248 NA
ATOM     60  C   UNL A   1      45.549  24.886  27.857  1.00  0.00     0.031 C 
ATOM     61  C   UNL A   1      47.491  30.327  29.743  1.00  0.00     0.029 A 
ATOM     62  C   UNL A   1      46.675  29.279  29.345  1.00  0.00     0.049 A 
ATOM     63  H   UNL A   1      44.573  29.221  29.184  1.00  0.00     0.167 HD
ATOM     64  C   UNL A   1      46.191  26.964  28.588  1.00  0.00     0.074 A 
ATOM     65  C   UNL A   1      46.594  25.630  28.191  1.00  0.00     0.031 C 
ATOM     66  C   UNL A   1      47.056  27.950  28.935  1.00  0.00     0.037 A 
BRANCH  53  67
ATOM     67  C   UNL A   1      44.327  33.275  30.513  1.00  0.00     0.058 A 
ATOM     68  C   UNL A   1      44.449  34.343  29.611  1.00  0.00     0.135 A 
ATOM     69  C   UNL A   1      44.316  33.574  31.884  1.00  0.00     0.135 A 
ATOM     70  F   UNL A   1      44.487  34.111  28.288  1.00  0.00    -0.206 F 
ATOM     71  C   UNL A   1      44.575  35.657  30.049  1.00  0.00     0.059 A 
ATOM     72  C   UNL A   1      44.415  34.884  32.346  1.00  0.00     0.059 A 
ATOM     73  F   UNL A   1      44.209  32.591  32.791  1.00  0.00    -0.206 F 
ATOM     74  C   UNL A   1      44.555  35.917  31.421  1.00  0.00     0.060 A 
BRANCH  74  75
ATOM     75  S   UNL A   1      44.704  37.630  31.970  1.00  0.00     0.124 S 
ATOM     76  O   UNL A   1      44.494  38.357  30.722  1.00  0.00    -0.237 OA
ATOM     77  O   UNL A   1      43.632  37.735  32.954  1.00  0.00    -0.237 OA
ATOM     78  O   UNL A   1      46.058  37.696  32.513  1.00  0.00    -0.744 OA
ENDBRANCH  74  75
ENDBRANCH  53  67
BRANCH  54  79
ATOM     79  C   UNL A   1      42.832  23.865  27.447  1.00  0.00     0.058 A 
ATOM     80  C   UNL A   1      42.852  23.544  26.082  1.00  0.00     0.135 A 
ATOM     81  C   UNL A   1      42.623  22.821  28.361  1.00  0.00     0.135 A 
ATOM     82  F   UNL A   1      43.037  24.510  25.170  1.00  0.00    -0.206 F 
ATOM     83  C   UNL A   1      42.662  22.240  25.636  1.00  0.00     0.059 A 
ATOM     84  C   UNL A   1      42.455  21.505  27.942  1.00  0.00     0.059 A 
ATOM     85  F   UNL A   1      42.609  23.073  29.679  1.00  0.00    -0.206 F 
ATOM     86  C   UNL A   1      42.469  21.226  26.575  1.00  0.00     0.060 A 
BRANCH  86  87
ATOM     87  S   UNL A   1      42.286  19.529  25.986  1.00  0.00     0.124 S 
ATOM     88  O   UNL A   1      43.177  19.519  24.832  1.00  0.00    -0.237 OA
ATOM     89  O   UNL A   1      42.728  18.756  27.142  1.00  0.00    -0.237 OA
ATOM     90  O   UNL A   1      40.861  19.430  25.684  1.00  0.00    -0.744 OA
ENDBRANCH  86  87
ENDBRANCH  54  79
BRANCH  66  91
ATOM     91  C   UNL A   1      48.522  27.613  28.911  1.00  0.00     0.058 A 
ATOM     92  C   UNL A   1      49.313  27.851  27.776  1.00  0.00     0.135 A 
ATOM     93  C   UNL A   1      49.147  27.065  30.043  1.00  0.00     0.135 A 
ATOM     94  F   UNL A   1      48.764  28.370  26.667  1.00  0.00    -0.206 F 
ATOM     95  C   UNL A   1      50.664  27.521  27.751  1.00  0.00     0.059 A 
ATOM     96  C   UNL A   1      50.503  26.755  30.050  1.00  0.00     0.059 A 
ATOM     97  F   UNL A   1      48.440  26.832  31.160  1.00  0.00    -0.206 F 
ATOM     98  C   UNL A   1      51.249  26.968  28.891  1.00  0.00     0.060 A 
BRANCH  98  99
ATOM     99  S   UNL A   1      53.001  26.540  28.841  1.00  0.00     0.124 S 
ATOM    100  O   UNL A   1      53.019  25.499  27.819  1.00  0.00    -0.237 OA
ATOM    101  O   UNL A   1      53.623  27.806  28.468  1.00  0.00    -0.237 OA
ATOM    102  O   UNL A   1      53.279  26.087  30.202  1.00  0.00    -0.744 OA
ENDBRANCH  98  99
ENDBRANCH  66  91
ENDBRANCH  40  41
ENDBRANCH  32  35
ENDBRANCH  30  31
ENDBRANCH  29  30
ENDBRANCH   1  29
TORSDOF 19
ENDMDL
