MODEL 1
REMARK VINA RESULT:     -11.2      0.000      0.000
REMARK SMILES O=C(NCCCCCCNC(=O)[C@@H]1[C@H](C(=O)Nc2cccc(Cl)c2F)[C@@H]2C=C[C@H]1C2)c1ccc(-c2c3nc(c(-c4c(F)cc(S(=O)(=O)[O-])cc4F)c4ccc([nH]4)c(-c4c(F)cc(S(=O)(=O)[O-])cc4F)c4nc(c(-c5c(F)cc(S(=O)(=O)[O-])cc5F)c5ccc2[nH]5)C=C4)C=C3)cc1
REMARK SMILES IDX 6 1 5 2 4 3 3 4 1 5 2 6 31 8 32 9 96 10 33 11 95 12 34 13
REMARK SMILES IDX 35 14 36 15 89 16 37 17 94 18 88 19 90 20 38 21 93 22 87 23
REMARK SMILES IDX 86 24 39 26 73 27 52 28 72 29 53 30 56 31 71 32 91 33 54 34
REMARK SMILES IDX 55 35 70 37 92 38 57 39 40 40 41 41 50 42 42 43 43 44 49 45
REMARK SMILES IDX 51 46 44 47 45 48 46 49 47 50 48 51 74 52 75 53 84 54 76 55
REMARK SMILES IDX 77 56 83 57 85 58 78 59 79 60 80 61 81 62 82 63 58 64 59 65
REMARK SMILES IDX 68 66 60 67 61 68 67 69 69 70 62 71 63 72 64 73 65 74 66 75
REMARK SMILES IDX 7 76 8 77 9 78 10 79 11 80 12 82 13 83 14 84 29 85 26 86
REMARK SMILES IDX 28 87 30 88 27 89 15 90 16 91 17 92 18 94 19 95 24 96 20 97
REMARK SMILES IDX 22 98 25 99 21 100 23 101
REMARK H PARENT 3 7 90 25 56 36 10 81 17 93
REMARK Flexibility Score: inf
ROOT
ATOM      1  C   UNL A   1      31.681  27.312  26.250  1.00  0.00     0.002 C 
ENDROOT
BRANCH   1   2
ATOM      2  C   UNL A   1      33.138  26.854  26.305  1.00  0.00     0.021 C 
BRANCH   2   3
ATOM      3  C   UNL A   1      34.174  27.969  26.204  1.00  0.00     0.116 C 
BRANCH   3   4
ATOM      4  N   UNL A   1      33.700  29.224  26.761  1.00  0.00    -0.352 N 
ATOM      5  O   UNL A   1      33.721  31.010  28.137  1.00  0.00    -0.269 OA
ATOM      6  C   UNL A   1      34.332  30.078  27.636  1.00  0.00     0.251 C 
ATOM      7  H   UNL A   1      32.802  29.501  26.472  1.00  0.00     0.163 HD
BRANCH   6   8
ATOM      8  C   UNL A   1      35.752  29.842  27.981  1.00  0.00     0.039 A 
ATOM      9  C   UNL A   1      36.763  30.095  27.050  1.00  0.00     0.014 A 
ATOM     10  C   UNL A   1      36.071  29.355  29.251  1.00  0.00     0.014 A 
ATOM     11  C   UNL A   1      38.074  29.732  27.338  1.00  0.00     0.010 A 
ATOM     12  C   UNL A   1      37.403  29.073  29.568  1.00  0.00     0.010 A 
ATOM     13  C   UNL A   1      38.412  29.233  28.606  1.00  0.00    -0.014 A 
BRANCH  13  14
ATOM     14  C   UNL A   1      39.834  28.948  28.930  1.00  0.00     0.031 A 
ATOM     15  C   UNL A   1      40.704  29.983  29.590  1.00  0.00     0.074 A 
ATOM     16  C   UNL A   1      40.337  27.737  28.620  1.00  0.00     0.049 A 
ATOM     17  N   UNL A   1      41.971  29.910  29.910  1.00  0.00    -0.248 NA
ATOM     18  C   UNL A   1      40.075  31.269  29.927  1.00  0.00     0.031 C 
ATOM     19  C   UNL A   1      39.589  26.657  27.971  1.00  0.00     0.029 A 
ATOM     20  N   UNL A   1      41.587  27.207  28.807  1.00  0.00    -0.354 N 
ATOM     21  C   UNL A   1      42.298  31.141  30.466  1.00  0.00     0.074 A 
ATOM     22  C   UNL A   1      41.100  31.953  30.417  1.00  0.00     0.031 C 
ATOM     23  C   UNL A   1      40.383  25.585  27.843  1.00  0.00     0.029 A 
ATOM     24  C   UNL A   1      41.713  25.921  28.335  1.00  0.00     0.049 A 
ATOM     25  H   UNL A   1      42.324  27.699  29.237  1.00  0.00     0.167 HD
ATOM     26  C   UNL A   1      43.486  31.550  30.976  1.00  0.00     0.037 A 
ATOM     27  C   UNL A   1      42.785  25.110  28.276  1.00  0.00     0.037 A 
ATOM     28  C   UNL A   1      44.669  30.728  31.023  1.00  0.00     0.049 A 
ATOM     29  C   UNL A   1      44.099  25.599  28.815  1.00  0.00     0.074 A 
ATOM     30  C   UNL A   1      45.913  31.038  31.547  1.00  0.00     0.029 A 
ATOM     31  N   UNL A   1      44.762  29.437  30.518  1.00  0.00    -0.354 N 
ATOM     32  N   UNL A   1      44.382  26.755  29.366  1.00  0.00    -0.248 NA
ATOM     33  C   UNL A   1      45.238  24.677  28.724  1.00  0.00     0.031 C 
ATOM     34  C   UNL A   1      46.770  29.957  31.313  1.00  0.00     0.029 A 
ATOM     35  C   UNL A   1      46.047  28.947  30.697  1.00  0.00     0.049 A 
ATOM     36  H   UNL A   1      44.023  28.942  30.097  1.00  0.00     0.167 HD
ATOM     37  C   UNL A   1      45.726  26.692  29.711  1.00  0.00     0.074 A 
ATOM     38  C   UNL A   1      46.196  25.379  29.315  1.00  0.00     0.031 C 
ATOM     39  C   UNL A   1      46.500  27.635  30.302  1.00  0.00     0.037 A 
BRANCH  26  40
ATOM     40  C   UNL A   1      43.575  32.959  31.503  1.00  0.00     0.058 A 
ATOM     41  C   UNL A   1      43.852  34.050  30.662  1.00  0.00     0.135 A 
ATOM     42  C   UNL A   1      43.344  33.228  32.863  1.00  0.00     0.135 A 
ATOM     43  F   UNL A   1      44.091  33.854  29.357  1.00  0.00    -0.206 F 
ATOM     44  C   UNL A   1      43.930  35.349  31.156  1.00  0.00     0.059 A 
ATOM     45  C   UNL A   1      43.390  34.523  33.374  1.00  0.00     0.059 A 
ATOM     46  F   UNL A   1      43.071  32.226  33.712  1.00  0.00    -0.206 F 
ATOM     47  C   UNL A   1      43.700  35.575  32.514  1.00  0.00     0.060 A 
BRANCH  47  48
ATOM     48  S   UNL A   1      43.817  37.264  33.140  1.00  0.00     0.124 S 
ATOM     49  O   UNL A   1      42.687  37.312  34.063  1.00  0.00    -0.237 OA
ATOM     50  O   UNL A   1      45.140  37.277  33.758  1.00  0.00    -0.237 OA
ATOM     51  O   UNL A   1      43.682  38.084  31.940  1.00  0.00    -0.744 OA
ENDBRANCH  47  48
ENDBRANCH  26  40
BRANCH  27  52
ATOM     52  C   UNL A   1      42.649  23.757  27.677  1.00  0.00     0.058 A 
ATOM     53  C   UNL A   1      42.799  23.557  26.299  1.00  0.00     0.135 A 
ATOM     54  C   UNL A   1      42.410  22.629  28.480  1.00  0.00     0.135 A 
ATOM     55  F   UNL A   1      43.024  24.603  25.489  1.00  0.00    -0.206 F 
ATOM     56  C   UNL A   1      42.709  22.289  25.733  1.00  0.00     0.059 A 
ATOM     57  C   UNL A   1      42.347  21.348  27.943  1.00  0.00     0.059 A 
ATOM     58  F   UNL A   1      42.279  22.765  29.809  1.00  0.00    -0.206 F 
ATOM     59  C   UNL A   1      42.489  21.190  26.566  1.00  0.00     0.060 A 
BRANCH  59  60
ATOM     60  S   UNL A   1      42.437  19.543  25.827  1.00  0.00     0.124 S 
ATOM     61  O   UNL A   1      41.050  19.464  25.384  1.00  0.00    -0.237 OA
ATOM     62  O   UNL A   1      43.440  19.649  24.772  1.00  0.00    -0.237 OA
ATOM     63  O   UNL A   1      42.797  18.666  26.938  1.00  0.00    -0.744 OA
ENDBRANCH  59  60
ENDBRANCH  27  52
BRANCH  39  64
ATOM     64  C   UNL A   1      47.929  27.270  30.596  1.00  0.00     0.058 A 
ATOM     65  C   UNL A   1      48.988  27.702  29.784  1.00  0.00     0.135 A 
ATOM     66  C   UNL A   1      48.245  26.512  31.736  1.00  0.00     0.135 A 
ATOM     67  F   UNL A   1      48.741  28.420  28.677  1.00  0.00    -0.206 F 
ATOM     68  C   UNL A   1      50.309  27.379  30.080  1.00  0.00     0.059 A 
ATOM     69  C   UNL A   1      49.560  26.203  32.067  1.00  0.00     0.059 A 
ATOM     70  F   UNL A   1      47.270  26.078  32.552  1.00  0.00    -0.206 F 
ATOM     71  C   UNL A   1      50.585  26.631  31.226  1.00  0.00     0.060 A 
BRANCH  71  72
ATOM     72  S   UNL A   1      52.306  26.251  31.618  1.00  0.00     0.124 S 
ATOM     73  O   UNL A   1      52.726  27.468  32.304  1.00  0.00    -0.237 OA
ATOM     74  O   UNL A   1      52.179  25.062  32.455  1.00  0.00    -0.237 OA
ATOM     75  O   UNL A   1      52.911  26.028  30.309  1.00  0.00    -0.744 OA
ENDBRANCH  71  72
ENDBRANCH  39  64
ENDBRANCH  13  14
ENDBRANCH   6   8
ENDBRANCH   3   4
ENDBRANCH   2   3
ENDBRANCH   1   2
BRANCH   1  76
ATOM     76  C   UNL A   1      30.641  26.195  26.261  1.00  0.00     0.002 C 
BRANCH  76  77
ATOM     77  C   UNL A   1      31.188  24.771  26.342  1.00  0.00     0.021 C 
BRANCH  77  78
ATOM     78  C   UNL A   1      31.011  23.887  25.108  1.00  0.00     0.116 C 
BRANCH  78  79
ATOM     79  N   UNL A   1      31.547  22.547  25.266  1.00  0.00    -0.356 N 
ATOM     80  C   UNL A   1      32.810  22.138  25.593  1.00  0.00     0.224 C 
ATOM     81  H   UNL A   1      30.901  21.820  25.114  1.00  0.00     0.163 HD
ATOM     82  O   UNL A   1      32.954  21.014  26.078  1.00  0.00    -0.275 OA
BRANCH  80  83
ATOM     83  C   UNL A   1      33.969  23.097  25.500  1.00  0.00     0.098 C 
ATOM     84  C   UNL A   1      34.266  23.969  24.259  1.00  0.00     0.099 C 
ATOM     85  C   UNL A   1      35.377  22.511  25.823  1.00  0.00     0.025 C 
ATOM     86  C   UNL A   1      35.819  23.972  24.182  1.00  0.00     0.025 C 
ATOM     87  C   UNL A   1      35.991  21.751  24.665  1.00  0.00    -0.027 C 
ATOM     88  C   UNL A   1      36.206  23.797  25.662  1.00  0.00     0.017 C 
ATOM     89  C   UNL A   1      36.292  22.634  23.702  1.00  0.00    -0.027 C 
BRANCH  84  90
ATOM     90  C   UNL A   1      33.556  23.906  22.907  1.00  0.00     0.228 C 
ATOM     91  O   UNL A   1      33.385  22.760  22.444  1.00  0.00    -0.274 OA
ATOM     92  N   UNL A   1      32.953  24.865  22.162  1.00  0.00    -0.323 N 
ATOM     93  H   UNL A   1      32.685  24.541  21.272  1.00  0.00     0.170 HD
BRANCH  92  94
ATOM     94  C   UNL A   1      32.622  26.211  22.369  1.00  0.00     0.078 A 
ATOM     95  C   UNL A   1      33.692  27.102  22.508  1.00  0.00     0.029 A 
ATOM     96  C   UNL A   1      31.336  26.701  22.575  1.00  0.00     0.165 A 
ATOM     97  C   UNL A   1      33.468  28.473  22.661  1.00  0.00     0.004 A 
ATOM     98  C   UNL A   1      31.097  28.073  22.687  1.00  0.00     0.078 A 
ATOM     99  F   UNL A   1      30.345  25.850  22.846  1.00  0.00    -0.203 F 
ATOM    100  C   UNL A   1      32.165  28.966  22.704  1.00  0.00     0.024 A 
ATOM    101  Cl  UNL A   1      29.492  28.686  22.820  1.00  0.00    -0.081 Cl
ENDBRANCH  92  94
ENDBRANCH  84  90
ENDBRANCH  80  83
ENDBRANCH  78  79
ENDBRANCH  77  78
ENDBRANCH  76  77
ENDBRANCH   1  76
TORSDOF 18
ENDMDL
MODEL 2
REMARK VINA RESULT:     -11.2      3.519      9.106
REMARK SMILES O=C(NCCCCCCNC(=O)[C@@H]1[C@H](C(=O)Nc2cccc(Cl)c2F)[C@@H]2C=C[C@H]1C2)c1ccc(-c2c3nc(c(-c4c(F)cc(S(=O)(=O)[O-])cc4F)c4ccc([nH]4)c(-c4c(F)cc(S(=O)(=O)[O-])cc4F)c4nc(c(-c5c(F)cc(S(=O)(=O)[O-])cc5F)c5ccc2[nH]5)C=C4)C=C3)cc1
REMARK SMILES IDX 6 1 5 2 4 3 3 4 1 5 2 6 31 8 32 9 96 10 33 11 95 12 34 13
REMARK SMILES IDX 35 14 36 15 89 16 37 17 94 18 88 19 90 20 38 21 93 22 87 23
REMARK SMILES IDX 86 24 39 26 73 27 52 28 72 29 53 30 56 31 71 32 91 33 54 34
REMARK SMILES IDX 55 35 70 37 92 38 57 39 40 40 41 41 50 42 42 43 43 44 49 45
REMARK SMILES IDX 51 46 44 47 45 48 46 49 47 50 48 51 74 52 75 53 84 54 76 55
REMARK SMILES IDX 77 56 83 57 85 58 78 59 79 60 80 61 81 62 82 63 58 64 59 65
REMARK SMILES IDX 68 66 60 67 61 68 67 69 69 70 62 71 63 72 64 73 65 74 66 75
REMARK SMILES IDX 7 76 8 77 9 78 10 79 11 80 12 82 13 83 14 84 29 85 26 86
REMARK SMILES IDX 28 87 30 88 27 89 15 90 16 91 17 92 18 94 19 95 24 96 20 97
REMARK SMILES IDX 22 98 25 99 21 100 23 101
REMARK H PARENT 3 7 90 25 56 36 10 81 17 93
REMARK Flexibility Score: inf
ROOT
ATOM      1  C   UNL A   1      37.320  20.997  24.592  1.00  0.00     0.002 C 
ENDROOT
BRANCH   1   2
ATOM      2  C   UNL A   1      38.249  19.878  25.062  1.00  0.00     0.021 C 
BRANCH   2   3
ATOM      3  C   UNL A   1      39.399  20.321  25.960  1.00  0.00     0.116 C 
BRANCH   3   4
ATOM      4  N   UNL A   1      40.420  19.299  26.106  1.00  0.00    -0.352 N 
ATOM      5  O   UNL A   1      42.517  18.475  26.202  1.00  0.00    -0.269 OA
ATOM      6  C   UNL A   1      41.779  19.447  26.265  1.00  0.00     0.251 C 
ATOM      7  H   UNL A   1      40.094  18.371  26.087  1.00  0.00     0.163 HD
BRANCH   6   8
ATOM      8  C   UNL A   1      42.339  20.799  26.490  1.00  0.00     0.039 A 
ATOM      9  C   UNL A   1      42.535  21.282  27.787  1.00  0.00     0.014 A 
ATOM     10  C   UNL A   1      42.666  21.592  25.388  1.00  0.00     0.014 A 
ATOM     11  C   UNL A   1      42.924  22.603  27.981  1.00  0.00     0.010 A 
ATOM     12  C   UNL A   1      43.141  22.891  25.587  1.00  0.00     0.010 A 
ATOM     13  C   UNL A   1      43.248  23.417  26.884  1.00  0.00    -0.014 A 
BRANCH  13  14
ATOM     14  C   UNL A   1      43.761  24.793  27.116  1.00  0.00     0.031 A 
ATOM     15  C   UNL A   1      45.212  25.128  26.902  1.00  0.00     0.074 A 
ATOM     16  C   UNL A   1      42.898  25.744  27.524  1.00  0.00     0.049 A 
ATOM     17  N   UNL A   1      45.830  26.266  27.089  1.00  0.00    -0.248 NA
ATOM     18  C   UNL A   1      46.085  24.045  26.424  1.00  0.00     0.031 C 
ATOM     19  C   UNL A   1      41.469  25.532  27.771  1.00  0.00     0.029 A 
ATOM     20  N   UNL A   1      43.088  27.073  27.800  1.00  0.00    -0.354 N 
ATOM     21  C   UNL A   1      47.164  26.036  26.773  1.00  0.00     0.074 A 
ATOM     22  C   UNL A   1      47.271  24.640  26.406  1.00  0.00     0.031 C 
ATOM     23  C   UNL A   1      40.907  26.694  28.131  1.00  0.00     0.029 A 
ATOM     24  C   UNL A   1      41.943  27.716  28.209  1.00  0.00     0.049 A 
ATOM     25  H   UNL A   1      43.960  27.523  27.716  1.00  0.00     0.167 HD
ATOM     26  C   UNL A   1      48.198  26.912  26.783  1.00  0.00     0.037 A 
ATOM     27  C   UNL A   1      41.751  28.981  28.627  1.00  0.00     0.037 A 
ATOM     28  C   UNL A   1      48.075  28.302  27.147  1.00  0.00     0.049 A 
ATOM     29  C   UNL A   1      42.919  29.922  28.663  1.00  0.00     0.074 A 
ATOM     30  C   UNL A   1      49.056  29.279  27.160  1.00  0.00     0.029 A 
ATOM     31  N   UNL A   1      46.902  28.913  27.572  1.00  0.00    -0.354 N 
ATOM     32  N   UNL A   1      44.168  29.696  28.331  1.00  0.00    -0.248 NA
ATOM     33  C   UNL A   1      42.656  31.289  29.131  1.00  0.00     0.031 C 
ATOM     34  C   UNL A   1      48.490  30.464  27.642  1.00  0.00     0.029 A 
ATOM     35  C   UNL A   1      47.141  30.245  27.873  1.00  0.00     0.049 A 
ATOM     36  H   UNL A   1      46.029  28.465  27.648  1.00  0.00     0.167 HD
ATOM     37  C   UNL A   1      44.837  30.897  28.527  1.00  0.00     0.074 A 
ATOM     38  C   UNL A   1      43.850  31.851  28.994  1.00  0.00     0.031 C 
ATOM     39  C   UNL A   1      46.148  31.185  28.334  1.00  0.00     0.037 A 
BRANCH  26  40
ATOM     40  C   UNL A   1      49.563  26.390  26.415  1.00  0.00     0.058 A 
ATOM     41  C   UNL A   1      50.074  26.500  25.112  1.00  0.00     0.135 A 
ATOM     42  C   UNL A   1      50.388  25.804  27.390  1.00  0.00     0.135 A 
ATOM     43  F   UNL A   1      49.328  27.042  24.137  1.00  0.00    -0.206 F 
ATOM     44  C   UNL A   1      51.337  26.018  24.781  1.00  0.00     0.059 A 
ATOM     45  C   UNL A   1      51.666  25.339  27.088  1.00  0.00     0.059 A 
ATOM     46  F   UNL A   1      49.955  25.675  28.653  1.00  0.00    -0.206 F 
ATOM     47  C   UNL A   1      52.125  25.437  25.776  1.00  0.00     0.060 A 
BRANCH  47  48
ATOM     48  S   UNL A   1      53.756  24.805  25.326  1.00  0.00     0.124 S 
ATOM     49  O   UNL A   1      54.503  25.025  26.561  1.00  0.00    -0.237 OA
ATOM     50  O   UNL A   1      53.471  23.411  24.998  1.00  0.00    -0.237 OA
ATOM     51  O   UNL A   1      54.148  25.643  24.198  1.00  0.00    -0.744 OA
ENDBRANCH  47  48
ENDBRANCH  26  40
BRANCH  27  52
ATOM     52  C   UNL A   1      40.393  29.414  29.047  1.00  0.00     0.058 A 
ATOM     53  C   UNL A   1      40.084  29.619  30.399  1.00  0.00     0.135 A 
ATOM     54  C   UNL A   1      39.389  29.678  28.100  1.00  0.00     0.135 A 
ATOM     55  F   UNL A   1      41.007  29.377  31.342  1.00  0.00    -0.206 F 
ATOM     56  C   UNL A   1      38.827  30.060  30.800  1.00  0.00     0.059 A 
ATOM     57  C   UNL A   1      38.135  30.149  28.473  1.00  0.00     0.059 A 
ATOM     58  F   UNL A   1      39.641  29.516  26.791  1.00  0.00    -0.206 F 
ATOM     59  C   UNL A   1      37.861  30.328  29.827  1.00  0.00     0.060 A 
BRANCH  59  60
ATOM     60  S   UNL A   1      36.254  30.959  30.357  1.00  0.00     0.124 S 
ATOM     61  O   UNL A   1      36.581  32.336  30.710  1.00  0.00    -0.237 OA
ATOM     62  O   UNL A   1      35.446  30.783  29.154  1.00  0.00    -0.237 OA
ATOM     63  O   UNL A   1      35.902  30.086  31.473  1.00  0.00    -0.744 OA
ENDBRANCH  59  60
ENDBRANCH  27  52
BRANCH  39  64
ATOM     64  C   UNL A   1      46.589  32.600  28.590  1.00  0.00     0.058 A 
ATOM     65  C   UNL A   1      47.079  33.010  29.839  1.00  0.00     0.135 A 
ATOM     66  C   UNL A   1      46.560  33.548  27.554  1.00  0.00     0.135 A 
ATOM     67  F   UNL A   1      47.118  32.147  30.866  1.00  0.00    -0.206 F 
ATOM     68  C   UNL A   1      47.508  34.316  30.058  1.00  0.00     0.059 A 
ATOM     69  C   UNL A   1      47.011  34.850  27.742  1.00  0.00     0.059 A 
ATOM     70  F   UNL A   1      46.106  33.207  26.337  1.00  0.00    -0.206 F 
ATOM     71  C   UNL A   1      47.472  35.228  29.001  1.00  0.00     0.060 A 
BRANCH  71  72
ATOM     72  S   UNL A   1      48.067  36.909  29.289  1.00  0.00     0.124 S 
ATOM     73  O   UNL A   1      48.313  36.891  30.726  1.00  0.00    -0.237 OA
ATOM     74  O   UNL A   1      49.254  36.968  28.442  1.00  0.00    -0.237 OA
ATOM     75  O   UNL A   1      46.951  37.742  28.853  1.00  0.00    -0.744 OA
ENDBRANCH  71  72
ENDBRANCH  39  64
ENDBRANCH  13  14
ENDBRANCH   6   8
ENDBRANCH   3   4
ENDBRANCH   2   3
ENDBRANCH   1   2
BRANCH   1  76
ATOM     76  C   UNL A   1      36.785  21.911  25.691  1.00  0.00     0.002 C 
BRANCH  76  77
ATOM     77  C   UNL A   1      36.773  23.405  25.374  1.00  0.00     0.021 C 
BRANCH  77  78
ATOM     78  C   UNL A   1      35.509  24.182  25.738  1.00  0.00     0.116 C 
BRANCH  78  79
ATOM     79  N   UNL A   1      34.755  24.644  24.586  1.00  0.00    -0.356 N 
ATOM     80  C   UNL A   1      33.915  25.714  24.455  1.00  0.00     0.224 C 
ATOM     81  H   UNL A   1      34.866  24.101  23.772  1.00  0.00     0.163 HD
ATOM     82  O   UNL A   1      33.715  26.167  23.326  1.00  0.00    -0.275 OA
BRANCH  80  83
ATOM     83  C   UNL A   1      33.371  26.409  25.677  1.00  0.00     0.098 C 
ATOM     84  C   UNL A   1      31.889  26.347  26.113  1.00  0.00     0.099 C 
ATOM     85  C   UNL A   1      33.678  27.932  25.798  1.00  0.00     0.025 C 
ATOM     86  C   UNL A   1      31.614  27.776  26.659  1.00  0.00     0.025 C 
ATOM     87  C   UNL A   1      32.751  28.799  24.968  1.00  0.00    -0.027 C 
ATOM     88  C   UNL A   1      33.009  28.196  27.159  1.00  0.00     0.017 C 
ATOM     89  C   UNL A   1      31.526  28.735  25.511  1.00  0.00    -0.027 C 
BRANCH  84  90
ATOM     90  C   UNL A   1      30.733  25.724  25.333  1.00  0.00     0.228 C 
ATOM     91  O   UNL A   1      29.815  26.507  25.018  1.00  0.00    -0.274 OA
ATOM     92  N   UNL A   1      30.572  24.487  24.798  1.00  0.00    -0.323 N 
ATOM     93  H   UNL A   1      29.662  24.340  24.453  1.00  0.00     0.170 HD
BRANCH  92  94
ATOM     94  C   UNL A   1      31.403  23.373  24.624  1.00  0.00     0.078 A 
ATOM     95  C   UNL A   1      31.613  22.952  23.306  1.00  0.00     0.029 A 
ATOM     96  C   UNL A   1      31.918  22.586  25.650  1.00  0.00     0.165 A 
ATOM     97  C   UNL A   1      32.470  21.884  23.023  1.00  0.00     0.004 A 
ATOM     98  C   UNL A   1      32.809  21.544  25.379  1.00  0.00     0.078 A 
ATOM     99  F   UNL A   1      31.425  22.708  26.883  1.00  0.00    -0.203 F 
ATOM    100  C   UNL A   1      33.107  21.207  24.062  1.00  0.00     0.024 A 
ATOM    101  Cl  UNL A   1      33.541  20.649  26.657  1.00  0.00    -0.081 Cl
ENDBRANCH  92  94
ENDBRANCH  84  90
ENDBRANCH  80  83
ENDBRANCH  78  79
ENDBRANCH  77  78
ENDBRANCH  76  77
ENDBRANCH   1  76
TORSDOF 18
ENDMDL
MODEL 3
REMARK VINA RESULT:     -11.1      4.494      9.987
REMARK SMILES O=C(NCCCCCCNC(=O)[C@@H]1[C@H](C(=O)Nc2cccc(Cl)c2F)[C@@H]2C=C[C@H]1C2)c1ccc(-c2c3nc(c(-c4c(F)cc(S(=O)(=O)[O-])cc4F)c4ccc([nH]4)c(-c4c(F)cc(S(=O)(=O)[O-])cc4F)c4nc(c(-c5c(F)cc(S(=O)(=O)[O-])cc5F)c5ccc2[nH]5)C=C4)C=C3)cc1
REMARK SMILES IDX 6 1 5 2 4 3 3 4 1 5 2 6 31 8 32 9 96 10 33 11 95 12 34 13
REMARK SMILES IDX 35 14 36 15 89 16 37 17 94 18 88 19 90 20 38 21 93 22 87 23
REMARK SMILES IDX 86 24 39 26 73 27 52 28 72 29 53 30 56 31 71 32 91 33 54 34
REMARK SMILES IDX 55 35 70 37 92 38 57 39 40 40 41 41 50 42 42 43 43 44 49 45
REMARK SMILES IDX 51 46 44 47 45 48 46 49 47 50 48 51 74 52 75 53 84 54 76 55
REMARK SMILES IDX 77 56 83 57 85 58 78 59 79 60 80 61 81 62 82 63 58 64 59 65
REMARK SMILES IDX 68 66 60 67 61 68 67 69 69 70 62 71 63 72 64 73 65 74 66 75
REMARK SMILES IDX 7 76 8 77 9 78 10 79 11 80 12 82 13 83 14 84 29 85 26 86
REMARK SMILES IDX 28 87 30 88 27 89 15 90 16 91 17 92 18 94 19 95 24 96 20 97
REMARK SMILES IDX 22 98 25 99 21 100 23 101
REMARK H PARENT 3 7 90 25 56 36 10 81 17 93
REMARK Flexibility Score: inf
ROOT
ATOM      1  C   UNL A   1      40.569  22.414  27.797  1.00  0.00     0.002 C 
ENDROOT
BRANCH   1   2
ATOM      2  C   UNL A   1      42.009  22.119  27.377  1.00  0.00     0.021 C 
BRANCH   2   3
ATOM      3  C   UNL A   1      42.923  23.337  27.288  1.00  0.00     0.116 C 
BRANCH   3   4
ATOM      4  N   UNL A   1      42.706  24.111  26.078  1.00  0.00    -0.352 N 
ATOM      5  O   UNL A   1      41.947  25.835  24.839  1.00  0.00    -0.269 OA
ATOM      6  C   UNL A   1      42.229  25.394  25.943  1.00  0.00     0.251 C 
ATOM      7  H   UNL A   1      42.931  23.652  25.237  1.00  0.00     0.163 HD
BRANCH   6   8
ATOM      8  C   UNL A   1      42.038  26.227  27.152  1.00  0.00     0.039 A 
ATOM      9  C   UNL A   1      41.029  25.928  28.071  1.00  0.00     0.014 A 
ATOM     10  C   UNL A   1      42.878  27.323  27.362  1.00  0.00     0.014 A 
ATOM     11  C   UNL A   1      40.771  26.801  29.122  1.00  0.00     0.010 A 
ATOM     12  C   UNL A   1      42.671  28.151  28.470  1.00  0.00     0.010 A 
ATOM     13  C   UNL A   1      41.599  27.913  29.344  1.00  0.00    -0.014 A 
BRANCH  13  14
ATOM     14  C   UNL A   1      41.370  28.775  30.532  1.00  0.00     0.031 A 
ATOM     15  C   UNL A   1      42.240  28.662  31.755  1.00  0.00     0.074 A 
ATOM     16  C   UNL A   1      40.363  29.669  30.497  1.00  0.00     0.049 A 
ATOM     17  N   UNL A   1      42.156  29.313  32.887  1.00  0.00    -0.248 NA
ATOM     18  C   UNL A   1      43.340  27.687  31.705  1.00  0.00     0.031 C 
ATOM     19  C   UNL A   1      39.449  29.862  29.367  1.00  0.00     0.029 A 
ATOM     20  N   UNL A   1      39.936  30.581  31.427  1.00  0.00    -0.354 N 
ATOM     21  C   UNL A   1      43.175  28.816  33.692  1.00  0.00     0.074 A 
ATOM     22  C   UNL A   1      43.849  27.789  32.926  1.00  0.00     0.031 C 
ATOM     23  C   UNL A   1      38.593  30.851  29.657  1.00  0.00     0.029 A 
ATOM     24  C   UNL A   1      38.848  31.315  31.015  1.00  0.00     0.049 A 
ATOM     25  H   UNL A   1      40.366  30.700  32.305  1.00  0.00     0.167 HD
ATOM     26  C   UNL A   1      43.518  29.190  34.949  1.00  0.00     0.037 A 
ATOM     27  C   UNL A   1      38.117  32.239  31.665  1.00  0.00     0.037 A 
ATOM     28  C   UNL A   1      42.840  30.218  35.698  1.00  0.00     0.049 A 
ATOM     29  C   UNL A   1      38.494  32.610  33.070  1.00  0.00     0.074 A 
ATOM     30  C   UNL A   1      43.129  30.692  36.967  1.00  0.00     0.029 A 
ATOM     31  N   UNL A   1      41.731  30.927  35.253  1.00  0.00    -0.354 N 
ATOM     32  N   UNL A   1      39.481  32.152  33.805  1.00  0.00    -0.248 NA
ATOM     33  C   UNL A   1      37.663  33.619  33.737  1.00  0.00     0.031 C 
ATOM     34  C   UNL A   1      42.166  31.647  37.309  1.00  0.00     0.029 A 
ATOM     35  C   UNL A   1      41.309  31.815  36.231  1.00  0.00     0.049 A 
ATOM     36  H   UNL A   1      41.306  30.815  34.372  1.00  0.00     0.167 HD
ATOM     37  C   UNL A   1      39.403  32.834  35.012  1.00  0.00     0.074 A 
ATOM     38  C   UNL A   1      38.280  33.745  34.903  1.00  0.00     0.031 C 
ATOM     39  C   UNL A   1      40.192  32.720  36.109  1.00  0.00     0.037 A 
BRANCH  26  40
ATOM     40  C   UNL A   1      44.662  28.464  35.609  1.00  0.00     0.058 A 
ATOM     41  C   UNL A   1      45.987  28.922  35.512  1.00  0.00     0.135 A 
ATOM     42  C   UNL A   1      44.426  27.315  36.382  1.00  0.00     0.135 A 
ATOM     43  F   UNL A   1      46.274  30.009  34.780  1.00  0.00    -0.206 F 
ATOM     44  C   UNL A   1      47.037  28.248  36.127  1.00  0.00     0.059 A 
ATOM     45  C   UNL A   1      45.458  26.640  37.029  1.00  0.00     0.059 A 
ATOM     46  F   UNL A   1      43.180  26.834  36.514  1.00  0.00    -0.206 F 
ATOM     47  C   UNL A   1      46.764  27.106  36.882  1.00  0.00     0.060 A 
BRANCH  47  48
ATOM     48  S   UNL A   1      48.140  26.237  37.663  1.00  0.00     0.124 S 
ATOM     49  O   UNL A   1      49.253  26.619  36.799  1.00  0.00    -0.237 OA
ATOM     50  O   UNL A   1      48.153  26.813  39.004  1.00  0.00    -0.237 OA
ATOM     51  O   UNL A   1      47.743  24.834  37.591  1.00  0.00    -0.744 OA
ENDBRANCH  47  48
ENDBRANCH  26  40
BRANCH  27  52
ATOM     52  C   UNL A   1      36.954  32.865  30.985  1.00  0.00     0.058 A 
ATOM     53  C   UNL A   1      35.641  32.514  31.325  1.00  0.00     0.135 A 
ATOM     54  C   UNL A   1      37.133  33.862  30.011  1.00  0.00     0.135 A 
ATOM     55  F   UNL A   1      35.417  31.565  32.246  1.00  0.00    -0.206 F 
ATOM     56  C   UNL A   1      34.545  33.120  30.720  1.00  0.00     0.059 A 
ATOM     57  C   UNL A   1      36.054  34.505  29.414  1.00  0.00     0.059 A 
ATOM     58  F   UNL A   1      38.371  34.248  29.664  1.00  0.00    -0.206 F 
ATOM     59  C   UNL A   1      34.763  34.120  29.769  1.00  0.00     0.060 A 
BRANCH  59  60
ATOM     60  S   UNL A   1      33.332  34.943  29.036  1.00  0.00     0.124 S 
ATOM     61  O   UNL A   1      33.942  36.137  28.462  1.00  0.00    -0.237 OA
ATOM     62  O   UNL A   1      32.861  33.944  28.082  1.00  0.00    -0.237 OA
ATOM     63  O   UNL A   1      32.454  35.170  30.180  1.00  0.00    -0.744 OA
ENDBRANCH  59  60
ENDBRANCH  27  52
BRANCH  39  64
ATOM     64  C   UNL A   1      39.896  33.628  37.270  1.00  0.00     0.058 A 
ATOM     65  C   UNL A   1      40.520  34.876  37.415  1.00  0.00     0.135 A 
ATOM     66  C   UNL A   1      38.936  33.260  38.228  1.00  0.00     0.135 A 
ATOM     67  F   UNL A   1      41.452  35.271  36.534  1.00  0.00    -0.206 F 
ATOM     68  C   UNL A   1      40.220  35.719  38.481  1.00  0.00     0.059 A 
ATOM     69  C   UNL A   1      38.599  34.100  39.284  1.00  0.00     0.059 A 
ATOM     70  F   UNL A   1      38.303  32.080  38.133  1.00  0.00    -0.206 F 
ATOM     71  C   UNL A   1      39.255  35.323  39.409  1.00  0.00     0.060 A 
BRANCH  71  72
ATOM     72  S   UNL A   1      38.847  36.443  40.765  1.00  0.00     0.124 S 
ATOM     73  O   UNL A   1      38.417  37.634  40.042  1.00  0.00    -0.237 OA
ATOM     74  O   UNL A   1      37.797  35.713  41.467  1.00  0.00    -0.237 OA
ATOM     75  O   UNL A   1      40.107  36.570  41.491  1.00  0.00    -0.744 OA
ENDBRANCH  71  72
ENDBRANCH  39  64
ENDBRANCH  13  14
ENDBRANCH   6   8
ENDBRANCH   3   4
ENDBRANCH   2   3
ENDBRANCH   1   2
BRANCH   1  76
ATOM     76  C   UNL A   1      39.548  22.441  26.663  1.00  0.00     0.002 C 
BRANCH  76  77
ATOM     77  C   UNL A   1      38.712  23.713  26.545  1.00  0.00     0.021 C 
BRANCH  77  78
ATOM     78  C   UNL A   1      37.401  23.615  25.765  1.00  0.00     0.116 C 
BRANCH  78  79
ATOM     79  N   UNL A   1      36.343  22.928  26.484  1.00  0.00    -0.356 N 
ATOM     80  C   UNL A   1      35.060  22.647  26.106  1.00  0.00     0.224 C 
ATOM     81  H   UNL A   1      36.589  22.614  27.385  1.00  0.00     0.163 HD
ATOM     82  O   UNL A   1      34.475  21.717  26.665  1.00  0.00    -0.275 OA
BRANCH  80  83
ATOM     83  C   UNL A   1      34.439  23.363  24.933  1.00  0.00     0.098 C 
ATOM     84  C   UNL A   1      33.194  24.272  25.043  1.00  0.00     0.099 C 
ATOM     85  C   UNL A   1      34.085  22.482  23.697  1.00  0.00     0.025 C 
ATOM     86  C   UNL A   1      32.414  23.976  23.731  1.00  0.00     0.025 C 
ATOM     87  C   UNL A   1      32.778  21.729  23.852  1.00  0.00    -0.027 C 
ATOM     88  C   UNL A   1      33.552  23.588  22.769  1.00  0.00     0.017 C 
ATOM     89  C   UNL A   1      31.779  22.622  23.830  1.00  0.00    -0.027 C 
BRANCH  84  90
ATOM     90  C   UNL A   1      32.320  24.479  26.277  1.00  0.00     0.228 C 
ATOM     91  O   UNL A   1      32.302  23.530  27.088  1.00  0.00    -0.274 OA
ATOM     92  N   UNL A   1      31.648  25.566  26.732  1.00  0.00    -0.323 N 
ATOM     93  H   UNL A   1      31.069  25.359  27.502  1.00  0.00     0.170 HD
BRANCH  92  94
ATOM     94  C   UNL A   1      31.588  26.915  26.360  1.00  0.00     0.078 A 
ATOM     95  C   UNL A   1      31.939  27.849  27.341  1.00  0.00     0.029 A 
ATOM     96  C   UNL A   1      31.089  27.395  25.152  1.00  0.00     0.165 A 
ATOM     97  C   UNL A   1      31.966  29.217  27.052  1.00  0.00     0.004 A 
ATOM     98  C   UNL A   1      31.151  28.755  24.837  1.00  0.00     0.078 A 
ATOM     99  F   UNL A   1      30.386  26.582  24.363  1.00  0.00    -0.203 F 
ATOM    100  C   UNL A   1      31.615  29.667  25.781  1.00  0.00     0.024 A 
ATOM    101  Cl  UNL A   1      30.645  29.331  23.294  1.00  0.00    -0.081 Cl
ENDBRANCH  92  94
ENDBRANCH  84  90
ENDBRANCH  80  83
ENDBRANCH  78  79
ENDBRANCH  77  78
ENDBRANCH  76  77
ENDBRANCH   1  76
TORSDOF 18
ENDMDL
