MODEL 1
REMARK VINA RESULT:     -11.8      0.000      0.000
REMARK SMILES Cc1c(Cl)ccc2c1C=C(C(=O)NCCCCCCNC(=O)c1ccc(-c3c4nc(c(-c5c(F)cc(S(=O)(=O)[O-])cc5F)c5ccc([nH]5)c(-c5c(F)cc(S(=O)(=O)[O-])cc5F)c5nc(c(-c6c(F)cc(S(=O)(=O)[O-])cc6F)c6ccc3[nH]6)C=C5)C=C4)cc1)[C@@H](C(F)(F)F)O2
REMARK SMILES IDX 17 1 16 2 15 3 14 4 13 5 11 6 12 7 10 9 1 10 2 11 3 12 8 13
REMARK SMILES IDX 4 14 5 15 7 16 9 17 6 18 94 19 89 20 90 21 91 22 92 23 93 24
REMARK SMILES IDX 18 25 19 26 20 27 21 28 22 30 23 31 24 32 88 33 25 34 87 35
REMARK SMILES IDX 26 36 27 37 28 38 81 39 29 40 86 41 80 42 82 43 30 44 85 45
REMARK SMILES IDX 79 46 78 47 31 49 65 50 44 51 64 52 45 53 48 54 63 55 83 56
REMARK SMILES IDX 46 57 47 58 62 60 84 61 49 62 32 63 33 64 42 65 34 66 35 67
REMARK SMILES IDX 41 68 43 69 36 70 37 71 38 72 39 73 40 74 66 75 67 76 76 77
REMARK SMILES IDX 68 78 69 79 75 80 77 81 70 82 71 83 72 84 73 85 74 86 50 87
REMARK SMILES IDX 51 88 60 89 52 90 53 91 59 92 61 93 54 94 55 95 56 96 57 97
REMARK SMILES IDX 58 98
REMARK H PARENT 13 8 20 29 82 48 48 59
REMARK Flexibility Score: inf
ROOT
ATOM      1  C   UNL A   1      31.687  28.462  25.931  1.00  0.00     0.002 C 
ENDROOT
BRANCH   1   2
ATOM      2  C   UNL A   1      31.275  29.146  24.620  1.00  0.00     0.002 C 
BRANCH   2   3
ATOM      3  C   UNL A   1      31.943  28.596  23.355  1.00  0.00     0.021 C 
BRANCH   3   4
ATOM      4  C   UNL A   1      31.041  27.697  22.515  1.00  0.00     0.116 C 
BRANCH   4   5
ATOM      5  N   UNL A   1      31.809  26.871  21.602  1.00  0.00    -0.352 N 
ATOM      6  C   UNL A   1      32.598  25.776  21.681  1.00  0.00     0.251 C 
ATOM      7  O   UNL A   1      33.059  25.389  20.601  1.00  0.00    -0.270 OA
ATOM      8  H   UNL A   1      31.737  27.196  20.676  1.00  0.00     0.163 HD
BRANCH   6   9
ATOM      9  C   UNL A   1      32.931  25.029  22.933  1.00  0.00     0.067 C 
ATOM     10  C   UNL A   1      36.785  22.925  23.024  1.00  0.00     0.047 C 
ATOM     11  C   UNL A   1      35.831  23.009  24.191  1.00  0.00    -0.021 A 
ATOM     12  C   UNL A   1      36.146  22.306  25.377  1.00  0.00     0.044 A 
ATOM     13  C   UNL A   1      34.611  23.726  24.138  1.00  0.00     0.022 A 
ATOM     14  Cl  UNL A   1      37.600  21.376  25.531  1.00  0.00    -0.084 Cl
ATOM     15  C   UNL A   1      35.295  22.327  26.484  1.00  0.00     0.024 A 
ATOM     16  C   UNL A   1      33.763  23.717  25.257  1.00  0.00     0.128 A 
ATOM     17  C   UNL A   1      34.179  24.523  22.985  1.00  0.00     0.026 C 
ATOM     18  C   UNL A   1      34.105  23.036  26.424  1.00  0.00     0.048 A 
ATOM     19  O   UNL A   1      32.581  24.391  25.315  1.00  0.00    -0.475 OA
ATOM     20  C   UNL A   1      31.972  24.786  24.059  1.00  0.00     0.314 C 
BRANCH  20  21
ATOM     21  C   UNL A   1      30.860  23.788  23.696  1.00  0.00     0.429 C 
ATOM     22  F   UNL A   1      31.332  22.834  22.857  1.00  0.00    -0.167 F 
ATOM     23  F   UNL A   1      30.373  23.138  24.778  1.00  0.00    -0.167 F 
ATOM     24  F   UNL A   1      29.810  24.385  23.089  1.00  0.00    -0.167 F 
ENDBRANCH  20  21
ENDBRANCH   6   9
ENDBRANCH   4   5
ENDBRANCH   3   4
ENDBRANCH   2   3
ENDBRANCH   1   2
BRANCH   1  25
ATOM     25  C   UNL A   1      33.022  27.713  25.892  1.00  0.00     0.021 C 
BRANCH  25  26
ATOM     26  C   UNL A   1      34.066  28.228  26.877  1.00  0.00     0.116 C 
BRANCH  26  27
ATOM     27  N   UNL A   1      33.775  29.586  27.304  1.00  0.00    -0.352 N 
ATOM     28  C   UNL A   1      34.553  30.429  28.055  1.00  0.00     0.251 C 
ATOM     29  H   UNL A   1      32.906  29.948  27.017  1.00  0.00     0.163 HD
ATOM     30  O   UNL A   1      34.082  31.463  28.518  1.00  0.00    -0.269 OA
BRANCH  28  31
ATOM     31  C   UNL A   1      35.963  30.072  28.306  1.00  0.00     0.039 A 
ATOM     32  C   UNL A   1      36.332  29.604  29.568  1.00  0.00     0.014 A 
ATOM     33  C   UNL A   1      36.914  30.205  27.288  1.00  0.00     0.014 A 
ATOM     34  C   UNL A   1      37.656  29.230  29.802  1.00  0.00     0.010 A 
ATOM     35  C   UNL A   1      38.222  29.787  27.507  1.00  0.00     0.010 A 
ATOM     36  C   UNL A   1      38.606  29.307  28.769  1.00  0.00    -0.014 A 
BRANCH  36  37
ATOM     37  C   UNL A   1      40.022  28.945  29.009  1.00  0.00     0.031 A 
ATOM     38  C   UNL A   1      40.952  29.962  29.608  1.00  0.00     0.074 A 
ATOM     39  C   UNL A   1      40.472  27.723  28.664  1.00  0.00     0.049 A 
ATOM     40  N   UNL A   1      42.230  29.861  29.862  1.00  0.00    -0.248 NA
ATOM     41  C   UNL A   1      40.371  31.270  29.955  1.00  0.00     0.031 C 
ATOM     42  C   UNL A   1      39.663  26.664  28.059  1.00  0.00     0.029 A 
ATOM     43  N   UNL A   1      41.722  27.168  28.770  1.00  0.00    -0.354 N 
ATOM     44  C   UNL A   1      42.604  31.084  30.405  1.00  0.00     0.074 A 
ATOM     45  C   UNL A   1      41.433  31.933  30.389  1.00  0.00     0.031 C 
ATOM     46  C   UNL A   1      40.433  25.580  27.865  1.00  0.00     0.029 A 
ATOM     47  C   UNL A   1      41.794  25.876  28.306  1.00  0.00     0.049 A 
ATOM     48  H   UNL A   1      42.494  27.651  29.145  1.00  0.00     0.167 HD
ATOM     49  C   UNL A   1      43.807  31.455  30.901  1.00  0.00     0.037 A 
ATOM     50  C   UNL A   1      42.841  25.030  28.245  1.00  0.00     0.037 A 
ATOM     51  C   UNL A   1      44.965  30.603  30.925  1.00  0.00     0.049 A 
ATOM     52  C   UNL A   1      44.180  25.485  28.760  1.00  0.00     0.074 A 
ATOM     53  C   UNL A   1      46.225  30.878  31.426  1.00  0.00     0.029 A 
ATOM     54  N   UNL A   1      45.003  29.307  30.432  1.00  0.00    -0.354 N 
ATOM     55  N   UNL A   1      44.509  26.634  29.302  1.00  0.00    -0.248 NA
ATOM     56  C   UNL A   1      45.293  24.529  28.659  1.00  0.00     0.031 C 
ATOM     57  C   UNL A   1      47.035  29.760  31.204  1.00  0.00     0.029 A 
ATOM     58  C   UNL A   1      46.269  28.775  30.601  1.00  0.00     0.049 A 
ATOM     59  H   UNL A   1      44.243  28.837  30.020  1.00  0.00     0.167 HD
ATOM     60  C   UNL A   1      45.856  26.529  29.629  1.00  0.00     0.074 A 
ATOM     61  C   UNL A   1      46.281  25.202  29.233  1.00  0.00     0.031 C 
ATOM     62  C   UNL A   1      46.669  27.448  30.207  1.00  0.00     0.037 A 
BRANCH  49  63
ATOM     63  C   UNL A   1      43.925  32.837  31.479  1.00  0.00     0.058 A 
ATOM     64  C   UNL A   1      43.699  33.077  32.843  1.00  0.00     0.135 A 
ATOM     65  C   UNL A   1      44.319  33.921  30.678  1.00  0.00     0.135 A 
ATOM     66  F   UNL A   1      43.301  32.079  33.648  1.00  0.00    -0.206 F 
ATOM     67  C   UNL A   1      43.844  34.346  33.392  1.00  0.00     0.059 A 
ATOM     68  C   UNL A   1      44.494  35.195  31.211  1.00  0.00     0.059 A 
ATOM     69  F   UNL A   1      44.542  33.746  29.366  1.00  0.00    -0.206 F 
ATOM     70  C   UNL A   1      44.246  35.399  32.568  1.00  0.00     0.060 A 
BRANCH  70  71
ATOM     71  S   UNL A   1      44.455  37.033  33.306  1.00  0.00     0.124 S 
ATOM     72  O   UNL A   1      43.181  37.205  33.997  1.00  0.00    -0.237 OA
ATOM     73  O   UNL A   1      45.620  36.840  34.162  1.00  0.00    -0.237 OA
ATOM     74  O   UNL A   1      44.665  37.903  32.152  1.00  0.00    -0.744 OA
ENDBRANCH  70  71
ENDBRANCH  49  63
BRANCH  50  75
ATOM     75  C   UNL A   1      42.661  23.658  27.703  1.00  0.00     0.058 A 
ATOM     76  C   UNL A   1      42.729  23.418  26.323  1.00  0.00     0.135 A 
ATOM     77  C   UNL A   1      42.420  22.563  28.546  1.00  0.00     0.135 A 
ATOM     78  F   UNL A   1      42.950  24.435  25.476  1.00  0.00    -0.206 F 
ATOM     79  C   UNL A   1      42.549  22.144  25.795  1.00  0.00     0.059 A 
ATOM     80  C   UNL A   1      42.258  21.275  28.045  1.00  0.00     0.059 A 
ATOM     81  F   UNL A   1      42.360  22.738  29.876  1.00  0.00    -0.206 F 
ATOM     82  C   UNL A   1      42.315  21.078  26.665  1.00  0.00     0.060 A 
BRANCH  82  83
ATOM     83  S   UNL A   1      42.123  19.422  25.970  1.00  0.00     0.124 S 
ATOM     84  O   UNL A   1      42.966  19.502  24.784  1.00  0.00    -0.237 OA
ATOM     85  O   UNL A   1      42.619  18.577  27.052  1.00  0.00    -0.237 OA
ATOM     86  O   UNL A   1      40.687  19.328  25.719  1.00  0.00    -0.744 OA
ENDBRANCH  82  83
ENDBRANCH  50  75
BRANCH  62  87
ATOM     87  C   UNL A   1      48.094  27.050  30.467  1.00  0.00     0.058 A 
ATOM     88  C   UNL A   1      49.115  27.344  29.552  1.00  0.00     0.135 A 
ATOM     89  C   UNL A   1      48.452  26.442  31.682  1.00  0.00     0.135 A 
ATOM     90  F   UNL A   1      48.823  27.919  28.374  1.00  0.00    -0.206 F 
ATOM     91  C   UNL A   1      50.444  27.041  29.827  1.00  0.00     0.059 A 
ATOM     92  C   UNL A   1      49.778  26.153  31.988  1.00  0.00     0.059 A 
ATOM     93  F   UNL A   1      47.513  26.149  32.594  1.00  0.00    -0.206 F 
ATOM     94  C   UNL A   1      50.766  26.450  31.051  1.00  0.00     0.060 A 
BRANCH  94  95
ATOM     95  S   UNL A   1      52.502  26.114  31.416  1.00  0.00     0.124 S 
ATOM     96  O   UNL A   1      52.423  24.790  32.024  1.00  0.00    -0.237 OA
ATOM     97  O   UNL A   1      53.115  26.168  30.092  1.00  0.00    -0.237 OA
ATOM     98  O   UNL A   1      52.877  27.198  32.319  1.00  0.00    -0.744 OA
ENDBRANCH  94  95
ENDBRANCH  62  87
ENDBRANCH  36  37
ENDBRANCH  28  31
ENDBRANCH  26  27
ENDBRANCH  25  26
ENDBRANCH   1  25
TORSDOF 17
ENDMDL
MODEL 2
REMARK VINA RESULT:     -11.3      4.715     10.299
REMARK SMILES Cc1c(Cl)ccc2c1C=C(C(=O)NCCCCCCNC(=O)c1ccc(-c3c4nc(c(-c5c(F)cc(S(=O)(=O)[O-])cc5F)c5ccc([nH]5)c(-c5c(F)cc(S(=O)(=O)[O-])cc5F)c5nc(c(-c6c(F)cc(S(=O)(=O)[O-])cc6F)c6ccc3[nH]6)C=C5)C=C4)cc1)[C@@H](C(F)(F)F)O2
REMARK SMILES IDX 17 1 16 2 15 3 14 4 13 5 11 6 12 7 10 9 1 10 2 11 3 12 8 13
REMARK SMILES IDX 4 14 5 15 7 16 9 17 6 18 94 19 89 20 90 21 91 22 92 23 93 24
REMARK SMILES IDX 18 25 19 26 20 27 21 28 22 30 23 31 24 32 88 33 25 34 87 35
REMARK SMILES IDX 26 36 27 37 28 38 81 39 29 40 86 41 80 42 82 43 30 44 85 45
REMARK SMILES IDX 79 46 78 47 31 49 65 50 44 51 64 52 45 53 48 54 63 55 83 56
REMARK SMILES IDX 46 57 47 58 62 60 84 61 49 62 32 63 33 64 42 65 34 66 35 67
REMARK SMILES IDX 41 68 43 69 36 70 37 71 38 72 39 73 40 74 66 75 67 76 76 77
REMARK SMILES IDX 68 78 69 79 75 80 77 81 70 82 71 83 72 84 73 85 74 86 50 87
REMARK SMILES IDX 51 88 60 89 52 90 53 91 59 92 61 93 54 94 55 95 56 96 57 97
REMARK SMILES IDX 58 98
REMARK H PARENT 13 8 20 29 82 48 48 59
REMARK Flexibility Score: inf
ROOT
ATOM      1  C   UNL A   1      37.512  23.965  26.101  1.00  0.00     0.002 C 
ENDROOT
BRANCH   1   2
ATOM      2  C   UNL A   1      36.246  23.414  25.431  1.00  0.00     0.002 C 
BRANCH   2   3
ATOM      3  C   UNL A   1      35.029  23.267  26.350  1.00  0.00     0.021 C 
BRANCH   3   4
ATOM      4  C   UNL A   1      33.723  23.765  25.739  1.00  0.00     0.116 C 
BRANCH   4   5
ATOM      5  N   UNL A   1      33.913  24.237  24.380  1.00  0.00    -0.352 N 
ATOM      6  C   UNL A   1      33.664  25.365  23.679  1.00  0.00     0.251 C 
ATOM      7  O   UNL A   1      34.019  25.330  22.495  1.00  0.00    -0.270 OA
ATOM      8  H   UNL A   1      34.338  23.551  23.817  1.00  0.00     0.163 HD
BRANCH   6   9
ATOM      9  C   UNL A   1      33.020  26.604  24.217  1.00  0.00     0.067 C 
ATOM     10  C   UNL A   1      35.351  28.962  27.097  1.00  0.00     0.047 C 
ATOM     11  C   UNL A   1      33.997  29.363  26.563  1.00  0.00    -0.021 A 
ATOM     12  C   UNL A   1      33.388  30.535  27.069  1.00  0.00     0.044 A 
ATOM     13  C   UNL A   1      33.288  28.595  25.607  1.00  0.00     0.022 A 
ATOM     14  Cl  UNL A   1      34.162  31.527  28.261  1.00  0.00    -0.084 Cl
ATOM     15  C   UNL A   1      32.128  30.948  26.631  1.00  0.00     0.024 A 
ATOM     16  C   UNL A   1      32.016  29.022  25.196  1.00  0.00     0.128 A 
ATOM     17  C   UNL A   1      33.816  27.380  24.979  1.00  0.00     0.026 C 
ATOM     18  C   UNL A   1      31.445  30.193  25.690  1.00  0.00     0.048 A 
ATOM     19  O   UNL A   1      31.263  28.367  24.268  1.00  0.00    -0.475 OA
ATOM     20  C   UNL A   1      31.585  26.979  24.001  1.00  0.00     0.314 C 
BRANCH  20  21
ATOM     21  C   UNL A   1      30.606  26.072  24.765  1.00  0.00     0.429 C 
ATOM     22  F   UNL A   1      30.632  24.814  24.263  1.00  0.00    -0.167 F 
ATOM     23  F   UNL A   1      30.915  25.966  26.078  1.00  0.00    -0.167 F 
ATOM     24  F   UNL A   1      29.331  26.515  24.694  1.00  0.00    -0.167 F 
ENDBRANCH  20  21
ENDBRANCH   6   9
ENDBRANCH   4   5
ENDBRANCH   3   4
ENDBRANCH   2   3
ENDBRANCH   1   2
BRANCH   1  25
ATOM     25  C   UNL A   1      38.552  22.916  26.506  1.00  0.00     0.021 C 
BRANCH  25  26
ATOM     26  C   UNL A   1      39.819  23.490  27.134  1.00  0.00     0.116 C 
BRANCH  26  27
ATOM     27  N   UNL A   1      40.726  24.010  26.126  1.00  0.00    -0.352 N 
ATOM     28  C   UNL A   1      41.257  25.271  26.025  1.00  0.00     0.251 C 
ATOM     29  H   UNL A   1      40.996  23.375  25.423  1.00  0.00     0.163 HD
ATOM     30  O   UNL A   1      41.832  25.623  25.000  1.00  0.00    -0.269 OA
BRANCH  28  31
ATOM     31  C   UNL A   1      41.118  26.201  27.162  1.00  0.00     0.039 A 
ATOM     32  C   UNL A   1      41.944  27.325  27.226  1.00  0.00     0.014 A 
ATOM     33  C   UNL A   1      40.170  25.954  28.161  1.00  0.00     0.014 A 
ATOM     34  C   UNL A   1      41.794  28.229  28.279  1.00  0.00     0.010 A 
ATOM     35  C   UNL A   1      39.989  26.879  29.184  1.00  0.00     0.010 A 
ATOM     36  C   UNL A   1      40.807  28.017  29.256  1.00  0.00    -0.014 A 
BRANCH  36  37
ATOM     37  C   UNL A   1      40.656  28.949  30.399  1.00  0.00     0.031 A 
ATOM     38  C   UNL A   1      41.564  28.813  31.587  1.00  0.00     0.074 A 
ATOM     39  C   UNL A   1      39.691  29.889  30.376  1.00  0.00     0.049 A 
ATOM     40  N   UNL A   1      41.574  29.497  32.701  1.00  0.00    -0.248 NA
ATOM     41  C   UNL A   1      42.589  27.758  31.521  1.00  0.00     0.031 C 
ATOM     42  C   UNL A   1      38.741  30.101  29.283  1.00  0.00     0.029 A 
ATOM     43  N   UNL A   1      39.349  30.840  31.304  1.00  0.00    -0.354 N 
ATOM     44  C   UNL A   1      42.607  28.965  33.462  1.00  0.00     0.074 A 
ATOM     45  C   UNL A   1      43.163  27.861  32.711  1.00  0.00     0.031 C 
ATOM     46  C   UNL A   1      37.936  31.130  29.595  1.00  0.00     0.029 A 
ATOM     47  C   UNL A   1      38.294  31.633  30.919  1.00  0.00     0.049 A 
ATOM     48  H   UNL A   1      39.816  30.945  32.164  1.00  0.00     0.167 HD
ATOM     49  C   UNL A   1      43.069  29.378  34.664  1.00  0.00     0.037 A 
ATOM     50  C   UNL A   1      37.688  32.649  31.564  1.00  0.00     0.037 A 
ATOM     51  C   UNL A   1      42.518  30.484  35.401  1.00  0.00     0.049 A 
ATOM     52  C   UNL A   1      38.191  33.059  32.922  1.00  0.00     0.074 A 
ATOM     53  C   UNL A   1      42.930  30.996  36.618  1.00  0.00     0.029 A 
ATOM     54  N   UNL A   1      41.440  31.252  34.986  1.00  0.00    -0.354 N 
ATOM     55  N   UNL A   1      39.192  32.566  33.613  1.00  0.00    -0.248 NA
ATOM     56  C   UNL A   1      37.487  34.164  33.588  1.00  0.00     0.031 C 
ATOM     57  C   UNL A   1      42.078  32.052  36.957  1.00  0.00     0.029 A 
ATOM     58  C   UNL A   1      41.162  32.224  35.931  1.00  0.00     0.049 A 
ATOM     59  H   UNL A   1      40.946  31.124  34.145  1.00  0.00     0.167 HD
ATOM     60  C   UNL A   1      39.253  33.317  34.782  1.00  0.00     0.074 A 
ATOM     61  C   UNL A   1      38.195  34.303  34.702  1.00  0.00     0.031 C 
ATOM     62  C   UNL A   1      40.109  33.202  35.828  1.00  0.00     0.037 A 
BRANCH  49  63
ATOM     63  C   UNL A   1      44.243  28.645  35.248  1.00  0.00     0.058 A 
ATOM     64  C   UNL A   1      45.560  29.044  34.972  1.00  0.00     0.135 A 
ATOM     65  C   UNL A   1      44.053  27.571  36.132  1.00  0.00     0.135 A 
ATOM     66  F   UNL A   1      45.796  30.053  34.118  1.00  0.00    -0.206 F 
ATOM     67  C   UNL A   1      46.650  28.394  35.540  1.00  0.00     0.059 A 
ATOM     68  C   UNL A   1      45.129  26.920  36.730  1.00  0.00     0.059 A 
ATOM     69  F   UNL A   1      42.814  27.145  36.424  1.00  0.00    -0.206 F 
ATOM     70  C   UNL A   1      46.425  27.335  36.421  1.00  0.00     0.060 A 
BRANCH  70  71
ATOM     71  S   UNL A   1      47.852  26.522  37.168  1.00  0.00     0.124 S 
ATOM     72  O   UNL A   1      47.211  25.641  38.139  1.00  0.00    -0.237 OA
ATOM     73  O   UNL A   1      48.468  25.862  36.022  1.00  0.00    -0.237 OA
ATOM     74  O   UNL A   1      48.616  27.630  37.735  1.00  0.00    -0.744 OA
ENDBRANCH  70  71
ENDBRANCH  49  63
BRANCH  50  75
ATOM     75  C   UNL A   1      36.556  33.370  30.924  1.00  0.00     0.058 A 
ATOM     76  C   UNL A   1      35.254  33.256  31.431  1.00  0.00     0.135 A 
ATOM     77  C   UNL A   1      36.751  34.185  29.798  1.00  0.00     0.135 A 
ATOM     78  F   UNL A   1      35.017  32.481  32.500  1.00  0.00    -0.206 F 
ATOM     79  C   UNL A   1      34.180  33.911  30.838  1.00  0.00     0.059 A 
ATOM     80  C   UNL A   1      35.697  34.869  29.200  1.00  0.00     0.059 A 
ATOM     81  F   UNL A   1      37.981  34.339  29.283  1.00  0.00    -0.206 F 
ATOM     82  C   UNL A   1      34.412  34.717  29.722  1.00  0.00     0.060 A 
BRANCH  82  83
ATOM     83  S   UNL A   1      33.016  35.594  28.985  1.00  0.00     0.124 S 
ATOM     84  O   UNL A   1      32.243  35.959  30.165  1.00  0.00    -0.237 OA
ATOM     85  O   UNL A   1      33.679  36.693  28.289  1.00  0.00    -0.237 OA
ATOM     86  O   UNL A   1      32.409  34.588  28.117  1.00  0.00    -0.744 OA
ENDBRANCH  82  83
ENDBRANCH  50  75
BRANCH  62  87
ATOM     87  C   UNL A   1      39.956  34.175  36.962  1.00  0.00     0.058 A 
ATOM     88  C   UNL A   1      40.575  35.433  36.936  1.00  0.00     0.135 A 
ATOM     89  C   UNL A   1      39.113  33.877  38.046  1.00  0.00     0.135 A 
ATOM     90  F   UNL A   1      41.394  35.763  35.924  1.00  0.00    -0.206 F 
ATOM     91  C   UNL A   1      40.373  36.361  37.952  1.00  0.00     0.059 A 
ATOM     92  C   UNL A   1      38.878  34.799  39.060  1.00  0.00     0.059 A 
ATOM     93  F   UNL A   1      38.490  32.690  38.111  1.00  0.00    -0.206 F 
ATOM     94  C   UNL A   1      39.518  36.036  39.007  1.00  0.00     0.060 A 
BRANCH  94  95
ATOM     95  S   UNL A   1      39.222  37.273  40.290  1.00  0.00     0.124 S 
ATOM     96  O   UNL A   1      40.581  37.702  40.602  1.00  0.00    -0.237 OA
ATOM     97  O   UNL A   1      38.392  38.251  39.593  1.00  0.00    -0.237 OA
ATOM     98  O   UNL A   1      38.545  36.519  41.340  1.00  0.00    -0.744 OA
ENDBRANCH  94  95
ENDBRANCH  62  87
ENDBRANCH  36  37
ENDBRANCH  28  31
ENDBRANCH  26  27
ENDBRANCH  25  26
ENDBRANCH   1  25
TORSDOF 17
ENDMDL
MODEL 3
REMARK VINA RESULT:     -11.3      3.256      9.075
REMARK SMILES Cc1c(Cl)ccc2c1C=C(C(=O)NCCCCCCNC(=O)c1ccc(-c3c4nc(c(-c5c(F)cc(S(=O)(=O)[O-])cc5F)c5ccc([nH]5)c(-c5c(F)cc(S(=O)(=O)[O-])cc5F)c5nc(c(-c6c(F)cc(S(=O)(=O)[O-])cc6F)c6ccc3[nH]6)C=C5)C=C4)cc1)[C@@H](C(F)(F)F)O2
REMARK SMILES IDX 17 1 16 2 15 3 14 4 13 5 11 6 12 7 10 9 1 10 2 11 3 12 8 13
REMARK SMILES IDX 4 14 5 15 7 16 9 17 6 18 94 19 89 20 90 21 91 22 92 23 93 24
REMARK SMILES IDX 18 25 19 26 20 27 21 28 22 30 23 31 24 32 88 33 25 34 87 35
REMARK SMILES IDX 26 36 27 37 28 38 81 39 29 40 86 41 80 42 82 43 30 44 85 45
REMARK SMILES IDX 79 46 78 47 31 49 65 50 44 51 64 52 45 53 48 54 63 55 83 56
REMARK SMILES IDX 46 57 47 58 62 60 84 61 49 62 32 63 33 64 42 65 34 66 35 67
REMARK SMILES IDX 41 68 43 69 36 70 37 71 38 72 39 73 40 74 66 75 67 76 76 77
REMARK SMILES IDX 68 78 69 79 75 80 77 81 70 82 71 83 72 84 73 85 74 86 50 87
REMARK SMILES IDX 51 88 60 89 52 90 53 91 59 92 61 93 54 94 55 95 56 96 57 97
REMARK SMILES IDX 58 98
REMARK H PARENT 13 8 20 29 82 48 48 59
REMARK Flexibility Score: inf
ROOT
ATOM      1  C   UNL A   1      34.605  22.941  27.254  1.00  0.00     0.002 C 
ENDROOT
BRANCH   1   2
ATOM      2  C   UNL A   1      33.746  21.677  27.115  1.00  0.00     0.002 C 
BRANCH   2   3
ATOM      3  C   UNL A   1      33.568  21.159  25.684  1.00  0.00     0.021 C 
BRANCH   3   4
ATOM      4  C   UNL A   1      32.145  21.285  25.148  1.00  0.00     0.116 C 
BRANCH   4   5
ATOM      5  N   UNL A   1      31.286  21.999  26.075  1.00  0.00    -0.352 N 
ATOM      6  C   UNL A   1      30.985  23.286  26.358  1.00  0.00     0.251 C 
ATOM      7  O   UNL A   1      30.153  23.439  27.259  1.00  0.00    -0.270 OA
ATOM      8  H   UNL A   1      30.787  21.378  26.653  1.00  0.00     0.163 HD
BRANCH   6   9
ATOM      9  C   UNL A   1      31.565  24.487  25.680  1.00  0.00     0.067 C 
ATOM     10  C   UNL A   1      31.440  28.274  27.900  1.00  0.00     0.047 C 
ATOM     11  C   UNL A   1      32.097  28.096  26.553  1.00  0.00    -0.021 A 
ATOM     12  C   UNL A   1      32.648  29.230  25.911  1.00  0.00     0.044 A 
ATOM     13  C   UNL A   1      32.149  26.851  25.880  1.00  0.00     0.022 A 
ATOM     14  Cl  UNL A   1      32.608  30.802  26.639  1.00  0.00    -0.084 Cl
ATOM     15  C   UNL A   1      33.251  29.135  24.656  1.00  0.00     0.024 A 
ATOM     16  C   UNL A   1      32.745  26.784  24.611  1.00  0.00     0.128 A 
ATOM     17  C   UNL A   1      31.646  25.594  26.444  1.00  0.00     0.026 C 
ATOM     18  C   UNL A   1      33.303  27.910  24.008  1.00  0.00     0.048 A 
ATOM     19  O   UNL A   1      32.865  25.633  23.892  1.00  0.00    -0.475 OA
ATOM     20  C   UNL A   1      31.994  24.528  24.245  1.00  0.00     0.314 C 
BRANCH  20  21
ATOM     21  C   UNL A   1      30.812  24.478  23.263  1.00  0.00     0.429 C 
ATOM     22  F   UNL A   1      29.767  25.198  23.739  1.00  0.00    -0.167 F 
ATOM     23  F   UNL A   1      31.118  25.003  22.054  1.00  0.00    -0.167 F 
ATOM     24  F   UNL A   1      30.374  23.217  23.046  1.00  0.00    -0.167 F 
ENDBRANCH  20  21
ENDBRANCH   6   9
ENDBRANCH   4   5
ENDBRANCH   3   4
ENDBRANCH   2   3
ENDBRANCH   1   2
BRANCH   1  25
ATOM     25  C   UNL A   1      35.025  23.601  25.937  1.00  0.00     0.021 C 
BRANCH  25  26
ATOM     26  C   UNL A   1      36.495  24.004  25.871  1.00  0.00     0.116 C 
BRANCH  26  27
ATOM     27  N   UNL A   1      37.372  22.864  26.074  1.00  0.00    -0.352 N 
ATOM     28  C   UNL A   1      38.699  22.859  26.417  1.00  0.00     0.251 C 
ATOM     29  H   UNL A   1      36.960  21.978  25.948  1.00  0.00     0.163 HD
ATOM     30  O   UNL A   1      39.359  21.827  26.337  1.00  0.00    -0.269 OA
BRANCH  28  31
ATOM     31  C   UNL A   1      39.327  24.114  26.875  1.00  0.00     0.039 A 
ATOM     32  C   UNL A   1      39.940  24.950  25.940  1.00  0.00     0.014 A 
ATOM     33  C   UNL A   1      39.305  24.456  28.232  1.00  0.00     0.014 A 
ATOM     34  C   UNL A   1      40.503  26.155  26.361  1.00  0.00     0.010 A 
ATOM     35  C   UNL A   1      39.824  25.679  28.643  1.00  0.00     0.010 A 
ATOM     36  C   UNL A   1      40.436  26.532  27.713  1.00  0.00    -0.014 A 
BRANCH  36  37
ATOM     37  C   UNL A   1      41.058  27.793  28.182  1.00  0.00     0.031 A 
ATOM     38  C   UNL A   1      42.549  27.955  28.103  1.00  0.00     0.074 A 
ATOM     39  C   UNL A   1      40.288  28.770  28.700  1.00  0.00     0.049 A 
ATOM     40  N   UNL A   1      43.292  28.957  28.493  1.00  0.00    -0.248 NA
ATOM     41  C   UNL A   1      43.308  26.835  27.521  1.00  0.00     0.031 C 
ATOM     42  C   UNL A   1      38.832  28.715  28.842  1.00  0.00     0.029 A 
ATOM     43  N   UNL A   1      40.626  29.999  29.207  1.00  0.00    -0.354 N 
ATOM     44  C   UNL A   1      44.600  28.595  28.197  1.00  0.00     0.074 A 
ATOM     45  C   UNL A   1      44.557  27.257  27.650  1.00  0.00     0.031 C 
ATOM     46  C   UNL A   1      38.400  29.867  29.381  1.00  0.00     0.029 A 
ATOM     47  C   UNL A   1      39.547  30.730  29.648  1.00  0.00     0.049 A 
ATOM     48  H   UNL A   1      41.553  30.328  29.249  1.00  0.00     0.167 HD
ATOM     49  C   UNL A   1      45.730  29.324  28.340  1.00  0.00     0.037 A 
ATOM     50  C   UNL A   1      39.496  31.956  30.204  1.00  0.00     0.037 A 
ATOM     51  C   UNL A   1      45.765  30.659  28.874  1.00  0.00     0.049 A 
ATOM     52  C   UNL A   1      40.774  32.728  30.395  1.00  0.00     0.074 A 
ATOM     53  C   UNL A   1      46.857  31.491  29.039  1.00  0.00     0.029 A 
ATOM     54  N   UNL A   1      44.655  31.359  29.325  1.00  0.00    -0.354 N 
ATOM     55  N   UNL A   1      42.000  32.384  30.077  1.00  0.00    -0.248 NA
ATOM     56  C   UNL A   1      40.664  34.055  31.017  1.00  0.00     0.031 C 
ATOM     57  C   UNL A   1      46.414  32.682  29.623  1.00  0.00     0.029 A 
ATOM     58  C   UNL A   1      45.039  32.607  29.784  1.00  0.00     0.049 A 
ATOM     59  H   UNL A   1      43.732  31.018  29.321  1.00  0.00     0.167 HD
ATOM     60  C   UNL A   1      42.802  33.461  30.437  1.00  0.00     0.074 A 
ATOM     61  C   UNL A   1      41.923  34.472  30.988  1.00  0.00     0.031 C 
ATOM     62  C   UNL A   1      44.146  33.603  30.321  1.00  0.00     0.037 A 
BRANCH  49  63
ATOM     63  C   UNL A   1      47.022  28.702  27.890  1.00  0.00     0.058 A 
ATOM     64  C   UNL A   1      47.818  27.959  28.776  1.00  0.00     0.135 A 
ATOM     65  C   UNL A   1      47.442  28.801  26.555  1.00  0.00     0.135 A 
ATOM     66  F   UNL A   1      47.471  27.851  30.069  1.00  0.00    -0.206 F 
ATOM     67  C   UNL A   1      48.994  27.348  28.358  1.00  0.00     0.059 A 
ATOM     68  C   UNL A   1      48.605  28.178  26.109  1.00  0.00     0.059 A 
ATOM     69  F   UNL A   1      46.721  29.505  25.669  1.00  0.00    -0.206 F 
ATOM     70  C   UNL A   1      49.378  27.460  27.021  1.00  0.00     0.060 A 
BRANCH  70  71
ATOM     71  S   UNL A   1      50.895  26.637  26.492  1.00  0.00     0.124 S 
ATOM     72  O   UNL A   1      51.222  25.843  27.673  1.00  0.00    -0.237 OA
ATOM     73  O   UNL A   1      50.449  25.883  25.325  1.00  0.00    -0.237 OA
ATOM     74  O   UNL A   1      51.803  27.745  26.211  1.00  0.00    -0.744 OA
ENDBRANCH  70  71
ENDBRANCH  49  63
BRANCH  50  75
ATOM     75  C   UNL A   1      38.187  32.545  30.592  1.00  0.00     0.058 A 
ATOM     76  C   UNL A   1      37.691  32.393  31.895  1.00  0.00     0.135 A 
ATOM     77  C   UNL A   1      37.409  33.269  29.677  1.00  0.00     0.135 A 
ATOM     78  F   UNL A   1      38.396  31.701  32.804  1.00  0.00    -0.206 F 
ATOM     79  C   UNL A   1      36.463  32.923  32.274  1.00  0.00     0.059 A 
ATOM     80  C   UNL A   1      36.187  33.829  30.038  1.00  0.00     0.059 A 
ATOM     81  F   UNL A   1      37.847  33.455  28.421  1.00  0.00    -0.206 F 
ATOM     82  C   UNL A   1      35.718  33.641  31.338  1.00  0.00     0.060 A 
BRANCH  82  83
ATOM     83  S   UNL A   1      34.144  34.359  31.854  1.00  0.00     0.124 S 
ATOM     84  O   UNL A   1      34.580  35.597  32.488  1.00  0.00    -0.237 OA
ATOM     85  O   UNL A   1      33.442  34.505  30.582  1.00  0.00    -0.237 OA
ATOM     86  O   UNL A   1      33.593  33.348  32.752  1.00  0.00    -0.744 OA
ENDBRANCH  82  83
ENDBRANCH  50  75
BRANCH  62  87
ATOM     87  C   UNL A   1      44.751  34.899  30.776  1.00  0.00     0.058 A 
ATOM     88  C   UNL A   1      44.902  35.985  29.901  1.00  0.00     0.135 A 
ATOM     89  C   UNL A   1      45.107  35.084  32.122  1.00  0.00     0.135 A 
ATOM     90  F   UNL A   1      44.581  35.857  28.603  1.00  0.00    -0.206 F 
ATOM     91  C   UNL A   1      45.393  37.208  30.342  1.00  0.00     0.059 A 
ATOM     92  C   UNL A   1      45.578  36.306  32.590  1.00  0.00     0.059 A 
ATOM     93  F   UNL A   1      44.973  34.079  33.001  1.00  0.00    -0.206 F 
ATOM     94  C   UNL A   1      45.724  37.361  31.690  1.00  0.00     0.060 A 
BRANCH  94  95
ATOM     95  S   UNL A   1      46.309  38.972  32.258  1.00  0.00     0.124 S 
ATOM     96  O   UNL A   1      45.101  39.529  32.856  1.00  0.00    -0.237 OA
ATOM     97  O   UNL A   1      47.369  38.607  33.193  1.00  0.00    -0.237 OA
ATOM     98  O   UNL A   1      46.760  39.623  31.031  1.00  0.00    -0.744 OA
ENDBRANCH  94  95
ENDBRANCH  62  87
ENDBRANCH  36  37
ENDBRANCH  28  31
ENDBRANCH  26  27
ENDBRANCH  25  26
ENDBRANCH   1  25
TORSDOF 17
ENDMDL
