MODEL 1
REMARK VINA RESULT:     -10.7      0.000      0.000
REMARK SMILES O=C(C[C@@H]1CN(c2cc(C(F)(F)F)ccn2)CCO1)NCCCCCCNC(=O)c1ccc(-c2c3nc(c(-c4c(F)cc(S(=O)(=O)[O-])cc4F)c4ccc([nH]4)c(-c4c(F)cc(S(=O)(=O)[O-])cc4F)c4nc(c(-c5c(F)cc(S(=O)(=O)[O-])cc5F)c5ccc2[nH]5)C=C4)C=C3)cc1
REMARK SMILES IDX 23 1 22 2 21 3 20 4 1 5 2 6 3 8 4 9 5 10 19 11 6 12 18 13
REMARK SMILES IDX 17 14 7 15 8 16 16 17 9 18 15 19 14 20 10 21 11 22 12 23
REMARK SMILES IDX 13 24 24 25 25 26 26 27 27 28 28 29 29 31 30 32 31 33 95 34
REMARK SMILES IDX 32 35 94 36 33 37 34 38 35 39 88 40 36 41 93 42 87 43 89 44
REMARK SMILES IDX 37 45 92 46 86 47 85 48 38 50 72 51 51 52 71 53 52 54 55 55
REMARK SMILES IDX 70 56 90 57 53 58 54 59 69 61 91 62 56 63 39 64 40 65 49 66
REMARK SMILES IDX 41 67 42 68 48 69 50 70 43 71 44 72 45 73 46 74 47 75 73 76
REMARK SMILES IDX 74 77 83 78 75 79 76 80 82 81 84 82 77 83 78 84 79 85 80 86
REMARK SMILES IDX 81 87 57 88 58 89 67 90 59 91 60 92 66 93 68 94 61 95 62 96
REMARK SMILES IDX 63 97 64 98 65 99
REMARK H PARENT 20 7 27 30 89 49 55 60
REMARK Flexibility Score: inf
ROOT
ATOM      1  C   UNL A   1      33.575  22.309  24.410  1.00  0.00     0.002 C 
ENDROOT
BRANCH   1   2
ATOM      2  C   UNL A   1      34.054  23.268  23.308  1.00  0.00     0.021 C 
BRANCH   2   3
ATOM      3  C   UNL A   1      33.266  23.202  22.000  1.00  0.00     0.116 C 
BRANCH   3   4
ATOM      4  N   UNL A   1      32.289  24.260  21.929  1.00  0.00    -0.356 N 
ATOM      5  O   UNL A   1      33.650  25.992  21.258  1.00  0.00    -0.275 OA
ATOM      6  C   UNL A   1      32.550  25.562  21.592  1.00  0.00     0.222 C 
ATOM      7  H   UNL A   1      31.356  24.027  22.142  1.00  0.00     0.163 HD
BRANCH   6   8
ATOM      8  C   UNL A   1      31.357  26.470  21.797  1.00  0.00     0.133 C 
BRANCH   8   9
ATOM      9  C   UNL A   1      30.979  26.724  23.259  1.00  0.00     0.147 C 
ATOM     10  C   UNL A   1      32.108  27.522  23.951  1.00  0.00     0.150 C 
ATOM     11  O   UNL A   1      30.774  25.482  23.977  1.00  0.00    -0.374 OA
ATOM     12  N   UNL A   1      31.760  27.701  25.359  1.00  0.00    -0.352 N 
ATOM     13  C   UNL A   1      30.367  25.737  25.337  1.00  0.00     0.182 C 
ATOM     14  C   UNL A   1      31.480  26.474  26.097  1.00  0.00     0.146 C 
BRANCH  12  15
ATOM     15  C   UNL A   1      32.182  28.821  26.031  1.00  0.00     0.129 A 
ATOM     16  C   UNL A   1      33.441  28.801  26.621  1.00  0.00     0.060 A 
ATOM     17  N   UNL A   1      31.425  29.934  26.032  1.00  0.00    -0.239 NA
ATOM     18  C   UNL A   1      33.960  29.953  27.210  1.00  0.00     0.061 A 
ATOM     19  C   UNL A   1      31.910  31.030  26.656  1.00  0.00     0.114 A 
ATOM     20  C   UNL A   1      33.159  31.092  27.247  1.00  0.00     0.033 A 
BRANCH  18  21
ATOM     21  C   UNL A   1      35.359  29.962  27.754  1.00  0.00     0.416 C 
ATOM     22  F   UNL A   1      35.840  31.223  27.933  1.00  0.00    -0.166 F 
ATOM     23  F   UNL A   1      35.452  29.350  28.966  1.00  0.00    -0.166 F 
ATOM     24  F   UNL A   1      36.261  29.333  26.949  1.00  0.00    -0.166 F 
ENDBRANCH  18  21
ENDBRANCH  12  15
ENDBRANCH   8   9
ENDBRANCH   6   8
ENDBRANCH   3   4
ENDBRANCH   2   3
ENDBRANCH   1   2
BRANCH   1  25
ATOM     25  C   UNL A   1      34.633  21.888  25.435  1.00  0.00     0.002 C 
BRANCH  25  26
ATOM     26  C   UNL A   1      35.163  23.009  26.332  1.00  0.00     0.021 C 
BRANCH  26  27
ATOM     27  C   UNL A   1      36.538  23.555  25.955  1.00  0.00     0.116 C 
BRANCH  27  28
ATOM     28  N   UNL A   1      37.600  22.580  26.142  1.00  0.00    -0.352 N 
ATOM     29  C   UNL A   1      38.914  22.770  26.491  1.00  0.00     0.251 C 
ATOM     30  H   UNL A   1      37.338  21.642  25.997  1.00  0.00     0.163 HD
ATOM     31  O   UNL A   1      39.695  21.817  26.446  1.00  0.00    -0.269 OA
BRANCH  29  32
ATOM     32  C   UNL A   1      39.408  24.108  26.893  1.00  0.00     0.039 A 
ATOM     33  C   UNL A   1      39.370  24.457  28.245  1.00  0.00     0.014 A 
ATOM     34  C   UNL A   1      39.891  25.022  25.953  1.00  0.00     0.014 A 
ATOM     35  C   UNL A   1      39.876  25.692  28.660  1.00  0.00     0.010 A 
ATOM     36  C   UNL A   1      40.463  26.224  26.376  1.00  0.00     0.010 A 
ATOM     37  C   UNL A   1      40.463  26.571  27.734  1.00  0.00    -0.014 A 
BRANCH  37  38
ATOM     38  C   UNL A   1      41.109  27.831  28.191  1.00  0.00     0.031 A 
ATOM     39  C   UNL A   1      42.595  28.032  28.062  1.00  0.00     0.074 A 
ATOM     40  C   UNL A   1      40.352  28.788  28.766  1.00  0.00     0.049 A 
ATOM     41  N   UNL A   1      43.319  29.075  28.385  1.00  0.00    -0.248 NA
ATOM     42  C   UNL A   1      43.375  26.908  27.523  1.00  0.00     0.031 C 
ATOM     43  C   UNL A   1      38.909  28.691  29.005  1.00  0.00     0.029 A 
ATOM     44  N   UNL A   1      40.683  30.030  29.248  1.00  0.00    -0.354 N 
ATOM     45  C   UNL A   1      44.635  28.731  28.099  1.00  0.00     0.074 A 
ATOM     46  C   UNL A   1      44.616  27.364  27.626  1.00  0.00     0.031 C 
ATOM     47  C   UNL A   1      38.474  29.839  29.545  1.00  0.00     0.029 A 
ATOM     48  C   UNL A   1      39.608  30.740  29.728  1.00  0.00     0.049 A 
ATOM     49  H   UNL A   1      41.603  30.379  29.251  1.00  0.00     0.167 HD
ATOM     50  C   UNL A   1      45.753  29.491  28.202  1.00  0.00     0.037 A 
ATOM     51  C   UNL A   1      39.538  31.980  30.249  1.00  0.00     0.037 A 
ATOM     52  C   UNL A   1      45.763  30.858  28.662  1.00  0.00     0.049 A 
ATOM     53  C   UNL A   1      40.792  32.805  30.350  1.00  0.00     0.074 A 
ATOM     54  C   UNL A   1      46.830  31.736  28.730  1.00  0.00     0.029 A 
ATOM     55  N   UNL A   1      44.656  31.540  29.147  1.00  0.00    -0.354 N 
ATOM     56  N   UNL A   1      42.014  32.495  29.990  1.00  0.00    -0.248 NA
ATOM     57  C   UNL A   1      40.653  34.150  30.923  1.00  0.00     0.031 C 
ATOM     58  C   UNL A   1      46.381  32.929  29.309  1.00  0.00     0.029 A 
ATOM     59  C   UNL A   1      45.022  32.816  29.549  1.00  0.00     0.049 A 
ATOM     60  H   UNL A   1      43.744  31.172  29.199  1.00  0.00     0.167 HD
ATOM     61  C   UNL A   1      42.789  33.616  30.273  1.00  0.00     0.074 A 
ATOM     62  C   UNL A   1      41.889  34.616  30.814  1.00  0.00     0.031 C 
ATOM     63  C   UNL A   1      44.121  33.799  30.102  1.00  0.00     0.037 A 
BRANCH  50  64
ATOM     64  C   UNL A   1      47.065  28.855  27.820  1.00  0.00     0.058 A 
ATOM     65  C   UNL A   1      47.515  28.824  26.489  1.00  0.00     0.135 A 
ATOM     66  C   UNL A   1      47.896  28.289  28.801  1.00  0.00     0.135 A 
ATOM     67  F   UNL A   1      46.761  29.342  25.507  1.00  0.00    -0.206 F 
ATOM     68  C   UNL A   1      48.719  28.218  26.140  1.00  0.00     0.059 A 
ATOM     69  C   UNL A   1      49.118  27.705  28.479  1.00  0.00     0.059 A 
ATOM     70  F   UNL A   1      47.520  28.293  30.090  1.00  0.00    -0.206 F 
ATOM     71  C   UNL A   1      49.513  27.657  27.142  1.00  0.00     0.060 A 
BRANCH  71  72
ATOM     72  S   UNL A   1      51.063  26.861  26.672  1.00  0.00     0.124 S 
ATOM     73  O   UNL A   1      51.007  25.631  27.457  1.00  0.00    -0.237 OA
ATOM     74  O   UNL A   1      50.905  26.699  25.230  1.00  0.00    -0.237 OA
ATOM     75  O   UNL A   1      52.079  27.823  27.085  1.00  0.00    -0.744 OA
ENDBRANCH  71  72
ENDBRANCH  50  64
BRANCH  51  76
ATOM     76  C   UNL A   1      38.223  32.531  30.675  1.00  0.00     0.058 A 
ATOM     77  C   UNL A   1      37.771  32.373  31.994  1.00  0.00     0.135 A 
ATOM     78  C   UNL A   1      37.407  33.247  29.785  1.00  0.00     0.135 A 
ATOM     79  F   UNL A   1      38.512  31.690  32.879  1.00  0.00    -0.206 F 
ATOM     80  C   UNL A   1      36.553  32.898  32.415  1.00  0.00     0.059 A 
ATOM     81  C   UNL A   1      36.198  33.803  30.189  1.00  0.00     0.059 A 
ATOM     82  F   UNL A   1      37.801  33.437  28.517  1.00  0.00    -0.206 F 
ATOM     83  C   UNL A   1      35.777  33.617  31.505  1.00  0.00     0.060 A 
BRANCH  83  84
ATOM     84  S   UNL A   1      34.229  34.350  32.081  1.00  0.00     0.124 S 
ATOM     85  O   UNL A   1      33.559  34.652  30.822  1.00  0.00    -0.237 OA
ATOM     86  O   UNL A   1      33.652  33.264  32.867  1.00  0.00    -0.237 OA
ATOM     87  O   UNL A   1      34.672  35.506  32.855  1.00  0.00    -0.744 OA
ENDBRANCH  83  84
ENDBRANCH  51  76
BRANCH  63  88
ATOM     88  C   UNL A   1      44.683  35.141  30.492  1.00  0.00     0.058 A 
ATOM     89  C   UNL A   1      44.727  36.215  29.589  1.00  0.00     0.135 A 
ATOM     90  C   UNL A   1      45.178  35.358  31.789  1.00  0.00     0.135 A 
ATOM     91  F   UNL A   1      44.273  36.062  28.335  1.00  0.00    -0.206 F 
ATOM     92  C   UNL A   1      45.281  37.441  29.942  1.00  0.00     0.059 A 
ATOM     93  C   UNL A   1      45.705  36.587  32.174  1.00  0.00     0.059 A 
ATOM     94  F   UNL A   1      45.149  34.371  32.698  1.00  0.00    -0.206 F 
ATOM     95  C   UNL A   1      45.772  37.616  31.237  1.00  0.00     0.060 A 
BRANCH  95  96
ATOM     96  S   UNL A   1      46.492  39.210  31.683  1.00  0.00     0.124 S 
ATOM     97  O   UNL A   1      46.783  39.777  30.370  1.00  0.00    -0.237 OA
ATOM     98  O   UNL A   1      45.407  39.849  32.423  1.00  0.00    -0.237 OA
ATOM     99  O   UNL A   1      47.657  38.846  32.483  1.00  0.00    -0.744 OA
ENDBRANCH  95  96
ENDBRANCH  63  88
ENDBRANCH  37  38
ENDBRANCH  29  32
ENDBRANCH  27  28
ENDBRANCH  26  27
ENDBRANCH  25  26
ENDBRANCH   1  25
TORSDOF 19
ENDMDL
MODEL 2
REMARK VINA RESULT:     -10.6      3.904      9.720
REMARK SMILES O=C(C[C@@H]1CN(c2cc(C(F)(F)F)ccn2)CCO1)NCCCCCCNC(=O)c1ccc(-c2c3nc(c(-c4c(F)cc(S(=O)(=O)[O-])cc4F)c4ccc([nH]4)c(-c4c(F)cc(S(=O)(=O)[O-])cc4F)c4nc(c(-c5c(F)cc(S(=O)(=O)[O-])cc5F)c5ccc2[nH]5)C=C4)C=C3)cc1
REMARK SMILES IDX 23 1 22 2 21 3 20 4 1 5 2 6 3 8 4 9 5 10 19 11 6 12 18 13
REMARK SMILES IDX 17 14 7 15 8 16 16 17 9 18 15 19 14 20 10 21 11 22 12 23
REMARK SMILES IDX 13 24 24 25 25 26 26 27 27 28 28 29 29 31 30 32 31 33 95 34
REMARK SMILES IDX 32 35 94 36 33 37 34 38 35 39 88 40 36 41 93 42 87 43 89 44
REMARK SMILES IDX 37 45 92 46 86 47 85 48 38 50 72 51 51 52 71 53 52 54 55 55
REMARK SMILES IDX 70 56 90 57 53 58 54 59 69 61 91 62 56 63 39 64 40 65 49 66
REMARK SMILES IDX 41 67 42 68 48 69 50 70 43 71 44 72 45 73 46 74 47 75 73 76
REMARK SMILES IDX 74 77 83 78 75 79 76 80 82 81 84 82 77 83 78 84 79 85 80 86
REMARK SMILES IDX 81 87 57 88 58 89 67 90 59 91 60 92 66 93 68 94 61 95 62 96
REMARK SMILES IDX 63 97 64 98 65 99
REMARK H PARENT 20 7 27 30 89 49 55 60
REMARK Flexibility Score: inf
ROOT
ATOM      1  C   UNL A   1      31.709  29.586  24.554  1.00  0.00     0.002 C 
ENDROOT
BRANCH   1   2
ATOM      2  C   UNL A   1      30.820  28.780  23.593  1.00  0.00     0.021 C 
BRANCH   2   3
ATOM      3  C   UNL A   1      31.542  28.185  22.384  1.00  0.00     0.116 C 
BRANCH   3   4
ATOM      4  N   UNL A   1      31.761  26.770  22.556  1.00  0.00    -0.356 N 
ATOM      5  O   UNL A   1      33.805  26.572  21.515  1.00  0.00    -0.275 OA
ATOM      6  C   UNL A   1      32.847  26.072  22.097  1.00  0.00     0.222 C 
ATOM      7  H   UNL A   1      31.072  26.263  23.044  1.00  0.00     0.163 HD
BRANCH   6   8
ATOM      8  C   UNL A   1      32.695  24.576  22.263  1.00  0.00     0.133 C 
BRANCH   8   9
ATOM      9  C   UNL A   1      33.354  23.991  23.515  1.00  0.00     0.147 C 
ATOM     10  C   UNL A   1      33.196  22.453  23.507  1.00  0.00     0.150 C 
ATOM     11  O   UNL A   1      32.755  24.519  24.724  1.00  0.00    -0.374 OA
ATOM     12  N   UNL A   1      33.775  21.917  24.737  1.00  0.00    -0.352 N 
ATOM     13  C   UNL A   1      33.421  23.999  25.894  1.00  0.00     0.182 C 
ATOM     14  C   UNL A   1      33.243  22.475  25.976  1.00  0.00     0.146 C 
BRANCH  12  15
ATOM     15  C   UNL A   1      34.340  20.666  24.739  1.00  0.00     0.129 A 
ATOM     16  C   UNL A   1      33.542  19.582  24.393  1.00  0.00     0.060 A 
ATOM     17  N   UNL A   1      35.656  20.519  24.982  1.00  0.00    -0.239 NA
ATOM     18  C   UNL A   1      34.099  18.310  24.265  1.00  0.00     0.061 A 
ATOM     19  C   UNL A   1      36.178  19.274  24.913  1.00  0.00     0.114 A 
ATOM     20  C   UNL A   1      35.453  18.152  24.557  1.00  0.00     0.033 A 
BRANCH  18  21
ATOM     21  C   UNL A   1      33.261  17.158  23.791  1.00  0.00     0.416 C 
ATOM     22  F   UNL A   1      34.014  16.092  23.403  1.00  0.00    -0.166 F 
ATOM     23  F   UNL A   1      32.420  16.693  24.754  1.00  0.00    -0.166 F 
ATOM     24  F   UNL A   1      32.472  17.463  22.722  1.00  0.00    -0.166 F 
ENDBRANCH  18  21
ENDBRANCH  12  15
ENDBRANCH   8   9
ENDBRANCH   6   8
ENDBRANCH   3   4
ENDBRANCH   2   3
ENDBRANCH   1   2
BRANCH   1  25
ATOM     25  C   UNL A   1      33.031  28.923  24.955  1.00  0.00     0.002 C 
BRANCH  25  26
ATOM     26  C   UNL A   1      32.930  27.872  26.063  1.00  0.00     0.021 C 
BRANCH  26  27
ATOM     27  C   UNL A   1      33.507  28.287  27.415  1.00  0.00     0.116 C 
BRANCH  27  28
ATOM     28  N   UNL A   1      33.459  29.724  27.629  1.00  0.00    -0.352 N 
ATOM     29  C   UNL A   1      34.423  30.573  28.113  1.00  0.00     0.251 C 
ATOM     30  H   UNL A   1      32.606  30.155  27.391  1.00  0.00     0.163 HD
ATOM     31  O   UNL A   1      34.129  31.743  28.364  1.00  0.00    -0.269 OA
BRANCH  29  32
ATOM     32  C   UNL A   1      35.803  30.091  28.361  1.00  0.00     0.039 A 
ATOM     33  C   UNL A   1      36.734  30.161  27.322  1.00  0.00     0.014 A 
ATOM     34  C   UNL A   1      36.181  29.561  29.598  1.00  0.00     0.014 A 
ATOM     35  C   UNL A   1      38.054  29.762  27.542  1.00  0.00     0.010 A 
ATOM     36  C   UNL A   1      37.516  29.233  29.839  1.00  0.00     0.010 A 
ATOM     37  C   UNL A   1      38.468  29.330  28.814  1.00  0.00    -0.014 A 
BRANCH  37  38
ATOM     38  C   UNL A   1      39.899  29.021  29.081  1.00  0.00     0.031 A 
ATOM     39  C   UNL A   1      40.803  30.031  29.735  1.00  0.00     0.074 A 
ATOM     40  C   UNL A   1      40.397  27.829  28.692  1.00  0.00     0.049 A 
ATOM     41  N   UNL A   1      42.065  29.919  30.064  1.00  0.00    -0.248 NA
ATOM     42  C   UNL A   1      40.221  31.347  30.039  1.00  0.00     0.031 C 
ATOM     43  C   UNL A   1      39.641  26.787  27.993  1.00  0.00     0.029 A 
ATOM     44  N   UNL A   1      41.652  27.290  28.830  1.00  0.00    -0.354 N 
ATOM     45  C   UNL A   1      42.432  31.148  30.602  1.00  0.00     0.074 A 
ATOM     46  C   UNL A   1      41.271  32.007  30.507  1.00  0.00     0.031 C 
ATOM     47  C   UNL A   1      40.433  25.720  27.805  1.00  0.00     0.029 A 
ATOM     48  C   UNL A   1      41.761  26.013  28.334  1.00  0.00     0.049 A 
ATOM     49  H   UNL A   1      42.403  27.772  29.246  1.00  0.00     0.167 HD
ATOM     50  C   UNL A   1      43.618  31.518  31.143  1.00  0.00     0.037 A 
ATOM     51  C   UNL A   1      42.809  25.167  28.311  1.00  0.00     0.037 A 
ATOM     52  C   UNL A   1      44.766  30.652  31.246  1.00  0.00     0.049 A 
ATOM     53  C   UNL A   1      44.115  25.600  28.920  1.00  0.00     0.074 A 
ATOM     54  C   UNL A   1      45.987  30.908  31.846  1.00  0.00     0.029 A 
ATOM     55  N   UNL A   1      44.842  29.368  30.724  1.00  0.00    -0.354 N 
ATOM     56  N   UNL A   1      44.415  26.734  29.506  1.00  0.00    -0.248 NA
ATOM     57  C   UNL A   1      45.219  24.634  28.870  1.00  0.00     0.031 C 
ATOM     58  C   UNL A   1      46.819  29.802  31.637  1.00  0.00     0.029 A 
ATOM     59  C   UNL A   1      46.100  28.833  30.957  1.00  0.00     0.049 A 
ATOM     60  H   UNL A   1      44.109  28.905  30.257  1.00  0.00     0.167 HD
ATOM     61  C   UNL A   1      45.740  26.611  29.914  1.00  0.00     0.074 A 
ATOM     62  C   UNL A   1      46.172  25.282  29.526  1.00  0.00     0.031 C 
ATOM     63  C   UNL A   1      46.526  27.515  30.551  1.00  0.00     0.037 A 
BRANCH  50  64
ATOM     64  C   UNL A   1      43.738  32.930  31.657  1.00  0.00     0.058 A 
ATOM     65  C   UNL A   1      44.163  33.987  30.834  1.00  0.00     0.135 A 
ATOM     66  C   UNL A   1      43.402  33.236  32.987  1.00  0.00     0.135 A 
ATOM     67  F   UNL A   1      44.506  33.755  29.557  1.00  0.00    -0.206 F 
ATOM     68  C   UNL A   1      44.290  35.285  31.321  1.00  0.00     0.059 A 
ATOM     69  C   UNL A   1      43.492  34.532  33.486  1.00  0.00     0.059 A 
ATOM     70  F   UNL A   1      42.986  32.268  33.818  1.00  0.00    -0.206 F 
ATOM     71  C   UNL A   1      43.956  35.547  32.650  1.00  0.00     0.060 A 
BRANCH  71  72
ATOM     72  S   UNL A   1      44.142  37.232  33.271  1.00  0.00     0.124 S 
ATOM     73  O   UNL A   1      42.903  37.402  34.024  1.00  0.00    -0.237 OA
ATOM     74  O   UNL A   1      45.359  37.138  34.070  1.00  0.00    -0.237 OA
ATOM     75  O   UNL A   1      44.253  38.033  32.057  1.00  0.00    -0.744 OA
ENDBRANCH  71  72
ENDBRANCH  50  64
BRANCH  51  76
ATOM     76  C   UNL A   1      42.651  23.807  27.727  1.00  0.00     0.058 A 
ATOM     77  C   UNL A   1      42.747  23.604  26.342  1.00  0.00     0.135 A 
ATOM     78  C   UNL A   1      42.429  22.684  28.539  1.00  0.00     0.135 A 
ATOM     79  F   UNL A   1      42.950  24.649  25.525  1.00  0.00    -0.206 F 
ATOM     80  C   UNL A   1      42.621  22.339  25.780  1.00  0.00     0.059 A 
ATOM     81  C   UNL A   1      42.326  21.405  28.003  1.00  0.00     0.059 A 
ATOM     82  F   UNL A   1      42.345  22.823  29.871  1.00  0.00    -0.206 F 
ATOM     83  C   UNL A   1      42.417  21.243  26.621  1.00  0.00     0.060 A 
BRANCH  83  84
ATOM     84  S   UNL A   1      42.320  19.596  25.886  1.00  0.00     0.124 S 
ATOM     85  O   UNL A   1      43.332  19.680  24.839  1.00  0.00    -0.237 OA
ATOM     86  O   UNL A   1      42.645  18.737  27.021  1.00  0.00    -0.237 OA
ATOM     87  O   UNL A   1      40.938  19.514  25.424  1.00  0.00    -0.744 OA
ENDBRANCH  83  84
ENDBRANCH  51  76
BRANCH  63  88
ATOM     88  C   UNL A   1      47.932  27.088  30.880  1.00  0.00     0.058 A 
ATOM     89  C   UNL A   1      48.255  26.494  32.111  1.00  0.00     0.135 A 
ATOM     90  C   UNL A   1      48.968  27.267  29.948  1.00  0.00     0.135 A 
ATOM     91  F   UNL A   1      47.305  26.304  33.040  1.00  0.00    -0.206 F 
ATOM     92  C   UNL A   1      49.562  26.135  32.424  1.00  0.00     0.059 A 
ATOM     93  C   UNL A   1      50.277  26.884  30.229  1.00  0.00     0.059 A 
ATOM     94  F   UNL A   1      48.715  27.817  28.751  1.00  0.00    -0.206 F 
ATOM     95  C   UNL A   1      50.568  26.339  31.477  1.00  0.00     0.060 A 
BRANCH  95  96
ATOM     96  S   UNL A   1      52.260  25.872  31.898  1.00  0.00     0.124 S 
ATOM     97  O   UNL A   1      52.466  26.606  33.142  1.00  0.00    -0.237 OA
ATOM     98  O   UNL A   1      52.163  24.421  32.026  1.00  0.00    -0.237 OA
ATOM     99  O   UNL A   1      53.036  26.342  30.754  1.00  0.00    -0.744 OA
ENDBRANCH  95  96
ENDBRANCH  63  88
ENDBRANCH  37  38
ENDBRANCH  29  32
ENDBRANCH  27  28
ENDBRANCH  26  27
ENDBRANCH  25  26
ENDBRANCH   1  25
TORSDOF 19
ENDMDL
MODEL 3
REMARK VINA RESULT:     -10.5      4.120     10.327
REMARK SMILES O=C(C[C@@H]1CN(c2cc(C(F)(F)F)ccn2)CCO1)NCCCCCCNC(=O)c1ccc(-c2c3nc(c(-c4c(F)cc(S(=O)(=O)[O-])cc4F)c4ccc([nH]4)c(-c4c(F)cc(S(=O)(=O)[O-])cc4F)c4nc(c(-c5c(F)cc(S(=O)(=O)[O-])cc5F)c5ccc2[nH]5)C=C4)C=C3)cc1
REMARK SMILES IDX 23 1 22 2 21 3 20 4 1 5 2 6 3 8 4 9 5 10 19 11 6 12 18 13
REMARK SMILES IDX 17 14 7 15 8 16 16 17 9 18 15 19 14 20 10 21 11 22 12 23
REMARK SMILES IDX 13 24 24 25 25 26 26 27 27 28 28 29 29 31 30 32 31 33 95 34
REMARK SMILES IDX 32 35 94 36 33 37 34 38 35 39 88 40 36 41 93 42 87 43 89 44
REMARK SMILES IDX 37 45 92 46 86 47 85 48 38 50 72 51 51 52 71 53 52 54 55 55
REMARK SMILES IDX 70 56 90 57 53 58 54 59 69 61 91 62 56 63 39 64 40 65 49 66
REMARK SMILES IDX 41 67 42 68 48 69 50 70 43 71 44 72 45 73 46 74 47 75 73 76
REMARK SMILES IDX 74 77 83 78 75 79 76 80 82 81 84 82 77 83 78 84 79 85 80 86
REMARK SMILES IDX 81 87 57 88 58 89 67 90 59 91 60 92 66 93 68 94 61 95 62 96
REMARK SMILES IDX 63 97 64 98 65 99
REMARK H PARENT 20 7 27 30 89 49 55 60
REMARK Flexibility Score: inf
ROOT
ATOM      1  C   UNL A   1      31.749  30.576  26.402  1.00  0.00     0.002 C 
ENDROOT
BRANCH   1   2
ATOM      2  C   UNL A   1      31.608  32.073  26.717  1.00  0.00     0.021 C 
BRANCH   2   3
ATOM      3  C   UNL A   1      32.854  32.735  27.305  1.00  0.00     0.116 C 
BRANCH   3   4
ATOM      4  N   UNL A   1      32.525  33.985  27.942  1.00  0.00    -0.356 N 
ATOM      5  O   UNL A   1      34.635  34.889  28.123  1.00  0.00    -0.275 OA
ATOM      6  C   UNL A   1      33.426  34.947  28.321  1.00  0.00     0.222 C 
ATOM      7  H   UNL A   1      31.573  34.164  28.122  1.00  0.00     0.163 HD
BRANCH   6   8
ATOM      8  C   UNL A   1      32.794  36.052  29.138  1.00  0.00     0.133 C 
BRANCH   8   9
ATOM      9  C   UNL A   1      33.591  36.484  30.372  1.00  0.00     0.147 C 
ATOM     10  C   UNL A   1      33.910  35.243  31.237  1.00  0.00     0.150 C 
ATOM     11  O   UNL A   1      32.851  37.438  31.173  1.00  0.00    -0.374 OA
ATOM     12  N   UNL A   1      34.616  35.680  32.439  1.00  0.00    -0.352 N 
ATOM     13  C   UNL A   1      33.636  37.875  32.303  1.00  0.00     0.182 C 
ATOM     14  C   UNL A   1      33.931  36.692  33.237  1.00  0.00     0.146 C 
BRANCH  12  15
ATOM     15  C   UNL A   1      35.536  34.851  33.033  1.00  0.00     0.129 A 
ATOM     16  C   UNL A   1      36.658  34.480  32.301  1.00  0.00     0.060 A 
ATOM     17  N   UNL A   1      35.388  34.489  34.321  1.00  0.00    -0.239 NA
ATOM     18  C   UNL A   1      37.676  33.739  32.900  1.00  0.00     0.061 A 
ATOM     19  C   UNL A   1      36.349  33.722  34.878  1.00  0.00     0.114 A 
ATOM     20  C   UNL A   1      37.502  33.330  34.221  1.00  0.00     0.033 A 
BRANCH  18  21
ATOM     21  C   UNL A   1      38.934  33.427  32.144  1.00  0.00     0.416 C 
ATOM     22  F   UNL A   1      39.726  34.522  31.978  1.00  0.00    -0.166 F 
ATOM     23  F   UNL A   1      39.705  32.498  32.772  1.00  0.00    -0.166 F 
ATOM     24  F   UNL A   1      38.710  32.939  30.891  1.00  0.00    -0.166 F 
ENDBRANCH  18  21
ENDBRANCH  12  15
ENDBRANCH   8   9
ENDBRANCH   6   8
ENDBRANCH   3   4
ENDBRANCH   2   3
ENDBRANCH   1   2
BRANCH   1  25
ATOM     25  C   UNL A   1      33.182  30.055  26.260  1.00  0.00     0.002 C 
BRANCH  25  26
ATOM     26  C   UNL A   1      33.692  29.203  27.424  1.00  0.00     0.021 C 
BRANCH  26  27
ATOM     27  C   UNL A   1      35.144  29.445  27.827  1.00  0.00     0.116 C 
BRANCH  27  28
ATOM     28  N   UNL A   1      35.268  30.310  28.989  1.00  0.00    -0.352 N 
ATOM     29  C   UNL A   1      36.354  30.549  29.794  1.00  0.00     0.251 C 
ATOM     30  H   UNL A   1      34.450  30.798  29.237  1.00  0.00     0.163 HD
ATOM     31  O   UNL A   1      36.208  31.204  30.828  1.00  0.00    -0.269 OA
BRANCH  29  32
ATOM     32  C   UNL A   1      37.690  30.008  29.448  1.00  0.00     0.039 A 
ATOM     33  C   UNL A   1      38.042  29.905  28.100  1.00  0.00     0.014 A 
ATOM     34  C   UNL A   1      38.588  29.590  30.433  1.00  0.00     0.014 A 
ATOM     35  C   UNL A   1      39.313  29.447  27.745  1.00  0.00     0.010 A 
ATOM     36  C   UNL A   1      39.882  29.203  30.082  1.00  0.00     0.010 A 
ATOM     37  C   UNL A   1      40.260  29.128  28.734  1.00  0.00    -0.014 A 
BRANCH  37  38
ATOM     38  C   UNL A   1      41.650  28.756  28.359  1.00  0.00     0.031 A 
ATOM     39  C   UNL A   1      42.752  29.782  28.347  1.00  0.00     0.074 A 
ATOM     40  C   UNL A   1      41.914  27.486  27.987  1.00  0.00     0.049 A 
ATOM     41  N   UNL A   1      44.022  29.626  28.072  1.00  0.00    -0.248 NA
ATOM     42  C   UNL A   1      42.374  31.168  28.663  1.00  0.00     0.031 C 
ATOM     43  C   UNL A   1      40.922  26.411  27.897  1.00  0.00     0.029 A 
ATOM     44  N   UNL A   1      43.090  26.882  27.619  1.00  0.00    -0.354 N 
ATOM     45  C   UNL A   1      44.593  30.890  28.169  1.00  0.00     0.074 A 
ATOM     46  C   UNL A   1      43.520  31.809  28.479  1.00  0.00     0.031 C 
ATOM     47  C   UNL A   1      41.539  25.273  27.545  1.00  0.00     0.029 A 
ATOM     48  C   UNL A   1      42.959  25.540  27.346  1.00  0.00     0.049 A 
ATOM     49  H   UNL A   1      43.947  27.363  27.557  1.00  0.00     0.167 HD
ATOM     50  C   UNL A   1      45.894  31.247  28.034  1.00  0.00     0.037 A 
ATOM     51  C   UNL A   1      43.879  24.626  26.984  1.00  0.00     0.037 A 
ATOM     52  C   UNL A   1      46.960  30.323  27.738  1.00  0.00     0.049 A 
ATOM     53  C   UNL A   1      45.316  25.045  26.843  1.00  0.00     0.074 A 
ATOM     54  C   UNL A   1      48.319  30.573  27.658  1.00  0.00     0.029 A 
ATOM     55  N   UNL A   1      46.788  28.974  27.460  1.00  0.00    -0.354 N 
ATOM     56  N   UNL A   1      45.852  26.228  27.029  1.00  0.00    -0.248 NA
ATOM     57  C   UNL A   1      46.273  24.004  26.450  1.00  0.00     0.031 C 
ATOM     58  C   UNL A   1      48.962  29.390  27.274  1.00  0.00     0.029 A 
ATOM     59  C   UNL A   1      48.011  28.387  27.173  1.00  0.00     0.049 A 
ATOM     60  H   UNL A   1      45.924  28.503  27.466  1.00  0.00     0.167 HD
ATOM     61  C   UNL A   1      47.214  26.069  26.795  1.00  0.00     0.074 A 
ATOM     62  C   UNL A   1      47.419  24.669  26.477  1.00  0.00     0.031 C 
ATOM     63  C   UNL A   1      48.203  26.996  26.840  1.00  0.00     0.037 A 
BRANCH  50  64
ATOM     64  C   UNL A   1      46.236  32.707  28.194  1.00  0.00     0.058 A 
ATOM     65  C   UNL A   1      46.164  33.609  27.119  1.00  0.00     0.135 A 
ATOM     66  C   UNL A   1      46.618  33.216  29.446  1.00  0.00     0.135 A 
ATOM     67  F   UNL A   1      45.812  33.179  25.897  1.00  0.00    -0.206 F 
ATOM     68  C   UNL A   1      46.499  34.951  27.270  1.00  0.00     0.059 A 
ATOM     69  C   UNL A   1      46.929  34.561  29.627  1.00  0.00     0.059 A 
ATOM     70  F   UNL A   1      46.701  32.402  30.511  1.00  0.00    -0.206 F 
ATOM     71  C   UNL A   1      46.885  35.418  28.528  1.00  0.00     0.060 A 
BRANCH  71  72
ATOM     72  S   UNL A   1      47.332  37.157  28.704  1.00  0.00     0.124 S 
ATOM     73  O   UNL A   1      48.345  37.303  27.662  1.00  0.00    -0.237 OA
ATOM     74  O   UNL A   1      46.063  37.833  28.451  1.00  0.00    -0.237 OA
ATOM     75  O   UNL A   1      47.824  37.247  30.074  1.00  0.00    -0.744 OA
ENDBRANCH  71  72
ENDBRANCH  50  64
BRANCH  51  76
ATOM     76  C   UNL A   1      43.471  23.210  26.772  1.00  0.00     0.058 A 
ATOM     77  C   UNL A   1      43.418  22.663  25.481  1.00  0.00     0.135 A 
ATOM     78  C   UNL A   1      43.153  22.370  27.851  1.00  0.00     0.135 A 
ATOM     79  F   UNL A   1      43.705  23.429  24.417  1.00  0.00    -0.206 F 
ATOM     80  C   UNL A   1      43.058  21.338  25.265  1.00  0.00     0.059 A 
ATOM     81  C   UNL A   1      42.815  21.035  27.662  1.00  0.00     0.059 A 
ATOM     82  F   UNL A   1      43.203  22.841  29.106  1.00  0.00    -0.206 F 
ATOM     83  C   UNL A   1      42.764  20.529  26.364  1.00  0.00     0.060 A 
BRANCH  83  84
ATOM     84  S   UNL A   1      42.362  18.792  26.076  1.00  0.00     0.124 S 
ATOM     85  O   UNL A   1      40.966  18.877  25.664  1.00  0.00    -0.237 OA
ATOM     86  O   UNL A   1      43.315  18.428  25.031  1.00  0.00    -0.237 OA
ATOM     87  O   UNL A   1      42.602  18.171  27.375  1.00  0.00    -0.744 OA
ENDBRANCH  83  84
ENDBRANCH  51  76
BRANCH  63  88
ATOM     88  C   UNL A   1      49.602  26.519  26.550  1.00  0.00     0.058 A 
ATOM     89  C   UNL A   1      50.142  26.556  25.255  1.00  0.00     0.135 A 
ATOM     90  C   UNL A   1      50.416  26.026  27.584  1.00  0.00     0.135 A 
ATOM     91  F   UNL A   1      49.405  27.012  24.229  1.00  0.00    -0.206 F 
ATOM     92  C   UNL A   1      51.421  26.080  24.985  1.00  0.00     0.059 A 
ATOM     93  C   UNL A   1      51.711  25.576  27.342  1.00  0.00     0.059 A 
ATOM     94  F   UNL A   1      49.958  25.979  28.844  1.00  0.00    -0.206 F 
ATOM     95  C   UNL A   1      52.197  25.587  26.036  1.00  0.00     0.060 A 
BRANCH  95  96
ATOM     96  S   UNL A   1      53.854  24.968  25.673  1.00  0.00     0.124 S 
ATOM     97  O   UNL A   1      54.228  25.789  24.527  1.00  0.00    -0.237 OA
ATOM     98  O   UNL A   1      54.572  25.247  26.914  1.00  0.00    -0.237 OA
ATOM     99  O   UNL A   1      53.633  23.554  25.390  1.00  0.00    -0.744 OA
ENDBRANCH  95  96
ENDBRANCH  63  88
ENDBRANCH  37  38
ENDBRANCH  29  32
ENDBRANCH  27  28
ENDBRANCH  26  27
ENDBRANCH  25  26
ENDBRANCH   1  25
TORSDOF 19
ENDMDL
