MODEL 1
REMARK VINA RESULT:     -12.9      0.000      0.000
REMARK SMILES Cc1ccc([C@H](C)NC(=O)[C@H]2[C@@H]3CC[C@@H](C3)[C@@H]2C(=O)NCCCCCCNC(=O)c2ccc(-c3c4nc(c(-c5c(F)cc(S(=O)(=O)[O-])cc5F)c5ccc([nH]5)c(-c5c(F)cc(S(=O)(=O)[O-])cc5F)c5nc(c(-c6c(F)cc(S(=O)(=O)[O-])cc6F)c6ccc3[nH]6)C=C5)C=C4)cc2)cc1
REMARK SMILES IDX 23 1 22 2 21 3 20 4 18 5 19 6 17 8 11 9 12 10 13 11 16 12
REMARK SMILES IDX 15 13 14 14 9 15 8 16 10 18 6 19 7 20 5 21 1 22 2 23 3 24
REMARK SMILES IDX 97 25 4 26 96 27 24 28 25 29 26 30 27 31 28 32 29 34 30 35
REMARK SMILES IDX 31 36 95 37 32 38 94 39 33 40 34 41 35 42 88 43 36 44 93 45
REMARK SMILES IDX 87 46 89 47 37 48 92 49 86 50 85 51 38 53 72 54 51 55 71 56
REMARK SMILES IDX 52 57 55 58 70 59 90 60 53 61 54 62 69 64 91 65 56 66 39 67
REMARK SMILES IDX 40 68 49 69 41 70 42 71 48 72 50 73 43 74 44 75 45 76 46 77
REMARK SMILES IDX 47 78 73 79 74 80 83 81 75 82 76 83 82 84 84 85 77 86 78 87
REMARK SMILES IDX 79 88 80 89 81 90 57 91 58 92 67 93 59 94 60 95 66 96 68 97
REMARK SMILES IDX 61 98 62 99 63 100 64 101 65 102
REMARK H PARENT 20 7 8 17 27 33 89 52 55 63
REMARK Flexibility Score: inf
ROOT
ATOM      1  C   UNL A   1      33.200  28.631  27.535  1.00  0.00     0.002 C 
ENDROOT
BRANCH   1   2
ATOM      2  C   UNL A   1      33.966  28.108  26.308  1.00  0.00     0.021 C 
BRANCH   2   3
ATOM      3  C   UNL A   1      33.848  26.599  26.087  1.00  0.00     0.116 C 
BRANCH   3   4
ATOM      4  N   UNL A   1      32.523  26.119  26.427  1.00  0.00    -0.356 N 
ATOM      5  C   UNL A   1      31.419  25.865  25.683  1.00  0.00     0.224 C 
ATOM      6  O   UNL A   1      30.442  25.410  26.292  1.00  0.00    -0.275 OA
ATOM      7  H   UNL A   1      32.401  25.942  27.389  1.00  0.00     0.163 HD
BRANCH   5   8
ATOM      8  C   UNL A   1      31.401  25.949  24.156  1.00  0.00     0.094 C 
ATOM      9  C   UNL A   1      32.659  26.368  23.386  1.00  0.00     0.094 C 
ATOM     10  C   UNL A   1      32.183  27.548  22.497  1.00  0.00     0.002 C 
ATOM     11  C   UNL A   1      31.998  28.783  23.399  1.00  0.00     0.005 C 
ATOM     12  C   UNL A   1      30.731  27.201  22.192  1.00  0.00     0.009 C 
ATOM     13  C   UNL A   1      30.371  27.020  23.667  1.00  0.00     0.002 C 
ATOM     14  C   UNL A   1      30.740  28.423  24.205  1.00  0.00     0.005 C 
BRANCH   9  15
ATOM     15  C   UNL A   1      33.426  25.325  22.568  1.00  0.00     0.224 C 
ATOM     16  N   UNL A   1      33.910  24.137  22.992  1.00  0.00    -0.349 N 
ATOM     17  H   UNL A   1      34.385  23.661  22.272  1.00  0.00     0.164 HD
ATOM     18  O   UNL A   1      33.613  25.556  21.364  1.00  0.00    -0.275 OA
BRANCH  16  19
ATOM     19  C   UNL A   1      33.911  23.379  24.237  1.00  0.00     0.109 C 
ATOM     20  C   UNL A   1      33.039  22.130  24.079  1.00  0.00     0.036 C 
BRANCH  19  21
ATOM     21  C   UNL A   1      35.318  23.004  24.674  1.00  0.00    -0.026 A 
ATOM     22  C   UNL A   1      39.249  21.971  26.169  1.00  0.00     0.044 C 
ATOM     23  C   UNL A   1      37.893  22.322  25.634  1.00  0.00    -0.051 A 
ATOM     24  C   UNL A   1      37.395  23.617  25.798  1.00  0.00     0.004 A 
ATOM     25  C   UNL A   1      37.108  21.376  24.967  1.00  0.00     0.004 A 
ATOM     26  C   UNL A   1      36.122  23.951  25.331  1.00  0.00     0.006 A 
ATOM     27  C   UNL A   1      35.837  21.714  24.489  1.00  0.00     0.006 A 
ENDBRANCH  19  21
ENDBRANCH  16  19
ENDBRANCH   9  15
ENDBRANCH   5   8
ENDBRANCH   3   4
ENDBRANCH   2   3
ENDBRANCH   1   2
BRANCH   1  28
ATOM     28  C   UNL A   1      32.018  29.576  27.249  1.00  0.00     0.002 C 
BRANCH  28  29
ATOM     29  C   UNL A   1      32.367  31.060  27.111  1.00  0.00     0.021 C 
BRANCH  29  30
ATOM     30  C   UNL A   1      33.864  31.337  27.144  1.00  0.00     0.116 C 
BRANCH  30  31
ATOM     31  N   UNL A   1      34.287  32.185  28.255  1.00  0.00    -0.352 N 
ATOM     32  C   UNL A   1      34.921  31.763  29.397  1.00  0.00     0.251 C 
ATOM     33  H   UNL A   1      34.100  33.149  28.178  1.00  0.00     0.163 HD
ATOM     34  O   UNL A   1      34.785  32.309  30.478  1.00  0.00    -0.269 OA
BRANCH  32  35
ATOM     35  C   UNL A   1      35.944  30.704  29.217  1.00  0.00     0.039 A 
ATOM     36  C   UNL A   1      36.179  29.838  30.294  1.00  0.00     0.014 A 
ATOM     37  C   UNL A   1      36.810  30.735  28.124  1.00  0.00     0.014 A 
ATOM     38  C   UNL A   1      37.359  29.098  30.340  1.00  0.00     0.010 A 
ATOM     39  C   UNL A   1      38.016  30.065  28.216  1.00  0.00     0.010 A 
ATOM     40  C   UNL A   1      38.313  29.270  29.334  1.00  0.00    -0.014 A 
BRANCH  40  41
ATOM     41  C   UNL A   1      39.684  28.761  29.411  1.00  0.00     0.031 A 
ATOM     42  C   UNL A   1      40.042  27.421  28.874  1.00  0.00     0.074 A 
ATOM     43  C   UNL A   1      40.684  29.540  29.888  1.00  0.00     0.049 A 
ATOM     44  N   UNL A   1      41.068  26.733  29.265  1.00  0.00    -0.248 NA
ATOM     45  C   UNL A   1      39.247  26.729  27.866  1.00  0.00     0.031 C 
ATOM     46  C   UNL A   1      42.112  29.327  29.682  1.00  0.00     0.029 A 
ATOM     47  N   UNL A   1      40.633  30.571  30.828  1.00  0.00    -0.354 N 
ATOM     48  C   UNL A   1      41.233  25.682  28.388  1.00  0.00     0.074 A 
ATOM     49  C   UNL A   1      40.036  25.688  27.576  1.00  0.00     0.031 C 
ATOM     50  C   UNL A   1      42.786  29.945  30.661  1.00  0.00     0.029 A 
ATOM     51  C   UNL A   1      41.807  30.472  31.594  1.00  0.00     0.049 A 
ATOM     52  H   UNL A   1      39.915  31.235  30.936  1.00  0.00     0.167 HD
ATOM     53  C   UNL A   1      42.417  25.004  28.342  1.00  0.00     0.037 A 
ATOM     54  C   UNL A   1      41.874  30.362  32.951  1.00  0.00     0.037 A 
ATOM     55  C   UNL A   1      43.387  25.545  29.289  1.00  0.00     0.049 A 
ATOM     56  C   UNL A   1      42.707  29.195  33.427  1.00  0.00     0.074 A 
ATOM     57  C   UNL A   1      44.434  26.438  29.137  1.00  0.00     0.029 A 
ATOM     58  N   UNL A   1      43.216  25.364  30.654  1.00  0.00    -0.354 N 
ATOM     59  N   UNL A   1      43.078  28.217  32.653  1.00  0.00    -0.248 NA
ATOM     60  C   UNL A   1      43.140  28.999  34.807  1.00  0.00     0.031 C 
ATOM     61  C   UNL A   1      44.901  26.796  30.420  1.00  0.00     0.029 A 
ATOM     62  C   UNL A   1      44.131  26.126  31.354  1.00  0.00     0.049 A 
ATOM     63  H   UNL A   1      42.540  24.777  31.064  1.00  0.00     0.167 HD
ATOM     64  C   UNL A   1      43.739  27.264  33.387  1.00  0.00     0.074 A 
ATOM     65  C   UNL A   1      43.778  27.816  34.727  1.00  0.00     0.031 C 
ATOM     66  C   UNL A   1      44.171  26.104  32.809  1.00  0.00     0.037 A 
BRANCH  53  67
ATOM     67  C   UNL A   1      42.812  24.051  27.227  1.00  0.00     0.058 A 
ATOM     68  C   UNL A   1      42.940  22.663  27.465  1.00  0.00     0.135 A 
ATOM     69  C   UNL A   1      43.118  24.446  25.910  1.00  0.00     0.135 A 
ATOM     70  F   UNL A   1      42.562  22.106  28.624  1.00  0.00    -0.206 F 
ATOM     71  C   UNL A   1      43.469  21.772  26.532  1.00  0.00     0.059 A 
ATOM     72  C   UNL A   1      43.699  23.583  24.971  1.00  0.00     0.059 A 
ATOM     73  F   UNL A   1      42.824  25.677  25.471  1.00  0.00    -0.206 F 
ATOM     74  C   UNL A   1      43.892  22.248  25.301  1.00  0.00     0.060 A 
BRANCH  74  75
ATOM     75  S   UNL A   1      44.698  21.106  24.164  1.00  0.00     0.124 S 
ATOM     76  O   UNL A   1      43.977  19.862  24.414  1.00  0.00    -0.237 OA
ATOM     77  O   UNL A   1      44.449  21.736  22.872  1.00  0.00    -0.237 OA
ATOM     78  O   UNL A   1      46.090  21.112  24.608  1.00  0.00    -0.744 OA
ENDBRANCH  74  75
ENDBRANCH  53  67
BRANCH  54  79
ATOM     79  C   UNL A   1      40.706  30.923  33.671  1.00  0.00     0.058 A 
ATOM     80  C   UNL A   1      40.741  32.286  34.014  1.00  0.00     0.135 A 
ATOM     81  C   UNL A   1      39.454  30.297  33.587  1.00  0.00     0.135 A 
ATOM     82  F   UNL A   1      41.921  32.916  34.140  1.00  0.00    -0.206 F 
ATOM     83  C   UNL A   1      39.580  33.045  34.078  1.00  0.00     0.059 A 
ATOM     84  C   UNL A   1      38.277  31.040  33.653  1.00  0.00     0.059 A 
ATOM     85  F   UNL A   1      39.368  29.001  33.258  1.00  0.00    -0.206 F 
ATOM     86  C   UNL A   1      38.361  32.424  33.816  1.00  0.00     0.060 A 
BRANCH  86  87
ATOM     87  S   UNL A   1      36.922  33.476  33.500  1.00  0.00     0.124 S 
ATOM     88  O   UNL A   1      37.180  34.618  34.368  1.00  0.00    -0.237 OA
ATOM     89  O   UNL A   1      37.052  33.723  32.066  1.00  0.00    -0.237 OA
ATOM     90  O   UNL A   1      35.801  32.626  33.887  1.00  0.00    -0.744 OA
ENDBRANCH  86  87
ENDBRANCH  54  79
BRANCH  66  91
ATOM     91  C   UNL A   1      44.747  24.884  33.497  1.00  0.00     0.058 A 
ATOM     92  C   UNL A   1      46.119  24.595  33.590  1.00  0.00     0.135 A 
ATOM     93  C   UNL A   1      43.898  24.013  34.230  1.00  0.00     0.135 A 
ATOM     94  F   UNL A   1      47.040  25.393  33.035  1.00  0.00    -0.206 F 
ATOM     95  C   UNL A   1      46.609  23.497  34.305  1.00  0.00     0.059 A 
ATOM     96  C   UNL A   1      44.370  22.946  34.993  1.00  0.00     0.059 A 
ATOM     97  F   UNL A   1      42.567  24.178  34.246  1.00  0.00    -0.206 F 
ATOM     98  C   UNL A   1      45.729  22.680  35.008  1.00  0.00     0.060 A 
BRANCH  98  99
ATOM     99  S   UNL A   1      46.352  21.313  36.003  1.00  0.00     0.124 S 
ATOM    100  O   UNL A   1      46.034  21.764  37.354  1.00  0.00    -0.237 OA
ATOM    101  O   UNL A   1      45.574  20.175  35.522  1.00  0.00    -0.237 OA
ATOM    102  O   UNL A   1      47.771  21.278  35.663  1.00  0.00    -0.744 OA
ENDBRANCH  98  99
ENDBRANCH  66  91
ENDBRANCH  40  41
ENDBRANCH  32  35
ENDBRANCH  30  31
ENDBRANCH  29  30
ENDBRANCH  28  29
ENDBRANCH   1  28
TORSDOF 19
ENDMDL
MODEL 2
REMARK VINA RESULT:     -12.8      2.078      4.188
REMARK SMILES Cc1ccc([C@H](C)NC(=O)[C@H]2[C@@H]3CC[C@@H](C3)[C@@H]2C(=O)NCCCCCCNC(=O)c2ccc(-c3c4nc(c(-c5c(F)cc(S(=O)(=O)[O-])cc5F)c5ccc([nH]5)c(-c5c(F)cc(S(=O)(=O)[O-])cc5F)c5nc(c(-c6c(F)cc(S(=O)(=O)[O-])cc6F)c6ccc3[nH]6)C=C5)C=C4)cc2)cc1
REMARK SMILES IDX 23 1 22 2 21 3 20 4 18 5 19 6 17 8 11 9 12 10 13 11 16 12
REMARK SMILES IDX 15 13 14 14 9 15 8 16 10 18 6 19 7 20 5 21 1 22 2 23 3 24
REMARK SMILES IDX 97 25 4 26 96 27 24 28 25 29 26 30 27 31 28 32 29 34 30 35
REMARK SMILES IDX 31 36 95 37 32 38 94 39 33 40 34 41 35 42 88 43 36 44 93 45
REMARK SMILES IDX 87 46 89 47 37 48 92 49 86 50 85 51 38 53 72 54 51 55 71 56
REMARK SMILES IDX 52 57 55 58 70 59 90 60 53 61 54 62 69 64 91 65 56 66 39 67
REMARK SMILES IDX 40 68 49 69 41 70 42 71 48 72 50 73 43 74 44 75 45 76 46 77
REMARK SMILES IDX 47 78 73 79 74 80 83 81 75 82 76 83 82 84 84 85 77 86 78 87
REMARK SMILES IDX 79 88 80 89 81 90 57 91 58 92 67 93 59 94 60 95 66 96 68 97
REMARK SMILES IDX 61 98 62 99 63 100 64 101 65 102
REMARK H PARENT 20 7 8 17 27 33 89 52 55 63
REMARK Flexibility Score: inf
ROOT
ATOM      1  C   UNL A   1      31.056  26.994  26.893  1.00  0.00     0.002 C 
ENDROOT
BRANCH   1   2
ATOM      2  C   UNL A   1      30.195  25.986  26.115  1.00  0.00     0.021 C 
BRANCH   2   3
ATOM      3  C   UNL A   1      30.506  24.521  26.422  1.00  0.00     0.116 C 
BRANCH   3   4
ATOM      4  N   UNL A   1      30.348  23.690  25.244  1.00  0.00    -0.356 N 
ATOM      5  C   UNL A   1      31.015  23.632  24.065  1.00  0.00     0.224 C 
ATOM      6  O   UNL A   1      30.647  22.757  23.272  1.00  0.00    -0.275 OA
ATOM      7  H   UNL A   1      29.612  23.040  25.314  1.00  0.00     0.163 HD
BRANCH   5   8
ATOM      8  C   UNL A   1      32.268  24.459  23.770  1.00  0.00     0.094 C 
ATOM      9  C   UNL A   1      33.072  24.220  22.486  1.00  0.00     0.094 C 
ATOM     10  C   UNL A   1      34.521  23.975  22.987  1.00  0.00     0.002 C 
ATOM     11  C   UNL A   1      34.581  22.565  23.606  1.00  0.00     0.005 C 
ATOM     12  C   UNL A   1      34.615  24.837  24.240  1.00  0.00     0.009 C 
ATOM     13  C   UNL A   1      33.361  24.226  24.865  1.00  0.00     0.002 C 
ATOM     14  C   UNL A   1      33.785  22.738  24.909  1.00  0.00     0.005 C 
BRANCH   9  15
ATOM     15  C   UNL A   1      33.036  25.265  21.368  1.00  0.00     0.224 C 
ATOM     16  N   UNL A   1      32.871  26.600  21.490  1.00  0.00    -0.349 N 
ATOM     17  H   UNL A   1      32.864  27.048  20.613  1.00  0.00     0.164 HD
ATOM     18  O   UNL A   1      33.205  24.873  20.203  1.00  0.00    -0.275 OA
BRANCH  16  19
ATOM     19  C   UNL A   1      32.702  27.549  22.585  1.00  0.00     0.109 C 
ATOM     20  C   UNL A   1      33.764  28.648  22.481  1.00  0.00     0.036 C 
BRANCH  19  21
ATOM     21  C   UNL A   1      31.305  28.147  22.609  1.00  0.00    -0.026 A 
ATOM     22  C   UNL A   1      27.329  29.829  22.941  1.00  0.00     0.044 C 
ATOM     23  C   UNL A   1      28.706  29.252  22.807  1.00  0.00    -0.051 A 
ATOM     24  C   UNL A   1      28.940  27.922  23.163  1.00  0.00     0.004 A 
ATOM     25  C   UNL A   1      29.772  30.021  22.329  1.00  0.00     0.004 A 
ATOM     26  C   UNL A   1      30.224  27.379  23.072  1.00  0.00     0.006 A 
ATOM     27  C   UNL A   1      31.057  29.473  22.227  1.00  0.00     0.006 A 
ENDBRANCH  19  21
ENDBRANCH  16  19
ENDBRANCH   9  15
ENDBRANCH   5   8
ENDBRANCH   3   4
ENDBRANCH   2   3
ENDBRANCH   1   2
BRANCH   1  28
ATOM     28  C   UNL A   1      32.123  27.750  26.080  1.00  0.00     0.002 C 
BRANCH  28  29
ATOM     29  C   UNL A   1      33.566  27.604  26.573  1.00  0.00     0.021 C 
BRANCH  29  30
ATOM     30  C   UNL A   1      34.476  28.743  26.133  1.00  0.00     0.116 C 
BRANCH  30  31
ATOM     31  N   UNL A   1      33.825  30.049  26.112  1.00  0.00    -0.352 N 
ATOM     32  C   UNL A   1      33.710  30.912  27.173  1.00  0.00     0.251 C 
ATOM     33  H   UNL A   1      33.432  30.339  25.257  1.00  0.00     0.163 HD
ATOM     34  O   UNL A   1      32.771  31.676  27.316  1.00  0.00    -0.269 OA
BRANCH  32  35
ATOM     35  C   UNL A   1      34.893  31.008  28.063  1.00  0.00     0.039 A 
ATOM     36  C   UNL A   1      35.787  32.064  27.844  1.00  0.00     0.014 A 
ATOM     37  C   UNL A   1      35.231  29.949  28.905  1.00  0.00     0.014 A 
ATOM     38  C   UNL A   1      37.079  31.994  28.363  1.00  0.00     0.010 A 
ATOM     39  C   UNL A   1      36.538  29.844  29.344  1.00  0.00     0.010 A 
ATOM     40  C   UNL A   1      37.477  30.845  29.051  1.00  0.00    -0.014 A 
BRANCH  40  41
ATOM     41  C   UNL A   1      38.866  30.543  29.403  1.00  0.00     0.031 A 
ATOM     42  C   UNL A   1      39.552  29.334  28.873  1.00  0.00     0.074 A 
ATOM     43  C   UNL A   1      39.594  31.411  30.144  1.00  0.00     0.049 A 
ATOM     44  N   UNL A   1      40.573  28.772  29.440  1.00  0.00    -0.248 NA
ATOM     45  C   UNL A   1      39.121  28.637  27.667  1.00  0.00     0.031 C 
ATOM     46  C   UNL A   1      41.049  31.437  30.254  1.00  0.00     0.029 A 
ATOM     47  N   UNL A   1      39.170  32.320  31.115  1.00  0.00    -0.354 N 
ATOM     48  C   UNL A   1      41.097  27.854  28.555  1.00  0.00     0.074 A 
ATOM     49  C   UNL A   1      40.117  27.763  27.495  1.00  0.00     0.031 C 
ATOM     50  C   UNL A   1      41.384  32.046  31.400  1.00  0.00     0.029 A 
ATOM     51  C   UNL A   1      40.153  32.322  32.119  1.00  0.00     0.049 A 
ATOM     52  H   UNL A   1      38.343  32.854  31.101  1.00  0.00     0.167 HD
ATOM     53  C   UNL A   1      42.361  27.370  28.734  1.00  0.00     0.037 A 
ATOM     54  C   UNL A   1      39.947  32.085  33.446  1.00  0.00     0.037 A 
ATOM     55  C   UNL A   1      43.000  27.950  29.911  1.00  0.00     0.049 A 
ATOM     56  C   UNL A   1      40.845  31.014  34.020  1.00  0.00     0.074 A 
ATOM     57  C   UNL A   1      43.889  29.002  30.060  1.00  0.00     0.029 A 
ATOM     58  N   UNL A   1      42.576  27.607  31.186  1.00  0.00    -0.354 N 
ATOM     59  N   UNL A   1      41.533  30.187  33.287  1.00  0.00    -0.248 NA
ATOM     60  C   UNL A   1      41.000  30.745  35.446  1.00  0.00     0.031 C 
ATOM     61  C   UNL A   1      44.004  29.293  31.437  1.00  0.00     0.029 A 
ATOM     62  C   UNL A   1      43.177  28.423  32.125  1.00  0.00     0.049 A 
ATOM     63  H   UNL A   1      41.937  26.886  31.392  1.00  0.00     0.167 HD
ATOM     64  C   UNL A   1      42.174  29.274  34.087  1.00  0.00     0.074 A 
ATOM     65  C   UNL A   1      41.832  29.685  35.435  1.00  0.00     0.031 C 
ATOM     66  C   UNL A   1      42.910  28.258  33.546  1.00  0.00     0.037 A 
BRANCH  53  67
ATOM     67  C   UNL A   1      43.141  26.607  27.677  1.00  0.00     0.058 A 
ATOM     68  C   UNL A   1      43.083  25.195  27.606  1.00  0.00     0.135 A 
ATOM     69  C   UNL A   1      43.995  27.202  26.730  1.00  0.00     0.135 A 
ATOM     70  F   UNL A   1      42.222  24.484  28.346  1.00  0.00    -0.206 F 
ATOM     71  C   UNL A   1      43.910  24.437  26.779  1.00  0.00     0.059 A 
ATOM     72  C   UNL A   1      44.873  26.465  25.925  1.00  0.00     0.059 A 
ATOM     73  F   UNL A   1      43.979  28.526  26.519  1.00  0.00    -0.206 F 
ATOM     74  C   UNL A   1      44.839  25.078  25.973  1.00  0.00     0.060 A 
BRANCH  74  75
ATOM     75  S   UNL A   1      45.989  24.075  25.016  1.00  0.00     0.124 S 
ATOM     76  O   UNL A   1      46.880  25.084  24.451  1.00  0.00    -0.237 OA
ATOM     77  O   UNL A   1      46.572  23.217  26.041  1.00  0.00    -0.237 OA
ATOM     78  O   UNL A   1      45.128  23.402  24.048  1.00  0.00    -0.744 OA
ENDBRANCH  74  75
ENDBRANCH  53  67
BRANCH  54  79
ATOM     79  C   UNL A   1      38.574  32.386  33.917  1.00  0.00     0.058 A 
ATOM     80  C   UNL A   1      38.288  33.710  34.293  1.00  0.00     0.135 A 
ATOM     81  C   UNL A   1      37.503  31.557  33.556  1.00  0.00     0.135 A 
ATOM     82  F   UNL A   1      39.281  34.527  34.680  1.00  0.00    -0.206 F 
ATOM     83  C   UNL A   1      37.018  34.249  34.130  1.00  0.00     0.059 A 
ATOM     84  C   UNL A   1      36.220  32.076  33.391  1.00  0.00     0.059 A 
ATOM     85  F   UNL A   1      37.725  30.289  33.185  1.00  0.00    -0.206 F 
ATOM     86  C   UNL A   1      36.013  33.441  33.603  1.00  0.00     0.060 A 
BRANCH  86  87
ATOM     87  S   UNL A   1      34.499  34.242  33.017  1.00  0.00     0.124 S 
ATOM     88  O   UNL A   1      34.401  35.397  33.901  1.00  0.00    -0.237 OA
ATOM     89  O   UNL A   1      34.843  34.533  31.626  1.00  0.00    -0.237 OA
ATOM     90  O   UNL A   1      33.486  33.211  33.205  1.00  0.00    -0.744 OA
ENDBRANCH  86  87
ENDBRANCH  54  79
BRANCH  66  91
ATOM     91  C   UNL A   1      43.524  27.075  34.265  1.00  0.00     0.058 A 
ATOM     92  C   UNL A   1      42.793  26.007  34.812  1.00  0.00     0.135 A 
ATOM     93  C   UNL A   1      44.936  26.918  34.300  1.00  0.00     0.135 A 
ATOM     94  F   UNL A   1      41.455  25.975  34.753  1.00  0.00    -0.206 F 
ATOM     95  C   UNL A   1      43.409  24.896  35.398  1.00  0.00     0.059 A 
ATOM     96  C   UNL A   1      45.567  25.794  34.830  1.00  0.00     0.059 A 
ATOM     97  F   UNL A   1      45.759  27.851  33.800  1.00  0.00    -0.206 F 
ATOM     98  C   UNL A   1      44.796  24.794  35.399  1.00  0.00     0.060 A 
BRANCH  98  99
ATOM     99  S   UNL A   1      45.602  23.330  36.072  1.00  0.00     0.124 S 
ATOM    100  O   UNL A   1      46.905  23.385  35.418  1.00  0.00    -0.237 OA
ATOM    101  O   UNL A   1      45.610  23.592  37.509  1.00  0.00    -0.237 OA
ATOM    102  O   UNL A   1      44.723  22.246  35.648  1.00  0.00    -0.744 OA
ENDBRANCH  98  99
ENDBRANCH  66  91
ENDBRANCH  40  41
ENDBRANCH  32  35
ENDBRANCH  30  31
ENDBRANCH  29  30
ENDBRANCH  28  29
ENDBRANCH   1  28
TORSDOF 19
ENDMDL
MODEL 3
REMARK VINA RESULT:     -12.8      1.543      3.829
REMARK SMILES Cc1ccc([C@H](C)NC(=O)[C@H]2[C@@H]3CC[C@@H](C3)[C@@H]2C(=O)NCCCCCCNC(=O)c2ccc(-c3c4nc(c(-c5c(F)cc(S(=O)(=O)[O-])cc5F)c5ccc([nH]5)c(-c5c(F)cc(S(=O)(=O)[O-])cc5F)c5nc(c(-c6c(F)cc(S(=O)(=O)[O-])cc6F)c6ccc3[nH]6)C=C5)C=C4)cc2)cc1
REMARK SMILES IDX 23 1 22 2 21 3 20 4 18 5 19 6 17 8 11 9 12 10 13 11 16 12
REMARK SMILES IDX 15 13 14 14 9 15 8 16 10 18 6 19 7 20 5 21 1 22 2 23 3 24
REMARK SMILES IDX 97 25 4 26 96 27 24 28 25 29 26 30 27 31 28 32 29 34 30 35
REMARK SMILES IDX 31 36 95 37 32 38 94 39 33 40 34 41 35 42 88 43 36 44 93 45
REMARK SMILES IDX 87 46 89 47 37 48 92 49 86 50 85 51 38 53 72 54 51 55 71 56
REMARK SMILES IDX 52 57 55 58 70 59 90 60 53 61 54 62 69 64 91 65 56 66 39 67
REMARK SMILES IDX 40 68 49 69 41 70 42 71 48 72 50 73 43 74 44 75 45 76 46 77
REMARK SMILES IDX 47 78 73 79 74 80 83 81 75 82 76 83 82 84 84 85 77 86 78 87
REMARK SMILES IDX 79 88 80 89 81 90 57 91 58 92 67 93 59 94 60 95 66 96 68 97
REMARK SMILES IDX 61 98 62 99 63 100 64 101 65 102
REMARK H PARENT 20 7 8 17 27 33 89 52 55 63
REMARK Flexibility Score: inf
ROOT
ATOM      1  C   UNL A   1      32.736  28.467  25.496  1.00  0.00     0.002 C 
ENDROOT
BRANCH   1   2
ATOM      2  C   UNL A   1      33.728  27.367  25.084  1.00  0.00     0.021 C 
BRANCH   2   3
ATOM      3  C   UNL A   1      33.554  26.047  25.836  1.00  0.00     0.116 C 
BRANCH   3   4
ATOM      4  N   UNL A   1      34.671  25.154  25.598  1.00  0.00    -0.356 N 
ATOM      5  C   UNL A   1      34.863  24.134  24.725  1.00  0.00     0.224 C 
ATOM      6  O   UNL A   1      35.975  23.594  24.752  1.00  0.00    -0.275 OA
ATOM      7  H   UNL A   1      35.444  25.321  26.186  1.00  0.00     0.163 HD
BRANCH   5   8
ATOM      8  C   UNL A   1      33.856  23.766  23.634  1.00  0.00     0.094 C 
ATOM      9  C   UNL A   1      32.433  24.338  23.665  1.00  0.00     0.094 C 
ATOM     10  C   UNL A   1      31.520  23.084  23.586  1.00  0.00     0.002 C 
ATOM     11  C   UNL A   1      31.556  22.381  24.956  1.00  0.00     0.005 C 
ATOM     12  C   UNL A   1      32.331  22.106  22.745  1.00  0.00     0.009 C 
ATOM     13  C   UNL A   1      33.569  22.229  23.633  1.00  0.00     0.002 C 
ATOM     14  C   UNL A   1      32.970  21.782  24.989  1.00  0.00     0.005 C 
BRANCH   9  15
ATOM     15  C   UNL A   1      32.022  25.395  22.636  1.00  0.00     0.224 C 
ATOM     16  N   UNL A   1      30.914  26.168  22.644  1.00  0.00    -0.349 N 
ATOM     17  H   UNL A   1      30.874  26.755  21.854  1.00  0.00     0.164 HD
ATOM     18  O   UNL A   1      32.792  25.611  21.688  1.00  0.00    -0.275 OA
BRANCH  16  19
ATOM     19  C   UNL A   1      29.764  26.359  23.520  1.00  0.00     0.109 C 
ATOM     20  C   UNL A   1      30.154  26.022  24.962  1.00  0.00     0.036 C 
BRANCH  19  21
ATOM     21  C   UNL A   1      29.204  27.769  23.426  1.00  0.00    -0.026 A 
ATOM     22  C   UNL A   1      27.739  31.814  22.932  1.00  0.00     0.044 C 
ATOM     23  C   UNL A   1      28.233  30.410  23.118  1.00  0.00    -0.051 A 
ATOM     24  C   UNL A   1      29.596  30.174  23.313  1.00  0.00     0.004 A 
ATOM     25  C   UNL A   1      27.355  29.322  23.102  1.00  0.00     0.004 A 
ATOM     26  C   UNL A   1      30.076  28.871  23.458  1.00  0.00     0.006 A 
ATOM     27  C   UNL A   1      27.834  28.017  23.258  1.00  0.00     0.006 A 
ENDBRANCH  19  21
ENDBRANCH  16  19
ENDBRANCH   9  15
ENDBRANCH   5   8
ENDBRANCH   3   4
ENDBRANCH   2   3
ENDBRANCH   1   2
BRANCH   1  28
ATOM     28  C   UNL A   1      32.639  28.769  27.003  1.00  0.00     0.002 C 
BRANCH  28  29
ATOM     29  C   UNL A   1      33.074  30.174  27.432  1.00  0.00     0.021 C 
BRANCH  29  30
ATOM     30  C   UNL A   1      34.517  30.499  27.071  1.00  0.00     0.116 C 
BRANCH  30  31
ATOM     31  N   UNL A   1      35.138  31.490  27.945  1.00  0.00    -0.352 N 
ATOM     32  C   UNL A   1      35.904  31.223  29.052  1.00  0.00     0.251 C 
ATOM     33  H   UNL A   1      34.995  32.437  27.719  1.00  0.00     0.163 HD
ATOM     34  O   UNL A   1      35.954  31.956  30.025  1.00  0.00    -0.269 OA
BRANCH  32  35
ATOM     35  C   UNL A   1      36.832  30.071  28.937  1.00  0.00     0.039 A 
ATOM     36  C   UNL A   1      37.012  29.265  30.069  1.00  0.00     0.014 A 
ATOM     37  C   UNL A   1      37.680  29.955  27.836  1.00  0.00     0.014 A 
ATOM     38  C   UNL A   1      38.126  28.432  30.154  1.00  0.00     0.010 A 
ATOM     39  C   UNL A   1      38.828  29.194  27.962  1.00  0.00     0.010 A 
ATOM     40  C   UNL A   1      39.075  28.455  29.130  1.00  0.00    -0.014 A 
BRANCH  40  41
ATOM     41  C   UNL A   1      40.400  27.838  29.229  1.00  0.00     0.031 A 
ATOM     42  C   UNL A   1      40.639  26.442  28.774  1.00  0.00     0.074 A 
ATOM     43  C   UNL A   1      41.467  28.559  29.648  1.00  0.00     0.049 A 
ATOM     44  N   UNL A   1      41.609  25.697  29.200  1.00  0.00    -0.248 NA
ATOM     45  C   UNL A   1      39.777  25.758  27.817  1.00  0.00     0.031 C 
ATOM     46  C   UNL A   1      42.870  28.215  29.445  1.00  0.00     0.029 A 
ATOM     47  N   UNL A   1      41.514  29.647  30.523  1.00  0.00    -0.354 N 
ATOM     48  C   UNL A   1      41.675  24.583  28.389  1.00  0.00     0.074 A 
ATOM     49  C   UNL A   1      40.472  24.639  27.587  1.00  0.00     0.031 C 
ATOM     50  C   UNL A   1      43.606  28.833  30.379  1.00  0.00     0.029 A 
ATOM     51  C   UNL A   1      42.685  29.498  31.284  1.00  0.00     0.049 A 
ATOM     52  H   UNL A   1      40.855  30.374  30.593  1.00  0.00     0.167 HD
ATOM     53  C   UNL A   1      42.798  23.807  28.377  1.00  0.00     0.037 A 
ATOM     54  C   UNL A   1      42.760  29.467  32.645  1.00  0.00     0.037 A 
ATOM     55  C   UNL A   1      43.821  24.322  29.281  1.00  0.00     0.049 A 
ATOM     56  C   UNL A   1      43.499  28.266  33.187  1.00  0.00     0.074 A 
ATOM     57  C   UNL A   1      44.937  25.113  29.066  1.00  0.00     0.029 A 
ATOM     58  N   UNL A   1      43.653  24.241  30.656  1.00  0.00    -0.354 N 
ATOM     59  N   UNL A   1      43.778  27.213  32.473  1.00  0.00    -0.248 NA
ATOM     60  C   UNL A   1      43.931  28.120  34.574  1.00  0.00     0.031 C 
ATOM     61  C   UNL A   1      45.448  25.509  30.321  1.00  0.00     0.029 A 
ATOM     62  C   UNL A   1      44.637  24.966  31.300  1.00  0.00     0.049 A 
ATOM     63  H   UNL A   1      42.936  23.739  31.107  1.00  0.00     0.167 HD
ATOM     64  C   UNL A   1      44.366  26.256  33.261  1.00  0.00     0.074 A 
ATOM     65  C   UNL A   1      44.468  26.884  34.563  1.00  0.00     0.031 C 
ATOM     66  C   UNL A   1      44.693  25.030  32.753  1.00  0.00     0.037 A 
BRANCH  53  67
ATOM     67  C   UNL A   1      43.099  22.757  27.321  1.00  0.00     0.058 A 
ATOM     68  C   UNL A   1      42.417  21.518  27.310  1.00  0.00     0.135 A 
ATOM     69  C   UNL A   1      44.075  22.892  26.315  1.00  0.00     0.135 A 
ATOM     70  F   UNL A   1      41.372  21.278  28.113  1.00  0.00    -0.206 F 
ATOM     71  C   UNL A   1      42.775  20.455  26.481  1.00  0.00     0.059 A 
ATOM     72  C   UNL A   1      44.488  21.827  25.506  1.00  0.00     0.059 A 
ATOM     73  F   UNL A   1      44.637  24.081  26.052  1.00  0.00    -0.206 F 
ATOM     74  C   UNL A   1      43.845  20.601  25.613  1.00  0.00     0.060 A 
BRANCH  74  75
ATOM     75  S   UNL A   1      44.377  19.173  24.650  1.00  0.00     0.124 S 
ATOM     76  O   UNL A   1      44.332  19.688  23.285  1.00  0.00    -0.237 OA
ATOM     77  O   UNL A   1      45.708  18.921  25.190  1.00  0.00    -0.237 OA
ATOM     78  O   UNL A   1      43.371  18.161  24.961  1.00  0.00    -0.744 OA
ENDBRANCH  74  75
ENDBRANCH  53  67
BRANCH  54  79
ATOM     79  C   UNL A   1      41.651  30.166  33.337  1.00  0.00     0.058 A 
ATOM     80  C   UNL A   1      41.766  31.556  33.515  1.00  0.00     0.135 A 
ATOM     81  C   UNL A   1      40.369  29.601  33.374  1.00  0.00     0.135 A 
ATOM     82  F   UNL A   1      42.978  32.134  33.522  1.00  0.00    -0.206 F 
ATOM     83  C   UNL A   1      40.645  32.377  33.533  1.00  0.00     0.059 A 
ATOM     84  C   UNL A   1      39.232  30.406  33.396  1.00  0.00     0.059 A 
ATOM     85  F   UNL A   1      40.208  28.281  33.203  1.00  0.00    -0.206 F 
ATOM     86  C   UNL A   1      39.388  31.794  33.392  1.00  0.00     0.060 A 
BRANCH  86  87
ATOM     87  S   UNL A   1      37.988  32.874  33.008  1.00  0.00     0.124 S 
ATOM     88  O   UNL A   1      36.856  31.963  33.125  1.00  0.00    -0.237 OA
ATOM     89  O   UNL A   1      38.103  33.884  34.058  1.00  0.00    -0.237 OA
ATOM     90  O   UNL A   1      38.291  33.340  31.660  1.00  0.00    -0.744 OA
ENDBRANCH  86  87
ENDBRANCH  54  79
BRANCH  66  91
ATOM     91  C   UNL A   1      45.175  23.812  33.513  1.00  0.00     0.058 A 
ATOM     92  C   UNL A   1      46.456  23.677  34.073  1.00  0.00     0.135 A 
ATOM     93  C   UNL A   1      44.269  22.762  33.823  1.00  0.00     0.135 A 
ATOM     94  F   UNL A   1      47.377  24.641  33.948  1.00  0.00    -0.206 F 
ATOM     95  C   UNL A   1      46.830  22.565  34.836  1.00  0.00     0.059 A 
ATOM     96  C   UNL A   1      44.605  21.673  34.625  1.00  0.00     0.059 A 
ATOM     97  F   UNL A   1      43.007  22.766  33.368  1.00  0.00    -0.206 F 
ATOM     98  C   UNL A   1      45.898  21.570  35.111  1.00  0.00     0.060 A 
BRANCH  98  99
ATOM     99  S   UNL A   1      46.339  20.173  36.162  1.00  0.00     0.124 S 
ATOM    100  O   UNL A   1      47.792  20.154  36.030  1.00  0.00    -0.237 OA
ATOM    101  O   UNL A   1      45.833  20.576  37.472  1.00  0.00    -0.237 OA
ATOM    102  O   UNL A   1      45.631  19.058  35.543  1.00  0.00    -0.744 OA
ENDBRANCH  98  99
ENDBRANCH  66  91
ENDBRANCH  40  41
ENDBRANCH  32  35
ENDBRANCH  30  31
ENDBRANCH  29  30
ENDBRANCH  28  29
ENDBRANCH   1  28
TORSDOF 19
ENDMDL
