MODEL 1
REMARK VINA RESULT:     -11.9      0.000      0.000
REMARK SMILES CCOc1ccc2c(=O)cc(-c3ccccc3C(=O)NCCCCCCNC(=O)c3ccc(-c4c5nc(c(-c6c(F)cc(S(=O)(=O)[O-])cc6F)c6ccc([nH]6)c(-c6c(F)cc(S(=O)(=O)[O-])cc6F)c6nc(c(-c7c(F)cc(S(=O)(=O)[O-])cc7F)c7ccc4[nH]7)C=C6)C=C5)cc3)oc2c1OCC
REMARK SMILES IDX 23 1 22 2 21 3 20 4 18 5 19 6 17 8 12 9 13 10 14 11 16 12
REMARK SMILES IDX 15 13 11 14 4 15 5 16 98 17 6 18 97 19 7 20 96 21 8 22 9 23
REMARK SMILES IDX 10 24 3 25 2 26 1 27 99 28 100 29 101 30 24 31 25 32 26 33
REMARK SMILES IDX 27 34 28 35 29 37 30 38 31 39 95 40 32 41 94 42 33 43 34 44
REMARK SMILES IDX 35 45 88 46 36 47 93 48 87 49 89 50 37 51 92 52 86 53 85 54
REMARK SMILES IDX 38 56 72 57 51 58 71 59 52 60 55 61 70 62 90 63 53 64 54 65
REMARK SMILES IDX 69 67 91 68 56 69 39 70 40 71 49 72 41 73 42 74 48 75 50 76
REMARK SMILES IDX 43 77 44 78 45 79 46 80 47 81 73 82 74 83 83 84 75 85 76 86
REMARK SMILES IDX 82 87 84 88 77 89 78 90 79 91 80 92 81 93 57 94 58 95 67 96
REMARK SMILES IDX 59 97 60 98 66 99 68 100 61 101 62 102 63 103 64 104 65 105
REMARK H PARENT 20 7 27 36 89 55 55 66
REMARK Flexibility Score: inf
ROOT
ATOM      1  C   UNL A   1      39.677  23.381  27.251  1.00  0.00     0.002 C 
ENDROOT
BRANCH   1   2
ATOM      2  C   UNL A   1      38.486  24.090  26.606  1.00  0.00     0.021 C 
BRANCH   2   3
ATOM      3  C   UNL A   1      37.379  23.269  25.951  1.00  0.00     0.116 C 
BRANCH   3   4
ATOM      4  N   UNL A   1      37.347  23.154  24.519  1.00  0.00    -0.352 N 
ATOM      5  C   UNL A   1      36.361  22.709  23.660  1.00  0.00     0.252 C 
ATOM      6  O   UNL A   1      36.628  22.854  22.459  1.00  0.00    -0.269 OA
ATOM      7  H   UNL A   1      38.173  23.444  24.070  1.00  0.00     0.163 HD
BRANCH   5   8
ATOM      8  C   UNL A   1      35.045  22.026  23.997  1.00  0.00     0.050 A 
ATOM      9  C   UNL A   1      33.707  22.364  23.694  1.00  0.00     0.030 A 
ATOM     10  C   UNL A   1      32.650  21.509  24.113  1.00  0.00     0.013 A 
ATOM     11  C   UNL A   1      32.881  20.335  24.819  1.00  0.00     0.001 A 
ATOM     12  C   UNL A   1      35.237  20.809  24.711  1.00  0.00     0.014 A 
ATOM     13  C   UNL A   1      34.183  19.983  25.120  1.00  0.00     0.001 A 
BRANCH   9  14
ATOM     14  C   UNL A   1      33.198  23.588  23.071  1.00  0.00     0.139 A 
ATOM     15  C   UNL A   1      31.342  27.790  24.407  1.00  0.00     0.165 A 
ATOM     16  C   UNL A   1      31.486  28.274  23.103  1.00  0.00     0.051 A 
ATOM     17  C   UNL A   1      31.585  26.430  24.683  1.00  0.00     0.205 A 
ATOM     18  C   UNL A   1      31.911  27.424  22.078  1.00  0.00     0.020 A 
ATOM     19  C   UNL A   1      32.083  25.608  23.661  1.00  0.00     0.184 A 
ATOM     20  C   UNL A   1      32.240  26.099  22.367  1.00  0.00     0.069 A 
ATOM     21  O   UNL A   1      32.475  24.338  23.978  1.00  0.00    -0.452 OA
ATOM     22  C   UNL A   1      32.847  25.226  21.337  1.00  0.00     0.193 A 
ATOM     23  O   UNL A   1      33.012  25.597  20.187  1.00  0.00    -0.289 OA
ATOM     24  C   UNL A   1      33.355  23.911  21.784  1.00  0.00     0.100 A 
BRANCH  15  25
ATOM     25  O   UNL A   1      31.077  28.593  25.486  1.00  0.00    -0.490 OA
BRANCH  25  26
ATOM     26  C   UNL A   1      32.153  29.339  26.053  1.00  0.00     0.226 C 
ATOM     27  C   UNL A   1      31.749  30.791  26.226  1.00  0.00     0.049 C 
ENDBRANCH  25  26
ENDBRANCH  15  25
BRANCH  17  28
ATOM     28  O   UNL A   1      31.326  26.050  25.976  1.00  0.00    -0.487 OA
BRANCH  28  29
ATOM     29  C   UNL A   1      30.187  25.252  26.294  1.00  0.00     0.226 C 
ATOM     30  C   UNL A   1      30.502  23.793  26.598  1.00  0.00     0.049 C 
ENDBRANCH  28  29
ENDBRANCH  17  28
ENDBRANCH   9  14
ENDBRANCH   5   8
ENDBRANCH   3   4
ENDBRANCH   2   3
ENDBRANCH   1   2
BRANCH   1  31
ATOM     31  C   UNL A   1      40.499  22.381  26.429  1.00  0.00     0.002 C 
BRANCH  31  32
ATOM     32  C   UNL A   1      41.922  22.035  26.881  1.00  0.00     0.021 C 
BRANCH  32  33
ATOM     33  C   UNL A   1      42.916  23.177  27.107  1.00  0.00     0.116 C 
BRANCH  33  34
ATOM     34  N   UNL A   1      43.002  24.113  25.999  1.00  0.00    -0.352 N 
ATOM     35  C   UNL A   1      42.751  25.468  25.935  1.00  0.00     0.251 C 
ATOM     36  H   UNL A   1      43.289  23.711  25.147  1.00  0.00     0.163 HD
ATOM     37  O   UNL A   1      42.768  26.011  24.830  1.00  0.00    -0.269 OA
BRANCH  35  38
ATOM     38  C   UNL A   1      42.466  26.304  27.140  1.00  0.00     0.039 A 
ATOM     39  C   UNL A   1      41.406  25.946  27.985  1.00  0.00     0.014 A 
ATOM     40  C   UNL A   1      43.148  27.489  27.406  1.00  0.00     0.014 A 
ATOM     41  C   UNL A   1      41.061  26.747  29.089  1.00  0.00     0.010 A 
ATOM     42  C   UNL A   1      42.848  28.255  28.546  1.00  0.00     0.010 A 
ATOM     43  C   UNL A   1      41.788  27.911  29.393  1.00  0.00    -0.014 A 
BRANCH  43  44
ATOM     44  C   UNL A   1      41.457  28.756  30.584  1.00  0.00     0.031 A 
ATOM     45  C   UNL A   1      42.226  28.631  31.882  1.00  0.00     0.074 A 
ATOM     46  C   UNL A   1      40.411  29.606  30.532  1.00  0.00     0.049 A 
ATOM     47  N   UNL A   1      42.089  29.311  32.995  1.00  0.00    -0.248 NA
ATOM     48  C   UNL A   1      43.261  27.589  31.952  1.00  0.00     0.031 C 
ATOM     49  C   UNL A   1      39.512  29.766  29.388  1.00  0.00     0.029 A 
ATOM     50  N   UNL A   1      39.918  30.488  31.466  1.00  0.00    -0.354 N 
ATOM     51  C   UNL A   1      43.015  28.784  33.891  1.00  0.00     0.074 A 
ATOM     52  C   UNL A   1      43.661  27.680  33.213  1.00  0.00     0.031 C 
ATOM     53  C   UNL A   1      38.595  30.705  29.677  1.00  0.00     0.029 A 
ATOM     54  C   UNL A   1      38.828  31.205  31.029  1.00  0.00     0.049 A 
ATOM     55  H   UNL A   1      40.309  30.596  32.363  1.00  0.00     0.167 HD
ATOM     56  C   UNL A   1      43.324  29.194  35.148  1.00  0.00     0.037 A 
ATOM     57  C   UNL A   1      38.103  32.168  31.636  1.00  0.00     0.037 A 
ATOM     58  C   UNL A   1      42.695  30.306  35.822  1.00  0.00     0.049 A 
ATOM     59  C   UNL A   1      38.487  32.638  33.013  1.00  0.00     0.074 A 
ATOM     60  C   UNL A   1      43.003  30.849  37.059  1.00  0.00     0.029 A 
ATOM     61  N   UNL A   1      41.628  31.039  35.324  1.00  0.00    -0.354 N 
ATOM     62  N   UNL A   1      39.445  32.203  33.797  1.00  0.00    -0.248 NA
ATOM     63  C   UNL A   1      37.708  33.748  33.579  1.00  0.00     0.031 C 
ATOM     64  C   UNL A   1      42.091  31.874  37.331  1.00  0.00     0.029 A 
ATOM     65  C   UNL A   1      41.253  32.013  36.237  1.00  0.00     0.049 A 
ATOM     66  H   UNL A   1      41.198  30.889  34.451  1.00  0.00     0.167 HD
ATOM     67  C   UNL A   1      39.407  33.012  34.929  1.00  0.00     0.074 A 
ATOM     68  C   UNL A   1      38.339  33.968  34.724  1.00  0.00     0.031 C 
ATOM     69  C   UNL A   1      40.192  32.969  36.034  1.00  0.00     0.037 A 
BRANCH  56  70
ATOM     70  C   UNL A   1      44.416  28.458  35.886  1.00  0.00     0.058 A 
ATOM     71  C   UNL A   1      45.762  28.852  35.792  1.00  0.00     0.135 A 
ATOM     72  C   UNL A   1      44.111  27.396  36.753  1.00  0.00     0.135 A 
ATOM     73  F   UNL A   1      46.117  29.859  34.977  1.00  0.00    -0.206 F 
ATOM     74  C   UNL A   1      46.766  28.202  36.504  1.00  0.00     0.059 A 
ATOM     75  C   UNL A   1      45.095  26.752  37.500  1.00  0.00     0.059 A 
ATOM     76  F   UNL A   1      42.842  26.978  36.891  1.00  0.00    -0.206 F 
ATOM     77  C   UNL A   1      46.422  27.153  37.358  1.00  0.00     0.060 A 
BRANCH  77  78
ATOM     78  S   UNL A   1      47.736  26.331  38.284  1.00  0.00     0.124 S 
ATOM     79  O   UNL A   1      48.855  26.432  37.351  1.00  0.00    -0.237 OA
ATOM     80  O   UNL A   1      47.838  27.157  39.483  1.00  0.00    -0.237 OA
ATOM     81  O   UNL A   1      47.214  24.985  38.495  1.00  0.00    -0.744 OA
ENDBRANCH  77  78
ENDBRANCH  56  70
BRANCH  57  82
ATOM     82  C   UNL A   1      36.966  32.800  30.911  1.00  0.00     0.058 A 
ATOM     83  C   UNL A   1      35.646  32.382  31.135  1.00  0.00     0.135 A 
ATOM     84  C   UNL A   1      37.175  33.843  29.995  1.00  0.00     0.135 A 
ATOM     85  F   UNL A   1      35.397  31.383  31.997  1.00  0.00    -0.206 F 
ATOM     86  C   UNL A   1      34.574  32.959  30.465  1.00  0.00     0.059 A 
ATOM     87  C   UNL A   1      36.116  34.455  29.333  1.00  0.00     0.059 A 
ATOM     88  F   UNL A   1      38.418  34.291  29.759  1.00  0.00    -0.206 F 
ATOM     89  C   UNL A   1      34.819  34.000  29.567  1.00  0.00     0.060 A 
BRANCH  89  90
ATOM     90  S   UNL A   1      33.414  34.776  28.741  1.00  0.00     0.124 S 
ATOM     91  O   UNL A   1      34.034  35.958  28.153  1.00  0.00    -0.237 OA
ATOM     92  O   UNL A   1      32.999  33.739  27.803  1.00  0.00    -0.237 OA
ATOM     93  O   UNL A   1      32.481  35.031  29.836  1.00  0.00    -0.744 OA
ENDBRANCH  89  90
ENDBRANCH  57  82
BRANCH  69  94
ATOM     94  C   UNL A   1      39.963  34.016  37.094  1.00  0.00     0.058 A 
ATOM     95  C   UNL A   1      39.226  33.751  38.260  1.00  0.00     0.135 A 
ATOM     96  C   UNL A   1      40.508  35.304  36.948  1.00  0.00     0.135 A 
ATOM     97  F   UNL A   1      38.681  32.539  38.453  1.00  0.00    -0.206 F 
ATOM     98  C   UNL A   1      39.002  34.733  39.220  1.00  0.00     0.059 A 
ATOM     99  C   UNL A   1      40.324  36.292  37.911  1.00  0.00     0.059 A 
ATOM    100  F   UNL A   1      41.233  35.611  35.861  1.00  0.00    -0.206 F 
ATOM    101  C   UNL A   1      39.553  36.003  39.035  1.00  0.00     0.060 A 
BRANCH 101 102
ATOM    102  S   UNL A   1      39.255  37.269  40.287  1.00  0.00     0.124 S 
ATOM    103  O   UNL A   1      40.611  37.557  40.744  1.00  0.00    -0.237 OA
ATOM    104  O   UNL A   1      38.609  38.327  39.517  1.00  0.00    -0.237 OA
ATOM    105  O   UNL A   1      38.397  36.595  41.257  1.00  0.00    -0.744 OA
ENDBRANCH 101 102
ENDBRANCH  69  94
ENDBRANCH  43  44
ENDBRANCH  35  38
ENDBRANCH  33  34
ENDBRANCH  32  33
ENDBRANCH  31  32
ENDBRANCH   1  31
TORSDOF 21
ENDMDL
MODEL 2
REMARK VINA RESULT:     -11.4      1.307      2.100
REMARK SMILES CCOc1ccc2c(=O)cc(-c3ccccc3C(=O)NCCCCCCNC(=O)c3ccc(-c4c5nc(c(-c6c(F)cc(S(=O)(=O)[O-])cc6F)c6ccc([nH]6)c(-c6c(F)cc(S(=O)(=O)[O-])cc6F)c6nc(c(-c7c(F)cc(S(=O)(=O)[O-])cc7F)c7ccc4[nH]7)C=C6)C=C5)cc3)oc2c1OCC
REMARK SMILES IDX 23 1 22 2 21 3 20 4 18 5 19 6 17 8 12 9 13 10 14 11 16 12
REMARK SMILES IDX 15 13 11 14 4 15 5 16 98 17 6 18 97 19 7 20 96 21 8 22 9 23
REMARK SMILES IDX 10 24 3 25 2 26 1 27 99 28 100 29 101 30 24 31 25 32 26 33
REMARK SMILES IDX 27 34 28 35 29 37 30 38 31 39 95 40 32 41 94 42 33 43 34 44
REMARK SMILES IDX 35 45 88 46 36 47 93 48 87 49 89 50 37 51 92 52 86 53 85 54
REMARK SMILES IDX 38 56 72 57 51 58 71 59 52 60 55 61 70 62 90 63 53 64 54 65
REMARK SMILES IDX 69 67 91 68 56 69 39 70 40 71 49 72 41 73 42 74 48 75 50 76
REMARK SMILES IDX 43 77 44 78 45 79 46 80 47 81 73 82 74 83 83 84 75 85 76 86
REMARK SMILES IDX 82 87 84 88 77 89 78 90 79 91 80 92 81 93 57 94 58 95 67 96
REMARK SMILES IDX 59 97 60 98 66 99 68 100 61 101 62 102 63 103 64 104 65 105
REMARK H PARENT 20 7 27 36 89 55 55 66
REMARK Flexibility Score: inf
ROOT
ATOM      1  C   UNL A   1      37.688  23.586  25.849  1.00  0.00     0.002 C 
ENDROOT
BRANCH   1   2
ATOM      2  C   UNL A   1      36.751  23.795  24.659  1.00  0.00     0.021 C 
BRANCH   2   3
ATOM      3  C   UNL A   1      36.546  22.671  23.648  1.00  0.00     0.116 C 
BRANCH   3   4
ATOM      4  N   UNL A   1      35.239  22.462  23.089  1.00  0.00    -0.352 N 
ATOM      5  C   UNL A   1      33.984  22.487  23.664  1.00  0.00     0.252 C 
ATOM      6  O   UNL A   1      33.051  22.376  22.856  1.00  0.00    -0.269 OA
ATOM      7  H   UNL A   1      35.238  22.266  22.124  1.00  0.00     0.163 HD
BRANCH   5   8
ATOM      8  C   UNL A   1      33.615  22.574  25.136  1.00  0.00     0.050 A 
ATOM      9  C   UNL A   1      32.650  23.348  25.819  1.00  0.00     0.030 A 
ATOM     10  C   UNL A   1      32.492  23.202  27.225  1.00  0.00     0.013 A 
ATOM     11  C   UNL A   1      33.260  22.315  27.969  1.00  0.00     0.001 A 
ATOM     12  C   UNL A   1      34.371  21.670  25.936  1.00  0.00     0.014 A 
ATOM     13  C   UNL A   1      34.206  21.544  27.321  1.00  0.00     0.001 A 
BRANCH   9  14
ATOM     14  C   UNL A   1      31.806  24.423  25.289  1.00  0.00     0.139 A 
ATOM     15  C   UNL A   1      31.649  29.204  25.313  1.00  0.00     0.165 A 
ATOM     16  C   UNL A   1      30.668  29.181  24.318  1.00  0.00     0.051 A 
ATOM     17  C   UNL A   1      32.060  28.002  25.922  1.00  0.00     0.205 A 
ATOM     18  C   UNL A   1      30.120  27.967  23.894  1.00  0.00     0.020 A 
ATOM     19  C   UNL A   1      31.557  26.786  25.434  1.00  0.00     0.184 A 
ATOM     20  C   UNL A   1      30.591  26.769  24.431  1.00  0.00     0.069 A 
ATOM     21  O   UNL A   1      32.087  25.621  25.915  1.00  0.00    -0.452 OA
ATOM     22  C   UNL A   1      30.148  25.466  23.884  1.00  0.00     0.193 A 
ATOM     23  O   UNL A   1      29.306  25.384  23.006  1.00  0.00    -0.289 OA
ATOM     24  C   UNL A   1      30.851  24.259  24.369  1.00  0.00     0.100 A 
BRANCH  15  25
ATOM     25  O   UNL A   1      32.337  30.334  25.672  1.00  0.00    -0.490 OA
BRANCH  25  26
ATOM     26  C   UNL A   1      31.831  31.116  26.753  1.00  0.00     0.226 C 
ATOM     27  C   UNL A   1      31.059  32.309  26.220  1.00  0.00     0.049 C 
ENDBRANCH  25  26
ENDBRANCH  15  25
BRANCH  17  28
ATOM     28  O   UNL A   1      32.962  28.154  26.945  1.00  0.00    -0.487 OA
BRANCH  28  29
ATOM     29  C   UNL A   1      34.367  28.164  26.693  1.00  0.00     0.226 C 
ATOM     30  C   UNL A   1      35.123  29.299  27.373  1.00  0.00     0.049 C 
ENDBRANCH  28  29
ENDBRANCH  17  28
ENDBRANCH   9  14
ENDBRANCH   5   8
ENDBRANCH   3   4
ENDBRANCH   2   3
ENDBRANCH   1   2
BRANCH   1  31
ATOM     31  C   UNL A   1      38.307  22.204  26.091  1.00  0.00     0.002 C 
BRANCH  31  32
ATOM     32  C   UNL A   1      39.797  22.105  26.435  1.00  0.00     0.021 C 
BRANCH  32  33
ATOM     33  C   UNL A   1      40.497  23.336  27.016  1.00  0.00     0.116 C 
BRANCH  33  34
ATOM     34  N   UNL A   1      41.163  24.160  26.021  1.00  0.00    -0.352 N 
ATOM     35  C   UNL A   1      41.486  25.501  26.024  1.00  0.00     0.251 C 
ATOM     36  H   UNL A   1      41.428  23.679  25.204  1.00  0.00     0.163 HD
ATOM     37  O   UNL A   1      41.933  25.993  24.988  1.00  0.00    -0.269 OA
BRANCH  35  38
ATOM     38  C   UNL A   1      41.326  26.378  27.224  1.00  0.00     0.039 A 
ATOM     39  C   UNL A   1      40.339  26.066  28.170  1.00  0.00     0.014 A 
ATOM     40  C   UNL A   1      42.051  27.555  27.391  1.00  0.00     0.014 A 
ATOM     41  C   UNL A   1      40.109  26.906  29.275  1.00  0.00     0.010 A 
ATOM     42  C   UNL A   1      41.867  28.360  28.529  1.00  0.00     0.010 A 
ATOM     43  C   UNL A   1      40.881  28.063  29.477  1.00  0.00    -0.014 A 
BRANCH  43  44
ATOM     44  C   UNL A   1      40.673  28.949  30.666  1.00  0.00     0.031 A 
ATOM     45  C   UNL A   1      41.486  28.779  31.932  1.00  0.00     0.074 A 
ATOM     46  C   UNL A   1      39.699  29.882  30.644  1.00  0.00     0.049 A 
ATOM     47  N   UNL A   1      41.454  29.484  33.038  1.00  0.00    -0.248 NA
ATOM     48  C   UNL A   1      42.434  27.656  31.976  1.00  0.00     0.031 C 
ATOM     49  C   UNL A   1      38.767  30.100  29.537  1.00  0.00     0.029 A 
ATOM     50  N   UNL A   1      39.322  30.814  31.582  1.00  0.00    -0.354 N 
ATOM     51  C   UNL A   1      42.372  28.894  33.902  1.00  0.00     0.074 A 
ATOM     52  C   UNL A   1      42.895  27.731  33.218  1.00  0.00     0.031 C 
ATOM     53  C   UNL A   1      37.944  31.115  29.848  1.00  0.00     0.029 A 
ATOM     54  C   UNL A   1      38.276  31.614  31.179  1.00  0.00     0.049 A 
ATOM     55  H   UNL A   1      39.759  30.902  32.459  1.00  0.00     0.167 HD
ATOM     56  C   UNL A   1      42.768  29.295  35.138  1.00  0.00     0.037 A 
ATOM     57  C   UNL A   1      37.659  32.641  31.799  1.00  0.00     0.037 A 
ATOM     58  C   UNL A   1      42.263  30.464  35.818  1.00  0.00     0.049 A 
ATOM     59  C   UNL A   1      38.141  33.097  33.151  1.00  0.00     0.074 A 
ATOM     60  C   UNL A   1      42.668  30.997  37.031  1.00  0.00     0.029 A 
ATOM     61  N   UNL A   1      41.239  31.276  35.354  1.00  0.00    -0.354 N 
ATOM     62  N   UNL A   1      39.093  32.595  33.901  1.00  0.00    -0.248 NA
ATOM     63  C   UNL A   1      37.481  34.276  33.730  1.00  0.00     0.031 C 
ATOM     64  C   UNL A   1      41.856  32.098  37.324  1.00  0.00     0.029 A 
ATOM     65  C   UNL A   1      40.985  32.290  36.265  1.00  0.00     0.049 A 
ATOM     66  H   UNL A   1      40.760  31.150  34.502  1.00  0.00     0.167 HD
ATOM     67  C   UNL A   1      39.171  33.420  35.019  1.00  0.00     0.074 A 
ATOM     68  C   UNL A   1      38.178  34.458  34.843  1.00  0.00     0.031 C 
ATOM     69  C   UNL A   1      39.999  33.328  36.090  1.00  0.00     0.037 A 
BRANCH  56  70
ATOM     70  C   UNL A   1      43.828  28.481  35.841  1.00  0.00     0.058 A 
ATOM     71  C   UNL A   1      45.196  28.770  35.693  1.00  0.00     0.135 A 
ATOM     72  C   UNL A   1      43.475  27.452  36.730  1.00  0.00     0.135 A 
ATOM     73  F   UNL A   1      45.596  29.740  34.856  1.00  0.00    -0.206 F 
ATOM     74  C   UNL A   1      46.172  28.048  36.374  1.00  0.00     0.059 A 
ATOM     75  C   UNL A   1      44.434  26.739  37.446  1.00  0.00     0.059 A 
ATOM     76  F   UNL A   1      42.184  27.135  36.920  1.00  0.00    -0.206 F 
ATOM     77  C   UNL A   1      45.781  27.035  37.250  1.00  0.00     0.060 A 
BRANCH  77  78
ATOM     78  S   UNL A   1      47.063  26.120  38.134  1.00  0.00     0.124 S 
ATOM     79  O   UNL A   1      46.633  26.286  39.520  1.00  0.00    -0.237 OA
ATOM     80  O   UNL A   1      46.921  24.775  37.586  1.00  0.00    -0.237 OA
ATOM     81  O   UNL A   1      48.292  26.817  37.771  1.00  0.00    -0.744 OA
ENDBRANCH  77  78
ENDBRANCH  56  70
BRANCH  57  82
ATOM     82  C   UNL A   1      36.548  33.355  31.113  1.00  0.00     0.058 A 
ATOM     83  C   UNL A   1      36.796  34.180  30.006  1.00  0.00     0.135 A 
ATOM     84  C   UNL A   1      35.218  33.216  31.539  1.00  0.00     0.135 A 
ATOM     85  F   UNL A   1      38.053  34.350  29.566  1.00  0.00    -0.206 F 
ATOM     86  C   UNL A   1      35.772  34.857  29.356  1.00  0.00     0.059 A 
ATOM     87  C   UNL A   1      34.172  33.861  30.887  1.00  0.00     0.059 A 
ATOM     88  F   UNL A   1      34.926  32.424  32.583  1.00  0.00    -0.206 F 
ATOM     89  C   UNL A   1      34.459  34.688  29.803  1.00  0.00     0.060 A 
BRANCH  89  90
ATOM     90  S   UNL A   1      33.131  35.532  28.918  1.00  0.00     0.124 S 
ATOM     91  O   UNL A   1      33.876  36.501  28.123  1.00  0.00    -0.237 OA
ATOM     92  O   UNL A   1      32.513  34.437  28.177  1.00  0.00    -0.237 OA
ATOM     93  O   UNL A   1      32.315  36.091  29.993  1.00  0.00    -0.744 OA
ENDBRANCH  89  90
ENDBRANCH  57  82
BRANCH  69  94
ATOM     94  C   UNL A   1      39.902  34.406  37.141  1.00  0.00     0.058 A 
ATOM     95  C   UNL A   1      39.080  34.275  38.272  1.00  0.00     0.135 A 
ATOM     96  C   UNL A   1      40.663  35.581  37.021  1.00  0.00     0.135 A 
ATOM     97  F   UNL A   1      38.330  33.174  38.438  1.00  0.00    -0.206 F 
ATOM     98  C   UNL A   1      38.984  35.287  39.223  1.00  0.00     0.059 A 
ATOM     99  C   UNL A   1      40.606  36.592  37.976  1.00  0.00     0.059 A 
ATOM    100  F   UNL A   1      41.478  35.755  35.968  1.00  0.00    -0.206 F 
ATOM    101  C   UNL A   1      39.748  36.445  39.064  1.00  0.00     0.060 A 
BRANCH 101 102
ATOM    102  S   UNL A   1      39.613  37.750  40.304  1.00  0.00     0.124 S 
ATOM    103  O   UNL A   1      38.663  38.660  39.673  1.00  0.00    -0.237 OA
ATOM    104  O   UNL A   1      39.117  37.025  41.469  1.00  0.00    -0.237 OA
ATOM    105  O   UNL A   1      40.979  38.252  40.421  1.00  0.00    -0.744 OA
ENDBRANCH 101 102
ENDBRANCH  69  94
ENDBRANCH  43  44
ENDBRANCH  35  38
ENDBRANCH  33  34
ENDBRANCH  32  33
ENDBRANCH  31  32
ENDBRANCH   1  31
TORSDOF 21
ENDMDL
MODEL 3
REMARK VINA RESULT:     -11.3      1.175      2.424
REMARK SMILES CCOc1ccc2c(=O)cc(-c3ccccc3C(=O)NCCCCCCNC(=O)c3ccc(-c4c5nc(c(-c6c(F)cc(S(=O)(=O)[O-])cc6F)c6ccc([nH]6)c(-c6c(F)cc(S(=O)(=O)[O-])cc6F)c6nc(c(-c7c(F)cc(S(=O)(=O)[O-])cc7F)c7ccc4[nH]7)C=C6)C=C5)cc3)oc2c1OCC
REMARK SMILES IDX 23 1 22 2 21 3 20 4 18 5 19 6 17 8 12 9 13 10 14 11 16 12
REMARK SMILES IDX 15 13 11 14 4 15 5 16 98 17 6 18 97 19 7 20 96 21 8 22 9 23
REMARK SMILES IDX 10 24 3 25 2 26 1 27 99 28 100 29 101 30 24 31 25 32 26 33
REMARK SMILES IDX 27 34 28 35 29 37 30 38 31 39 95 40 32 41 94 42 33 43 34 44
REMARK SMILES IDX 35 45 88 46 36 47 93 48 87 49 89 50 37 51 92 52 86 53 85 54
REMARK SMILES IDX 38 56 72 57 51 58 71 59 52 60 55 61 70 62 90 63 53 64 54 65
REMARK SMILES IDX 69 67 91 68 56 69 39 70 40 71 49 72 41 73 42 74 48 75 50 76
REMARK SMILES IDX 43 77 44 78 45 79 46 80 47 81 73 82 74 83 83 84 75 85 76 86
REMARK SMILES IDX 82 87 84 88 77 89 78 90 79 91 80 92 81 93 57 94 58 95 67 96
REMARK SMILES IDX 59 97 60 98 66 99 68 100 61 101 62 102 63 103 64 104 65 105
REMARK H PARENT 20 7 27 36 89 55 55 66
REMARK Flexibility Score: inf
ROOT
ATOM      1  C   UNL A   1      39.150  23.391  26.869  1.00  0.00     0.002 C 
ENDROOT
BRANCH   1   2
ATOM      2  C   UNL A   1      37.892  23.936  26.192  1.00  0.00     0.021 C 
BRANCH   2   3
ATOM      3  C   UNL A   1      36.906  22.974  25.537  1.00  0.00     0.116 C 
BRANCH   3   4
ATOM      4  N   UNL A   1      36.384  23.284  24.234  1.00  0.00    -0.352 N 
ATOM      5  C   UNL A   1      35.092  23.489  23.793  1.00  0.00     0.252 C 
ATOM      6  O   UNL A   1      35.009  23.857  22.613  1.00  0.00    -0.269 OA
ATOM      7  H   UNL A   1      37.069  23.366  23.532  1.00  0.00     0.163 HD
BRANCH   5   8
ATOM      8  C   UNL A   1      33.787  23.269  24.540  1.00  0.00     0.050 A 
ATOM      9  C   UNL A   1      32.856  24.177  25.093  1.00  0.00     0.030 A 
ATOM     10  C   UNL A   1      31.677  23.687  25.720  1.00  0.00     0.013 A 
ATOM     11  C   UNL A   1      31.396  22.329  25.814  1.00  0.00     0.001 A 
ATOM     12  C   UNL A   1      33.454  21.888  24.648  1.00  0.00     0.014 A 
ATOM     13  C   UNL A   1      32.290  21.424  25.275  1.00  0.00     0.001 A 
BRANCH   9  14
ATOM     14  C   UNL A   1      32.974  25.632  25.225  1.00  0.00     0.139 A 
ATOM     15  C   UNL A   1      30.455  29.550  24.137  1.00  0.00     0.165 A 
ATOM     16  C   UNL A   1      31.306  30.323  24.931  1.00  0.00     0.051 A 
ATOM     17  C   UNL A   1      30.765  28.200  23.882  1.00  0.00     0.205 A 
ATOM     18  C   UNL A   1      32.444  29.753  25.510  1.00  0.00     0.020 A 
ATOM     19  C   UNL A   1      31.869  27.622  24.530  1.00  0.00     0.184 A 
ATOM     20  C   UNL A   1      32.704  28.394  25.333  1.00  0.00     0.069 A 
ATOM     21  O   UNL A   1      32.063  26.275  24.411  1.00  0.00    -0.452 OA
ATOM     22  C   UNL A   1      33.807  27.731  26.067  1.00  0.00     0.193 A 
ATOM     23  O   UNL A   1      34.572  28.351  26.786  1.00  0.00    -0.289 OA
ATOM     24  C   UNL A   1      33.879  26.257  25.983  1.00  0.00     0.100 A 
BRANCH  15  25
ATOM     25  O   UNL A   1      29.249  29.997  23.663  1.00  0.00    -0.490 OA
BRANCH  25  26
ATOM     26  C   UNL A   1      29.252  30.923  22.578  1.00  0.00     0.226 C 
ATOM     27  C   UNL A   1      27.835  31.370  22.267  1.00  0.00     0.049 C 
ENDBRANCH  25  26
ENDBRANCH  15  25
BRANCH  17  28
ATOM     28  O   UNL A   1      29.908  27.565  23.019  1.00  0.00    -0.487 OA
BRANCH  28  29
ATOM     29  C   UNL A   1      28.633  27.100  23.457  1.00  0.00     0.226 C 
ATOM     30  C   UNL A   1      28.689  26.008  24.519  1.00  0.00     0.049 C 
ENDBRANCH  28  29
ENDBRANCH  17  28
ENDBRANCH   9  14
ENDBRANCH   5   8
ENDBRANCH   3   4
ENDBRANCH   2   3
ENDBRANCH   1   2
BRANCH   1  31
ATOM     31  C   UNL A   1      39.753  22.064  26.391  1.00  0.00     0.002 C 
BRANCH  31  32
ATOM     32  C   UNL A   1      41.264  21.845  26.515  1.00  0.00     0.021 C 
BRANCH  32  33
ATOM     33  C   UNL A   1      42.137  23.010  26.988  1.00  0.00     0.116 C 
BRANCH  33  34
ATOM     34  N   UNL A   1      42.519  23.929  25.928  1.00  0.00    -0.352 N 
ATOM     35  C   UNL A   1      42.469  25.306  25.860  1.00  0.00     0.251 C 
ATOM     36  H   UNL A   1      42.875  23.493  25.120  1.00  0.00     0.163 HD
ATOM     37  O   UNL A   1      42.729  25.844  24.783  1.00  0.00    -0.269 OA
BRANCH  35  38
ATOM     38  C   UNL A   1      42.121  26.170  27.028  1.00  0.00     0.039 A 
ATOM     39  C   UNL A   1      42.861  27.337  27.259  1.00  0.00     0.014 A 
ATOM     40  C   UNL A   1      41.152  25.808  27.962  1.00  0.00     0.014 A 
ATOM     41  C   UNL A   1      42.611  28.138  28.389  1.00  0.00     0.010 A 
ATOM     42  C   UNL A   1      40.857  26.642  29.055  1.00  0.00     0.010 A 
ATOM     43  C   UNL A   1      41.594  27.807  29.299  1.00  0.00    -0.014 A 
BRANCH  43  44
ATOM     44  C   UNL A   1      41.290  28.666  30.487  1.00  0.00     0.031 A 
ATOM     45  C   UNL A   1      42.078  28.545  31.775  1.00  0.00     0.074 A 
ATOM     46  C   UNL A   1      40.252  29.527  30.444  1.00  0.00     0.049 A 
ATOM     47  N   UNL A   1      41.964  29.236  32.884  1.00  0.00    -0.248 NA
ATOM     48  C   UNL A   1      43.102  27.492  31.838  1.00  0.00     0.031 C 
ATOM     49  C   UNL A   1      39.337  29.686  29.312  1.00  0.00     0.029 A 
ATOM     50  N   UNL A   1      39.783  30.422  31.376  1.00  0.00    -0.354 N 
ATOM     51  C   UNL A   1      42.898  28.707  33.770  1.00  0.00     0.074 A 
ATOM     52  C   UNL A   1      43.522  27.591  33.093  1.00  0.00     0.031 C 
ATOM     53  C   UNL A   1      38.435  30.637  29.606  1.00  0.00     0.029 A 
ATOM     54  C   UNL A   1      38.694  31.147  30.949  1.00  0.00     0.049 A 
ATOM     55  H   UNL A   1      40.188  30.534  32.266  1.00  0.00     0.167 HD
ATOM     56  C   UNL A   1      43.230  29.126  35.018  1.00  0.00     0.037 A 
ATOM     57  C   UNL A   1      37.987  32.122  31.558  1.00  0.00     0.037 A 
ATOM     58  C   UNL A   1      42.623  30.250  35.691  1.00  0.00     0.049 A 
ATOM     59  C   UNL A   1      38.397  32.601  32.925  1.00  0.00     0.074 A 
ATOM     60  C   UNL A   1      42.955  30.801  36.919  1.00  0.00     0.029 A 
ATOM     61  N   UNL A   1      41.556  30.989  35.203  1.00  0.00    -0.354 N 
ATOM     62  N   UNL A   1      39.362  32.163  33.699  1.00  0.00    -0.248 NA
ATOM     63  C   UNL A   1      37.638  33.724  33.492  1.00  0.00     0.031 C 
ATOM     64  C   UNL A   1      42.058  31.838  37.195  1.00  0.00     0.029 A 
ATOM     65  C   UNL A   1      41.205  31.976  36.113  1.00  0.00     0.049 A 
ATOM     66  H   UNL A   1      41.112  30.837  34.338  1.00  0.00     0.167 HD
ATOM     67  C   UNL A   1      39.350  32.982  34.824  1.00  0.00     0.074 A 
ATOM     68  C   UNL A   1      38.289  33.947  34.626  1.00  0.00     0.031 C 
ATOM     69  C   UNL A   1      40.151  32.941  35.917  1.00  0.00     0.037 A 
BRANCH  56  70
ATOM     70  C   UNL A   1      44.326  28.385  35.746  1.00  0.00     0.058 A 
ATOM     71  C   UNL A   1      44.041  27.309  36.605  1.00  0.00     0.135 A 
ATOM     72  C   UNL A   1      45.677  28.701  35.529  1.00  0.00     0.135 A 
ATOM     73  F   UNL A   1      42.769  26.960  36.855  1.00  0.00    -0.206 F 
ATOM     74  C   UNL A   1      45.052  26.596  37.243  1.00  0.00     0.059 A 
ATOM     75  C   UNL A   1      46.706  27.980  36.132  1.00  0.00     0.059 A 
ATOM     76  F   UNL A   1      46.013  29.713  34.713  1.00  0.00    -0.206 F 
ATOM     77  C   UNL A   1      46.383  26.939  36.999  1.00  0.00     0.060 A 
BRANCH  77  78
ATOM     78  S   UNL A   1      47.680  25.994  37.826  1.00  0.00     0.124 S 
ATOM     79  O   UNL A   1      46.907  24.922  38.448  1.00  0.00    -0.237 OA
ATOM     80  O   UNL A   1      48.534  25.593  36.713  1.00  0.00    -0.237 OA
ATOM     81  O   UNL A   1      48.269  26.959  38.749  1.00  0.00    -0.744 OA
ENDBRANCH  77  78
ENDBRANCH  56  70
BRANCH  57  82
ATOM     82  C   UNL A   1      36.847  32.760  30.845  1.00  0.00     0.058 A 
ATOM     83  C   UNL A   1      37.068  33.709  29.835  1.00  0.00     0.135 A 
ATOM     84  C   UNL A   1      35.518  32.425  31.147  1.00  0.00     0.135 A 
ATOM     85  F   UNL A   1      38.321  34.067  29.516  1.00  0.00    -0.206 F 
ATOM     86  C   UNL A   1      36.015  34.317  29.162  1.00  0.00     0.059 A 
ATOM     87  C   UNL A   1      34.448  32.999  30.468  1.00  0.00     0.059 A 
ATOM     88  F   UNL A   1      35.254  31.510  32.093  1.00  0.00    -0.206 F 
ATOM     89  C   UNL A   1      34.706  33.952  29.484  1.00  0.00     0.060 A 
BRANCH  89  90
ATOM     90  S   UNL A   1      33.348  34.711  28.567  1.00  0.00     0.124 S 
ATOM     91  O   UNL A   1      32.929  33.615  27.701  1.00  0.00    -0.237 OA
ATOM     92  O   UNL A   1      32.422  35.072  29.635  1.00  0.00    -0.237 OA
ATOM     93  O   UNL A   1      33.988  35.838  27.894  1.00  0.00    -0.744 OA
ENDBRANCH  89  90
ENDBRANCH  57  82
BRANCH  69  94
ATOM     94  C   UNL A   1      39.949  34.000  36.971  1.00  0.00     0.058 A 
ATOM     95  C   UNL A   1      40.549  35.267  36.883  1.00  0.00     0.135 A 
ATOM     96  C   UNL A   1      39.122  33.748  38.079  1.00  0.00     0.135 A 
ATOM     97  F   UNL A   1      41.350  35.563  35.847  1.00  0.00    -0.206 F 
ATOM     98  C   UNL A   1      40.372  36.228  37.874  1.00  0.00     0.059 A 
ATOM     99  C   UNL A   1      38.905  34.705  39.066  1.00  0.00     0.059 A 
ATOM    100  F   UNL A   1      38.510  32.560  38.210  1.00  0.00    -0.206 F 
ATOM    101  C   UNL A   1      39.550  35.936  38.965  1.00  0.00     0.060 A 
BRANCH 101 102
ATOM    102  S   UNL A   1      39.329  37.191  40.244  1.00  0.00     0.124 S 
ATOM    103  O   UNL A   1      40.711  37.544  40.553  1.00  0.00    -0.237 OA
ATOM    104  O   UNL A   1      38.555  38.214  39.548  1.00  0.00    -0.237 OA
ATOM    105  O   UNL A   1      38.612  36.481  41.298  1.00  0.00    -0.744 OA
ENDBRANCH 101 102
ENDBRANCH  69  94
ENDBRANCH  43  44
ENDBRANCH  35  38
ENDBRANCH  33  34
ENDBRANCH  32  33
ENDBRANCH  31  32
ENDBRANCH   1  31
TORSDOF 21
ENDMDL
