MODEL 1
REMARK VINA RESULT:     -12.1      0.000      0.000
REMARK SMILES CC(=O)c1c(C)nn(CC(=O)N2CCC[C@H](c3cccc(C(=O)NCCCCCCNC(=O)c4ccc(-c5c6nc(c(-c7c(F)cc(S(=O)(=O)[O-])cc7F)c7ccc([nH]7)c(-c7c(F)cc(S(=O)(=O)[O-])cc7F)c7nc(c(-c8c(F)cc(S(=O)(=O)[O-])cc8F)c8ccc5[nH]8)C=C7)C=C6)cc4)c3)C2)c1C
REMARK SMILES IDX 26 1 25 2 24 3 22 4 23 5 21 7 17 8 18 9 100 10 19 11 20 12
REMARK SMILES IDX 16 13 12 14 13 15 101 16 14 17 15 18 10 19 11 20 9 21 8 22
REMARK SMILES IDX 4 23 5 24 102 25 6 26 7 27 103 28 2 29 1 30 3 31 27 32 28 33
REMARK SMILES IDX 29 34 30 35 31 36 32 37 33 39 34 40 35 41 99 42 36 43 98 44
REMARK SMILES IDX 37 45 38 46 39 47 92 48 40 49 97 50 91 51 93 52 41 53 96 54
REMARK SMILES IDX 90 55 89 56 42 58 76 59 55 60 75 61 56 62 59 63 74 64 94 65
REMARK SMILES IDX 57 66 58 67 73 69 95 70 60 71 43 72 44 73 53 74 45 75 46 76
REMARK SMILES IDX 52 77 54 78 47 79 48 80 49 81 50 82 51 83 77 84 78 85 87 86
REMARK SMILES IDX 79 87 80 88 86 89 88 90 81 91 82 92 83 93 84 94 85 95 61 96
REMARK SMILES IDX 62 97 71 98 63 99 64 100 70 101 72 102 65 103 66 104 67 105
REMARK SMILES IDX 68 106 69 107
REMARK H PARENT 24 6 31 38 93 57 59 68
REMARK Flexibility Score: inf
ROOT
ATOM      1  C   UNL A   1      39.181  24.388  26.489  1.00  0.00     0.021 C 
ENDROOT
BRANCH   1   2
ATOM      2  C   UNL A   1      37.938  23.538  26.282  1.00  0.00     0.116 C 
BRANCH   2   3
ATOM      3  N   UNL A   1      37.675  23.146  24.906  1.00  0.00    -0.352 N 
ATOM      4  C   UNL A   1      36.581  23.391  24.103  1.00  0.00     0.251 C 
ATOM      5  O   UNL A   1      36.585  22.972  22.947  1.00  0.00    -0.269 OA
ATOM      6  H   UNL A   1      38.392  22.622  24.481  1.00  0.00     0.163 HD
BRANCH   4   7
ATOM      7  C   UNL A   1      35.377  24.090  24.625  1.00  0.00     0.040 A 
ATOM      8  C   UNL A   1      33.830  25.976  24.523  1.00  0.00    -0.042 A 
ATOM      9  C   UNL A   1      33.406  25.625  25.808  1.00  0.00     0.004 A 
ATOM     10  C   UNL A   1      34.742  25.112  23.911  1.00  0.00     0.018 A 
ATOM     11  C   UNL A   1      33.912  24.511  26.482  1.00  0.00     0.001 A 
ATOM     12  C   UNL A   1      34.924  23.760  25.905  1.00  0.00     0.014 A 
BRANCH   8  13
ATOM     13  C   UNL A   1      33.483  27.309  23.846  1.00  0.00     0.039 C 
ATOM     14  N   UNL A   1      31.036  27.028  23.480  1.00  0.00    -0.340 N 
ATOM     15  C   UNL A   1      31.231  26.852  22.030  1.00  0.00     0.119 C 
ATOM     16  C   UNL A   1      32.063  27.857  24.115  1.00  0.00     0.127 C 
ATOM     17  C   UNL A   1      32.652  26.428  21.650  1.00  0.00     0.022 C 
ATOM     18  C   UNL A   1      33.694  27.313  22.324  1.00  0.00     0.012 C 
BRANCH  14  19
ATOM     19  C   UNL A   1      29.991  26.357  24.098  1.00  0.00     0.244 C 
ATOM     20  O   UNL A   1      28.830  26.761  23.904  1.00  0.00    -0.273 OA
BRANCH  19  21
ATOM     21  C   UNL A   1      30.115  25.222  25.116  1.00  0.00     0.244 C 
BRANCH  21  22
ATOM     22  N   UNL A   1      30.731  23.949  24.782  1.00  0.00    -0.259 N 
ATOM     23  C   UNL A   1      31.692  21.975  24.861  1.00  0.00     0.061 A 
ATOM     24  C   UNL A   1      31.898  22.622  23.613  1.00  0.00     0.070 A 
ATOM     25  C   UNL A   1      30.855  22.828  25.573  1.00  0.00     0.047 A 
ATOM     26  C   UNL A   1      32.771  22.201  22.483  1.00  0.00     0.069 C 
ATOM     27  N   UNL A   1      31.204  23.764  23.534  1.00  0.00    -0.177 NA
ATOM     28  C   UNL A   1      30.290  22.762  26.942  1.00  0.00     0.067 C 
BRANCH  23  29
ATOM     29  C   UNL A   1      32.332  20.746  25.310  1.00  0.00     0.163 C 
ATOM     30  C   UNL A   1      33.446  20.833  26.318  1.00  0.00     0.093 C 
ATOM     31  O   UNL A   1      31.987  19.670  24.826  1.00  0.00    -0.294 OA
ENDBRANCH  23  29
ENDBRANCH  21  22
ENDBRANCH  19  21
ENDBRANCH  14  19
ENDBRANCH   8  13
ENDBRANCH   4   7
ENDBRANCH   2   3
ENDBRANCH   1   2
BRANCH   1  32
ATOM     32  C   UNL A   1      40.107  23.972  27.625  1.00  0.00     0.002 C 
BRANCH  32  33
ATOM     33  C   UNL A   1      40.446  22.481  27.747  1.00  0.00     0.002 C 
BRANCH  33  34
ATOM     34  C   UNL A   1      41.707  21.967  27.036  1.00  0.00     0.021 C 
BRANCH  34  35
ATOM     35  C   UNL A   1      41.748  22.210  25.537  1.00  0.00     0.116 C 
BRANCH  35  36
ATOM     36  N   UNL A   1      43.088  22.509  25.038  1.00  0.00    -0.352 N 
ATOM     37  C   UNL A   1      43.773  23.714  25.070  1.00  0.00     0.251 C 
ATOM     38  H   UNL A   1      43.569  21.756  24.627  1.00  0.00     0.163 HD
ATOM     39  O   UNL A   1      44.701  23.919  24.307  1.00  0.00    -0.269 OA
BRANCH  37  40
ATOM     40  C   UNL A   1      43.351  24.746  26.040  1.00  0.00     0.039 A 
ATOM     41  C   UNL A   1      43.779  24.719  27.370  1.00  0.00     0.014 A 
ATOM     42  C   UNL A   1      42.525  25.768  25.587  1.00  0.00     0.014 A 
ATOM     43  C   UNL A   1      43.429  25.776  28.209  1.00  0.00     0.010 A 
ATOM     44  C   UNL A   1      42.347  26.891  26.349  1.00  0.00     0.010 A 
ATOM     45  C   UNL A   1      42.729  26.873  27.683  1.00  0.00    -0.014 A 
BRANCH  45  46
ATOM     46  C   UNL A   1      42.475  28.066  28.486  1.00  0.00     0.031 A 
ATOM     47  C   UNL A   1      43.566  29.072  28.413  1.00  0.00     0.074 A 
ATOM     48  C   UNL A   1      41.272  28.345  29.040  1.00  0.00     0.049 A 
ATOM     49  N   UNL A   1      44.444  29.353  29.318  1.00  0.00    -0.248 NA
ATOM     50  C   UNL A   1      43.834  29.714  27.114  1.00  0.00     0.031 C 
ATOM     51  C   UNL A   1      40.017  27.596  28.865  1.00  0.00     0.029 A 
ATOM     52  N   UNL A   1      40.872  29.417  29.781  1.00  0.00    -0.354 N 
ATOM     53  C   UNL A   1      45.172  30.423  28.802  1.00  0.00     0.074 A 
ATOM     54  C   UNL A   1      44.938  30.417  27.384  1.00  0.00     0.031 C 
ATOM     55  C   UNL A   1      38.973  28.359  29.252  1.00  0.00     0.029 A 
ATOM     56  C   UNL A   1      39.490  29.553  29.891  1.00  0.00     0.049 A 
ATOM     57  H   UNL A   1      41.505  30.042  30.202  1.00  0.00     0.167 HD
ATOM     58  C   UNL A   1      45.609  31.418  29.624  1.00  0.00     0.037 A 
ATOM     59  C   UNL A   1      38.803  30.566  30.474  1.00  0.00     0.037 A 
ATOM     60  C   UNL A   1      45.445  31.035  31.005  1.00  0.00     0.049 A 
ATOM     61  C   UNL A   1      39.725  31.228  31.425  1.00  0.00     0.074 A 
ATOM     62  C   UNL A   1      46.064  30.185  31.892  1.00  0.00     0.029 A 
ATOM     63  N   UNL A   1      44.201  31.322  31.506  1.00  0.00    -0.354 N 
ATOM     64  N   UNL A   1      40.223  30.631  32.476  1.00  0.00    -0.248 NA
ATOM     65  C   UNL A   1      40.410  32.450  31.022  1.00  0.00     0.031 C 
ATOM     66  C   UNL A   1      45.080  29.847  32.870  1.00  0.00     0.029 A 
ATOM     67  C   UNL A   1      43.902  30.533  32.583  1.00  0.00     0.049 A 
ATOM     68  H   UNL A   1      43.600  32.009  31.138  1.00  0.00     0.167 HD
ATOM     69  C   UNL A   1      41.500  31.147  32.592  1.00  0.00     0.074 A 
ATOM     70  C   UNL A   1      41.495  32.367  31.797  1.00  0.00     0.031 C 
ATOM     71  C   UNL A   1      42.533  30.374  33.032  1.00  0.00     0.037 A 
BRANCH  58  72
ATOM     72  C   UNL A   1      45.706  32.888  29.254  1.00  0.00     0.058 A 
ATOM     73  C   UNL A   1      44.539  33.567  28.842  1.00  0.00     0.135 A 
ATOM     74  C   UNL A   1      46.918  33.566  29.000  1.00  0.00     0.135 A 
ATOM     75  F   UNL A   1      43.327  33.015  29.022  1.00  0.00    -0.206 F 
ATOM     76  C   UNL A   1      44.578  34.792  28.171  1.00  0.00     0.059 A 
ATOM     77  C   UNL A   1      46.977  34.811  28.382  1.00  0.00     0.059 A 
ATOM     78  F   UNL A   1      48.114  33.021  29.244  1.00  0.00    -0.206 F 
ATOM     79  C   UNL A   1      45.806  35.401  27.936  1.00  0.00     0.060 A 
BRANCH  79  80
ATOM     80  S   UNL A   1      45.876  36.944  27.009  1.00  0.00     0.124 S 
ATOM     81  O   UNL A   1      46.581  36.528  25.802  1.00  0.00    -0.237 OA
ATOM     82  O   UNL A   1      44.462  37.266  26.849  1.00  0.00    -0.237 OA
ATOM     83  O   UNL A   1      46.617  37.834  27.897  1.00  0.00    -0.744 OA
ENDBRANCH  79  80
ENDBRANCH  58  72
BRANCH  59  84
ATOM     84  C   UNL A   1      37.489  31.137  30.083  1.00  0.00     0.058 A 
ATOM     85  C   UNL A   1      36.621  31.708  31.028  1.00  0.00     0.135 A 
ATOM     86  C   UNL A   1      37.183  31.381  28.728  1.00  0.00     0.135 A 
ATOM     87  F   UNL A   1      36.849  31.542  32.340  1.00  0.00    -0.206 F 
ATOM     88  C   UNL A   1      35.537  32.514  30.655  1.00  0.00     0.059 A 
ATOM     89  C   UNL A   1      36.109  32.179  28.331  1.00  0.00     0.059 A 
ATOM     90  F   UNL A   1      37.979  30.916  27.752  1.00  0.00    -0.206 F 
ATOM     91  C   UNL A   1      35.302  32.762  29.302  1.00  0.00     0.060 A 
BRANCH  91  92
ATOM     92  S   UNL A   1      34.002  33.930  28.828  1.00  0.00     0.124 S 
ATOM     93  O   UNL A   1      34.773  35.013  28.224  1.00  0.00    -0.237 OA
ATOM     94  O   UNL A   1      33.193  33.137  27.911  1.00  0.00    -0.237 OA
ATOM     95  O   UNL A   1      33.354  34.261  30.096  1.00  0.00    -0.744 OA
ENDBRANCH  91  92
ENDBRANCH  59  84
BRANCH  71  96
ATOM     96  C   UNL A   1      42.217  29.218  33.933  1.00  0.00     0.058 A 
ATOM     97  C   UNL A   1      42.020  27.892  33.518  1.00  0.00     0.135 A 
ATOM     98  C   UNL A   1      42.208  29.471  35.314  1.00  0.00     0.135 A 
ATOM     99  F   UNL A   1      42.087  27.556  32.223  1.00  0.00    -0.206 F 
ATOM    100  C   UNL A   1      41.798  26.864  34.441  1.00  0.00     0.059 A 
ATOM    101  C   UNL A   1      42.021  28.461  36.250  1.00  0.00     0.059 A 
ATOM    102  F   UNL A   1      42.434  30.715  35.772  1.00  0.00    -0.206 F 
ATOM    103  C   UNL A   1      41.804  27.161  35.805  1.00  0.00     0.060 A 
BRANCH 103 104
ATOM    104  S   UNL A   1      41.586  25.827  37.004  1.00  0.00     0.124 S 
ATOM    105  O   UNL A   1      42.795  25.941  37.813  1.00  0.00    -0.237 OA
ATOM    106  O   UNL A   1      40.339  26.197  37.667  1.00  0.00    -0.237 OA
ATOM    107  O   UNL A   1      41.506  24.630  36.169  1.00  0.00    -0.744 OA
ENDBRANCH 103 104
ENDBRANCH  71  96
ENDBRANCH  45  46
ENDBRANCH  37  40
ENDBRANCH  35  36
ENDBRANCH  34  35
ENDBRANCH  33  34
ENDBRANCH  32  33
ENDBRANCH   1  32
TORSDOF 21
ENDMDL
MODEL 2
REMARK VINA RESULT:     -10.1      4.864     11.189
REMARK SMILES CC(=O)c1c(C)nn(CC(=O)N2CCC[C@H](c3cccc(C(=O)NCCCCCCNC(=O)c4ccc(-c5c6nc(c(-c7c(F)cc(S(=O)(=O)[O-])cc7F)c7ccc([nH]7)c(-c7c(F)cc(S(=O)(=O)[O-])cc7F)c7nc(c(-c8c(F)cc(S(=O)(=O)[O-])cc8F)c8ccc5[nH]8)C=C7)C=C6)cc4)c3)C2)c1C
REMARK SMILES IDX 26 1 25 2 24 3 22 4 23 5 21 7 17 8 18 9 100 10 19 11 20 12
REMARK SMILES IDX 16 13 12 14 13 15 101 16 14 17 15 18 10 19 11 20 9 21 8 22
REMARK SMILES IDX 4 23 5 24 102 25 6 26 7 27 103 28 2 29 1 30 3 31 27 32 28 33
REMARK SMILES IDX 29 34 30 35 31 36 32 37 33 39 34 40 35 41 99 42 36 43 98 44
REMARK SMILES IDX 37 45 38 46 39 47 92 48 40 49 97 50 91 51 93 52 41 53 96 54
REMARK SMILES IDX 90 55 89 56 42 58 76 59 55 60 75 61 56 62 59 63 74 64 94 65
REMARK SMILES IDX 57 66 58 67 73 69 95 70 60 71 43 72 44 73 53 74 45 75 46 76
REMARK SMILES IDX 52 77 54 78 47 79 48 80 49 81 50 82 51 83 77 84 78 85 87 86
REMARK SMILES IDX 79 87 80 88 86 89 88 90 81 91 82 92 83 93 84 94 85 95 61 96
REMARK SMILES IDX 62 97 71 98 63 99 64 100 70 101 72 102 65 103 66 104 67 105
REMARK SMILES IDX 68 106 69 107
REMARK H PARENT 24 6 31 38 93 57 59 68
REMARK Flexibility Score: inf
ROOT
ATOM      1  C   UNL A   1      39.503  28.448  28.510  1.00  0.00     0.021 C 
ENDROOT
BRANCH   1   2
ATOM      2  C   UNL A   1      40.238  29.058  27.328  1.00  0.00     0.116 C 
BRANCH   2   3
ATOM      3  N   UNL A   1      40.571  28.132  26.257  1.00  0.00    -0.352 N 
ATOM      4  C   UNL A   1      41.369  27.008  26.266  1.00  0.00     0.251 C 
ATOM      5  O   UNL A   1      41.492  26.357  25.230  1.00  0.00    -0.269 OA
ATOM      6  H   UNL A   1      40.161  28.342  25.387  1.00  0.00     0.163 HD
BRANCH   4   7
ATOM      7  C   UNL A   1      42.130  26.607  27.478  1.00  0.00     0.040 A 
ATOM      8  C   UNL A   1      44.199  26.651  28.773  1.00  0.00    -0.042 A 
ATOM      9  C   UNL A   1      43.704  25.561  29.495  1.00  0.00     0.004 A 
ATOM     10  C   UNL A   1      43.331  27.226  27.842  1.00  0.00     0.018 A 
ATOM     11  C   UNL A   1      42.438  25.022  29.257  1.00  0.00     0.001 A 
ATOM     12  C   UNL A   1      41.660  25.523  28.224  1.00  0.00     0.014 A 
BRANCH   8  13
ATOM     13  C   UNL A   1      45.658  27.121  28.835  1.00  0.00     0.039 C 
ATOM     14  N   UNL A   1      46.512  26.292  26.646  1.00  0.00    -0.340 N 
ATOM     15  C   UNL A   1      47.291  25.229  27.306  1.00  0.00     0.119 C 
ATOM     16  C   UNL A   1      46.313  27.479  27.481  1.00  0.00     0.127 C 
ATOM     17  C   UNL A   1      46.794  24.888  28.712  1.00  0.00     0.022 C 
ATOM     18  C   UNL A   1      46.602  26.144  29.555  1.00  0.00     0.012 C 
BRANCH  14  19
ATOM     19  C   UNL A   1      45.991  26.051  25.384  1.00  0.00     0.244 C 
ATOM     20  O   UNL A   1      46.543  26.585  24.404  1.00  0.00    -0.273 OA
BRANCH  19  21
ATOM     21  C   UNL A   1      44.709  25.283  25.060  1.00  0.00     0.244 C 
BRANCH  21  22
ATOM     22  N   UNL A   1      44.573  23.861  25.323  1.00  0.00    -0.259 N 
ATOM     23  C   UNL A   1      44.688  21.668  25.231  1.00  0.00     0.061 A 
ATOM     24  C   UNL A   1      43.594  22.114  26.019  1.00  0.00     0.070 A 
ATOM     25  C   UNL A   1      45.360  22.828  24.860  1.00  0.00     0.047 A 
ATOM     26  C   UNL A   1      42.495  21.311  26.620  1.00  0.00     0.069 C 
ATOM     27  N   UNL A   1      43.610  23.445  26.169  1.00  0.00    -0.177 NA
ATOM     28  C   UNL A   1      46.556  23.066  24.017  1.00  0.00     0.067 C 
BRANCH  23  29
ATOM     29  C   UNL A   1      44.950  20.295  24.819  1.00  0.00     0.163 C 
ATOM     30  C   UNL A   1      46.217  19.628  25.282  1.00  0.00     0.093 C 
ATOM     31  O   UNL A   1      44.163  19.727  24.066  1.00  0.00    -0.294 OA
ENDBRANCH  23  29
ENDBRANCH  21  22
ENDBRANCH  19  21
ENDBRANCH  14  19
ENDBRANCH   8  13
ENDBRANCH   4   7
ENDBRANCH   2   3
ENDBRANCH   1   2
BRANCH   1  32
ATOM     32  C   UNL A   1      37.993  28.647  28.548  1.00  0.00     0.002 C 
BRANCH  32  33
ATOM     33  C   UNL A   1      37.474  30.088  28.631  1.00  0.00     0.002 C 
BRANCH  33  34
ATOM     34  C   UNL A   1      36.449  30.547  27.584  1.00  0.00     0.021 C 
BRANCH  34  35
ATOM     35  C   UNL A   1      35.010  30.606  28.070  1.00  0.00     0.116 C 
BRANCH  35  36
ATOM     36  N   UNL A   1      34.425  31.941  27.981  1.00  0.00    -0.352 N 
ATOM     37  C   UNL A   1      34.407  32.942  28.939  1.00  0.00     0.251 C 
ATOM     38  H   UNL A   1      33.988  32.160  27.127  1.00  0.00     0.163 HD
ATOM     39  O   UNL A   1      33.585  33.840  28.881  1.00  0.00    -0.269 OA
BRANCH  37  40
ATOM     40  C   UNL A   1      35.397  32.895  30.035  1.00  0.00     0.039 A 
ATOM     41  C   UNL A   1      35.241  32.036  31.127  1.00  0.00     0.014 A 
ATOM     42  C   UNL A   1      36.512  33.721  29.944  1.00  0.00     0.014 A 
ATOM     43  C   UNL A   1      36.259  31.966  32.077  1.00  0.00     0.010 A 
ATOM     44  C   UNL A   1      37.587  33.511  30.764  1.00  0.00     0.010 A 
ATOM     45  C   UNL A   1      37.443  32.693  31.876  1.00  0.00    -0.014 A 
BRANCH  45  46
ATOM     46  C   UNL A   1      38.592  32.531  32.763  1.00  0.00     0.031 A 
ATOM     47  C   UNL A   1      38.454  33.263  34.048  1.00  0.00     0.074 A 
ATOM     48  C   UNL A   1      39.567  31.617  32.553  1.00  0.00     0.049 A 
ATOM     49  N   UNL A   1      39.059  34.346  34.409  1.00  0.00    -0.248 NA
ATOM     50  C   UNL A   1      37.383  32.852  34.972  1.00  0.00     0.031 C 
ATOM     51  C   UNL A   1      39.610  30.585  31.503  1.00  0.00     0.029 A 
ATOM     52  N   UNL A   1      40.674  31.326  33.294  1.00  0.00    -0.354 N 
ATOM     53  C   UNL A   1      38.662  34.565  35.726  1.00  0.00     0.074 A 
ATOM     54  C   UNL A   1      37.464  33.796  35.915  1.00  0.00     0.031 C 
ATOM     55  C   UNL A   1      40.522  29.644  31.825  1.00  0.00     0.029 A 
ATOM     56  C   UNL A   1      41.269  30.106  32.979  1.00  0.00     0.049 A 
ATOM     57  H   UNL A   1      41.023  31.926  33.992  1.00  0.00     0.167 HD
ATOM     58  C   UNL A   1      39.543  35.070  36.635  1.00  0.00     0.037 A 
ATOM     59  C   UNL A   1      42.311  29.508  33.606  1.00  0.00     0.037 A 
ATOM     60  C   UNL A   1      40.728  35.552  35.970  1.00  0.00     0.049 A 
ATOM     61  C   UNL A   1      43.052  30.568  34.328  1.00  0.00     0.074 A 
ATOM     62  C   UNL A   1      41.077  36.637  35.199  1.00  0.00     0.029 A 
ATOM     63  N   UNL A   1      41.672  34.579  35.765  1.00  0.00    -0.354 N 
ATOM     64  N   UNL A   1      43.660  31.557  33.726  1.00  0.00    -0.248 NA
ATOM     65  C   UNL A   1      42.815  30.761  35.754  1.00  0.00     0.031 C 
ATOM     66  C   UNL A   1      42.183  36.218  34.401  1.00  0.00     0.029 A 
ATOM     67  C   UNL A   1      42.512  34.906  34.736  1.00  0.00     0.049 A 
ATOM     68  H   UNL A   1      41.738  33.750  36.293  1.00  0.00     0.167 HD
ATOM     69  C   UNL A   1      43.491  32.633  34.575  1.00  0.00     0.074 A 
ATOM     70  C   UNL A   1      43.129  32.054  35.862  1.00  0.00     0.031 C 
ATOM     71  C   UNL A   1      43.323  33.895  34.086  1.00  0.00     0.037 A 
BRANCH  58  72
ATOM     72  C   UNL A   1      39.601  34.698  38.107  1.00  0.00     0.058 A 
ATOM     73  C   UNL A   1      39.773  33.342  38.463  1.00  0.00     0.135 A 
ATOM     74  C   UNL A   1      39.201  35.550  39.160  1.00  0.00     0.135 A 
ATOM     75  F   UNL A   1      40.143  32.436  37.542  1.00  0.00    -0.206 F 
ATOM     76  C   UNL A   1      39.505  32.861  39.747  1.00  0.00     0.059 A 
ATOM     77  C   UNL A   1      38.980  35.101  40.458  1.00  0.00     0.059 A 
ATOM     78  F   UNL A   1      38.906  36.839  38.970  1.00  0.00    -0.206 F 
ATOM     79  C   UNL A   1      39.098  33.749  40.735  1.00  0.00     0.060 A 
BRANCH  79  80
ATOM     80  S   UNL A   1      38.679  33.131  42.375  1.00  0.00     0.124 S 
ATOM     81  O   UNL A   1      39.945  32.546  42.800  1.00  0.00    -0.237 OA
ATOM     82  O   UNL A   1      38.271  34.351  43.064  1.00  0.00    -0.237 OA
ATOM     83  O   UNL A   1      37.602  32.181  42.109  1.00  0.00    -0.744 OA
ENDBRANCH  79  80
ENDBRANCH  58  72
BRANCH  59  84
ATOM     84  C   UNL A   1      42.558  28.059  33.812  1.00  0.00     0.058 A 
ATOM     85  C   UNL A   1      43.473  27.345  33.020  1.00  0.00     0.135 A 
ATOM     86  C   UNL A   1      42.102  27.407  34.976  1.00  0.00     0.135 A 
ATOM     87  F   UNL A   1      43.973  27.898  31.904  1.00  0.00    -0.206 F 
ATOM     88  C   UNL A   1      43.945  26.077  33.383  1.00  0.00     0.059 A 
ATOM     89  C   UNL A   1      42.556  26.144  35.360  1.00  0.00     0.059 A 
ATOM     90  F   UNL A   1      41.262  28.025  35.822  1.00  0.00    -0.206 F 
ATOM     91  C   UNL A   1      43.496  25.493  34.569  1.00  0.00     0.060 A 
BRANCH  91  92
ATOM     92  S   UNL A   1      44.226  23.930  35.118  1.00  0.00     0.124 S 
ATOM     93  O   UNL A   1      43.176  22.972  34.784  1.00  0.00    -0.237 OA
ATOM     94  O   UNL A   1      45.437  23.852  34.309  1.00  0.00    -0.237 OA
ATOM     95  O   UNL A   1      44.449  24.134  36.548  1.00  0.00    -0.744 OA
ENDBRANCH  91  92
ENDBRANCH  59  84
BRANCH  71  96
ATOM     96  C   UNL A   1      43.905  34.215  32.742  1.00  0.00     0.058 A 
ATOM     97  C   UNL A   1      45.262  34.457  32.479  1.00  0.00     0.135 A 
ATOM     98  C   UNL A   1      43.031  34.177  31.644  1.00  0.00     0.135 A 
ATOM     99  F   UNL A   1      46.171  34.436  33.464  1.00  0.00    -0.206 F 
ATOM    100  C   UNL A   1      45.725  34.679  31.179  1.00  0.00     0.059 A 
ATOM    101  C   UNL A   1      43.473  34.363  30.340  1.00  0.00     0.059 A 
ATOM    102  F   UNL A   1      41.728  33.906  31.831  1.00  0.00    -0.206 F 
ATOM    103  C   UNL A   1      44.821  34.626  30.116  1.00  0.00     0.060 A 
BRANCH 103 104
ATOM    104  S   UNL A   1      45.423  34.844  28.427  1.00  0.00     0.124 S 
ATOM    105  O   UNL A   1      44.496  34.019  27.661  1.00  0.00    -0.237 OA
ATOM    106  O   UNL A   1      45.304  36.286  28.231  1.00  0.00    -0.237 OA
ATOM    107  O   UNL A   1      46.796  34.344  28.488  1.00  0.00    -0.744 OA
ENDBRANCH 103 104
ENDBRANCH  71  96
ENDBRANCH  45  46
ENDBRANCH  37  40
ENDBRANCH  35  36
ENDBRANCH  34  35
ENDBRANCH  33  34
ENDBRANCH  32  33
ENDBRANCH   1  32
TORSDOF 21
ENDMDL
MODEL 3
REMARK VINA RESULT:     -10.0      4.771      9.934
REMARK SMILES CC(=O)c1c(C)nn(CC(=O)N2CCC[C@H](c3cccc(C(=O)NCCCCCCNC(=O)c4ccc(-c5c6nc(c(-c7c(F)cc(S(=O)(=O)[O-])cc7F)c7ccc([nH]7)c(-c7c(F)cc(S(=O)(=O)[O-])cc7F)c7nc(c(-c8c(F)cc(S(=O)(=O)[O-])cc8F)c8ccc5[nH]8)C=C7)C=C6)cc4)c3)C2)c1C
REMARK SMILES IDX 26 1 25 2 24 3 22 4 23 5 21 7 17 8 18 9 100 10 19 11 20 12
REMARK SMILES IDX 16 13 12 14 13 15 101 16 14 17 15 18 10 19 11 20 9 21 8 22
REMARK SMILES IDX 4 23 5 24 102 25 6 26 7 27 103 28 2 29 1 30 3 31 27 32 28 33
REMARK SMILES IDX 29 34 30 35 31 36 32 37 33 39 34 40 35 41 99 42 36 43 98 44
REMARK SMILES IDX 37 45 38 46 39 47 92 48 40 49 97 50 91 51 93 52 41 53 96 54
REMARK SMILES IDX 90 55 89 56 42 58 76 59 55 60 75 61 56 62 59 63 74 64 94 65
REMARK SMILES IDX 57 66 58 67 73 69 95 70 60 71 43 72 44 73 53 74 45 75 46 76
REMARK SMILES IDX 52 77 54 78 47 79 48 80 49 81 50 82 51 83 77 84 78 85 87 86
REMARK SMILES IDX 79 87 80 88 86 89 88 90 81 91 82 92 83 93 84 94 85 95 61 96
REMARK SMILES IDX 62 97 71 98 63 99 64 100 70 101 72 102 65 103 66 104 67 105
REMARK SMILES IDX 68 106 69 107
REMARK H PARENT 24 6 31 38 93 57 59 68
REMARK Flexibility Score: inf
ROOT
ATOM      1  C   UNL A   1      47.566  26.128  27.659  1.00  0.00     0.021 C 
ENDROOT
BRANCH   1   2
ATOM      2  C   UNL A   1      48.982  26.167  28.209  1.00  0.00     0.116 C 
BRANCH   2   3
ATOM      3  N   UNL A   1      49.321  27.360  28.969  1.00  0.00    -0.352 N 
ATOM      4  C   UNL A   1      49.304  27.585  30.330  1.00  0.00     0.251 C 
ATOM      5  O   UNL A   1      49.656  28.683  30.756  1.00  0.00    -0.269 OA
ATOM      6  H   UNL A   1      49.609  28.129  28.426  1.00  0.00     0.163 HD
BRANCH   4   7
ATOM      7  C   UNL A   1      48.809  26.555  31.280  1.00  0.00     0.040 A 
ATOM      8  C   UNL A   1      47.006  25.660  32.663  1.00  0.00    -0.042 A 
ATOM      9  C   UNL A   1      47.974  24.915  33.342  1.00  0.00     0.004 A 
ATOM     10  C   UNL A   1      47.447  26.387  31.554  1.00  0.00     0.018 A 
ATOM     11  C   UNL A   1      49.324  24.942  32.986  1.00  0.00     0.001 A 
ATOM     12  C   UNL A   1      49.750  25.790  31.973  1.00  0.00     0.014 A 
BRANCH   8  13
ATOM     13  C   UNL A   1      45.567  25.845  33.163  1.00  0.00     0.039 C 
ATOM     14  N   UNL A   1      45.327  23.861  34.649  1.00  0.00    -0.340 N 
ATOM     15  C   UNL A   1      44.435  23.194  33.684  1.00  0.00     0.119 C 
ATOM     16  C   UNL A   1      45.272  25.323  34.587  1.00  0.00     0.127 C 
ATOM     17  C   UNL A   1      44.564  23.732  32.257  1.00  0.00     0.022 C 
ATOM     18  C   UNL A   1      44.499  25.255  32.228  1.00  0.00     0.012 C 
BRANCH  14  19
ATOM     19  C   UNL A   1      46.160  23.079  35.435  1.00  0.00     0.244 C 
ATOM     20  O   UNL A   1      46.834  23.639  36.320  1.00  0.00    -0.273 OA
BRANCH  19  21
ATOM     21  C   UNL A   1      46.448  21.588  35.254  1.00  0.00     0.244 C 
BRANCH  21  22
ATOM     22  N   UNL A   1      47.484  20.905  36.009  1.00  0.00    -0.259 N 
ATOM     23  C   UNL A   1      48.763  20.103  37.605  1.00  0.00     0.061 A 
ATOM     24  C   UNL A   1      49.432  20.143  36.352  1.00  0.00     0.070 A 
ATOM     25  C   UNL A   1      47.466  20.526  37.334  1.00  0.00     0.047 A 
ATOM     26  C   UNL A   1      50.864  19.866  36.056  1.00  0.00     0.069 C 
ATOM     27  N   UNL A   1      48.604  20.515  35.368  1.00  0.00    -0.177 NA
ATOM     28  C   UNL A   1      46.281  20.739  38.198  1.00  0.00     0.067 C 
BRANCH  23  29
ATOM     29  C   UNL A   1      49.368  19.796  38.895  1.00  0.00     0.163 C 
ATOM     30  C   UNL A   1      48.830  18.639  39.692  1.00  0.00     0.093 C 
ATOM     31  O   UNL A   1      50.267  20.513  39.329  1.00  0.00    -0.294 OA
ENDBRANCH  23  29
ENDBRANCH  21  22
ENDBRANCH  19  21
ENDBRANCH  14  19
ENDBRANCH   8  13
ENDBRANCH   4   7
ENDBRANCH   2   3
ENDBRANCH   1   2
BRANCH   1  32
ATOM     32  C   UNL A   1      47.055  24.770  27.193  1.00  0.00     0.002 C 
BRANCH  32  33
ATOM     33  C   UNL A   1      45.990  24.759  26.089  1.00  0.00     0.002 C 
BRANCH  33  34
ATOM     34  C   UNL A   1      45.630  23.412  25.446  1.00  0.00     0.021 C 
BRANCH  34  35
ATOM     35  C   UNL A   1      44.589  23.480  24.341  1.00  0.00     0.116 C 
BRANCH  35  36
ATOM     36  N   UNL A   1      43.503  22.518  24.513  1.00  0.00    -0.352 N 
ATOM     37  C   UNL A   1      42.585  22.429  25.547  1.00  0.00     0.251 C 
ATOM     38  H   UNL A   1      43.410  21.847  23.800  1.00  0.00     0.163 HD
ATOM     39  O   UNL A   1      41.989  21.386  25.758  1.00  0.00    -0.269 OA
BRANCH  37  40
ATOM     40  C   UNL A   1      42.349  23.616  26.393  1.00  0.00     0.039 A 
ATOM     41  C   UNL A   1      42.847  23.699  27.696  1.00  0.00     0.014 A 
ATOM     42  C   UNL A   1      41.626  24.673  25.848  1.00  0.00     0.014 A 
ATOM     43  C   UNL A   1      42.677  24.886  28.407  1.00  0.00     0.010 A 
ATOM     44  C   UNL A   1      41.629  25.893  26.467  1.00  0.00     0.010 A 
ATOM     45  C   UNL A   1      42.084  25.991  27.774  1.00  0.00    -0.014 A 
BRANCH  45  46
ATOM     46  C   UNL A   1      42.023  27.296  28.427  1.00  0.00     0.031 A 
ATOM     47  C   UNL A   1      43.177  28.174  28.103  1.00  0.00     0.074 A 
ATOM     48  C   UNL A   1      40.919  27.758  29.058  1.00  0.00     0.049 A 
ATOM     49  N   UNL A   1      44.173  28.483  28.865  1.00  0.00    -0.248 NA
ATOM     50  C   UNL A   1      43.345  28.616  26.707  1.00  0.00     0.031 C 
ATOM     51  C   UNL A   1      39.595  27.118  29.119  1.00  0.00     0.029 A 
ATOM     52  N   UNL A   1      40.696  28.950  29.681  1.00  0.00    -0.354 N 
ATOM     53  C   UNL A   1      44.922  29.402  28.134  1.00  0.00     0.074 A 
ATOM     54  C   UNL A   1      44.526  29.238  26.763  1.00  0.00     0.031 C 
ATOM     55  C   UNL A   1      38.668  28.020  29.503  1.00  0.00     0.029 A 
ATOM     56  C   UNL A   1      39.352  29.231  29.915  1.00  0.00     0.049 A 
ATOM     57  H   UNL A   1      41.423  29.560  29.945  1.00  0.00     0.167 HD
ATOM     58  C   UNL A   1      45.531  30.447  28.762  1.00  0.00     0.037 A 
ATOM     59  C   UNL A   1      38.822  30.372  30.420  1.00  0.00     0.037 A 
ATOM     60  C   UNL A   1      45.496  30.262  30.191  1.00  0.00     0.049 A 
ATOM     61  C   UNL A   1      39.898  31.058  31.171  1.00  0.00     0.074 A 
ATOM     62  C   UNL A   1      46.142  29.477  31.119  1.00  0.00     0.029 A 
ATOM     63  N   UNL A   1      44.346  30.730  30.774  1.00  0.00    -0.354 N 
ATOM     64  N   UNL A   1      40.464  30.555  32.236  1.00  0.00    -0.248 NA
ATOM     65  C   UNL A   1      40.630  32.147  30.534  1.00  0.00     0.031 C 
ATOM     66  C   UNL A   1      45.253  29.363  32.230  1.00  0.00     0.029 A 
ATOM     67  C   UNL A   1      44.110  30.117  31.975  1.00  0.00     0.049 A 
ATOM     68  H   UNL A   1      43.765  31.419  30.379  1.00  0.00     0.167 HD
ATOM     69  C   UNL A   1      41.783  30.956  32.147  1.00  0.00     0.074 A 
ATOM     70  C   UNL A   1      41.786  32.060  31.196  1.00  0.00     0.031 C 
ATOM     71  C   UNL A   1      42.794  30.150  32.581  1.00  0.00     0.037 A 
BRANCH  58  72
ATOM     72  C   UNL A   1      45.704  31.841  28.185  1.00  0.00     0.058 A 
ATOM     73  C   UNL A   1      47.001  32.396  28.115  1.00  0.00     0.135 A 
ATOM     74  C   UNL A   1      44.648  32.757  27.983  1.00  0.00     0.135 A 
ATOM     75  F   UNL A   1      48.085  31.624  28.301  1.00  0.00    -0.206 F 
ATOM     76  C   UNL A   1      47.228  33.762  27.926  1.00  0.00     0.059 A 
ATOM     77  C   UNL A   1      44.852  34.111  27.739  1.00  0.00     0.059 A 
ATOM     78  F   UNL A   1      43.363  32.412  28.108  1.00  0.00    -0.206 F 
ATOM     79  C   UNL A   1      46.142  34.613  27.750  1.00  0.00     0.060 A 
BRANCH  79  80
ATOM     80  S   UNL A   1      46.416  36.385  27.577  1.00  0.00     0.124 S 
ATOM     81  O   UNL A   1      46.767  36.762  28.942  1.00  0.00    -0.237 OA
ATOM     82  O   UNL A   1      47.497  36.432  26.600  1.00  0.00    -0.237 OA
ATOM     83  O   UNL A   1      45.127  36.878  27.099  1.00  0.00    -0.744 OA
ENDBRANCH  79  80
ENDBRANCH  58  72
BRANCH  59  84
ATOM     84  C   UNL A   1      37.522  31.012  30.092  1.00  0.00     0.058 A 
ATOM     85  C   UNL A   1      36.722  31.608  31.081  1.00  0.00     0.135 A 
ATOM     86  C   UNL A   1      37.174  31.295  28.755  1.00  0.00     0.135 A 
ATOM     87  F   UNL A   1      36.994  31.407  32.379  1.00  0.00    -0.206 F 
ATOM     88  C   UNL A   1      35.665  32.471  30.765  1.00  0.00     0.059 A 
ATOM     89  C   UNL A   1      36.126  32.151  28.415  1.00  0.00     0.059 A 
ATOM     90  F   UNL A   1      37.907  30.810  27.740  1.00  0.00    -0.206 F 
ATOM     91  C   UNL A   1      35.388  32.754  29.427  1.00  0.00     0.060 A 
BRANCH  91  92
ATOM     92  S   UNL A   1      34.129  33.992  29.026  1.00  0.00     0.124 S 
ATOM     93  O   UNL A   1      33.531  34.251  30.332  1.00  0.00    -0.237 OA
ATOM     94  O   UNL A   1      34.928  35.076  28.465  1.00  0.00    -0.237 OA
ATOM     95  O   UNL A   1      33.260  33.306  28.070  1.00  0.00    -0.744 OA
ENDBRANCH  91  92
ENDBRANCH  59  84
BRANCH  71  96
ATOM     96  C   UNL A   1      42.490  29.155  33.660  1.00  0.00     0.058 A 
ATOM     97  C   UNL A   1      42.111  27.819  33.454  1.00  0.00     0.135 A 
ATOM     98  C   UNL A   1      42.692  29.572  34.986  1.00  0.00     0.135 A 
ATOM     99  F   UNL A   1      41.971  27.325  32.216  1.00  0.00    -0.206 F 
ATOM    100  C   UNL A   1      41.916  26.943  34.526  1.00  0.00     0.059 A 
ATOM    101  C   UNL A   1      42.534  28.710  36.064  1.00  0.00     0.059 A 
ATOM    102  F   UNL A   1      43.096  30.828  35.241  1.00  0.00    -0.206 F 
ATOM    103  C   UNL A   1      42.134  27.399  35.828  1.00  0.00     0.060 A 
BRANCH 103 104
ATOM    104  S   UNL A   1      41.950  26.254  37.212  1.00  0.00     0.124 S 
ATOM    105  O   UNL A   1      43.030  26.669  38.100  1.00  0.00    -0.237 OA
ATOM    106  O   UNL A   1      40.596  26.537  37.680  1.00  0.00    -0.237 OA
ATOM    107  O   UNL A   1      42.123  24.941  36.592  1.00  0.00    -0.744 OA
ENDBRANCH 103 104
ENDBRANCH  71  96
ENDBRANCH  45  46
ENDBRANCH  37  40
ENDBRANCH  35  36
ENDBRANCH  34  35
ENDBRANCH  33  34
ENDBRANCH  32  33
ENDBRANCH   1  32
TORSDOF 21
ENDMDL
