MODEL 1
REMARK VINA RESULT:     -10.6      0.000      0.000
REMARK SMILES CC[C@H]1CCCC[N@H+]1[C@@H]1CC(=O)N(c2nc(CC(=O)NCCCCCCNC(=O)c3ccc(-c4c5nc(c(-c6c(F)cc(S(=O)(=O)[O-])cc6F)c6ccc([nH]6)c(-c6c(F)cc(S(=O)(=O)[O-])cc6F)c6nc(c(-c7c(F)cc(S(=O)(=O)[O-])cc7F)c7ccc4[nH]7)C=C6)C=C5)cc3)cs2)C1=O
REMARK SMILES IDX 23 1 22 2 21 3 20 4 18 5 19 6 17 8 16 9 14 10 15 11 97 12
REMARK SMILES IDX 96 13 13 14 9 15 10 16 98 17 11 18 99 19 12 20 8 21 3 22
REMARK SMILES IDX 4 23 5 24 7 25 6 27 2 28 1 29 24 30 25 31 26 32 27 33 28 34
REMARK SMILES IDX 29 36 30 37 31 38 95 39 32 40 94 41 33 42 34 43 35 44 88 45
REMARK SMILES IDX 36 46 93 47 87 48 89 49 37 50 92 51 86 52 85 53 38 55 72 56
REMARK SMILES IDX 51 57 71 58 52 59 55 60 70 61 90 62 53 63 54 64 69 66 91 67
REMARK SMILES IDX 56 68 39 69 40 70 49 71 41 72 42 73 48 74 50 75 43 76 44 77
REMARK SMILES IDX 45 78 46 79 47 80 73 81 74 82 83 83 75 84 76 85 82 86 84 87
REMARK SMILES IDX 77 88 78 89 79 90 80 91 81 92 57 93 58 94 67 95 59 96 60 97
REMARK SMILES IDX 66 98 68 99 61 100 62 101 63 102 64 103 65 104
REMARK H PARENT 20 7 8 26 27 35 89 54 55 65
REMARK Flexibility Score: inf
ROOT
ATOM      1  C   UNL A   1      34.821  31.979  28.745  1.00  0.00     0.002 C 
ENDROOT
BRANCH   1   2
ATOM      2  C   UNL A   1      35.857  31.066  28.078  1.00  0.00     0.021 C 
BRANCH   2   3
ATOM      3  C   UNL A   1      35.275  29.807  27.428  1.00  0.00     0.116 C 
BRANCH   3   4
ATOM      4  N   UNL A   1      34.202  30.132  26.501  1.00  0.00    -0.356 N 
ATOM      5  C   UNL A   1      32.987  29.528  26.339  1.00  0.00     0.226 C 
ATOM      6  O   UNL A   1      32.259  29.914  25.421  1.00  0.00    -0.275 OA
ATOM      7  H   UNL A   1      34.376  30.896  25.906  1.00  0.00     0.163 HD
BRANCH   5   8
ATOM      8  C   UNL A   1      32.533  28.434  27.290  1.00  0.00     0.157 C 
BRANCH   8   9
ATOM      9  C   UNL A   1      31.997  27.246  26.568  1.00  0.00     0.063 A 
ATOM     10  C   UNL A   1      32.304  25.499  25.240  1.00  0.00     0.199 A 
ATOM     11  N   UNL A   1      32.908  26.345  26.042  1.00  0.00    -0.224 NA
ATOM     12  S   UNL A   1      30.590  25.603  25.238  1.00  0.00    -0.104 S 
ATOM     13  C   UNL A   1      30.675  26.939  26.309  1.00  0.00     0.093 A 
BRANCH  10  14
ATOM     14  N   UNL A   1      32.915  24.533  24.485  1.00  0.00    -0.219 N 
ATOM     15  C   UNL A   1      33.769  22.477  23.767  1.00  0.00     0.285 C 
ATOM     16  C   UNL A   1      33.909  23.508  22.657  1.00  0.00     0.176 C 
ATOM     17  C   UNL A   1      33.090  23.240  24.901  1.00  0.00     0.294 C 
ATOM     18  C   UNL A   1      33.209  24.729  23.167  1.00  0.00     0.242 C 
ATOM     19  O   UNL A   1      32.696  22.725  25.941  1.00  0.00    -0.267 OA
ATOM     20  O   UNL A   1      33.045  25.723  22.472  1.00  0.00    -0.274 OA
BRANCH  15  21
ATOM     21  N   UNL A   1      34.971  21.757  24.204  1.00  0.00    -0.322 N 
ATOM     22  C   UNL A   1      36.186  22.553  24.422  1.00  0.00     0.184 C 
ATOM     23  C   UNL A   1      37.431  21.652  24.284  1.00  0.00     0.065 C 
ATOM     24  C   UNL A   1      37.365  20.370  25.103  1.00  0.00     0.012 C 
ATOM     25  C   UNL A   1      34.830  20.557  25.017  1.00  0.00     0.263 C 
ATOM     26  H   UNL A   1      35.166  21.302  23.311  1.00  0.00     0.349 HD
ATOM     27  C   UNL A   1      36.049  19.644  24.871  1.00  0.00     0.062 C 
BRANCH  22  28
ATOM     28  C   UNL A   1      36.258  23.482  25.663  1.00  0.00     0.061 C 
ATOM     29  C   UNL A   1      37.617  23.890  26.216  1.00  0.00     0.010 C 
ENDBRANCH  22  28
ENDBRANCH  15  21
ENDBRANCH  10  14
ENDBRANCH   8   9
ENDBRANCH   5   8
ENDBRANCH   3   4
ENDBRANCH   2   3
ENDBRANCH   1   2
BRANCH   1  30
ATOM     30  C   UNL A   1      34.774  33.417  28.218  1.00  0.00     0.002 C 
BRANCH  30  31
ATOM     31  C   UNL A   1      33.451  34.154  28.439  1.00  0.00     0.021 C 
BRANCH  31  32
ATOM     32  C   UNL A   1      33.580  35.552  29.040  1.00  0.00     0.116 C 
BRANCH  32  33
ATOM     33  N   UNL A   1      32.770  35.713  30.239  1.00  0.00    -0.352 N 
ATOM     34  C   UNL A   1      32.961  35.199  31.498  1.00  0.00     0.251 C 
ATOM     35  H   UNL A   1      31.967  36.273  30.130  1.00  0.00     0.163 HD
ATOM     36  O   UNL A   1      32.073  35.303  32.340  1.00  0.00    -0.269 OA
BRANCH  34  37
ATOM     37  C   UNL A   1      34.223  34.503  31.836  1.00  0.00     0.039 A 
ATOM     38  C   UNL A   1      35.427  35.209  31.750  1.00  0.00     0.014 A 
ATOM     39  C   UNL A   1      34.227  33.159  32.219  1.00  0.00     0.014 A 
ATOM     40  C   UNL A   1      36.626  34.586  32.107  1.00  0.00     0.010 A 
ATOM     41  C   UNL A   1      35.414  32.558  32.633  1.00  0.00     0.010 A 
ATOM     42  C   UNL A   1      36.626  33.265  32.583  1.00  0.00    -0.014 A 
BRANCH  42  43
ATOM     43  C   UNL A   1      37.878  32.610  33.042  1.00  0.00     0.031 A 
ATOM     44  C   UNL A   1      38.421  32.889  34.416  1.00  0.00     0.074 A 
ATOM     45  C   UNL A   1      38.570  31.828  32.191  1.00  0.00     0.049 A 
ATOM     46  N   UNL A   1      39.538  32.481  34.962  1.00  0.00    -0.248 NA
ATOM     47  C   UNL A   1      37.615  33.765  35.281  1.00  0.00     0.031 C 
ATOM     48  C   UNL A   1      38.178  31.524  30.812  1.00  0.00     0.029 A 
ATOM     49  N   UNL A   1      39.757  31.158  32.352  1.00  0.00    -0.354 N 
ATOM     50  C   UNL A   1      39.581  33.066  36.222  1.00  0.00     0.074 A 
ATOM     51  C   UNL A   1      38.397  33.888  36.345  1.00  0.00     0.031 C 
ATOM     52  C   UNL A   1      39.103  30.725  30.258  1.00  0.00     0.029 A 
ATOM     53  C   UNL A   1      40.168  30.483  31.227  1.00  0.00     0.049 A 
ATOM     54  H   UNL A   1      40.266  31.160  33.194  1.00  0.00     0.167 HD
ATOM     55  C   UNL A   1      40.514  32.918  37.193  1.00  0.00     0.037 A 
ATOM     56  C   UNL A   1      41.280  29.759  30.996  1.00  0.00     0.037 A 
ATOM     57  C   UNL A   1      41.673  32.070  37.079  1.00  0.00     0.049 A 
ATOM     58  C   UNL A   1      42.287  29.582  32.099  1.00  0.00     0.074 A 
ATOM     59  C   UNL A   1      42.633  31.792  38.037  1.00  0.00     0.029 A 
ATOM     60  N   UNL A   1      42.032  31.366  35.938  1.00  0.00    -0.354 N 
ATOM     61  N   UNL A   1      42.274  30.084  33.310  1.00  0.00    -0.248 NA
ATOM     62  C   UNL A   1      43.451  28.735  31.809  1.00  0.00     0.031 C 
ATOM     63  C   UNL A   1      43.592  30.949  37.463  1.00  0.00     0.029 A 
ATOM     64  C   UNL A   1      43.208  30.670  36.161  1.00  0.00     0.049 A 
ATOM     65  H   UNL A   1      41.523  31.362  35.095  1.00  0.00     0.167 HD
ATOM     66  C   UNL A   1      43.418  29.599  33.934  1.00  0.00     0.074 A 
ATOM     67  C   UNL A   1      44.093  28.754  32.969  1.00  0.00     0.031 C 
ATOM     68  C   UNL A   1      43.869  29.833  35.191  1.00  0.00     0.037 A 
BRANCH  55  69
ATOM     69  C   UNL A   1      40.319  33.691  38.468  1.00  0.00     0.058 A 
ATOM     70  C   UNL A   1      39.429  33.259  39.463  1.00  0.00     0.135 A 
ATOM     71  C   UNL A   1      41.049  34.867  38.706  1.00  0.00     0.135 A 
ATOM     72  F   UNL A   1      38.698  32.149  39.281  1.00  0.00    -0.206 F 
ATOM     73  C   UNL A   1      39.243  33.983  40.637  1.00  0.00     0.059 A 
ATOM     74  C   UNL A   1      40.898  35.593  39.884  1.00  0.00     0.059 A 
ATOM     75  F   UNL A   1      41.914  35.325  37.788  1.00  0.00    -0.206 F 
ATOM     76  C   UNL A   1      39.979  35.153  40.835  1.00  0.00     0.060 A 
BRANCH  76  77
ATOM     77  S   UNL A   1      39.723  36.088  42.359  1.00  0.00     0.124 S 
ATOM     78  O   UNL A   1      38.692  35.292  43.018  1.00  0.00    -0.237 OA
ATOM     79  O   UNL A   1      41.045  36.048  42.978  1.00  0.00    -0.237 OA
ATOM     80  O   UNL A   1      39.296  37.400  41.884  1.00  0.00    -0.744 OA
ENDBRANCH  76  77
ENDBRANCH  55  69
BRANCH  56  81
ATOM     81  C   UNL A   1      41.487  29.132  29.664  1.00  0.00     0.058 A 
ATOM     82  C   UNL A   1      42.299  29.741  28.698  1.00  0.00     0.135 A 
ATOM     83  C   UNL A   1      40.904  27.896  29.346  1.00  0.00     0.135 A 
ATOM     84  F   UNL A   1      42.873  30.927  28.955  1.00  0.00    -0.206 F 
ATOM     85  C   UNL A   1      42.522  29.153  27.457  1.00  0.00     0.059 A 
ATOM     86  C   UNL A   1      41.129  27.277  28.121  1.00  0.00     0.059 A 
ATOM     87  F   UNL A   1      40.132  27.264  30.245  1.00  0.00    -0.206 F 
ATOM     88  C   UNL A   1      41.934  27.918  27.180  1.00  0.00     0.060 A 
BRANCH  88  89
ATOM     89  S   UNL A   1      42.282  27.129  25.593  1.00  0.00     0.124 S 
ATOM     90  O   UNL A   1      42.319  28.278  24.696  1.00  0.00    -0.237 OA
ATOM     91  O   UNL A   1      43.562  26.475  25.847  1.00  0.00    -0.237 OA
ATOM     92  O   UNL A   1      41.150  26.223  25.415  1.00  0.00    -0.744 OA
ENDBRANCH  88  89
ENDBRANCH  56  81
BRANCH  68  93
ATOM     93  C   UNL A   1      45.140  29.149  35.609  1.00  0.00     0.058 A 
ATOM     94  C   UNL A   1      46.385  29.786  35.501  1.00  0.00     0.135 A 
ATOM     95  C   UNL A   1      45.106  27.864  36.173  1.00  0.00     0.135 A 
ATOM     96  F   UNL A   1      46.473  31.013  34.961  1.00  0.00    -0.206 F 
ATOM     97  C   UNL A   1      47.557  29.166  35.922  1.00  0.00     0.059 A 
ATOM     98  C   UNL A   1      46.261  27.234  36.623  1.00  0.00     0.059 A 
ATOM     99  F   UNL A   1      43.938  27.215  36.306  1.00  0.00    -0.206 F 
ATOM    100  C   UNL A   1      47.484  27.890  36.484  1.00  0.00     0.060 A 
BRANCH 100 101
ATOM    101  S   UNL A   1      49.006  27.110  37.064  1.00  0.00     0.124 S 
ATOM    102  O   UNL A   1      49.656  28.215  37.759  1.00  0.00    -0.237 OA
ATOM    103  O   UNL A   1      48.505  26.034  37.913  1.00  0.00    -0.237 OA
ATOM    104  O   UNL A   1      49.655  26.675  35.830  1.00  0.00    -0.744 OA
ENDBRANCH 100 101
ENDBRANCH  68  93
ENDBRANCH  42  43
ENDBRANCH  34  37
ENDBRANCH  32  33
ENDBRANCH  31  32
ENDBRANCH  30  31
ENDBRANCH   1  30
TORSDOF 20
ENDMDL
MODEL 2
REMARK VINA RESULT:     -10.5      0.952      2.017
REMARK SMILES CC[C@H]1CCCC[N@H+]1[C@@H]1CC(=O)N(c2nc(CC(=O)NCCCCCCNC(=O)c3ccc(-c4c5nc(c(-c6c(F)cc(S(=O)(=O)[O-])cc6F)c6ccc([nH]6)c(-c6c(F)cc(S(=O)(=O)[O-])cc6F)c6nc(c(-c7c(F)cc(S(=O)(=O)[O-])cc7F)c7ccc4[nH]7)C=C6)C=C5)cc3)cs2)C1=O
REMARK SMILES IDX 23 1 22 2 21 3 20 4 18 5 19 6 17 8 16 9 14 10 15 11 97 12
REMARK SMILES IDX 96 13 13 14 9 15 10 16 98 17 11 18 99 19 12 20 8 21 3 22
REMARK SMILES IDX 4 23 5 24 7 25 6 27 2 28 1 29 24 30 25 31 26 32 27 33 28 34
REMARK SMILES IDX 29 36 30 37 31 38 95 39 32 40 94 41 33 42 34 43 35 44 88 45
REMARK SMILES IDX 36 46 93 47 87 48 89 49 37 50 92 51 86 52 85 53 38 55 72 56
REMARK SMILES IDX 51 57 71 58 52 59 55 60 70 61 90 62 53 63 54 64 69 66 91 67
REMARK SMILES IDX 56 68 39 69 40 70 49 71 41 72 42 73 48 74 50 75 43 76 44 77
REMARK SMILES IDX 45 78 46 79 47 80 73 81 74 82 83 83 75 84 76 85 82 86 84 87
REMARK SMILES IDX 77 88 78 89 79 90 80 91 81 92 57 93 58 94 67 95 59 96 60 97
REMARK SMILES IDX 66 98 68 99 61 100 62 101 63 102 64 103 65 104
REMARK H PARENT 20 7 8 26 27 35 89 54 55 65
REMARK Flexibility Score: inf
ROOT
ATOM      1  C   UNL A   1      35.192  31.509  28.825  1.00  0.00     0.002 C 
ENDROOT
BRANCH   1   2
ATOM      2  C   UNL A   1      35.721  30.472  27.827  1.00  0.00     0.021 C 
BRANCH   2   3
ATOM      3  C   UNL A   1      34.639  29.612  27.166  1.00  0.00     0.116 C 
BRANCH   3   4
ATOM      4  N   UNL A   1      33.566  30.429  26.621  1.00  0.00    -0.356 N 
ATOM      5  C   UNL A   1      32.301  30.064  26.254  1.00  0.00     0.226 C 
ATOM      6  O   UNL A   1      31.578  30.911  25.726  1.00  0.00    -0.275 OA
ATOM      7  H   UNL A   1      33.782  31.382  26.500  1.00  0.00     0.163 HD
BRANCH   5   8
ATOM      8  C   UNL A   1      31.792  28.660  26.528  1.00  0.00     0.157 C 
BRANCH   8   9
ATOM      9  C   UNL A   1      31.453  27.929  25.274  1.00  0.00     0.063 A 
ATOM     10  C   UNL A   1      31.827  26.276  23.847  1.00  0.00     0.199 A 
ATOM     11  N   UNL A   1      32.019  26.680  25.081  1.00  0.00    -0.224 NA
ATOM     12  S   UNL A   1      30.781  27.269  22.916  1.00  0.00    -0.104 S 
ATOM     13  C   UNL A   1      30.662  28.365  24.228  1.00  0.00     0.093 A 
BRANCH  10  14
ATOM     14  N   UNL A   1      32.328  25.127  23.292  1.00  0.00    -0.219 N 
ATOM     15  C   UNL A   1      32.597  22.890  22.669  1.00  0.00     0.285 C 
ATOM     16  C   UNL A   1      33.646  23.745  21.975  1.00  0.00     0.176 C 
ATOM     17  C   UNL A   1      31.778  23.888  23.481  1.00  0.00     0.294 C 
ATOM     18  C   UNL A   1      33.293  25.157  22.327  1.00  0.00     0.242 C 
ATOM     19  O   UNL A   1      30.757  23.605  24.097  1.00  0.00    -0.267 OA
ATOM     20  O   UNL A   1      33.881  26.115  21.843  1.00  0.00    -0.274 OA
BRANCH  15  21
ATOM     21  N   UNL A   1      33.051  21.742  23.466  1.00  0.00    -0.322 N 
ATOM     22  C   UNL A   1      34.073  22.001  24.489  1.00  0.00     0.184 C 
ATOM     23  C   UNL A   1      34.844  20.701  24.795  1.00  0.00     0.065 C 
ATOM     24  C   UNL A   1      33.952  19.502  25.088  1.00  0.00     0.012 C 
ATOM     25  C   UNL A   1      32.128  20.649  23.735  1.00  0.00     0.263 C 
ATOM     26  H   UNL A   1      33.593  21.293  22.726  1.00  0.00     0.349 HD
ATOM     27  C   UNL A   1      32.881  19.347  24.018  1.00  0.00     0.062 C 
BRANCH  22  28
ATOM     28  C   UNL A   1      33.665  22.769  25.775  1.00  0.00     0.061 C 
ATOM     29  C   UNL A   1      34.429  22.522  27.069  1.00  0.00     0.010 C 
ENDBRANCH  22  28
ENDBRANCH  15  21
ENDBRANCH  10  14
ENDBRANCH   8   9
ENDBRANCH   5   8
ENDBRANCH   3   4
ENDBRANCH   2   3
ENDBRANCH   1   2
BRANCH   1  30
ATOM     30  C   UNL A   1      35.437  32.973  28.444  1.00  0.00     0.002 C 
BRANCH  30  31
ATOM     31  C   UNL A   1      34.182  33.782  28.105  1.00  0.00     0.021 C 
BRANCH  31  32
ATOM     32  C   UNL A   1      34.182  35.222  28.612  1.00  0.00     0.116 C 
BRANCH  32  33
ATOM     33  N   UNL A   1      33.182  35.442  29.646  1.00  0.00    -0.352 N 
ATOM     34  C   UNL A   1      33.186  35.053  30.963  1.00  0.00     0.251 C 
ATOM     35  H   UNL A   1      32.384  35.943  29.359  1.00  0.00     0.163 HD
ATOM     36  O   UNL A   1      32.170  35.179  31.640  1.00  0.00    -0.269 OA
BRANCH  34  37
ATOM     37  C   UNL A   1      34.405  34.462  31.562  1.00  0.00     0.039 A 
ATOM     38  C   UNL A   1      34.353  33.148  32.039  1.00  0.00     0.014 A 
ATOM     39  C   UNL A   1      35.587  35.199  31.671  1.00  0.00     0.014 A 
ATOM     40  C   UNL A   1      35.503  32.555  32.567  1.00  0.00     0.010 A 
ATOM     41  C   UNL A   1      36.747  34.586  32.141  1.00  0.00     0.010 A 
ATOM     42  C   UNL A   1      36.718  33.258  32.593  1.00  0.00    -0.014 A 
BRANCH  42  43
ATOM     43  C   UNL A   1      37.969  32.618  33.077  1.00  0.00     0.031 A 
ATOM     44  C   UNL A   1      38.483  32.908  34.460  1.00  0.00     0.074 A 
ATOM     45  C   UNL A   1      38.684  31.840  32.242  1.00  0.00     0.049 A 
ATOM     46  N   UNL A   1      39.594  32.513  35.028  1.00  0.00    -0.248 NA
ATOM     47  C   UNL A   1      37.653  33.777  35.307  1.00  0.00     0.031 C 
ATOM     48  C   UNL A   1      38.321  31.528  30.857  1.00  0.00     0.029 A 
ATOM     49  N   UNL A   1      39.875  31.183  32.427  1.00  0.00    -0.354 N 
ATOM     50  C   UNL A   1      39.608  33.103  36.286  1.00  0.00     0.074 A 
ATOM     51  C   UNL A   1      38.413  33.913  36.384  1.00  0.00     0.031 C 
ATOM     52  C   UNL A   1      39.265  30.736  30.323  1.00  0.00     0.029 A 
ATOM     53  C   UNL A   1      40.314  30.509  31.312  1.00  0.00     0.049 A 
ATOM     54  H   UNL A   1      40.369  31.194  33.279  1.00  0.00     0.167 HD
ATOM     55  C   UNL A   1      40.525  32.968  37.275  1.00  0.00     0.037 A 
ATOM     56  C   UNL A   1      41.438  29.796  31.105  1.00  0.00     0.037 A 
ATOM     57  C   UNL A   1      41.694  32.132  37.186  1.00  0.00     0.049 A 
ATOM     58  C   UNL A   1      42.426  29.633  32.226  1.00  0.00     0.074 A 
ATOM     59  C   UNL A   1      42.639  31.868  38.162  1.00  0.00     0.029 A 
ATOM     60  N   UNL A   1      42.081  31.428  36.054  1.00  0.00    -0.354 N 
ATOM     61  N   UNL A   1      42.386  30.140  33.436  1.00  0.00    -0.248 NA
ATOM     62  C   UNL A   1      43.605  28.798  31.961  1.00  0.00     0.031 C 
ATOM     63  C   UNL A   1      43.617  31.033  37.609  1.00  0.00     0.029 A 
ATOM     64  C   UNL A   1      43.260  30.746  36.301  1.00  0.00     0.049 A 
ATOM     65  H   UNL A   1      41.588  31.416  35.202  1.00  0.00     0.167 HD
ATOM     66  C   UNL A   1      43.523  29.669  34.082  1.00  0.00     0.074 A 
ATOM     67  C   UNL A   1      44.225  28.828  33.133  1.00  0.00     0.031 C 
ATOM     68  C   UNL A   1      43.948  29.912  35.347  1.00  0.00     0.037 A 
BRANCH  55  69
ATOM     69  C   UNL A   1      40.297  33.744  38.543  1.00  0.00     0.058 A 
ATOM     70  C   UNL A   1      40.982  34.939  38.810  1.00  0.00     0.135 A 
ATOM     71  C   UNL A   1      39.364  33.297  39.493  1.00  0.00     0.135 A 
ATOM     72  F   UNL A   1      41.894  35.404  37.942  1.00  0.00    -0.206 F 
ATOM     73  C   UNL A   1      40.776  35.648  39.989  1.00  0.00     0.059 A 
ATOM     74  C   UNL A   1      39.122  34.004  40.667  1.00  0.00     0.059 A 
ATOM     75  F   UNL A   1      38.680  32.160  39.287  1.00  0.00    -0.206 F 
ATOM     76  C   UNL A   1      39.848  35.169  40.915  1.00  0.00     0.060 A 
BRANCH  76  77
ATOM     77  S   UNL A   1      39.595  36.093  42.445  1.00  0.00     0.124 S 
ATOM     78  O   UNL A   1      39.542  37.465  41.949  1.00  0.00    -0.237 OA
ATOM     79  O   UNL A   1      38.332  35.549  42.935  1.00  0.00    -0.237 OA
ATOM     80  O   UNL A   1      40.770  35.758  43.243  1.00  0.00    -0.744 OA
ENDBRANCH  76  77
ENDBRANCH  55  69
BRANCH  56  81
ATOM     81  C   UNL A   1      41.676  29.166  29.779  1.00  0.00     0.058 A 
ATOM     82  C   UNL A   1      41.192  27.882  29.493  1.00  0.00     0.135 A 
ATOM     83  C   UNL A   1      42.362  29.851  28.764  1.00  0.00     0.135 A 
ATOM     84  F   UNL A   1      40.536  27.188  30.435  1.00  0.00    -0.206 F 
ATOM     85  C   UNL A   1      41.386  27.291  28.249  1.00  0.00     0.059 A 
ATOM     86  C   UNL A   1      42.549  29.290  27.505  1.00  0.00     0.059 A 
ATOM     87  F   UNL A   1      42.829  31.089  28.984  1.00  0.00    -0.206 F 
ATOM     88  C   UNL A   1      42.063  28.006  27.259  1.00  0.00     0.060 A 
BRANCH  88  89
ATOM     89  S   UNL A   1      42.252  27.260  25.625  1.00  0.00     0.124 S 
ATOM     90  O   UNL A   1      41.046  26.446  25.534  1.00  0.00    -0.237 OA
ATOM     91  O   UNL A   1      42.300  28.431  24.755  1.00  0.00    -0.237 OA
ATOM     92  O   UNL A   1      43.507  26.522  25.738  1.00  0.00    -0.744 OA
ENDBRANCH  88  89
ENDBRANCH  56  81
BRANCH  68  93
ATOM     93  C   UNL A   1      45.218  29.243  35.790  1.00  0.00     0.058 A 
ATOM     94  C   UNL A   1      45.212  27.963  36.364  1.00  0.00     0.135 A 
ATOM     95  C   UNL A   1      46.459  29.866  35.587  1.00  0.00     0.135 A 
ATOM     96  F   UNL A   1      44.050  27.328  36.587  1.00  0.00    -0.206 F 
ATOM     97  C   UNL A   1      46.393  27.330  36.740  1.00  0.00     0.059 A 
ATOM     98  C   UNL A   1      47.654  29.243  35.932  1.00  0.00     0.059 A 
ATOM     99  F   UNL A   1      46.520  31.088  35.032  1.00  0.00    -0.206 F 
ATOM    100  C   UNL A   1      47.609  27.978  36.518  1.00  0.00     0.060 A 
BRANCH 100 101
ATOM    101  S   UNL A   1      49.138  27.131  36.972  1.00  0.00     0.124 S 
ATOM    102  O   UNL A   1      49.916  27.249  35.744  1.00  0.00    -0.237 OA
ATOM    103  O   UNL A   1      49.613  27.923  38.103  1.00  0.00    -0.237 OA
ATOM    104  O   UNL A   1      48.691  25.782  37.305  1.00  0.00    -0.744 OA
ENDBRANCH 100 101
ENDBRANCH  68  93
ENDBRANCH  42  43
ENDBRANCH  34  37
ENDBRANCH  32  33
ENDBRANCH  31  32
ENDBRANCH  30  31
ENDBRANCH   1  30
TORSDOF 20
ENDMDL
MODEL 3
REMARK VINA RESULT:     -10.1      3.029      9.743
REMARK SMILES CC[C@H]1CCCC[N@H+]1[C@@H]1CC(=O)N(c2nc(CC(=O)NCCCCCCNC(=O)c3ccc(-c4c5nc(c(-c6c(F)cc(S(=O)(=O)[O-])cc6F)c6ccc([nH]6)c(-c6c(F)cc(S(=O)(=O)[O-])cc6F)c6nc(c(-c7c(F)cc(S(=O)(=O)[O-])cc7F)c7ccc4[nH]7)C=C6)C=C5)cc3)cs2)C1=O
REMARK SMILES IDX 23 1 22 2 21 3 20 4 18 5 19 6 17 8 16 9 14 10 15 11 97 12
REMARK SMILES IDX 96 13 13 14 9 15 10 16 98 17 11 18 99 19 12 20 8 21 3 22
REMARK SMILES IDX 4 23 5 24 7 25 6 27 2 28 1 29 24 30 25 31 26 32 27 33 28 34
REMARK SMILES IDX 29 36 30 37 31 38 95 39 32 40 94 41 33 42 34 43 35 44 88 45
REMARK SMILES IDX 36 46 93 47 87 48 89 49 37 50 92 51 86 52 85 53 38 55 72 56
REMARK SMILES IDX 51 57 71 58 52 59 55 60 70 61 90 62 53 63 54 64 69 66 91 67
REMARK SMILES IDX 56 68 39 69 40 70 49 71 41 72 42 73 48 74 50 75 43 76 44 77
REMARK SMILES IDX 45 78 46 79 47 80 73 81 74 82 83 83 75 84 76 85 82 86 84 87
REMARK SMILES IDX 77 88 78 89 79 90 80 91 81 92 57 93 58 94 67 95 59 96 60 97
REMARK SMILES IDX 66 98 68 99 61 100 62 101 63 102 64 103 65 104
REMARK H PARENT 20 7 8 26 27 35 89 54 55 65
REMARK Flexibility Score: inf
ROOT
ATOM      1  C   UNL A   1      45.710  21.211  25.273  1.00  0.00     0.002 C 
ENDROOT
BRANCH   1   2
ATOM      2  C   UNL A   1      44.512  20.264  25.411  1.00  0.00     0.021 C 
BRANCH   2   3
ATOM      3  C   UNL A   1      43.176  20.961  25.689  1.00  0.00     0.116 C 
BRANCH   3   4
ATOM      4  N   UNL A   1      42.542  20.440  26.890  1.00  0.00    -0.356 N 
ATOM      5  C   UNL A   1      41.219  20.190  27.131  1.00  0.00     0.226 C 
ATOM      6  O   UNL A   1      40.889  19.831  28.263  1.00  0.00    -0.275 OA
ATOM      7  H   UNL A   1      43.152  20.238  27.635  1.00  0.00     0.163 HD
BRANCH   5   8
ATOM      8  C   UNL A   1      40.193  20.318  26.019  1.00  0.00     0.157 C 
BRANCH   8   9
ATOM      9  C   UNL A   1      39.411  21.583  26.117  1.00  0.00     0.063 A 
ATOM     10  C   UNL A   1      37.660  22.813  25.544  1.00  0.00     0.199 A 
ATOM     11  N   UNL A   1      38.123  21.587  25.607  1.00  0.00    -0.224 NA
ATOM     12  S   UNL A   1      38.654  24.001  26.285  1.00  0.00    -0.104 S 
ATOM     13  C   UNL A   1      39.829  22.799  26.622  1.00  0.00     0.093 A 
BRANCH  10  14
ATOM     14  N   UNL A   1      36.455  23.190  25.010  1.00  0.00    -0.219 N 
ATOM     15  C   UNL A   1      34.297  24.061  24.779  1.00  0.00     0.285 C 
ATOM     16  C   UNL A   1      34.827  23.632  23.419  1.00  0.00     0.176 C 
ATOM     17  C   UNL A   1      35.441  23.752  25.739  1.00  0.00     0.294 C 
ATOM     18  C   UNL A   1      36.248  23.231  23.661  1.00  0.00     0.242 C 
ATOM     19  O   UNL A   1      35.452  24.062  26.925  1.00  0.00    -0.267 OA
ATOM     20  O   UNL A   1      37.005  22.928  22.748  1.00  0.00    -0.274 OA
BRANCH  15  21
ATOM     21  N   UNL A   1      33.011  23.513  25.229  1.00  0.00    -0.322 N 
ATOM     22  C   UNL A   1      32.088  24.437  25.900  1.00  0.00     0.184 C 
ATOM     23  C   UNL A   1      31.120  23.644  26.802  1.00  0.00     0.065 C 
ATOM     24  C   UNL A   1      30.440  22.473  26.105  1.00  0.00     0.012 C 
ATOM     25  C   UNL A   1      32.404  22.415  24.490  1.00  0.00     0.263 C 
ATOM     26  H   UNL A   1      33.383  22.970  26.010  1.00  0.00     0.349 HD
ATOM     27  C   UNL A   1      31.458  21.606  25.380  1.00  0.00     0.062 C 
BRANCH  22  28
ATOM     28  C   UNL A   1      31.363  25.516  25.052  1.00  0.00     0.061 C 
ATOM     29  C   UNL A   1      29.869  25.737  25.240  1.00  0.00     0.010 C 
ENDBRANCH  22  28
ENDBRANCH  15  21
ENDBRANCH  10  14
ENDBRANCH   8   9
ENDBRANCH   5   8
ENDBRANCH   3   4
ENDBRANCH   2   3
ENDBRANCH   1   2
BRANCH   1  30
ATOM     30  C   UNL A   1      45.392  22.701  25.430  1.00  0.00     0.002 C 
BRANCH  30  31
ATOM     31  C   UNL A   1      45.478  23.244  26.859  1.00  0.00     0.021 C 
BRANCH  31  32
ATOM     32  C   UNL A   1      44.532  24.403  27.171  1.00  0.00     0.116 C 
BRANCH  32  33
ATOM     33  N   UNL A   1      43.819  24.865  25.990  1.00  0.00    -0.352 N 
ATOM     34  C   UNL A   1      42.799  25.778  25.887  1.00  0.00     0.251 C 
ATOM     35  H   UNL A   1      44.111  24.463  25.139  1.00  0.00     0.163 HD
ATOM     36  O   UNL A   1      42.203  25.910  24.821  1.00  0.00    -0.269 OA
BRANCH  34  37
ATOM     37  C   UNL A   1      42.401  26.588  27.061  1.00  0.00     0.039 A 
ATOM     38  C   UNL A   1      41.531  26.029  28.002  1.00  0.00     0.014 A 
ATOM     39  C   UNL A   1      42.866  27.895  27.228  1.00  0.00     0.014 A 
ATOM     40  C   UNL A   1      41.178  26.758  29.142  1.00  0.00     0.010 A 
ATOM     41  C   UNL A   1      42.562  28.597  28.393  1.00  0.00     0.010 A 
ATOM     42  C   UNL A   1      41.716  28.036  29.363  1.00  0.00    -0.014 A 
BRANCH  42  43
ATOM     43  C   UNL A   1      41.415  28.794  30.604  1.00  0.00     0.031 A 
ATOM     44  C   UNL A   1      40.266  29.764  30.643  1.00  0.00     0.074 A 
ATOM     45  C   UNL A   1      42.227  28.670  31.672  1.00  0.00     0.049 A 
ATOM     46  N   UNL A   1      39.900  30.574  31.602  1.00  0.00    -0.248 NA
ATOM     47  C   UNL A   1      39.434  29.852  29.432  1.00  0.00     0.031 C 
ATOM     48  C   UNL A   1      43.407  27.806  31.742  1.00  0.00     0.029 A 
ATOM     49  N   UNL A   1      42.195  29.285  32.900  1.00  0.00    -0.354 N 
ATOM     50  C   UNL A   1      38.814  31.285  31.106  1.00  0.00     0.074 A 
ATOM     51  C   UNL A   1      38.603  30.836  29.746  1.00  0.00     0.031 C 
ATOM     52  C   UNL A   1      43.981  27.941  32.949  1.00  0.00     0.029 A 
ATOM     53  C   UNL A   1      43.231  28.921  33.727  1.00  0.00     0.049 A 
ATOM     54  H   UNL A   1      41.496  29.926  33.162  1.00  0.00     0.167 HD
ATOM     55  C   UNL A   1      38.052  32.214  31.732  1.00  0.00     0.037 A 
ATOM     56  C   UNL A   1      43.548  29.336  34.969  1.00  0.00     0.037 A 
ATOM     57  C   UNL A   1      38.243  32.631  33.097  1.00  0.00     0.049 A 
ATOM     58  C   UNL A   1      42.670  30.344  35.656  1.00  0.00     0.074 A 
ATOM     59  C   UNL A   1      37.475  33.506  33.845  1.00  0.00     0.029 A 
ATOM     60  N   UNL A   1      39.278  32.206  33.919  1.00  0.00    -0.354 N 
ATOM     61  N   UNL A   1      41.602  30.952  35.197  1.00  0.00    -0.248 NA
ATOM     62  C   UNL A   1      43.032  30.717  37.030  1.00  0.00     0.031 C 
ATOM     63  C   UNL A   1      38.066  33.638  35.107  1.00  0.00     0.029 A 
ATOM     64  C   UNL A   1      39.180  32.815  35.158  1.00  0.00     0.049 A 
ATOM     65  H   UNL A   1      39.978  31.564  33.658  1.00  0.00     0.167 HD
ATOM     66  C   UNL A   1      41.154  31.765  36.231  1.00  0.00     0.074 A 
ATOM     67  C   UNL A   1      42.059  31.561  37.345  1.00  0.00     0.031 C 
ATOM     68  C   UNL A   1      40.088  32.603  36.257  1.00  0.00     0.037 A 
BRANCH  55  69
ATOM     69  C   UNL A   1      36.937  32.843  30.944  1.00  0.00     0.058 A 
ATOM     70  C   UNL A   1      37.156  33.952  30.111  1.00  0.00     0.135 A 
ATOM     71  C   UNL A   1      35.637  32.315  31.003  1.00  0.00     0.135 A 
ATOM     72  F   UNL A   1      38.376  34.504  30.027  1.00  0.00    -0.206 F 
ATOM     73  C   UNL A   1      36.119  34.537  29.391  1.00  0.00     0.059 A 
ATOM     74  C   UNL A   1      34.590  32.868  30.272  1.00  0.00     0.059 A 
ATOM     75  F   UNL A   1      35.372  31.254  31.782  1.00  0.00    -0.206 F 
ATOM     76  C   UNL A   1      34.837  33.991  29.483  1.00  0.00     0.060 A 
BRANCH  76  77
ATOM     77  S   UNL A   1      33.498  34.764  28.550  1.00  0.00     0.124 S 
ATOM     78  O   UNL A   1      32.674  35.309  29.625  1.00  0.00    -0.237 OA
ATOM     79  O   UNL A   1      34.208  35.747  27.738  1.00  0.00    -0.237 OA
ATOM     80  O   UNL A   1      32.912  33.651  27.811  1.00  0.00    -0.744 OA
ENDBRANCH  76  77
ENDBRANCH  55  69
BRANCH  56  81
ATOM     81  C   UNL A   1      44.748  28.780  35.646  1.00  0.00     0.058 A 
ATOM     82  C   UNL A   1      45.982  29.444  35.591  1.00  0.00     0.135 A 
ATOM     83  C   UNL A   1      44.676  27.592  36.390  1.00  0.00     0.135 A 
ATOM     84  F   UNL A   1      46.100  30.580  34.887  1.00  0.00    -0.206 F 
ATOM     85  C   UNL A   1      47.106  28.947  36.241  1.00  0.00     0.059 A 
ATOM     86  C   UNL A   1      45.781  27.086  37.067  1.00  0.00     0.059 A 
ATOM     87  F   UNL A   1      43.513  26.928  36.487  1.00  0.00    -0.206 F 
ATOM     88  C   UNL A   1      46.994  27.768  36.981  1.00  0.00     0.060 A 
BRANCH  88  89
ATOM     89  S   UNL A   1      48.441  27.166  37.878  1.00  0.00     0.124 S 
ATOM     90  O   UNL A   1      48.296  25.722  37.733  1.00  0.00    -0.237 OA
ATOM     91  O   UNL A   1      49.541  27.775  37.135  1.00  0.00    -0.237 OA
ATOM     92  O   UNL A   1      48.240  27.691  39.226  1.00  0.00    -0.744 OA
ENDBRANCH  88  89
ENDBRANCH  56  81
BRANCH  68  93
ATOM     93  C   UNL A   1      39.826  33.349  37.535  1.00  0.00     0.058 A 
ATOM     94  C   UNL A   1      40.515  34.530  37.850  1.00  0.00     0.135 A 
ATOM     95  C   UNL A   1      38.836  32.907  38.427  1.00  0.00     0.135 A 
ATOM     96  F   UNL A   1      41.476  34.990  37.033  1.00  0.00    -0.206 F 
ATOM     97  C   UNL A   1      40.244  35.239  39.016  1.00  0.00     0.059 A 
ATOM     98  C   UNL A   1      38.532  33.613  39.587  1.00  0.00     0.059 A 
ATOM     99  F   UNL A   1      38.142  31.788  38.167  1.00  0.00    -0.206 F 
ATOM    100  C   UNL A   1      39.249  34.773  39.877  1.00  0.00     0.060 A 
BRANCH 100 101
ATOM    101  S   UNL A   1      38.879  35.723  41.368  1.00  0.00     0.124 S 
ATOM    102  O   UNL A   1      38.714  37.067  40.826  1.00  0.00    -0.237 OA
ATOM    103  O   UNL A   1      37.662  35.082  41.856  1.00  0.00    -0.237 OA
ATOM    104  O   UNL A   1      40.061  35.521  42.200  1.00  0.00    -0.744 OA
ENDBRANCH 100 101
ENDBRANCH  68  93
ENDBRANCH  42  43
ENDBRANCH  34  37
ENDBRANCH  32  33
ENDBRANCH  31  32
ENDBRANCH  30  31
ENDBRANCH   1  30
TORSDOF 20
ENDMDL
