MODEL 1
REMARK VINA RESULT:     -10.8      0.000      0.000
REMARK SMILES CSc1nc(N)cc(Nc2cccc(C(=O)NCCCCCCNC(=O)c3ccc(-c4c5nc(c(-c6c(F)cc(S(=O)(=O)[O-])cc6F)c6ccc([nH]6)c(-c6c(F)cc(S(=O)(=O)[O-])cc6F)c6nc(c(-c7c(F)cc(S(=O)(=O)[O-])cc7F)c7ccc4[nH]7)C=C6)C=C5)cc3)c2)n1
REMARK SMILES IDX 20 1 19 2 18 3 17 4 15 5 16 6 14 8 10 9 11 10 93 11 12 12
REMARK SMILES IDX 13 13 9 14 8 16 3 17 4 18 94 19 5 20 7 21 2 22 1 23 6 24
REMARK SMILES IDX 21 27 22 28 23 29 24 30 25 31 26 33 27 34 28 35 92 36 29 37
REMARK SMILES IDX 91 38 30 39 31 40 32 41 85 42 33 43 90 44 84 45 86 46 34 47
REMARK SMILES IDX 89 48 83 49 82 50 35 52 69 53 48 54 68 55 49 56 52 57 67 58
REMARK SMILES IDX 87 59 50 60 51 61 66 63 88 64 53 65 36 66 37 67 46 68 38 69
REMARK SMILES IDX 39 70 45 71 47 72 40 73 41 74 42 75 43 76 44 77 70 78 71 79
REMARK SMILES IDX 80 80 72 81 73 82 79 83 81 84 74 85 75 86 76 87 77 88 78 89
REMARK SMILES IDX 54 90 55 91 64 92 56 93 57 94 63 95 65 96 58 97 59 98 60 99
REMARK SMILES IDX 61 100 62 101
REMARK H PARENT 17 7 9 15 6 25 6 26 24 32 86 51 52 62
REMARK Flexibility Score: inf
ROOT
ATOM      1  C   UNL A   1      32.254  28.869  24.454  1.00  0.00     0.002 C 
ENDROOT
BRANCH   1   2
ATOM      2  C   UNL A   1      31.535  29.055  23.119  1.00  0.00     0.021 C 
BRANCH   2   3
ATOM      3  C   UNL A   1      30.909  27.808  22.508  1.00  0.00     0.116 C 
BRANCH   3   4
ATOM      4  N   UNL A   1      31.800  27.060  21.634  1.00  0.00    -0.352 N 
ATOM      5  C   UNL A   1      32.430  25.843  21.805  1.00  0.00     0.251 C 
ATOM      6  O   UNL A   1      33.177  25.438  20.914  1.00  0.00    -0.269 OA
ATOM      7  H   UNL A   1      31.986  27.496  20.772  1.00  0.00     0.163 HD
BRANCH   5   8
ATOM      8  C   UNL A   1      32.290  25.041  23.052  1.00  0.00     0.041 A 
ATOM      9  C   UNL A   1      33.298  23.915  24.975  1.00  0.00     0.040 A 
ATOM     10  C   UNL A   1      32.069  23.301  25.232  1.00  0.00     0.026 A 
ATOM     11  C   UNL A   1      33.350  24.855  23.938  1.00  0.00     0.040 A 
ATOM     12  C   UNL A   1      30.946  23.595  24.450  1.00  0.00     0.003 A 
ATOM     13  C   UNL A   1      31.061  24.445  23.347  1.00  0.00     0.014 A 
BRANCH   9  14
ATOM     14  N   UNL A   1      34.432  23.595  25.747  1.00  0.00    -0.340 N 
ATOM     15  H   UNL A   1      34.575  24.153  26.545  1.00  0.00     0.168 HD
BRANCH  14  16
ATOM     16  C   UNL A   1      35.388  22.583  25.532  1.00  0.00     0.137 A 
ATOM     17  C   UNL A   1      35.893  20.401  25.022  1.00  0.00     0.191 A 
ATOM     18  N   UNL A   1      37.209  20.581  25.156  1.00  0.00    -0.206 NA
ATOM     19  N   UNL A   1      34.975  21.356  25.194  1.00  0.00    -0.205 NA
ATOM     20  C   UNL A   1      37.609  21.806  25.510  1.00  0.00     0.130 A 
ATOM     21  C   UNL A   1      36.729  22.848  25.719  1.00  0.00     0.093 A 
BRANCH  17  22
ATOM     22  S   UNL A   1      35.235  18.790  24.674  1.00  0.00    -0.090 SA
ATOM     23  C   UNL A   1      33.473  19.171  24.590  1.00  0.00     0.094 C 
ENDBRANCH  17  22
BRANCH  20  24
ATOM     24  N   UNL A   1      38.973  22.009  25.591  1.00  0.00    -0.383 N 
ATOM     25  H   UNL A   1      39.416  22.624  24.964  1.00  0.00     0.158 HD
ATOM     26  H   UNL A   1      39.501  21.537  26.275  1.00  0.00     0.158 HD
ENDBRANCH  20  24
ENDBRANCH  14  16
ENDBRANCH   9  14
ENDBRANCH   5   8
ENDBRANCH   3   4
ENDBRANCH   2   3
ENDBRANCH   1   2
BRANCH   1  27
ATOM     27  C   UNL A   1      31.674  27.807  25.392  1.00  0.00     0.002 C 
BRANCH  27  28
ATOM     28  C   UNL A   1      32.358  27.658  26.752  1.00  0.00     0.021 C 
BRANCH  28  29
ATOM     29  C   UNL A   1      33.698  28.373  26.902  1.00  0.00     0.116 C 
BRANCH  29  30
ATOM     30  N   UNL A   1      33.554  29.741  27.369  1.00  0.00    -0.352 N 
ATOM     31  C   UNL A   1      34.438  30.521  28.077  1.00  0.00     0.251 C 
ATOM     32  H   UNL A   1      32.699  30.173  27.146  1.00  0.00     0.163 HD
ATOM     33  O   UNL A   1      34.071  31.600  28.531  1.00  0.00    -0.269 OA
BRANCH  31  34
ATOM     34  C   UNL A   1      35.822  30.052  28.310  1.00  0.00     0.039 A 
ATOM     35  C   UNL A   1      36.755  30.160  27.276  1.00  0.00     0.014 A 
ATOM     36  C   UNL A   1      36.197  29.496  29.538  1.00  0.00     0.014 A 
ATOM     37  C   UNL A   1      38.079  29.769  27.494  1.00  0.00     0.010 A 
ATOM     38  C   UNL A   1      37.532  29.177  29.776  1.00  0.00     0.010 A 
ATOM     39  C   UNL A   1      38.487  29.307  28.756  1.00  0.00    -0.014 A 
BRANCH  39  40
ATOM     40  C   UNL A   1      39.906  28.955  29.027  1.00  0.00     0.031 A 
ATOM     41  C   UNL A   1      40.833  29.966  29.646  1.00  0.00     0.074 A 
ATOM     42  C   UNL A   1      40.373  27.744  28.666  1.00  0.00     0.049 A 
ATOM     43  N   UNL A   1      42.111  29.864  29.910  1.00  0.00    -0.248 NA
ATOM     44  C   UNL A   1      40.253  31.274  29.989  1.00  0.00     0.031 C 
ATOM     45  C   UNL A   1      39.583  26.689  28.027  1.00  0.00     0.029 A 
ATOM     46  N   UNL A   1      41.626  27.194  28.783  1.00  0.00    -0.354 N 
ATOM     47  C   UNL A   1      42.486  31.091  30.446  1.00  0.00     0.074 A 
ATOM     48  C   UNL A   1      41.317  31.943  30.404  1.00  0.00     0.031 C 
ATOM     49  C   UNL A   1      40.359  25.609  27.842  1.00  0.00     0.029 A 
ATOM     50  C   UNL A   1      41.710  25.906  28.306  1.00  0.00     0.049 A 
ATOM     51  H   UNL A   1      42.391  27.675  29.171  1.00  0.00     0.167 HD
ATOM     52  C   UNL A   1      43.686  31.464  30.953  1.00  0.00     0.037 A 
ATOM     53  C   UNL A   1      42.758  25.062  28.247  1.00  0.00     0.037 A 
ATOM     54  C   UNL A   1      44.844  30.608  30.995  1.00  0.00     0.049 A 
ATOM     55  C   UNL A   1      44.093  25.512  28.778  1.00  0.00     0.074 A 
ATOM     56  C   UNL A   1      46.097  30.879  31.517  1.00  0.00     0.029 A 
ATOM     57  N   UNL A   1      44.893  29.316  30.492  1.00  0.00    -0.354 N 
ATOM     58  N   UNL A   1      44.418  26.658  29.326  1.00  0.00    -0.248 NA
ATOM     59  C   UNL A   1      45.202  24.554  28.682  1.00  0.00     0.031 C 
ATOM     60  C   UNL A   1      46.917  29.771  31.280  1.00  0.00     0.029 A 
ATOM     61  C   UNL A   1      46.162  28.786  30.665  1.00  0.00     0.049 A 
ATOM     62  H   UNL A   1      44.138  28.845  30.071  1.00  0.00     0.167 HD
ATOM     63  C   UNL A   1      45.761  26.546  29.673  1.00  0.00     0.074 A 
ATOM     64  C   UNL A   1      46.183  25.218  29.278  1.00  0.00     0.031 C 
ATOM     65  C   UNL A   1      46.568  27.459  30.269  1.00  0.00     0.037 A 
BRANCH  52  66
ATOM     66  C   UNL A   1      43.801  32.866  31.497  1.00  0.00     0.058 A 
ATOM     67  C   UNL A   1      43.631  33.145  32.864  1.00  0.00     0.135 A 
ATOM     68  C   UNL A   1      44.086  33.944  30.644  1.00  0.00     0.135 A 
ATOM     69  F   UNL A   1      43.345  32.154  33.725  1.00  0.00    -0.206 F 
ATOM     70  C   UNL A   1      43.688  34.444  33.356  1.00  0.00     0.059 A 
ATOM     71  C   UNL A   1      44.184  35.250  31.121  1.00  0.00     0.059 A 
ATOM     72  F   UNL A   1      44.264  33.740  29.329  1.00  0.00    -0.206 F 
ATOM     73  C   UNL A   1      43.960  35.491  32.475  1.00  0.00     0.060 A 
BRANCH  73  74
ATOM     74  S   UNL A   1      44.000  37.175  33.125  1.00  0.00     0.124 S 
ATOM     75  O   UNL A   1      45.239  37.158  33.896  1.00  0.00    -0.237 OA
ATOM     76  O   UNL A   1      44.022  37.978  31.908  1.00  0.00    -0.237 OA
ATOM     77  O   UNL A   1      42.774  37.265  33.911  1.00  0.00    -0.744 OA
ENDBRANCH  73  74
ENDBRANCH  52  66
BRANCH  53  78
ATOM     78  C   UNL A   1      42.576  23.691  27.701  1.00  0.00     0.058 A 
ATOM     79  C   UNL A   1      42.662  23.451  26.321  1.00  0.00     0.135 A 
ATOM     80  C   UNL A   1      42.334  22.592  28.540  1.00  0.00     0.135 A 
ATOM     81  F   UNL A   1      42.882  24.470  25.477  1.00  0.00    -0.206 F 
ATOM     82  C   UNL A   1      42.506  22.175  25.790  1.00  0.00     0.059 A 
ATOM     83  C   UNL A   1      42.202  21.302  28.036  1.00  0.00     0.059 A 
ATOM     84  F   UNL A   1      42.257  22.764  29.870  1.00  0.00    -0.206 F 
ATOM     85  C   UNL A   1      42.282  21.105  26.658  1.00  0.00     0.060 A 
BRANCH  85  86
ATOM     86  S   UNL A   1      42.139  19.444  25.963  1.00  0.00     0.124 S 
ATOM     87  O   UNL A   1      42.992  19.545  24.784  1.00  0.00    -0.237 OA
ATOM     88  O   UNL A   1      42.647  18.615  27.051  1.00  0.00    -0.237 OA
ATOM     89  O   UNL A   1      40.710  19.313  25.698  1.00  0.00    -0.744 OA
ENDBRANCH  85  86
ENDBRANCH  53  78
BRANCH  65  90
ATOM     90  C   UNL A   1      47.985  27.043  30.566  1.00  0.00     0.058 A 
ATOM     91  C   UNL A   1      49.032  27.278  29.661  1.00  0.00     0.135 A 
ATOM     92  C   UNL A   1      48.304  26.445  31.796  1.00  0.00     0.135 A 
ATOM     93  F   UNL A   1      48.781  27.838  28.468  1.00  0.00    -0.206 F 
ATOM     94  C   UNL A   1      50.341  26.913  29.955  1.00  0.00     0.059 A 
ATOM     95  C   UNL A   1      49.611  26.101  32.125  1.00  0.00     0.059 A 
ATOM     96  F   UNL A   1      47.343  26.206  32.703  1.00  0.00    -0.206 F 
ATOM     97  C   UNL A   1      50.622  26.329  31.192  1.00  0.00     0.060 A 
BRANCH  97  98
ATOM     98  S   UNL A   1      52.332  25.894  31.575  1.00  0.00     0.124 S 
ATOM     99  O   UNL A   1      52.996  26.164  30.304  1.00  0.00    -0.237 OA
ATOM    100  O   UNL A   1      52.650  26.814  32.663  1.00  0.00    -0.237 OA
ATOM    101  O   UNL A   1      52.250  24.487  31.955  1.00  0.00    -0.744 OA
ENDBRANCH  97  98
ENDBRANCH  65  90
ENDBRANCH  39  40
ENDBRANCH  31  34
ENDBRANCH  29  30
ENDBRANCH  28  29
ENDBRANCH  27  28
ENDBRANCH   1  27
TORSDOF 20
ENDMDL
MODEL 2
REMARK VINA RESULT:     -10.4      2.742      8.896
REMARK SMILES CSc1nc(N)cc(Nc2cccc(C(=O)NCCCCCCNC(=O)c3ccc(-c4c5nc(c(-c6c(F)cc(S(=O)(=O)[O-])cc6F)c6ccc([nH]6)c(-c6c(F)cc(S(=O)(=O)[O-])cc6F)c6nc(c(-c7c(F)cc(S(=O)(=O)[O-])cc7F)c7ccc4[nH]7)C=C6)C=C5)cc3)c2)n1
REMARK SMILES IDX 20 1 19 2 18 3 17 4 15 5 16 6 14 8 10 9 11 10 93 11 12 12
REMARK SMILES IDX 13 13 9 14 8 16 3 17 4 18 94 19 5 20 7 21 2 22 1 23 6 24
REMARK SMILES IDX 21 27 22 28 23 29 24 30 25 31 26 33 27 34 28 35 92 36 29 37
REMARK SMILES IDX 91 38 30 39 31 40 32 41 85 42 33 43 90 44 84 45 86 46 34 47
REMARK SMILES IDX 89 48 83 49 82 50 35 52 69 53 48 54 68 55 49 56 52 57 67 58
REMARK SMILES IDX 87 59 50 60 51 61 66 63 88 64 53 65 36 66 37 67 46 68 38 69
REMARK SMILES IDX 39 70 45 71 47 72 40 73 41 74 42 75 43 76 44 77 70 78 71 79
REMARK SMILES IDX 80 80 72 81 73 82 79 83 81 84 74 85 75 86 76 87 77 88 78 89
REMARK SMILES IDX 54 90 55 91 64 92 56 93 57 94 63 95 65 96 58 97 59 98 60 99
REMARK SMILES IDX 61 100 62 101
REMARK H PARENT 17 7 9 15 6 25 6 26 24 32 86 51 52 62
REMARK Flexibility Score: inf
ROOT
ATOM      1  C   UNL A   1      34.453  25.651  25.337  1.00  0.00     0.002 C 
ENDROOT
BRANCH   1   2
ATOM      2  C   UNL A   1      33.378  26.707  25.587  1.00  0.00     0.021 C 
BRANCH   2   3
ATOM      3  C   UNL A   1      32.102  26.227  26.266  1.00  0.00     0.116 C 
BRANCH   3   4
ATOM      4  N   UNL A   1      30.902  26.376  25.457  1.00  0.00    -0.352 N 
ATOM      5  C   UNL A   1      30.449  25.668  24.363  1.00  0.00     0.251 C 
ATOM      6  O   UNL A   1      29.401  26.023  23.823  1.00  0.00    -0.269 OA
ATOM      7  H   UNL A   1      30.310  27.110  25.739  1.00  0.00     0.163 HD
BRANCH   5   8
ATOM      8  C   UNL A   1      31.217  24.535  23.773  1.00  0.00     0.041 A 
ATOM      9  C   UNL A   1      32.058  22.243  23.910  1.00  0.00     0.040 A 
ATOM     10  C   UNL A   1      32.887  22.505  22.815  1.00  0.00     0.026 A 
ATOM     11  C   UNL A   1      31.164  23.247  24.302  1.00  0.00     0.040 A 
ATOM     12  C   UNL A   1      32.842  23.744  22.166  1.00  0.00     0.003 A 
ATOM     13  C   UNL A   1      32.028  24.766  22.658  1.00  0.00     0.014 A 
BRANCH   9  14
ATOM     14  N   UNL A   1      32.126  21.004  24.577  1.00  0.00    -0.340 N 
ATOM     15  H   UNL A   1      31.345  20.775  25.130  1.00  0.00     0.168 HD
BRANCH  14  16
ATOM     16  C   UNL A   1      33.161  20.049  24.559  1.00  0.00     0.137 A 
ATOM     17  C   UNL A   1      33.854  17.874  24.299  1.00  0.00     0.191 A 
ATOM     18  N   UNL A   1      35.132  18.157  24.564  1.00  0.00    -0.206 NA
ATOM     19  N   UNL A   1      32.866  18.773  24.284  1.00  0.00    -0.205 NA
ATOM     20  C   UNL A   1      35.412  19.431  24.854  1.00  0.00     0.130 A 
ATOM     21  C   UNL A   1      34.452  20.422  24.872  1.00  0.00     0.093 A 
BRANCH  17  22
ATOM     22  S   UNL A   1      33.341  16.198  24.020  1.00  0.00    -0.090 SA
ATOM     23  C   UNL A   1      32.644  15.800  25.636  1.00  0.00     0.094 C 
ENDBRANCH  17  22
BRANCH  20  24
ATOM     24  N   UNL A   1      36.742  19.735  25.069  1.00  0.00    -0.383 N 
ATOM     25  H   UNL A   1      37.216  20.334  24.449  1.00  0.00     0.158 HD
ATOM     26  H   UNL A   1      37.215  19.352  25.844  1.00  0.00     0.158 HD
ENDBRANCH  20  24
ENDBRANCH  14  16
ENDBRANCH   9  14
ENDBRANCH   5   8
ENDBRANCH   3   4
ENDBRANCH   2   3
ENDBRANCH   1   2
BRANCH   1  27
ATOM     27  C   UNL A   1      34.228  24.289  25.998  1.00  0.00     0.002 C 
BRANCH  27  28
ATOM     28  C   UNL A   1      35.477  23.438  26.238  1.00  0.00     0.021 C 
BRANCH  28  29
ATOM     29  C   UNL A   1      36.705  23.816  25.415  1.00  0.00     0.116 C 
BRANCH  29  30
ATOM     30  N   UNL A   1      37.788  22.857  25.551  1.00  0.00    -0.352 N 
ATOM     31  C   UNL A   1      39.042  23.023  26.089  1.00  0.00     0.251 C 
ATOM     32  H   UNL A   1      37.595  21.954  25.209  1.00  0.00     0.163 HD
ATOM     33  O   UNL A   1      39.883  22.140  25.961  1.00  0.00    -0.269 OA
BRANCH  31  34
ATOM     34  C   UNL A   1      39.385  24.275  26.800  1.00  0.00     0.039 A 
ATOM     35  C   UNL A   1      38.953  24.443  28.118  1.00  0.00     0.014 A 
ATOM     36  C   UNL A   1      40.118  25.285  26.169  1.00  0.00     0.014 A 
ATOM     37  C   UNL A   1      39.310  25.596  28.822  1.00  0.00     0.010 A 
ATOM     38  C   UNL A   1      40.536  26.397  26.896  1.00  0.00     0.010 A 
ATOM     39  C   UNL A   1      40.133  26.567  28.229  1.00  0.00    -0.014 A 
BRANCH  39  40
ATOM     40  C   UNL A   1      40.583  27.764  28.987  1.00  0.00     0.031 A 
ATOM     41  C   UNL A   1      41.951  27.796  29.614  1.00  0.00     0.074 A 
ATOM     42  C   UNL A   1      39.740  28.802  29.157  1.00  0.00     0.049 A 
ATOM     43  N   UNL A   1      42.501  28.725  30.353  1.00  0.00    -0.248 NA
ATOM     44  C   UNL A   1      42.803  26.615  29.404  1.00  0.00     0.031 C 
ATOM     45  C   UNL A   1      38.375  28.877  28.629  1.00  0.00     0.029 A 
ATOM     46  N   UNL A   1      39.902  29.991  29.823  1.00  0.00    -0.354 N 
ATOM     47  C   UNL A   1      43.758  28.241  30.697  1.00  0.00     0.074 A 
ATOM     48  C   UNL A   1      43.861  26.908  30.144  1.00  0.00     0.031 C 
ATOM     49  C   UNL A   1      37.840  30.064  28.959  1.00  0.00     0.029 A 
ATOM     50  C   UNL A   1      38.802  30.814  29.759  1.00  0.00     0.049 A 
ATOM     51  H   UNL A   1      40.728  30.232  30.301  1.00  0.00     0.167 HD
ATOM     52  C   UNL A   1      44.748  28.861  31.386  1.00  0.00     0.037 A 
ATOM     53  C   UNL A   1      38.592  32.035  30.288  1.00  0.00     0.037 A 
ATOM     54  C   UNL A   1      44.639  30.190  31.930  1.00  0.00     0.049 A 
ATOM     55  C   UNL A   1      39.689  32.689  31.085  1.00  0.00     0.074 A 
ATOM     56  C   UNL A   1      45.594  30.922  32.615  1.00  0.00     0.029 A 
ATOM     57  N   UNL A   1      43.505  30.988  31.855  1.00  0.00    -0.354 N 
ATOM     58  N   UNL A   1      40.890  32.237  31.360  1.00  0.00    -0.248 NA
ATOM     59  C   UNL A   1      39.403  34.016  31.644  1.00  0.00     0.031 C 
ATOM     60  C   UNL A   1      45.019  32.137  33.001  1.00  0.00     0.029 A 
ATOM     61  C   UNL A   1      43.726  32.191  32.505  1.00  0.00     0.049 A 
ATOM     62  H   UNL A   1      42.666  30.734  31.407  1.00  0.00     0.167 HD
ATOM     63  C   UNL A   1      41.515  33.241  32.093  1.00  0.00     0.074 A 
ATOM     64  C   UNL A   1      40.560  34.324  32.212  1.00  0.00     0.031 C 
ATOM     65  C   UNL A   1      42.767  33.264  32.615  1.00  0.00     0.037 A 
BRANCH  52  66
ATOM     66  C   UNL A   1      46.031  28.096  31.591  1.00  0.00     0.058 A 
ATOM     67  C   UNL A   1      47.084  28.158  30.663  1.00  0.00     0.135 A 
ATOM     68  C   UNL A   1      46.213  27.295  32.729  1.00  0.00     0.135 A 
ATOM     69  F   UNL A   1      46.961  28.899  29.549  1.00  0.00    -0.206 F 
ATOM     70  C   UNL A   1      48.247  27.413  30.828  1.00  0.00     0.059 A 
ATOM     71  C   UNL A   1      47.384  26.569  32.935  1.00  0.00     0.059 A 
ATOM     72  F   UNL A   1      45.245  27.200  33.655  1.00  0.00    -0.206 F 
ATOM     73  C   UNL A   1      48.385  26.618  31.966  1.00  0.00     0.060 A 
BRANCH  73  74
ATOM     74  S   UNL A   1      49.888  25.634  32.150  1.00  0.00     0.124 S 
ATOM     75  O   UNL A   1      50.103  25.173  30.782  1.00  0.00    -0.237 OA
ATOM     76  O   UNL A   1      50.845  26.617  32.645  1.00  0.00    -0.237 OA
ATOM     77  O   UNL A   1      49.503  24.601  33.106  1.00  0.00    -0.744 OA
ENDBRANCH  73  74
ENDBRANCH  52  66
BRANCH  53  78
ATOM     78  C   UNL A   1      37.303  32.737  30.045  1.00  0.00     0.058 A 
ATOM     79  C   UNL A   1      36.187  32.488  30.858  1.00  0.00     0.135 A 
ATOM     80  C   UNL A   1      37.163  33.681  29.015  1.00  0.00     0.135 A 
ATOM     81  F   UNL A   1      36.267  31.588  31.849  1.00  0.00    -0.206 F 
ATOM     82  C   UNL A   1      34.975  33.141  30.655  1.00  0.00     0.059 A 
ATOM     83  C   UNL A   1      35.970  34.367  28.810  1.00  0.00     0.059 A 
ATOM     84  F   UNL A   1      38.205  33.967  28.218  1.00  0.00    -0.206 F 
ATOM     85  C   UNL A   1      34.879  34.084  29.631  1.00  0.00     0.060 A 
BRANCH  85  86
ATOM     86  S   UNL A   1      33.319  34.968  29.413  1.00  0.00     0.124 S 
ATOM     87  O   UNL A   1      32.656  34.148  28.406  1.00  0.00    -0.237 OA
ATOM     88  O   UNL A   1      32.751  34.915  30.757  1.00  0.00    -0.237 OA
ATOM     89  O   UNL A   1      33.743  36.292  28.971  1.00  0.00    -0.744 OA
ENDBRANCH  85  86
ENDBRANCH  53  78
BRANCH  65  90
ATOM     90  C   UNL A   1      43.195  34.515  33.334  1.00  0.00     0.058 A 
ATOM     91  C   UNL A   1      43.800  35.588  32.661  1.00  0.00     0.135 A 
ATOM     92  C   UNL A   1      42.952  34.659  34.711  1.00  0.00     0.135 A 
ATOM     93  F   UNL A   1      44.063  35.499  31.348  1.00  0.00    -0.206 F 
ATOM     94  C   UNL A   1      44.169  36.750  33.330  1.00  0.00     0.059 A 
ATOM     95  C   UNL A   1      43.284  35.824  35.394  1.00  0.00     0.059 A 
ATOM     96  F   UNL A   1      42.368  33.668  35.403  1.00  0.00    -0.206 F 
ATOM     97  C   UNL A   1      43.903  36.861  34.696  1.00  0.00     0.060 A 
BRANCH  97  98
ATOM     98  S   UNL A   1      44.354  38.390  35.544  1.00  0.00     0.124 S 
ATOM     99  O   UNL A   1      43.631  39.385  34.759  1.00  0.00    -0.237 OA
ATOM    100  O   UNL A   1      43.849  38.158  36.894  1.00  0.00    -0.237 OA
ATOM    101  O   UNL A   1      45.808  38.431  35.423  1.00  0.00    -0.744 OA
ENDBRANCH  97  98
ENDBRANCH  65  90
ENDBRANCH  39  40
ENDBRANCH  31  34
ENDBRANCH  29  30
ENDBRANCH  28  29
ENDBRANCH  27  28
ENDBRANCH   1  27
TORSDOF 20
ENDMDL
MODEL 3
REMARK VINA RESULT:     -10.4      4.826     10.555
REMARK SMILES CSc1nc(N)cc(Nc2cccc(C(=O)NCCCCCCNC(=O)c3ccc(-c4c5nc(c(-c6c(F)cc(S(=O)(=O)[O-])cc6F)c6ccc([nH]6)c(-c6c(F)cc(S(=O)(=O)[O-])cc6F)c6nc(c(-c7c(F)cc(S(=O)(=O)[O-])cc7F)c7ccc4[nH]7)C=C6)C=C5)cc3)c2)n1
REMARK SMILES IDX 20 1 19 2 18 3 17 4 15 5 16 6 14 8 10 9 11 10 93 11 12 12
REMARK SMILES IDX 13 13 9 14 8 16 3 17 4 18 94 19 5 20 7 21 2 22 1 23 6 24
REMARK SMILES IDX 21 27 22 28 23 29 24 30 25 31 26 33 27 34 28 35 92 36 29 37
REMARK SMILES IDX 91 38 30 39 31 40 32 41 85 42 33 43 90 44 84 45 86 46 34 47
REMARK SMILES IDX 89 48 83 49 82 50 35 52 69 53 48 54 68 55 49 56 52 57 67 58
REMARK SMILES IDX 87 59 50 60 51 61 66 63 88 64 53 65 36 66 37 67 46 68 38 69
REMARK SMILES IDX 39 70 45 71 47 72 40 73 41 74 42 75 43 76 44 77 70 78 71 79
REMARK SMILES IDX 80 80 72 81 73 82 79 83 81 84 74 85 75 86 76 87 77 88 78 89
REMARK SMILES IDX 54 90 55 91 64 92 56 93 57 94 63 95 65 96 58 97 59 98 60 99
REMARK SMILES IDX 61 100 62 101
REMARK H PARENT 17 7 9 15 6 25 6 26 24 32 86 51 52 62
REMARK Flexibility Score: inf
ROOT
ATOM      1  C   UNL A   1      35.775  22.839  26.000  1.00  0.00     0.002 C 
ENDROOT
BRANCH   1   2
ATOM      2  C   UNL A   1      35.093  24.023  25.318  1.00  0.00     0.021 C 
BRANCH   2   3
ATOM      3  C   UNL A   1      34.750  23.849  23.844  1.00  0.00     0.116 C 
BRANCH   3   4
ATOM      4  N   UNL A   1      34.165  22.558  23.514  1.00  0.00    -0.352 N 
ATOM      5  C   UNL A   1      32.921  22.027  23.790  1.00  0.00     0.251 C 
ATOM      6  O   UNL A   1      32.679  20.875  23.428  1.00  0.00    -0.269 OA
ATOM      7  H   UNL A   1      34.759  21.959  23.007  1.00  0.00     0.163 HD
BRANCH   5   8
ATOM      8  C   UNL A   1      31.890  22.772  24.567  1.00  0.00     0.041 A 
ATOM      9  C   UNL A   1      30.358  24.664  24.789  1.00  0.00     0.040 A 
ATOM     10  C   UNL A   1      30.171  24.327  26.133  1.00  0.00     0.026 A 
ATOM     11  C   UNL A   1      31.145  23.809  24.009  1.00  0.00     0.040 A 
ATOM     12  C   UNL A   1      30.786  23.194  26.677  1.00  0.00     0.003 A 
ATOM     13  C   UNL A   1      31.663  22.431  25.903  1.00  0.00     0.014 A 
BRANCH   9  14
ATOM     14  N   UNL A   1      29.759  25.821  24.253  1.00  0.00    -0.340 N 
ATOM     15  H   UNL A   1      28.840  25.709  23.920  1.00  0.00     0.168 HD
BRANCH  14  16
ATOM     16  C   UNL A   1      30.298  27.117  24.130  1.00  0.00     0.137 A 
ATOM     17  C   UNL A   1      31.382  28.915  25.061  1.00  0.00     0.191 A 
ATOM     18  N   UNL A   1      31.312  29.647  23.946  1.00  0.00    -0.206 NA
ATOM     19  N   UNL A   1      30.901  27.675  25.185  1.00  0.00    -0.205 NA
ATOM     20  C   UNL A   1      30.692  29.086  22.903  1.00  0.00     0.130 A 
ATOM     21  C   UNL A   1      30.157  27.814  22.948  1.00  0.00     0.093 A 
BRANCH  17  22
ATOM     22  S   UNL A   1      32.072  29.600  26.546  1.00  0.00    -0.090 SA
ATOM     23  C   UNL A   1      31.827  28.220  27.683  1.00  0.00     0.094 C 
ENDBRANCH  17  22
BRANCH  20  24
ATOM     24  N   UNL A   1      30.672  29.818  21.733  1.00  0.00    -0.383 N 
ATOM     25  H   UNL A   1      29.813  30.042  21.308  1.00  0.00     0.158 HD
ATOM     26  H   UNL A   1      31.517  30.116  21.324  1.00  0.00     0.158 HD
ENDBRANCH  20  24
ENDBRANCH  14  16
ENDBRANCH   9  14
ENDBRANCH   5   8
ENDBRANCH   3   4
ENDBRANCH   2   3
ENDBRANCH   1   2
BRANCH   1  27
ATOM     27  C   UNL A   1      37.288  22.723  25.799  1.00  0.00     0.002 C 
BRANCH  27  28
ATOM     28  C   UNL A   1      38.115  23.961  26.153  1.00  0.00     0.021 C 
BRANCH  28  29
ATOM     29  C   UNL A   1      39.413  23.697  26.910  1.00  0.00     0.116 C 
BRANCH  29  30
ATOM     30  N   UNL A   1      40.592  24.061  26.143  1.00  0.00    -0.352 N 
ATOM     31  C   UNL A   1      41.442  25.130  26.297  1.00  0.00     0.251 C 
ATOM     32  H   UNL A   1      40.817  23.451  25.403  1.00  0.00     0.163 HD
ATOM     33  O   UNL A   1      42.290  25.364  25.443  1.00  0.00    -0.269 OA
BRANCH  31  34
ATOM     34  C   UNL A   1      41.319  26.011  27.481  1.00  0.00     0.039 A 
ATOM     35  C   UNL A   1      42.238  27.051  27.647  1.00  0.00     0.014 A 
ATOM     36  C   UNL A   1      40.311  25.809  28.428  1.00  0.00     0.014 A 
ATOM     37  C   UNL A   1      42.108  27.924  28.730  1.00  0.00     0.010 A 
ATOM     38  C   UNL A   1      40.139  26.725  29.464  1.00  0.00     0.010 A 
ATOM     39  C   UNL A   1      41.037  27.789  29.629  1.00  0.00    -0.014 A 
BRANCH  39  40
ATOM     40  C   UNL A   1      40.840  28.752  30.744  1.00  0.00     0.031 A 
ATOM     41  C   UNL A   1      41.695  28.666  31.980  1.00  0.00     0.074 A 
ATOM     42  C   UNL A   1      39.856  29.670  30.668  1.00  0.00     0.049 A 
ATOM     43  N   UNL A   1      41.640  29.381  33.076  1.00  0.00    -0.248 NA
ATOM     44  C   UNL A   1      42.732  27.623  31.997  1.00  0.00     0.031 C 
ATOM     45  C   UNL A   1      38.938  29.832  29.538  1.00  0.00     0.029 A 
ATOM     46  N   UNL A   1      39.461  30.638  31.556  1.00  0.00    -0.354 N 
ATOM     47  C   UNL A   1      42.629  28.872  33.910  1.00  0.00     0.074 A 
ATOM     48  C   UNL A   1      43.220  27.745  33.222  1.00  0.00     0.031 C 
ATOM     49  C   UNL A   1      38.112  30.861  29.786  1.00  0.00     0.029 A 
ATOM     50  C   UNL A   1      38.410  31.404  31.108  1.00  0.00     0.049 A 
ATOM     51  H   UNL A   1      39.889  30.773  32.432  1.00  0.00     0.167 HD
ATOM     52  C   UNL A   1      43.027  29.320  35.126  1.00  0.00     0.037 A 
ATOM     53  C   UNL A   1      37.758  32.425  31.696  1.00  0.00     0.037 A 
ATOM     54  C   UNL A   1      42.436  30.446  35.802  1.00  0.00     0.049 A 
ATOM     55  C   UNL A   1      38.189  32.880  33.064  1.00  0.00     0.074 A 
ATOM     56  C   UNL A   1      42.787  31.000  37.020  1.00  0.00     0.029 A 
ATOM     57  N   UNL A   1      41.366  31.187  35.321  1.00  0.00    -0.354 N 
ATOM     58  N   UNL A   1      39.158  32.419  33.819  1.00  0.00    -0.248 NA
ATOM     59  C   UNL A   1      37.439  33.993  33.661  1.00  0.00     0.031 C 
ATOM     60  C   UNL A   1      41.895  32.041  37.300  1.00  0.00     0.029 A 
ATOM     61  C   UNL A   1      41.026  32.177  36.230  1.00  0.00     0.049 A 
ATOM     62  H   UNL A   1      40.913  31.032  34.461  1.00  0.00     0.167 HD
ATOM     63  C   UNL A   1      39.157  33.210  34.963  1.00  0.00     0.074 A 
ATOM     64  C   UNL A   1      38.095  34.180  34.798  1.00  0.00     0.031 C 
ATOM     65  C   UNL A   1      39.966  33.139  36.051  1.00  0.00     0.037 A 
BRANCH  52  66
ATOM     66  C   UNL A   1      44.155  28.580  35.799  1.00  0.00     0.058 A 
ATOM     67  C   UNL A   1      45.500  28.910  35.562  1.00  0.00     0.135 A 
ATOM     68  C   UNL A   1      43.891  27.531  36.694  1.00  0.00     0.135 A 
ATOM     69  F   UNL A   1      45.814  29.897  34.706  1.00  0.00    -0.206 F 
ATOM     70  C   UNL A   1      46.541  28.194  36.145  1.00  0.00     0.059 A 
ATOM     71  C   UNL A   1      44.916  26.824  37.318  1.00  0.00     0.059 A 
ATOM     72  F   UNL A   1      42.625  27.174  36.965  1.00  0.00    -0.206 F 
ATOM     73  C   UNL A   1      46.238  27.150  37.018  1.00  0.00     0.060 A 
BRANCH  73  74
ATOM     74  S   UNL A   1      47.600  26.211  37.743  1.00  0.00     0.124 S 
ATOM     75  O   UNL A   1      48.732  27.094  37.481  1.00  0.00    -0.237 OA
ATOM     76  O   UNL A   1      47.193  26.102  39.140  1.00  0.00    -0.237 OA
ATOM     77  O   UNL A   1      47.591  24.962  36.990  1.00  0.00    -0.744 OA
ENDBRANCH  73  74
ENDBRANCH  52  66
BRANCH  53  78
ATOM     78  C   UNL A   1      36.654  33.114  30.974  1.00  0.00     0.058 A 
ATOM     79  C   UNL A   1      35.317  32.903  31.340  1.00  0.00     0.135 A 
ATOM     80  C   UNL A   1      36.910  34.010  29.924  1.00  0.00     0.135 A 
ATOM     81  F   UNL A   1      35.020  32.050  32.332  1.00  0.00    -0.206 F 
ATOM     82  C   UNL A   1      34.270  33.545  30.686  1.00  0.00     0.059 A 
ATOM     83  C   UNL A   1      35.883  34.685  29.273  1.00  0.00     0.059 A 
ATOM     84  F   UNL A   1      38.174  34.259  29.544  1.00  0.00    -0.206 F 
ATOM     85  C   UNL A   1      34.565  34.440  29.656  1.00  0.00     0.060 A 
BRANCH  85  86
ATOM     86  S   UNL A   1      33.203  35.313  28.853  1.00  0.00     0.124 S 
ATOM     87  O   UNL A   1      32.440  35.787  30.003  1.00  0.00    -0.237 OA
ATOM     88  O   UNL A   1      33.907  36.336  28.087  1.00  0.00    -0.237 OA
ATOM     89  O   UNL A   1      32.562  34.272  28.056  1.00  0.00    -0.744 OA
ENDBRANCH  85  86
ENDBRANCH  53  78
BRANCH  65  90
ATOM     90  C   UNL A   1      39.760  34.164  37.135  1.00  0.00     0.058 A 
ATOM     91  C   UNL A   1      39.007  33.884  38.286  1.00  0.00     0.135 A 
ATOM     92  C   UNL A   1      40.368  35.427  37.041  1.00  0.00     0.135 A 
ATOM     93  F   UNL A   1      38.397  32.697  38.423  1.00  0.00    -0.206 F 
ATOM     94  C   UNL A   1      38.844  34.829  39.294  1.00  0.00     0.059 A 
ATOM     95  C   UNL A   1      40.245  36.375  38.052  1.00  0.00     0.059 A 
ATOM     96  F   UNL A   1      41.108  35.744  35.967  1.00  0.00    -0.206 F 
ATOM     97  C   UNL A   1      39.471  36.070  39.170  1.00  0.00     0.060 A 
BRANCH  97  98
ATOM     98  S   UNL A   1      39.281  37.272  40.504  1.00  0.00     0.124 S 
ATOM     99  O   UNL A   1      40.620  37.848  40.573  1.00  0.00    -0.237 OA
ATOM    100  O   UNL A   1      38.239  38.151  39.984  1.00  0.00    -0.237 OA
ATOM    101  O   UNL A   1      38.890  36.453  41.648  1.00  0.00    -0.744 OA
ENDBRANCH  97  98
ENDBRANCH  65  90
ENDBRANCH  39  40
ENDBRANCH  31  34
ENDBRANCH  29  30
ENDBRANCH  28  29
ENDBRANCH  27  28
ENDBRANCH   1  27
TORSDOF 20
ENDMDL
