MODEL 1
REMARK VINA RESULT:     -11.3      0.000      0.000
REMARK SMILES COCCn1cc(NC(=O)N[C@H]2C=C[C@H](C(=O)NCCCCCCNC(=O)c3ccc(-c4c5nc(c(-c6c(F)cc(S(=O)(=O)[O-])cc6F)c6ccc([nH]6)c(-c6c(F)cc(S(=O)(=O)[O-])cc6F)c6nc(c(-c7c(F)cc(S(=O)(=O)[O-])cc7F)c7ccc4[nH]7)C=C6)C=C5)cc3)C2)cn1
REMARK SMILES IDX 20 1 19 2 18 3 16 4 17 5 15 7 12 8 13 9 94 10 14 11 11 12
REMARK SMILES IDX 8 13 9 14 10 16 7 18 5 19 6 20 96 21 95 22 4 23 3 24 2 25
REMARK SMILES IDX 1 26 21 27 22 28 23 29 24 30 25 31 26 32 27 34 28 35 29 36
REMARK SMILES IDX 93 37 30 38 92 39 31 40 32 41 33 42 86 43 34 44 91 45 85 46
REMARK SMILES IDX 87 47 35 48 90 49 84 50 83 51 36 53 70 54 49 55 69 56 50 57
REMARK SMILES IDX 53 58 68 59 88 60 51 61 52 62 67 64 89 65 54 66 37 67 38 68
REMARK SMILES IDX 47 69 39 70 40 71 46 72 48 73 41 74 42 75 43 76 44 77 45 78
REMARK SMILES IDX 71 79 72 80 81 81 73 82 74 83 80 84 82 85 75 86 76 87 77 88
REMARK SMILES IDX 78 89 79 90 55 91 56 92 65 93 57 94 58 95 64 96 66 97 59 98
REMARK SMILES IDX 60 99 61 100 62 101 63 102
REMARK H PARENT 18 6 8 15 11 17 25 33 87 52 53 63
REMARK Flexibility Score: inf
ROOT
ATOM      1  C   UNL A   1      38.641  22.386  26.040  1.00  0.00     0.021 C 
ENDROOT
BRANCH   1   2
ATOM      2  C   UNL A   1      37.837  21.336  25.273  1.00  0.00     0.116 C 
BRANCH   2   3
ATOM      3  N   UNL A   1      36.922  21.909  24.300  1.00  0.00    -0.356 N 
ATOM      4  C   UNL A   1      35.553  22.012  24.366  1.00  0.00     0.227 C 
ATOM      5  O   UNL A   1      34.967  22.635  23.482  1.00  0.00    -0.274 OA
ATOM      6  H   UNL A   1      37.337  22.272  23.485  1.00  0.00     0.163 HD
BRANCH   4   7
ATOM      7  C   UNL A   1      34.837  21.340  25.545  1.00  0.00     0.103 C 
ATOM      8  C   UNL A   1      32.929  22.610  26.328  1.00  0.00     0.107 C 
ATOM      9  C   UNL A   1      33.990  22.570  27.374  1.00  0.00    -0.006 C 
ATOM     10  C   UNL A   1      33.314  21.466  25.397  1.00  0.00     0.047 C 
ATOM     11  C   UNL A   1      35.083  21.958  26.896  1.00  0.00    -0.016 C 
BRANCH   8  12
ATOM     12  N   UNL A   1      31.615  22.498  26.886  1.00  0.00    -0.332 N 
ATOM     13  N   UNL A   1      30.257  23.777  25.398  1.00  0.00    -0.305 N 
ATOM     14  C   UNL A   1      30.423  22.920  26.425  1.00  0.00     0.319 C 
ATOM     15  H   UNL A   1      29.406  23.645  24.922  1.00  0.00     0.171 HD
ATOM     16  O   UNL A   1      29.426  22.393  26.923  1.00  0.00    -0.248 OA
ATOM     17  H   UNL A   1      31.576  22.034  27.754  1.00  0.00     0.165 HD
BRANCH  13  18
ATOM     18  C   UNL A   1      31.019  24.796  24.863  1.00  0.00     0.081 A 
ATOM     19  N   UNL A   1      32.078  26.719  24.738  1.00  0.00    -0.268 N 
ATOM     20  C   UNL A   1      31.497  25.847  25.618  1.00  0.00     0.135 A 
ATOM     21  N   UNL A   1      32.236  26.186  23.514  1.00  0.00    -0.179 NA
ATOM     22  C   UNL A   1      31.576  25.028  23.590  1.00  0.00     0.161 A 
BRANCH  19  23
ATOM     23  C   UNL A   1      32.479  28.088  25.018  1.00  0.00     0.172 C 
BRANCH  23  24
ATOM     24  C   UNL A   1      31.694  29.171  24.268  1.00  0.00     0.183 C 
BRANCH  24  25
ATOM     25  O   UNL A   1      30.342  28.803  23.956  1.00  0.00    -0.383 OA
ATOM     26  C   UNL A   1      30.065  28.817  22.560  1.00  0.00     0.194 C 
ENDBRANCH  24  25
ENDBRANCH  23  24
ENDBRANCH  19  23
ENDBRANCH  13  18
ENDBRANCH   8  12
ENDBRANCH   4   7
ENDBRANCH   2   3
ENDBRANCH   1   2
BRANCH   1  27
ATOM     27  C   UNL A   1      40.112  22.047  26.307  1.00  0.00     0.002 C 
BRANCH  27  28
ATOM     28  C   UNL A   1      40.416  20.664  26.902  1.00  0.00     0.002 C 
BRANCH  28  29
ATOM     29  C   UNL A   1      41.359  19.743  26.117  1.00  0.00     0.021 C 
BRANCH  29  30
ATOM     30  C   UNL A   1      42.768  19.633  26.679  1.00  0.00     0.116 C 
BRANCH  30  31
ATOM     31  N   UNL A   1      43.798  19.456  25.655  1.00  0.00    -0.352 N 
ATOM     32  C   UNL A   1      44.348  20.427  24.827  1.00  0.00     0.251 C 
ATOM     33  H   UNL A   1      44.142  18.540  25.539  1.00  0.00     0.163 HD
ATOM     34  O   UNL A   1      44.888  20.122  23.779  1.00  0.00    -0.269 OA
BRANCH  32  35
ATOM     35  C   UNL A   1      44.253  21.840  25.248  1.00  0.00     0.039 A 
ATOM     36  C   UNL A   1      43.331  22.721  24.678  1.00  0.00     0.014 A 
ATOM     37  C   UNL A   1      45.089  22.261  26.276  1.00  0.00     0.014 A 
ATOM     38  C   UNL A   1      43.198  23.997  25.223  1.00  0.00     0.010 A 
ATOM     39  C   UNL A   1      44.827  23.440  26.926  1.00  0.00     0.010 A 
ATOM     40  C   UNL A   1      43.930  24.344  26.373  1.00  0.00    -0.014 A 
BRANCH  40  41
ATOM     41  C   UNL A   1      43.696  25.612  27.062  1.00  0.00     0.031 A 
ATOM     42  C   UNL A   1      44.698  26.676  26.777  1.00  0.00     0.074 A 
ATOM     43  C   UNL A   1      42.566  25.896  27.750  1.00  0.00     0.049 A 
ATOM     44  N   UNL A   1      45.577  27.166  27.588  1.00  0.00    -0.248 NA
ATOM     45  C   UNL A   1      44.837  27.156  25.393  1.00  0.00     0.031 C 
ATOM     46  C   UNL A   1      41.345  25.091  27.889  1.00  0.00     0.029 A 
ATOM     47  N   UNL A   1      42.235  27.041  28.405  1.00  0.00    -0.354 N 
ATOM     48  C   UNL A   1      46.225  28.178  26.887  1.00  0.00     0.074 A 
ATOM     49  C   UNL A   1      45.865  28.001  25.504  1.00  0.00     0.031 C 
ATOM     50  C   UNL A   1      40.343  25.860  28.367  1.00  0.00     0.029 A 
ATOM     51  C   UNL A   1      40.891  27.148  28.745  1.00  0.00     0.049 A 
ATOM     52  H   UNL A   1      42.895  27.738  28.623  1.00  0.00     0.167 HD
ATOM     53  C   UNL A   1      46.818  29.220  27.536  1.00  0.00     0.037 A 
ATOM     54  C   UNL A   1      40.267  28.220  29.294  1.00  0.00     0.037 A 
ATOM     55  C   UNL A   1      47.010  28.924  28.935  1.00  0.00     0.049 A 
ATOM     56  C   UNL A   1      41.322  29.040  29.947  1.00  0.00     0.074 A 
ATOM     57  C   UNL A   1      47.666  27.922  29.626  1.00  0.00     0.029 A 
ATOM     58  N   UNL A   1      46.142  29.488  29.840  1.00  0.00    -0.354 N 
ATOM     59  N   UNL A   1      42.008  28.642  30.983  1.00  0.00    -0.248 NA
ATOM     60  C   UNL A   1      41.935  30.099  29.162  1.00  0.00     0.031 C 
ATOM     61  C   UNL A   1      46.800  27.601  30.714  1.00  0.00     0.029 A 
ATOM     62  C   UNL A   1      45.716  28.481  30.671  1.00  0.00     0.049 A 
ATOM     63  H   UNL A   1      45.877  30.434  29.885  1.00  0.00     0.167 HD
ATOM     64  C   UNL A   1      43.304  29.072  30.735  1.00  0.00     0.074 A 
ATOM     65  C   UNL A   1      43.179  30.038  29.644  1.00  0.00     0.031 C 
ATOM     66  C   UNL A   1      44.386  28.405  31.238  1.00  0.00     0.037 A 
BRANCH  53  67
ATOM     67  C   UNL A   1      46.902  30.625  26.986  1.00  0.00     0.058 A 
ATOM     68  C   UNL A   1      48.129  31.318  27.027  1.00  0.00     0.135 A 
ATOM     69  C   UNL A   1      45.771  31.411  26.671  1.00  0.00     0.135 A 
ATOM     70  F   UNL A   1      49.267  30.676  27.334  1.00  0.00    -0.206 F 
ATOM     71  C   UNL A   1      48.216  32.697  26.827  1.00  0.00     0.059 A 
ATOM     72  C   UNL A   1      45.843  32.775  26.413  1.00  0.00     0.059 A 
ATOM     73  F   UNL A   1      44.528  30.916  26.694  1.00  0.00    -0.206 F 
ATOM     74  C   UNL A   1      47.063  33.418  26.533  1.00  0.00     0.060 A 
BRANCH  74  75
ATOM     75  S   UNL A   1      47.153  35.209  26.368  1.00  0.00     0.124 S 
ATOM     76  O   UNL A   1      45.840  35.515  25.811  1.00  0.00    -0.237 OA
ATOM     77  O   UNL A   1      47.378  35.628  27.747  1.00  0.00    -0.237 OA
ATOM     78  O   UNL A   1      48.284  35.405  25.467  1.00  0.00    -0.744 OA
ENDBRANCH  74  75
ENDBRANCH  53  67
BRANCH  54  79
ATOM     79  C   UNL A   1      38.900  28.732  29.013  1.00  0.00     0.058 A 
ATOM     80  C   UNL A   1      37.969  28.924  30.050  1.00  0.00     0.135 A 
ATOM     81  C   UNL A   1      38.576  29.316  27.772  1.00  0.00     0.135 A 
ATOM     82  F   UNL A   1      38.203  28.417  31.270  1.00  0.00    -0.206 F 
ATOM     83  C   UNL A   1      36.815  29.697  29.883  1.00  0.00     0.059 A 
ATOM     84  C   UNL A   1      37.427  30.084  27.580  1.00  0.00     0.059 A 
ATOM     85  F   UNL A   1      39.413  29.234  26.726  1.00  0.00    -0.206 F 
ATOM     86  C   UNL A   1      36.566  30.294  28.648  1.00  0.00     0.060 A 
BRANCH  86  87
ATOM     87  S   UNL A   1      35.177  31.441  28.479  1.00  0.00     0.124 S 
ATOM     88  O   UNL A   1      35.729  32.451  27.583  1.00  0.00    -0.237 OA
ATOM     89  O   UNL A   1      34.138  30.586  27.916  1.00  0.00    -0.237 OA
ATOM     90  O   UNL A   1      34.942  31.884  29.851  1.00  0.00    -0.744 OA
ENDBRANCH  86  87
ENDBRANCH  54  79
BRANCH  66  91
ATOM     91  C   UNL A   1      44.159  27.357  32.302  1.00  0.00     0.058 A 
ATOM     92  C   UNL A   1      44.079  25.972  32.063  1.00  0.00     0.135 A 
ATOM     93  C   UNL A   1      44.175  27.767  33.645  1.00  0.00     0.135 A 
ATOM     94  F   UNL A   1      44.161  25.480  30.820  1.00  0.00    -0.206 F 
ATOM     95  C   UNL A   1      43.977  25.046  33.104  1.00  0.00     0.059 A 
ATOM     96  C   UNL A   1      44.108  26.860  34.700  1.00  0.00     0.059 A 
ATOM     97  F   UNL A   1      44.310  29.068  33.948  1.00  0.00    -0.206 F 
ATOM     98  C   UNL A   1      43.993  25.500  34.422  1.00  0.00     0.060 A 
BRANCH  98  99
ATOM     99  S   UNL A   1      43.928  24.300  35.770  1.00  0.00     0.124 S 
ATOM    100  O   UNL A   1      45.309  23.835  35.833  1.00  0.00    -0.237 OA
ATOM    101  O   UNL A   1      43.481  25.112  36.899  1.00  0.00    -0.237 OA
ATOM    102  O   UNL A   1      42.958  23.313  35.303  1.00  0.00    -0.744 OA
ENDBRANCH  98  99
ENDBRANCH  66  91
ENDBRANCH  40  41
ENDBRANCH  32  35
ENDBRANCH  30  31
ENDBRANCH  29  30
ENDBRANCH  28  29
ENDBRANCH  27  28
ENDBRANCH   1  27
TORSDOF 21
ENDMDL
MODEL 2
REMARK VINA RESULT:     -11.0      1.658      3.409
REMARK SMILES COCCn1cc(NC(=O)N[C@H]2C=C[C@H](C(=O)NCCCCCCNC(=O)c3ccc(-c4c5nc(c(-c6c(F)cc(S(=O)(=O)[O-])cc6F)c6ccc([nH]6)c(-c6c(F)cc(S(=O)(=O)[O-])cc6F)c6nc(c(-c7c(F)cc(S(=O)(=O)[O-])cc7F)c7ccc4[nH]7)C=C6)C=C5)cc3)C2)cn1
REMARK SMILES IDX 20 1 19 2 18 3 16 4 17 5 15 7 12 8 13 9 94 10 14 11 11 12
REMARK SMILES IDX 8 13 9 14 10 16 7 18 5 19 6 20 96 21 95 22 4 23 3 24 2 25
REMARK SMILES IDX 1 26 21 27 22 28 23 29 24 30 25 31 26 32 27 34 28 35 29 36
REMARK SMILES IDX 93 37 30 38 92 39 31 40 32 41 33 42 86 43 34 44 91 45 85 46
REMARK SMILES IDX 87 47 35 48 90 49 84 50 83 51 36 53 70 54 49 55 69 56 50 57
REMARK SMILES IDX 53 58 68 59 88 60 51 61 52 62 67 64 89 65 54 66 37 67 38 68
REMARK SMILES IDX 47 69 39 70 40 71 46 72 48 73 41 74 42 75 43 76 44 77 45 78
REMARK SMILES IDX 71 79 72 80 81 81 73 82 74 83 80 84 82 85 75 86 76 87 77 88
REMARK SMILES IDX 78 89 79 90 55 91 56 92 65 93 57 94 58 95 64 96 66 97 59 98
REMARK SMILES IDX 60 99 61 100 62 101 63 102
REMARK H PARENT 18 6 8 15 11 17 25 33 87 52 53 63
REMARK Flexibility Score: inf
ROOT
ATOM      1  C   UNL A   1      40.528  22.141  26.855  1.00  0.00     0.021 C 
ENDROOT
BRANCH   1   2
ATOM      2  C   UNL A   1      39.166  22.756  26.535  1.00  0.00     0.116 C 
BRANCH   2   3
ATOM      3  N   UNL A   1      38.442  22.042  25.497  1.00  0.00    -0.356 N 
ATOM      4  C   UNL A   1      37.218  22.338  24.947  1.00  0.00     0.227 C 
ATOM      5  O   UNL A   1      36.824  21.667  23.994  1.00  0.00    -0.274 OA
ATOM      6  H   UNL A   1      38.886  21.240  25.141  1.00  0.00     0.163 HD
BRANCH   4   7
ATOM      7  C   UNL A   1      36.414  23.493  25.558  1.00  0.00     0.103 C 
ATOM      8  C   UNL A   1      34.022  23.210  25.296  1.00  0.00     0.107 C 
ATOM      9  C   UNL A   1      34.495  24.387  24.511  1.00  0.00    -0.006 C 
ATOM     10  C   UNL A   1      35.164  22.963  26.276  1.00  0.00     0.047 C 
ATOM     11  C   UNL A   1      35.831  24.474  24.575  1.00  0.00    -0.016 C 
BRANCH   8  12
ATOM     12  N   UNL A   1      32.754  23.448  25.917  1.00  0.00    -0.332 N 
ATOM     13  N   UNL A   1      31.843  21.261  26.199  1.00  0.00    -0.305 N 
ATOM     14  C   UNL A   1      31.840  22.592  26.411  1.00  0.00     0.319 C 
ATOM     15  H   UNL A   1      31.422  20.756  26.932  1.00  0.00     0.171 HD
ATOM     16  O   UNL A   1      31.013  23.066  27.193  1.00  0.00    -0.248 OA
ATOM     17  H   UNL A   1      32.508  24.399  25.996  1.00  0.00     0.165 HD
BRANCH  13  18
ATOM     18  C   UNL A   1      32.308  20.449  25.185  1.00  0.00     0.081 A 
ATOM     19  N   UNL A   1      33.382  18.801  24.203  1.00  0.00    -0.268 N 
ATOM     20  C   UNL A   1      32.947  19.250  25.420  1.00  0.00     0.135 A 
ATOM     21  N   UNL A   1      32.848  19.489  23.179  1.00  0.00    -0.179 NA
ATOM     22  C   UNL A   1      32.212  20.498  23.780  1.00  0.00     0.161 A 
BRANCH  19  23
ATOM     23  C   UNL A   1      34.333  17.727  23.970  1.00  0.00     0.172 C 
BRANCH  23  24
ATOM     24  C   UNL A   1      34.194  16.510  24.894  1.00  0.00     0.183 C 
BRANCH  24  25
ATOM     25  O   UNL A   1      33.181  15.580  24.486  1.00  0.00    -0.383 OA
ATOM     26  C   UNL A   1      32.666  14.802  25.561  1.00  0.00     0.194 C 
ENDBRANCH  24  25
ENDBRANCH  23  24
ENDBRANCH  19  23
ENDBRANCH  13  18
ENDBRANCH   8  12
ENDBRANCH   4   7
ENDBRANCH   2   3
ENDBRANCH   1   2
BRANCH   1  27
ATOM     27  C   UNL A   1      40.566  20.613  26.980  1.00  0.00     0.002 C 
BRANCH  27  28
ATOM     28  C   UNL A   1      41.812  19.993  27.632  1.00  0.00     0.002 C 
BRANCH  28  29
ATOM     29  C   UNL A   1      42.660  19.039  26.781  1.00  0.00     0.021 C 
BRANCH  29  30
ATOM     30  C   UNL A   1      42.726  19.382  25.301  1.00  0.00     0.116 C 
BRANCH  30  31
ATOM     31  N   UNL A   1      44.088  19.568  24.801  1.00  0.00    -0.352 N 
ATOM     32  C   UNL A   1      44.796  20.758  24.687  1.00  0.00     0.251 C 
ATOM     33  H   UNL A   1      44.559  18.753  24.510  1.00  0.00     0.163 HD
ATOM     34  O   UNL A   1      45.737  20.856  23.921  1.00  0.00    -0.269 OA
BRANCH  32  35
ATOM     35  C   UNL A   1      44.372  21.905  25.517  1.00  0.00     0.039 A 
ATOM     36  C   UNL A   1      44.856  22.099  26.813  1.00  0.00     0.014 A 
ATOM     37  C   UNL A   1      43.500  22.825  24.945  1.00  0.00     0.014 A 
ATOM     38  C   UNL A   1      44.528  23.277  27.482  1.00  0.00     0.010 A 
ATOM     39  C   UNL A   1      43.333  24.056  25.525  1.00  0.00     0.010 A 
ATOM     40  C   UNL A   1      43.787  24.273  26.820  1.00  0.00    -0.014 A 
BRANCH  40  41
ATOM     41  C   UNL A   1      43.563  25.580  27.433  1.00  0.00     0.031 A 
ATOM     42  C   UNL A   1      44.583  26.613  27.103  1.00  0.00     0.074 A 
ATOM     43  C   UNL A   1      42.429  25.917  28.090  1.00  0.00     0.049 A 
ATOM     44  N   UNL A   1      45.458  27.136  27.896  1.00  0.00    -0.248 NA
ATOM     45  C   UNL A   1      44.745  27.012  25.695  1.00  0.00     0.031 C 
ATOM     46  C   UNL A   1      41.195  25.138  28.258  1.00  0.00     0.029 A 
ATOM     47  N   UNL A   1      42.105  27.102  28.675  1.00  0.00    -0.354 N 
ATOM     48  C   UNL A   1      46.129  28.099  27.148  1.00  0.00     0.074 A 
ATOM     49  C   UNL A   1      45.784  27.848  25.772  1.00  0.00     0.031 C 
ATOM     50  C   UNL A   1      40.197  25.946  28.678  1.00  0.00     0.029 A 
ATOM     51  C   UNL A   1      40.759  27.246  28.990  1.00  0.00     0.049 A 
ATOM     52  H   UNL A   1      42.772  27.801  28.862  1.00  0.00     0.167 HD
ATOM     53  C   UNL A   1      46.729  29.168  27.745  1.00  0.00     0.037 A 
ATOM     54  C   UNL A   1      40.143  28.355  29.470  1.00  0.00     0.037 A 
ATOM     55  C   UNL A   1      46.899  28.949  29.160  1.00  0.00     0.049 A 
ATOM     56  C   UNL A   1      41.201  29.197  30.089  1.00  0.00     0.074 A 
ATOM     57  C   UNL A   1      47.532  27.979  29.916  1.00  0.00     0.029 A 
ATOM     58  N   UNL A   1      46.028  29.574  30.021  1.00  0.00    -0.354 N 
ATOM     59  N   UNL A   1      41.869  28.849  31.155  1.00  0.00    -0.248 NA
ATOM     60  C   UNL A   1      41.838  30.201  29.254  1.00  0.00     0.031 C 
ATOM     61  C   UNL A   1      46.649  27.732  31.008  1.00  0.00     0.029 A 
ATOM     62  C   UNL A   1      45.577  28.621  30.901  1.00  0.00     0.049 A 
ATOM     63  H   UNL A   1      45.775  30.525  30.009  1.00  0.00     0.167 HD
ATOM     64  C   UNL A   1      43.174  29.247  30.900  1.00  0.00     0.074 A 
ATOM     65  C   UNL A   1      43.075  30.151  29.755  1.00  0.00     0.031 C 
ATOM     66  C   UNL A   1      44.240  28.596  31.454  1.00  0.00     0.037 A 
BRANCH  53  67
ATOM     67  C   UNL A   1      46.838  30.538  27.117  1.00  0.00     0.058 A 
ATOM     68  C   UNL A   1      48.082  31.203  27.107  1.00  0.00     0.135 A 
ATOM     69  C   UNL A   1      45.723  31.333  26.772  1.00  0.00     0.135 A 
ATOM     70  F   UNL A   1      49.208  30.551  27.437  1.00  0.00    -0.206 F 
ATOM     71  C   UNL A   1      48.199  32.566  26.831  1.00  0.00     0.059 A 
ATOM     72  C   UNL A   1      45.824  32.678  26.438  1.00  0.00     0.059 A 
ATOM     73  F   UNL A   1      44.469  30.869  26.834  1.00  0.00    -0.206 F 
ATOM     74  C   UNL A   1      47.059  33.298  26.509  1.00  0.00     0.060 A 
BRANCH  74  75
ATOM     75  S   UNL A   1      47.189  35.074  26.245  1.00  0.00     0.124 S 
ATOM     76  O   UNL A   1      47.055  35.162  24.796  1.00  0.00    -0.237 OA
ATOM     77  O   UNL A   1      46.064  35.578  27.025  1.00  0.00    -0.237 OA
ATOM     78  O   UNL A   1      48.509  35.396  26.780  1.00  0.00    -0.744 OA
ENDBRANCH  74  75
ENDBRANCH  53  67
BRANCH  54  79
ATOM     79  C   UNL A   1      38.787  28.869  29.143  1.00  0.00     0.058 A 
ATOM     80  C   UNL A   1      37.832  29.092  30.151  1.00  0.00     0.135 A 
ATOM     81  C   UNL A   1      38.497  29.423  27.879  1.00  0.00     0.135 A 
ATOM     82  F   UNL A   1      38.033  28.615  31.389  1.00  0.00    -0.206 F 
ATOM     83  C   UNL A   1      36.687  29.868  29.936  1.00  0.00     0.059 A 
ATOM     84  C   UNL A   1      37.359  30.193  27.640  1.00  0.00     0.059 A 
ATOM     85  F   UNL A   1      39.359  29.308  26.857  1.00  0.00    -0.206 F 
ATOM     86  C   UNL A   1      36.473  30.435  28.681  1.00  0.00     0.060 A 
BRANCH  86  87
ATOM     87  S   UNL A   1      35.096  31.586  28.449  1.00  0.00     0.124 S 
ATOM     88  O   UNL A   1      34.098  30.735  27.809  1.00  0.00    -0.237 OA
ATOM     89  O   UNL A   1      34.804  31.996  29.818  1.00  0.00    -0.237 OA
ATOM     90  O   UNL A   1      35.670  32.625  27.598  1.00  0.00    -0.744 OA
ENDBRANCH  86  87
ENDBRANCH  54  79
BRANCH  66  91
ATOM     91  C   UNL A   1      43.985  27.613  32.573  1.00  0.00     0.058 A 
ATOM     92  C   UNL A   1      43.699  27.967  33.905  1.00  0.00     0.135 A 
ATOM     93  C   UNL A   1      43.875  26.253  32.243  1.00  0.00     0.135 A 
ATOM     94  F   UNL A   1      43.676  29.250  34.290  1.00  0.00    -0.206 F 
ATOM     95  C   UNL A   1      43.364  27.012  34.869  1.00  0.00     0.059 A 
ATOM     96  C   UNL A   1      43.512  25.287  33.178  1.00  0.00     0.059 A 
ATOM     97  F   UNL A   1      44.075  25.851  30.977  1.00  0.00    -0.206 F 
ATOM     98  C   UNL A   1      43.272  25.672  34.495  1.00  0.00     0.060 A 
BRANCH  98  99
ATOM     99  S   UNL A   1      42.775  24.446  35.724  1.00  0.00     0.124 S 
ATOM    100  O   UNL A   1      41.338  24.677  35.825  1.00  0.00    -0.237 OA
ATOM    101  O   UNL A   1      43.171  23.187  35.097  1.00  0.00    -0.237 OA
ATOM    102  O   UNL A   1      43.550  24.812  36.907  1.00  0.00    -0.744 OA
ENDBRANCH  98  99
ENDBRANCH  66  91
ENDBRANCH  40  41
ENDBRANCH  32  35
ENDBRANCH  30  31
ENDBRANCH  29  30
ENDBRANCH  28  29
ENDBRANCH  27  28
ENDBRANCH   1  27
TORSDOF 21
ENDMDL
MODEL 3
REMARK VINA RESULT:     -11.0      2.691      3.897
REMARK SMILES COCCn1cc(NC(=O)N[C@H]2C=C[C@H](C(=O)NCCCCCCNC(=O)c3ccc(-c4c5nc(c(-c6c(F)cc(S(=O)(=O)[O-])cc6F)c6ccc([nH]6)c(-c6c(F)cc(S(=O)(=O)[O-])cc6F)c6nc(c(-c7c(F)cc(S(=O)(=O)[O-])cc7F)c7ccc4[nH]7)C=C6)C=C5)cc3)C2)cn1
REMARK SMILES IDX 20 1 19 2 18 3 16 4 17 5 15 7 12 8 13 9 94 10 14 11 11 12
REMARK SMILES IDX 8 13 9 14 10 16 7 18 5 19 6 20 96 21 95 22 4 23 3 24 2 25
REMARK SMILES IDX 1 26 21 27 22 28 23 29 24 30 25 31 26 32 27 34 28 35 29 36
REMARK SMILES IDX 93 37 30 38 92 39 31 40 32 41 33 42 86 43 34 44 91 45 85 46
REMARK SMILES IDX 87 47 35 48 90 49 84 50 83 51 36 53 70 54 49 55 69 56 50 57
REMARK SMILES IDX 53 58 68 59 88 60 51 61 52 62 67 64 89 65 54 66 37 67 38 68
REMARK SMILES IDX 47 69 39 70 40 71 46 72 48 73 41 74 42 75 43 76 44 77 45 78
REMARK SMILES IDX 71 79 72 80 81 81 73 82 74 83 80 84 82 85 75 86 76 87 77 88
REMARK SMILES IDX 78 89 79 90 55 91 56 92 65 93 57 94 58 95 64 96 66 97 59 98
REMARK SMILES IDX 60 99 61 100 62 101 63 102
REMARK H PARENT 18 6 8 15 11 17 25 33 87 52 53 63
REMARK Flexibility Score: inf
ROOT
ATOM      1  C   UNL A   1      35.654  22.775  25.704  1.00  0.00     0.021 C 
ENDROOT
BRANCH   1   2
ATOM      2  C   UNL A   1      34.608  22.343  26.731  1.00  0.00     0.116 C 
BRANCH   2   3
ATOM      3  N   UNL A   1      33.643  23.384  27.042  1.00  0.00    -0.356 N 
ATOM      4  C   UNL A   1      32.501  23.728  26.359  1.00  0.00     0.227 C 
ATOM      5  O   UNL A   1      31.754  24.572  26.851  1.00  0.00    -0.274 OA
ATOM      6  H   UNL A   1      33.833  23.915  27.849  1.00  0.00     0.163 HD
BRANCH   4   7
ATOM      7  C   UNL A   1      32.227  23.033  25.019  1.00  0.00     0.103 C 
ATOM      8  C   UNL A   1      31.932  24.601  23.195  1.00  0.00     0.107 C 
ATOM      9  C   UNL A   1      30.661  23.868  23.462  1.00  0.00    -0.006 C 
ATOM     10  C   UNL A   1      32.983  23.734  23.881  1.00  0.00     0.047 C 
ATOM     11  C   UNL A   1      30.801  23.082  24.539  1.00  0.00    -0.016 C 
BRANCH   8  12
ATOM     12  N   UNL A   1      32.157  24.802  21.796  1.00  0.00    -0.332 N 
ATOM     13  N   UNL A   1      32.709  27.119  21.640  1.00  0.00    -0.305 N 
ATOM     14  C   UNL A   1      32.600  25.879  21.121  1.00  0.00     0.319 C 
ATOM     15  H   UNL A   1      33.415  27.653  21.210  1.00  0.00     0.171 HD
ATOM     16  O   UNL A   1      33.029  25.674  19.983  1.00  0.00    -0.248 OA
ATOM     17  H   UNL A   1      31.952  24.022  21.231  1.00  0.00     0.165 HD
BRANCH  13  18
ATOM     18  C   UNL A   1      32.053  27.803  22.643  1.00  0.00     0.081 A 
ATOM     19  N   UNL A   1      31.670  28.668  24.627  1.00  0.00    -0.268 N 
ATOM     20  C   UNL A   1      32.652  28.128  23.842  1.00  0.00     0.135 A 
ATOM     21  N   UNL A   1      30.553  28.950  23.935  1.00  0.00    -0.179 NA
ATOM     22  C   UNL A   1      30.783  28.406  22.737  1.00  0.00     0.161 A 
BRANCH  19  23
ATOM     23  C   UNL A   1      31.748  28.912  26.058  1.00  0.00     0.172 C 
BRANCH  23  24
ATOM     24  C   UNL A   1      32.334  30.269  26.466  1.00  0.00     0.183 C 
BRANCH  24  25
ATOM     25  O   UNL A   1      33.768  30.297  26.507  1.00  0.00    -0.383 OA
ATOM     26  C   UNL A   1      34.332  29.181  27.189  1.00  0.00     0.194 C 
ENDBRANCH  24  25
ENDBRANCH  23  24
ENDBRANCH  19  23
ENDBRANCH  13  18
ENDBRANCH   8  12
ENDBRANCH   4   7
ENDBRANCH   2   3
ENDBRANCH   1   2
BRANCH   1  27
ATOM     27  C   UNL A   1      36.970  21.987  25.709  1.00  0.00     0.002 C 
BRANCH  27  28
ATOM     28  C   UNL A   1      38.246  22.755  26.085  1.00  0.00     0.002 C 
BRANCH  28  29
ATOM     29  C   UNL A   1      39.487  21.933  26.460  1.00  0.00     0.021 C 
BRANCH  29  30
ATOM     30  C   UNL A   1      40.663  22.745  26.981  1.00  0.00     0.116 C 
BRANCH  30  31
ATOM     31  N   UNL A   1      41.890  22.566  26.207  1.00  0.00    -0.352 N 
ATOM     32  C   UNL A   1      42.672  23.550  25.615  1.00  0.00     0.251 C 
ATOM     33  H   UNL A   1      42.200  21.637  26.091  1.00  0.00     0.163 HD
ATOM     34  O   UNL A   1      43.424  23.283  24.694  1.00  0.00    -0.269 OA
BRANCH  32  35
ATOM     35  C   UNL A   1      42.563  24.932  26.128  1.00  0.00     0.039 A 
ATOM     36  C   UNL A   1      41.667  25.854  25.581  1.00  0.00     0.014 A 
ATOM     37  C   UNL A   1      43.355  25.277  27.216  1.00  0.00     0.014 A 
ATOM     38  C   UNL A   1      41.514  27.091  26.207  1.00  0.00     0.010 A 
ATOM     39  C   UNL A   1      43.068  26.410  27.934  1.00  0.00     0.010 A 
ATOM     40  C   UNL A   1      42.197  27.355  27.407  1.00  0.00    -0.014 A 
BRANCH  40  41
ATOM     41  C   UNL A   1      41.936  28.573  28.171  1.00  0.00     0.031 A 
ATOM     42  C   UNL A   1      42.966  29.638  28.025  1.00  0.00     0.074 A 
ATOM     43  C   UNL A   1      40.770  28.825  28.809  1.00  0.00     0.049 A 
ATOM     44  N   UNL A   1      43.799  30.055  28.920  1.00  0.00    -0.248 NA
ATOM     45  C   UNL A   1      43.194  30.215  26.689  1.00  0.00     0.031 C 
ATOM     46  C   UNL A   1      39.533  28.032  28.817  1.00  0.00     0.029 A 
ATOM     47  N   UNL A   1      40.413  29.925  29.525  1.00  0.00    -0.354 N 
ATOM     48  C   UNL A   1      44.501  31.105  28.334  1.00  0.00     0.074 A 
ATOM     49  C   UNL A   1      44.224  31.033  26.923  1.00  0.00     0.031 C 
ATOM     50  C   UNL A   1      38.513  28.781  29.288  1.00  0.00     0.029 A 
ATOM     51  C   UNL A   1      39.053  30.030  29.791  1.00  0.00     0.049 A 
ATOM     52  H   UNL A   1      41.067  30.594  29.831  1.00  0.00     0.167 HD
ATOM     53  C   UNL A   1      45.066  32.088  29.092  1.00  0.00     0.037 A 
ATOM     54  C   UNL A   1      38.409  31.069  30.378  1.00  0.00     0.037 A 
ATOM     55  C   UNL A   1      45.169  31.689  30.474  1.00  0.00     0.049 A 
ATOM     56  C   UNL A   1      39.431  31.823  31.150  1.00  0.00     0.074 A 
ATOM     57  C   UNL A   1      45.769  30.629  31.129  1.00  0.00     0.029 A 
ATOM     58  N   UNL A   1      44.254  32.200  31.364  1.00  0.00    -0.354 N 
ATOM     59  N   UNL A   1      40.049  31.341  32.194  1.00  0.00    -0.248 NA
ATOM     60  C   UNL A   1      40.103  32.926  30.482  1.00  0.00     0.031 C 
ATOM     61  C   UNL A   1      44.836  30.246  32.137  1.00  0.00     0.029 A 
ATOM     62  C   UNL A   1      43.766  31.143  32.093  1.00  0.00     0.049 A 
ATOM     63  H   UNL A   1      43.998  33.145  31.462  1.00  0.00     0.167 HD
ATOM     64  C   UNL A   1      41.363  31.767  32.055  1.00  0.00     0.074 A 
ATOM     65  C   UNL A   1      41.315  32.810  31.032  1.00  0.00     0.031 C 
ATOM     66  C   UNL A   1      42.404  31.049  32.573  1.00  0.00     0.037 A 
BRANCH  53  67
ATOM     67  C   UNL A   1      45.199  33.527  28.651  1.00  0.00     0.058 A 
ATOM     68  C   UNL A   1      46.459  34.158  28.702  1.00  0.00     0.135 A 
ATOM     69  C   UNL A   1      44.097  34.386  28.439  1.00  0.00     0.135 A 
ATOM     70  F   UNL A   1      47.574  33.443  28.918  1.00  0.00    -0.206 F 
ATOM     71  C   UNL A   1      46.606  35.543  28.608  1.00  0.00     0.059 A 
ATOM     72  C   UNL A   1      44.227  35.761  28.285  1.00  0.00     0.059 A 
ATOM     73  F   UNL A   1      42.834  33.947  28.466  1.00  0.00    -0.206 F 
ATOM     74  C   UNL A   1      45.479  36.337  28.412  1.00  0.00     0.060 A 
BRANCH  74  75
ATOM     75  S   UNL A   1      45.649  38.129  28.385  1.00  0.00     0.124 S 
ATOM     76  O   UNL A   1      47.001  38.300  28.906  1.00  0.00    -0.237 OA
ATOM     77  O   UNL A   1      45.465  38.429  26.969  1.00  0.00    -0.237 OA
ATOM     78  O   UNL A   1      44.572  38.581  29.260  1.00  0.00    -0.744 OA
ENDBRANCH  74  75
ENDBRANCH  53  67
BRANCH  54  79
ATOM     79  C   UNL A   1      37.068  31.622  30.054  1.00  0.00     0.058 A 
ATOM     80  C   UNL A   1      36.279  32.242  31.041  1.00  0.00     0.135 A 
ATOM     81  C   UNL A   1      36.656  31.814  28.719  1.00  0.00     0.135 A 
ATOM     82  F   UNL A   1      36.606  32.126  32.336  1.00  0.00    -0.206 F 
ATOM     83  C   UNL A   1      35.184  33.052  30.721  1.00  0.00     0.059 A 
ATOM     84  C   UNL A   1      35.563  32.610  28.377  1.00  0.00     0.059 A 
ATOM     85  F   UNL A   1      37.359  31.305  27.696  1.00  0.00    -0.206 F 
ATOM     86  C   UNL A   1      34.848  33.249  29.382  1.00  0.00     0.060 A 
BRANCH  86  87
ATOM     87  S   UNL A   1      33.552  34.437  28.957  1.00  0.00     0.124 S 
ATOM     88  O   UNL A   1      32.727  33.664  28.035  1.00  0.00    -0.237 OA
ATOM     89  O   UNL A   1      32.960  34.725  30.258  1.00  0.00    -0.237 OA
ATOM     90  O   UNL A   1      34.296  35.540  28.354  1.00  0.00    -0.744 OA
ENDBRANCH  86  87
ENDBRANCH  54  79
BRANCH  66  91
ATOM     91  C   UNL A   1      42.100  29.931  33.543  1.00  0.00     0.058 A 
ATOM     92  C   UNL A   1      41.808  28.604  33.174  1.00  0.00     0.135 A 
ATOM     93  C   UNL A   1      42.263  30.185  34.913  1.00  0.00     0.135 A 
ATOM     94  F   UNL A   1      41.736  28.244  31.886  1.00  0.00    -0.206 F 
ATOM     95  C   UNL A   1      41.644  27.592  34.124  1.00  0.00     0.059 A 
ATOM     96  C   UNL A   1      42.137  29.186  35.875  1.00  0.00     0.059 A 
ATOM     97  F   UNL A   1      42.602  31.415  35.332  1.00  0.00    -0.206 F 
ATOM     98  C   UNL A   1      41.811  27.893  35.474  1.00  0.00     0.060 A 
BRANCH  98  99
ATOM     99  S   UNL A   1      41.665  26.572  36.697  1.00  0.00     0.124 S 
ATOM    100  O   UNL A   1      41.578  25.383  35.856  1.00  0.00    -0.237 OA
ATOM    101  O   UNL A   1      42.898  26.713  37.468  1.00  0.00    -0.237 OA
ATOM    102  O   UNL A   1      40.445  26.912  37.425  1.00  0.00    -0.744 OA
ENDBRANCH  98  99
ENDBRANCH  66  91
ENDBRANCH  40  41
ENDBRANCH  32  35
ENDBRANCH  30  31
ENDBRANCH  29  30
ENDBRANCH  28  29
ENDBRANCH  27  28
ENDBRANCH   1  27
TORSDOF 21
ENDMDL
