MODEL 1
REMARK VINA RESULT:     -11.4      0.000      0.000
REMARK SMILES CCCc1cc(S(F)(F)(F)(F)F)cc2c1O[C@@H](C(F)(F)F)C(C(=O)NCCCCCCNC(=O)c1ccc(-c3c4nc(c(-c5c(F)cc(S(=O)(=O)[O-])cc5F)c5ccc([nH]5)c(-c5c(F)cc(S(=O)(=O)[O-])cc5F)c5nc(c(-c6c(F)cc(S(=O)(=O)[O-])cc6F)c6ccc3[nH]6)C=C5)C=C4)cc1)=C2
REMARK SMILES IDX 29 1 28 2 27 3 26 4 25 5 23 6 24 7 22 9 4 10 5 11 15 12 6 13
REMARK SMILES IDX 14 14 16 15 13 16 101 17 17 18 3 19 2 20 1 21 7 22 8 23 9 24
REMARK SMILES IDX 10 25 11 26 12 27 18 28 19 29 20 30 21 31 30 32 31 33 32 34
REMARK SMILES IDX 33 35 34 37 35 38 36 39 100 40 37 41 99 42 38 43 39 44 40 45
REMARK SMILES IDX 93 46 41 47 98 48 92 49 94 50 42 51 97 52 91 53 90 54 43 56
REMARK SMILES IDX 77 57 56 58 76 59 57 60 60 61 75 62 95 63 58 64 59 65 74 67
REMARK SMILES IDX 96 68 61 69 44 70 45 71 54 72 46 73 47 74 53 75 55 76 48 77
REMARK SMILES IDX 49 78 50 79 51 80 52 81 78 82 79 83 88 84 80 85 81 86 87 87
REMARK SMILES IDX 89 88 82 89 83 90 84 91 85 92 86 93 62 94 63 95 72 96 64 97
REMARK SMILES IDX 65 98 71 99 73 100 66 101 67 102 68 103 69 104 70 105
REMARK H PARENT 25 8 32 36 94 55 60 66
REMARK Flexibility Score: inf
ROOT
ATOM      1  C   UNL A   1      35.929  22.208  24.223  1.00  0.00     0.002 C 
ENDROOT
BRANCH   1   2
ATOM      2  C   UNL A   1      34.509  21.672  24.311  1.00  0.00     0.002 C 
BRANCH   2   3
ATOM      3  C   UNL A   1      34.192  21.315  25.754  1.00  0.00     0.021 C 
BRANCH   3   4
ATOM      4  C   UNL A   1      33.676  22.546  26.480  1.00  0.00     0.116 C 
BRANCH   4   5
ATOM      5  N   UNL A   1      32.352  22.259  27.051  1.00  0.00    -0.352 N 
ATOM      6  C   UNL A   1      31.287  23.270  26.982  1.00  0.00     0.251 C 
ATOM      7  O   UNL A   1      30.142  23.022  27.476  1.00  0.00    -0.270 OA
ATOM      8  H   UNL A   1      32.178  21.389  27.480  1.00  0.00     0.163 HD
BRANCH   6   9
ATOM      9  C   UNL A   1      31.555  24.612  26.321  1.00  0.00     0.067 C 
ATOM     10  C   UNL A   1      32.650  28.056  24.227  1.00  0.00    -0.004 A 
ATOM     11  C   UNL A   1      33.272  29.099  24.890  1.00  0.00     0.032 A 
ATOM     12  C   UNL A   1      32.349  26.914  24.928  1.00  0.00     0.131 A 
ATOM     13  C   UNL A   1      33.590  28.998  26.219  1.00  0.00     0.108 A 
ATOM     14  C   UNL A   1      32.637  26.785  26.275  1.00  0.00     0.019 A 
ATOM     15  O   UNL A   1      31.835  25.847  24.233  1.00  0.00    -0.475 OA
ATOM     16  C   UNL A   1      33.268  27.848  26.909  1.00  0.00     0.036 A 
ATOM     17  C   UNL A   1      32.315  25.522  26.917  1.00  0.00     0.025 C 
ATOM     18  C   UNL A   1      30.958  24.941  24.959  1.00  0.00     0.314 C 
BRANCH  10  19
ATOM     19  C   UNL A   1      32.510  28.172  22.717  1.00  0.00     0.039 C 
BRANCH  19  20
ATOM     20  C   UNL A   1      31.369  29.120  22.385  1.00  0.00     0.001 C 
ATOM     21  C   UNL A   1      30.048  28.376  22.479  1.00  0.00     0.004 C 
ENDBRANCH  19  20
ENDBRANCH  10  19
BRANCH  13  22
ATOM     22  S   UNL A   1      34.426  30.365  27.061  1.00  0.00     0.310 S 
ATOM     23  F   UNL A   1      34.636  29.577  28.422  1.00  0.00    -0.094 F 
ATOM     24  F   UNL A   1      33.008  30.785  27.604  1.00  0.00    -0.094 F 
ATOM     25  F   UNL A   1      35.084  31.597  27.744  1.00  0.00    -0.094 F 
ATOM     26  F   UNL A   1      35.856  29.852  26.628  1.00  0.00    -0.094 F 
ATOM     27  F   UNL A   1      33.787  29.050  26.459  1.00  0.00    -0.094 F 
ENDBRANCH  13  22
BRANCH  18  28
ATOM     28  C   UNL A   1      30.802  23.656  24.162  1.00  0.00     0.429 C 
ATOM     29  F   UNL A   1      30.041  23.886  23.096  1.00  0.00    -0.167 F 
ATOM     30  F   UNL A   1      31.999  23.230  23.770  1.00  0.00    -0.167 F 
ATOM     31  F   UNL A   1      30.229  22.729  24.924  1.00  0.00    -0.167 F 
ENDBRANCH  18  28
ENDBRANCH   6   9
ENDBRANCH   4   5
ENDBRANCH   3   4
ENDBRANCH   2   3
ENDBRANCH   1   2
BRANCH   1  32
ATOM     32  C   UNL A   1      35.933  23.692  24.549  1.00  0.00     0.021 C 
BRANCH  32  33
ATOM     33  C   UNL A   1      37.125  24.013  25.436  1.00  0.00     0.116 C 
BRANCH  33  34
ATOM     34  N   UNL A   1      38.121  22.937  25.326  1.00  0.00    -0.352 N 
ATOM     35  C   UNL A   1      39.391  23.032  26.060  1.00  0.00     0.251 C 
ATOM     36  H   UNL A   1      37.937  22.153  24.760  1.00  0.00     0.163 HD
ATOM     37  O   UNL A   1      40.252  22.102  25.966  1.00  0.00    -0.269 OA
BRANCH  35  38
ATOM     38  C   UNL A   1      39.674  24.244  26.933  1.00  0.00     0.039 A 
ATOM     39  C   UNL A   1      39.197  24.360  28.228  1.00  0.00     0.014 A 
ATOM     40  C   UNL A   1      40.447  25.183  26.398  1.00  0.00     0.014 A 
ATOM     41  C   UNL A   1      39.355  25.650  28.785  1.00  0.00     0.010 A 
ATOM     42  C   UNL A   1      40.669  26.367  27.058  1.00  0.00     0.010 A 
ATOM     43  C   UNL A   1      40.178  26.572  28.318  1.00  0.00    -0.014 A 
BRANCH  43  44
ATOM     44  C   UNL A   1      40.559  27.795  29.136  1.00  0.00     0.031 A 
ATOM     45  C   UNL A   1      41.780  27.680  29.803  1.00  0.00     0.074 A 
ATOM     46  C   UNL A   1      39.706  28.878  29.264  1.00  0.00     0.049 A 
ATOM     47  N   UNL A   1      42.345  28.566  30.624  1.00  0.00    -0.248 NA
ATOM     48  C   UNL A   1      42.672  26.516  29.693  1.00  0.00     0.031 C 
ATOM     49  C   UNL A   1      38.476  29.006  28.589  1.00  0.00     0.029 A 
ATOM     50  N   UNL A   1      39.876  29.999  30.045  1.00  0.00    -0.354 N 
ATOM     51  C   UNL A   1      43.524  28.110  31.054  1.00  0.00     0.074 A 
ATOM     52  C   UNL A   1      43.748  26.783  30.466  1.00  0.00     0.031 C 
ATOM     53  C   UNL A   1      37.909  30.182  28.965  1.00  0.00     0.029 A 
ATOM     54  C   UNL A   1      38.774  30.810  29.882  1.00  0.00     0.049 A 
ATOM     55  H   UNL A   1      40.652  30.191  30.620  1.00  0.00     0.167 HD
ATOM     56  C   UNL A   1      44.421  28.750  31.910  1.00  0.00     0.037 A 
ATOM     57  C   UNL A   1      38.518  32.028  30.490  1.00  0.00     0.037 A 
ATOM     58  C   UNL A   1      44.184  29.989  32.484  1.00  0.00     0.049 A 
ATOM     59  C   UNL A   1      39.389  32.642  31.393  1.00  0.00     0.074 A 
ATOM     60  C   UNL A   1      45.081  30.652  33.344  1.00  0.00     0.029 A 
ATOM     61  N   UNL A   1      43.071  30.786  32.340  1.00  0.00    -0.354 N 
ATOM     62  N   UNL A   1      40.585  32.204  31.790  1.00  0.00    -0.248 NA
ATOM     63  C   UNL A   1      39.114  33.917  32.068  1.00  0.00     0.031 C 
ATOM     64  C   UNL A   1      44.513  31.828  33.719  1.00  0.00     0.029 A 
ATOM     65  C   UNL A   1      43.251  31.919  33.103  1.00  0.00     0.049 A 
ATOM     66  H   UNL A   1      42.282  30.582  31.787  1.00  0.00     0.167 HD
ATOM     67  C   UNL A   1      41.131  33.072  32.644  1.00  0.00     0.074 A 
ATOM     68  C   UNL A   1      40.190  34.182  32.841  1.00  0.00     0.031 C 
ATOM     69  C   UNL A   1      42.378  32.983  33.266  1.00  0.00     0.037 A 
BRANCH  56  70
ATOM     70  C   UNL A   1      45.731  28.049  32.230  1.00  0.00     0.058 A 
ATOM     71  C   UNL A   1      46.843  28.288  31.440  1.00  0.00     0.135 A 
ATOM     72  C   UNL A   1      45.786  27.219  33.265  1.00  0.00     0.135 A 
ATOM     73  F   UNL A   1      46.909  29.286  30.562  1.00  0.00    -0.206 F 
ATOM     74  C   UNL A   1      47.903  27.373  31.649  1.00  0.00     0.059 A 
ATOM     75  C   UNL A   1      46.906  26.454  33.489  1.00  0.00     0.059 A 
ATOM     76  F   UNL A   1      44.748  27.126  34.092  1.00  0.00    -0.206 F 
ATOM     77  C   UNL A   1      48.020  26.595  32.711  1.00  0.00     0.060 A 
BRANCH  77  78
ATOM     78  S   UNL A   1      49.576  25.760  33.111  1.00  0.00     0.124 S 
ATOM     79  O   UNL A   1      50.022  24.912  31.919  1.00  0.00    -0.237 OA
ATOM     80  O   UNL A   1      50.650  26.805  33.425  1.00  0.00    -0.237 OA
ATOM     81  O   UNL A   1      49.347  24.752  34.474  1.00  0.00    -0.744 OA
ENDBRANCH  77  78
ENDBRANCH  56  70
BRANCH  57  82
ATOM     82  C   UNL A   1      37.215  32.736  30.156  1.00  0.00     0.058 A 
ATOM     83  C   UNL A   1      37.188  33.667  29.131  1.00  0.00     0.135 A 
ATOM     84  C   UNL A   1      36.123  32.449  30.855  1.00  0.00     0.135 A 
ATOM     85  F   UNL A   1      38.174  33.802  28.248  1.00  0.00    -0.206 F 
ATOM     86  C   UNL A   1      36.017  34.461  29.106  1.00  0.00     0.059 A 
ATOM     87  C   UNL A   1      34.971  33.179  30.683  1.00  0.00     0.059 A 
ATOM     88  F   UNL A   1      36.144  31.447  31.728  1.00  0.00    -0.206 F 
ATOM     89  C   UNL A   1      34.892  34.154  29.727  1.00  0.00     0.060 A 
BRANCH  89  90
ATOM     90  S   UNL A   1      33.331  34.981  29.336  1.00  0.00     0.124 S 
ATOM     91  O   UNL A   1      32.450  35.026  30.588  1.00  0.00    -0.237 OA
ATOM     92  O   UNL A   1      33.615  36.409  28.861  1.00  0.00    -0.237 OA
ATOM     93  O   UNL A   1      32.522  34.121  28.100  1.00  0.00    -0.744 OA
ENDBRANCH  89  90
ENDBRANCH  57  82
BRANCH  69  94
ATOM     94  C   UNL A   1      42.804  34.124  34.177  1.00  0.00     0.058 A 
ATOM     95  C   UNL A   1      43.330  35.320  33.718  1.00  0.00     0.135 A 
ATOM     96  C   UNL A   1      42.547  33.933  35.466  1.00  0.00     0.135 A 
ATOM     97  F   UNL A   1      43.367  35.650  32.431  1.00  0.00    -0.206 F 
ATOM     98  C   UNL A   1      43.826  36.158  34.745  1.00  0.00     0.059 A 
ATOM     99  C   UNL A   1      42.939  34.858  36.402  1.00  0.00     0.059 A 
ATOM    100  F   UNL A   1      41.904  32.835  35.854  1.00  0.00    -0.206 F 
ATOM    101  C   UNL A   1      43.520  36.037  36.024  1.00  0.00     0.060 A 
BRANCH 101 102
ATOM    102  S   UNL A   1      43.852  37.361  37.214  1.00  0.00     0.124 S 
ATOM    103  O   UNL A   1      42.639  37.539  38.129  1.00  0.00    -0.237 OA
ATOM    104  O   UNL A   1      45.077  36.996  38.054  1.00  0.00    -0.237 OA
ATOM    105  O   UNL A   1      44.151  38.820  36.374  1.00  0.00    -0.744 OA
ENDBRANCH 101 102
ENDBRANCH  69  94
ENDBRANCH  43  44
ENDBRANCH  35  38
ENDBRANCH  33  34
ENDBRANCH  32  33
ENDBRANCH   1  32
TORSDOF 20
ENDMDL
MODEL 2
REMARK VINA RESULT:     -11.1      3.341      4.162
REMARK SMILES CCCc1cc(S(F)(F)(F)(F)F)cc2c1O[C@@H](C(F)(F)F)C(C(=O)NCCCCCCNC(=O)c1ccc(-c3c4nc(c(-c5c(F)cc(S(=O)(=O)[O-])cc5F)c5ccc([nH]5)c(-c5c(F)cc(S(=O)(=O)[O-])cc5F)c5nc(c(-c6c(F)cc(S(=O)(=O)[O-])cc6F)c6ccc3[nH]6)C=C5)C=C4)cc1)=C2
REMARK SMILES IDX 29 1 28 2 27 3 26 4 25 5 23 6 24 7 22 9 4 10 5 11 15 12 6 13
REMARK SMILES IDX 14 14 16 15 13 16 101 17 17 18 3 19 2 20 1 21 7 22 8 23 9 24
REMARK SMILES IDX 10 25 11 26 12 27 18 28 19 29 20 30 21 31 30 32 31 33 32 34
REMARK SMILES IDX 33 35 34 37 35 38 36 39 100 40 37 41 99 42 38 43 39 44 40 45
REMARK SMILES IDX 93 46 41 47 98 48 92 49 94 50 42 51 97 52 91 53 90 54 43 56
REMARK SMILES IDX 77 57 56 58 76 59 57 60 60 61 75 62 95 63 58 64 59 65 74 67
REMARK SMILES IDX 96 68 61 69 44 70 45 71 54 72 46 73 47 74 53 75 55 76 48 77
REMARK SMILES IDX 49 78 50 79 51 80 52 81 78 82 79 83 88 84 80 85 81 86 87 87
REMARK SMILES IDX 89 88 82 89 83 90 84 91 85 92 86 93 62 94 63 95 72 96 64 97
REMARK SMILES IDX 65 98 71 99 73 100 66 101 67 102 68 103 69 104 70 105
REMARK H PARENT 25 8 32 36 94 55 60 66
REMARK Flexibility Score: inf
ROOT
ATOM      1  C   UNL A   1      35.869  22.936  24.104  1.00  0.00     0.002 C 
ENDROOT
BRANCH   1   2
ATOM      2  C   UNL A   1      34.872  23.494  23.102  1.00  0.00     0.002 C 
BRANCH   2   3
ATOM      3  C   UNL A   1      33.895  22.403  22.698  1.00  0.00     0.021 C 
BRANCH   3   4
ATOM      4  C   UNL A   1      32.491  22.979  22.628  1.00  0.00     0.116 C 
BRANCH   4   5
ATOM      5  N   UNL A   1      31.665  22.387  23.690  1.00  0.00    -0.352 N 
ATOM      6  C   UNL A   1      30.971  23.255  24.653  1.00  0.00     0.251 C 
ATOM      7  O   UNL A   1      30.257  22.743  25.571  1.00  0.00    -0.270 OA
ATOM      8  H   UNL A   1      31.576  21.408  23.757  1.00  0.00     0.163 HD
BRANCH   6   9
ATOM      9  C   UNL A   1      31.109  24.765  24.550  1.00  0.00     0.067 C 
ATOM     10  C   UNL A   1      31.327  28.931  24.756  1.00  0.00    -0.004 A 
ATOM     11  C   UNL A   1      30.464  29.706  24.001  1.00  0.00     0.032 A 
ATOM     12  C   UNL A   1      31.198  27.565  24.710  1.00  0.00     0.131 A 
ATOM     13  C   UNL A   1      29.495  29.127  23.225  1.00  0.00     0.108 A 
ATOM     14  C   UNL A   1      30.244  26.945  23.923  1.00  0.00     0.019 A 
ATOM     15  O   UNL A   1      31.985  26.814  25.549  1.00  0.00    -0.475 OA
ATOM     16  C   UNL A   1      29.390  27.752  23.182  1.00  0.00     0.036 A 
ATOM     17  C   UNL A   1      30.163  25.495  23.974  1.00  0.00     0.025 C 
ATOM     18  C   UNL A   1      32.337  25.473  25.107  1.00  0.00     0.314 C 
BRANCH  10  19
ATOM     19  C   UNL A   1      32.239  29.653  25.735  1.00  0.00     0.039 C 
BRANCH  19  20
ATOM     20  C   UNL A   1      33.681  29.246  25.478  1.00  0.00     0.001 C 
ATOM     21  C   UNL A   1      34.392  29.031  26.804  1.00  0.00     0.004 C 
ENDBRANCH  19  20
ENDBRANCH  10  19
BRANCH  13  22
ATOM     22  S   UNL A   1      28.361  30.159  22.263  1.00  0.00     0.310 S 
ATOM     23  F   UNL A   1      28.836  31.525  22.914  1.00  0.00    -0.094 F 
ATOM     24  F   UNL A   1      27.350  30.019  23.464  1.00  0.00    -0.094 F 
ATOM     25  F   UNL A   1      27.321  30.980  21.448  1.00  0.00    -0.094 F 
ATOM     26  F   UNL A   1      29.434  30.409  21.132  1.00  0.00    -0.094 F 
ATOM     27  F   UNL A   1      29.462  29.425  23.127  1.00  0.00    -0.094 F 
ENDBRANCH  13  22
BRANCH  18  28
ATOM     28  C   UNL A   1      32.870  24.684  26.293  1.00  0.00     0.429 C 
ATOM     29  F   UNL A   1      33.234  23.470  25.889  1.00  0.00    -0.167 F 
ATOM     30  F   UNL A   1      33.922  25.314  26.808  1.00  0.00    -0.167 F 
ATOM     31  F   UNL A   1      31.920  24.578  27.217  1.00  0.00    -0.167 F 
ENDBRANCH  18  28
ENDBRANCH   6   9
ENDBRANCH   4   5
ENDBRANCH   3   4
ENDBRANCH   2   3
ENDBRANCH   1   2
BRANCH   1  32
ATOM     32  C   UNL A   1      36.378  24.059  24.992  1.00  0.00     0.021 C 
BRANCH  32  33
ATOM     33  C   UNL A   1      36.818  23.487  26.331  1.00  0.00     0.116 C 
BRANCH  33  34
ATOM     34  N   UNL A   1      37.737  22.362  26.104  1.00  0.00    -0.352 N 
ATOM     35  C   UNL A   1      39.171  22.516  26.385  1.00  0.00     0.251 C 
ATOM     36  H   UNL A   1      37.391  21.505  25.764  1.00  0.00     0.163 HD
ATOM     37  O   UNL A   1      39.966  21.544  26.189  1.00  0.00    -0.269 OA
BRANCH  35  38
ATOM     38  C   UNL A   1      39.704  23.840  26.908  1.00  0.00     0.039 A 
ATOM     39  C   UNL A   1      39.871  24.096  28.259  1.00  0.00     0.014 A 
ATOM     40  C   UNL A   1      40.045  24.738  25.990  1.00  0.00     0.014 A 
ATOM     41  C   UNL A   1      40.139  25.452  28.557  1.00  0.00     0.010 A 
ATOM     42  C   UNL A   1      40.429  26.004  26.359  1.00  0.00     0.010 A 
ATOM     43  C   UNL A   1      40.558  26.344  27.677  1.00  0.00    -0.014 A 
BRANCH  43  44
ATOM     44  C   UNL A   1      41.150  27.676  28.106  1.00  0.00     0.031 A 
ATOM     45  C   UNL A   1      42.539  27.751  27.983  1.00  0.00     0.074 A 
ATOM     46  C   UNL A   1      40.366  28.677  28.654  1.00  0.00     0.049 A 
ATOM     47  N   UNL A   1      43.332  28.768  28.322  1.00  0.00    -0.248 NA
ATOM     48  C   UNL A   1      43.377  26.676  27.431  1.00  0.00     0.031 C 
ATOM     49  C   UNL A   1      38.965  28.614  28.774  1.00  0.00     0.029 A 
ATOM     50  N   UNL A   1      40.779  29.885  29.172  1.00  0.00    -0.354 N 
ATOM     51  C   UNL A   1      44.603  28.477  28.037  1.00  0.00     0.074 A 
ATOM     52  C   UNL A   1      44.650  27.125  27.465  1.00  0.00     0.031 C 
ATOM     53  C   UNL A   1      38.539  29.761  29.366  1.00  0.00     0.029 A 
ATOM     54  C   UNL A   1      39.668  30.562  29.625  1.00  0.00     0.049 A 
ATOM     55  H   UNL A   1      41.708  30.210  29.211  1.00  0.00     0.167 HD
ATOM     56  C   UNL A   1      45.723  29.287  28.228  1.00  0.00     0.037 A 
ATOM     57  C   UNL A   1      39.621  31.806  30.235  1.00  0.00     0.037 A 
ATOM     58  C   UNL A   1      45.671  30.549  28.798  1.00  0.00     0.049 A 
ATOM     59  C   UNL A   1      40.749  32.592  30.480  1.00  0.00     0.074 A 
ATOM     60  C   UNL A   1      46.790  31.382  28.991  1.00  0.00     0.029 A 
ATOM     61  N   UNL A   1      44.563  31.214  29.273  1.00  0.00    -0.354 N 
ATOM     62  N   UNL A   1      42.014  32.317  30.157  1.00  0.00    -0.248 NA
ATOM     63  C   UNL A   1      40.715  33.897  31.153  1.00  0.00     0.031 C 
ATOM     64  C   UNL A   1      46.364  32.530  29.582  1.00  0.00     0.029 A 
ATOM     65  C   UNL A   1      44.972  32.432  29.770  1.00  0.00     0.049 A 
ATOM     66  H   UNL A   1      43.638  30.878  29.260  1.00  0.00     0.167 HD
ATOM     67  C   UNL A   1      42.812  33.317  30.535  1.00  0.00     0.074 A 
ATOM     68  C   UNL A   1      41.989  34.344  31.188  1.00  0.00     0.031 C 
ATOM     69  C   UNL A   1      44.194  33.417  30.359  1.00  0.00     0.037 A 
BRANCH  56  70
ATOM     70  C   UNL A   1      47.077  28.755  27.786  1.00  0.00     0.058 A 
ATOM     71  C   UNL A   1      47.479  28.922  26.471  1.00  0.00     0.135 A 
ATOM     72  C   UNL A   1      47.852  28.139  28.670  1.00  0.00     0.135 A 
ATOM     73  F   UNL A   1      46.863  29.740  25.622  1.00  0.00    -0.206 F 
ATOM     74  C   UNL A   1      48.604  28.142  26.112  1.00  0.00     0.059 A 
ATOM     75  C   UNL A   1      49.008  27.513  28.271  1.00  0.00     0.059 A 
ATOM     76  F   UNL A   1      47.506  28.128  29.955  1.00  0.00    -0.206 F 
ATOM     77  C   UNL A   1      49.435  27.586  26.975  1.00  0.00     0.060 A 
BRANCH  77  78
ATOM     78  S   UNL A   1      51.055  26.956  26.467  1.00  0.00     0.124 S 
ATOM     79  O   UNL A   1      50.924  26.236  25.123  1.00  0.00    -0.237 OA
ATOM     80  O   UNL A   1      52.036  28.123  26.327  1.00  0.00    -0.237 OA
ATOM     81  O   UNL A   1      51.635  25.861  27.646  1.00  0.00    -0.744 OA
ENDBRANCH  77  78
ENDBRANCH  56  70
BRANCH  57  82
ATOM     82  C   UNL A   1      38.265  32.344  30.661  1.00  0.00     0.058 A 
ATOM     83  C   UNL A   1      37.529  33.115  29.777  1.00  0.00     0.135 A 
ATOM     84  C   UNL A   1      37.809  32.065  31.877  1.00  0.00     0.135 A 
ATOM     85  F   UNL A   1      37.818  33.209  28.482  1.00  0.00    -0.206 F 
ATOM     86  C   UNL A   1      36.440  33.793  30.375  1.00  0.00     0.059 A 
ATOM     87  C   UNL A   1      36.664  32.661  32.347  1.00  0.00     0.059 A 
ATOM     88  F   UNL A   1      38.467  31.202  32.645  1.00  0.00    -0.206 F 
ATOM     89  C   UNL A   1      35.917  33.481  31.547  1.00  0.00     0.060 A 
BRANCH  89  90
ATOM     90  S   UNL A   1      34.301  34.106  32.067  1.00  0.00     0.124 S 
ATOM     91  O   UNL A   1      33.560  33.018  32.850  1.00  0.00    -0.237 OA
ATOM     92  O   UNL A   1      34.492  35.336  32.959  1.00  0.00    -0.237 OA
ATOM     93  O   UNL A   1      33.386  34.540  30.689  1.00  0.00    -0.744 OA
ENDBRANCH  89  90
ENDBRANCH  57  82
BRANCH  69  94
ATOM     94  C   UNL A   1      44.885  34.681  30.843  1.00  0.00     0.058 A 
ATOM     95  C   UNL A   1      45.499  34.799  32.078  1.00  0.00     0.135 A 
ATOM     96  C   UNL A   1      44.947  35.659  29.946  1.00  0.00     0.135 A 
ATOM     97  F   UNL A   1      45.682  33.769  32.899  1.00  0.00    -0.206 F 
ATOM     98  C   UNL A   1      45.914  36.116  32.389  1.00  0.00     0.059 A 
ATOM     99  C   UNL A   1      45.488  36.878  30.277  1.00  0.00     0.059 A 
ATOM    100  F   UNL A   1      44.478  35.458  28.718  1.00  0.00    -0.206 F 
ATOM    101  C   UNL A   1      46.059  37.084  31.503  1.00  0.00     0.060 A 
BRANCH 101 102
ATOM    102  S   UNL A   1      46.966  38.602  31.889  1.00  0.00     0.124 S 
ATOM    103  O   UNL A   1      46.777  39.611  30.754  1.00  0.00    -0.237 OA
ATOM    104  O   UNL A   1      46.434  39.197  33.194  1.00  0.00    -0.237 OA
ATOM    105  O   UNL A   1      48.629  38.245  32.062  1.00  0.00    -0.744 OA
ENDBRANCH 101 102
ENDBRANCH  69  94
ENDBRANCH  43  44
ENDBRANCH  35  38
ENDBRANCH  33  34
ENDBRANCH  32  33
ENDBRANCH   1  32
TORSDOF 20
ENDMDL
MODEL 3
REMARK VINA RESULT:     -11.0      3.615      9.056
REMARK SMILES CCCc1cc(S(F)(F)(F)(F)F)cc2c1O[C@@H](C(F)(F)F)C(C(=O)NCCCCCCNC(=O)c1ccc(-c3c4nc(c(-c5c(F)cc(S(=O)(=O)[O-])cc5F)c5ccc([nH]5)c(-c5c(F)cc(S(=O)(=O)[O-])cc5F)c5nc(c(-c6c(F)cc(S(=O)(=O)[O-])cc6F)c6ccc3[nH]6)C=C5)C=C4)cc1)=C2
REMARK SMILES IDX 29 1 28 2 27 3 26 4 25 5 23 6 24 7 22 9 4 10 5 11 15 12 6 13
REMARK SMILES IDX 14 14 16 15 13 16 101 17 17 18 3 19 2 20 1 21 7 22 8 23 9 24
REMARK SMILES IDX 10 25 11 26 12 27 18 28 19 29 20 30 21 31 30 32 31 33 32 34
REMARK SMILES IDX 33 35 34 37 35 38 36 39 100 40 37 41 99 42 38 43 39 44 40 45
REMARK SMILES IDX 93 46 41 47 98 48 92 49 94 50 42 51 97 52 91 53 90 54 43 56
REMARK SMILES IDX 77 57 56 58 76 59 57 60 60 61 75 62 95 63 58 64 59 65 74 67
REMARK SMILES IDX 96 68 61 69 44 70 45 71 54 72 46 73 47 74 53 75 55 76 48 77
REMARK SMILES IDX 49 78 50 79 51 80 52 81 78 82 79 83 88 84 80 85 81 86 87 87
REMARK SMILES IDX 89 88 82 89 83 90 84 91 85 92 86 93 62 94 63 95 72 96 64 97
REMARK SMILES IDX 65 98 71 99 73 100 66 101 67 102 68 103 69 104 70 105
REMARK H PARENT 25 8 32 36 94 55 60 66
REMARK Flexibility Score: inf
ROOT
ATOM      1  C   UNL A   1      35.163  32.325  27.853  1.00  0.00     0.002 C 
ENDROOT
BRANCH   1   2
ATOM      2  C   UNL A   1      35.041  30.996  28.580  1.00  0.00     0.002 C 
BRANCH   2   3
ATOM      3  C   UNL A   1      35.421  29.867  27.636  1.00  0.00     0.021 C 
BRANCH   3   4
ATOM      4  C   UNL A   1      34.265  29.586  26.690  1.00  0.00     0.116 C 
BRANCH   4   5
ATOM      5  N   UNL A   1      33.062  29.262  27.469  1.00  0.00    -0.352 N 
ATOM      6  C   UNL A   1      32.287  28.052  27.156  1.00  0.00     0.251 C 
ATOM      7  O   UNL A   1      31.246  27.772  27.830  1.00  0.00    -0.270 OA
ATOM      8  H   UNL A   1      32.775  29.854  28.202  1.00  0.00     0.163 HD
BRANCH   6   9
ATOM      9  C   UNL A   1      32.730  27.138  26.025  1.00  0.00     0.067 C 
ATOM     10  C   UNL A   1      33.482  24.409  22.954  1.00  0.00    -0.004 A 
ATOM     11  C   UNL A   1      34.427  23.414  23.130  1.00  0.00     0.032 A 
ATOM     12  C   UNL A   1      33.216  25.260  23.998  1.00  0.00     0.131 A 
ATOM     13  C   UNL A   1      35.084  23.272  24.324  1.00  0.00     0.108 A 
ATOM     14  C   UNL A   1      33.874  25.158  25.211  1.00  0.00     0.019 A 
ATOM     15  O   UNL A   1      32.198  26.169  23.847  1.00  0.00    -0.475 OA
ATOM     16  C   UNL A   1      34.813  24.144  25.357  1.00  0.00     0.036 A 
ATOM     17  C   UNL A   1      33.493  26.081  26.267  1.00  0.00     0.025 C 
ATOM     18  C   UNL A   1      32.305  27.416  24.589  1.00  0.00     0.314 C 
BRANCH  10  19
ATOM     19  C   UNL A   1      32.663  24.376  21.673  1.00  0.00     0.039 C 
BRANCH  19  20
ATOM     20  C   UNL A   1      32.709  25.741  21.006  1.00  0.00     0.001 C 
ATOM     21  C   UNL A   1      32.527  25.579  19.506  1.00  0.00     0.004 C 
ENDBRANCH  19  20
ENDBRANCH  10  19
BRANCH  13  22
ATOM     22  S   UNL A   1      36.299  21.948  24.542  1.00  0.00     0.310 S 
ATOM     23  F   UNL A   1      36.546  22.242  26.080  1.00  0.00    -0.094 F 
ATOM     24  F   UNL A   1      37.404  23.027  24.229  1.00  0.00    -0.094 F 
ATOM     25  F   UNL A   1      37.378  20.832  24.645  1.00  0.00    -0.094 F 
ATOM     26  F   UNL A   1      35.196  20.911  24.991  1.00  0.00    -0.094 F 
ATOM     27  F   UNL A   1      35.209  23.092  24.551  1.00  0.00    -0.094 F 
ENDBRANCH  13  22
BRANCH  18  28
ATOM     28  C   UNL A   1      30.951  28.107  24.597  1.00  0.00     0.429 C 
ATOM     29  F   UNL A   1      30.076  27.360  25.264  1.00  0.00    -0.167 F 
ATOM     30  F   UNL A   1      31.062  29.293  25.188  1.00  0.00    -0.167 F 
ATOM     31  F   UNL A   1      30.530  28.272  23.346  1.00  0.00    -0.167 F 
ENDBRANCH  18  28
ENDBRANCH   6   9
ENDBRANCH   4   5
ENDBRANCH   3   4
ENDBRANCH   2   3
ENDBRANCH   1   2
BRANCH   1  32
ATOM     32  C   UNL A   1      33.847  33.079  27.948  1.00  0.00     0.021 C 
BRANCH  32  33
ATOM     33  C   UNL A   1      34.109  34.573  27.847  1.00  0.00     0.116 C 
BRANCH  33  34
ATOM     34  N   UNL A   1      33.130  35.298  28.669  1.00  0.00    -0.352 N 
ATOM     35  C   UNL A   1      33.218  35.248  30.135  1.00  0.00     0.251 C 
ATOM     36  H   UNL A   1      32.414  35.818  28.237  1.00  0.00     0.163 HD
ATOM     37  O   UNL A   1      32.372  35.876  30.846  1.00  0.00    -0.269 OA
BRANCH  35  38
ATOM     38  C   UNL A   1      34.324  34.445  30.802  1.00  0.00     0.039 A 
ATOM     39  C   UNL A   1      34.069  33.325  31.577  1.00  0.00     0.014 A 
ATOM     40  C   UNL A   1      35.566  34.853  30.568  1.00  0.00     0.014 A 
ATOM     41  C   UNL A   1      35.191  32.865  32.305  1.00  0.00     0.010 A 
ATOM     42  C   UNL A   1      36.628  34.266  31.213  1.00  0.00     0.010 A 
ATOM     43  C   UNL A   1      36.443  33.192  32.039  1.00  0.00    -0.014 A 
BRANCH  43  44
ATOM     44  C   UNL A   1      37.614  32.419  32.620  1.00  0.00     0.031 A 
ATOM     45  C   UNL A   1      38.068  32.905  33.849  1.00  0.00     0.074 A 
ATOM     46  C   UNL A   1      38.218  31.384  31.926  1.00  0.00     0.049 A 
ATOM     47  N   UNL A   1      39.099  32.461  34.567  1.00  0.00    -0.248 NA
ATOM     48  C   UNL A   1      37.447  34.025  34.571  1.00  0.00     0.031 C 
ATOM     49  C   UNL A   1      37.763  30.882  30.692  1.00  0.00     0.029 A 
ATOM     50  N   UNL A   1      39.339  30.668  32.285  1.00  0.00    -0.354 N 
ATOM     51  C   UNL A   1      39.211  33.165  35.696  1.00  0.00     0.074 A 
ATOM     52  C   UNL A   1      38.154  34.185  35.711  1.00  0.00     0.031 C 
ATOM     53  C   UNL A   1      38.602  29.886  30.306  1.00  0.00     0.029 A 
ATOM     54  C   UNL A   1      39.597  29.747  31.293  1.00  0.00     0.049 A 
ATOM     55  H   UNL A   1      39.864  30.791  33.108  1.00  0.00     0.167 HD
ATOM     56  C   UNL A   1      40.151  32.996  36.713  1.00  0.00     0.037 A 
ATOM     57  C   UNL A   1      40.636  28.832  31.233  1.00  0.00     0.037 A 
ATOM     58  C   UNL A   1      41.165  32.052  36.673  1.00  0.00     0.049 A 
ATOM     59  C   UNL A   1      41.612  28.702  32.223  1.00  0.00     0.074 A 
ATOM     60  C   UNL A   1      42.117  31.862  37.694  1.00  0.00     0.029 A 
ATOM     61  N   UNL A   1      41.437  31.149  35.670  1.00  0.00    -0.354 N 
ATOM     62  N   UNL A   1      41.699  29.379  33.369  1.00  0.00    -0.248 NA
ATOM     63  C   UNL A   1      42.736  27.758  32.155  1.00  0.00     0.031 C 
ATOM     64  C   UNL A   1      42.956  30.865  37.307  1.00  0.00     0.029 A 
ATOM     65  C   UNL A   1      42.544  30.416  36.039  1.00  0.00     0.049 A 
ATOM     66  H   UNL A   1      40.928  31.044  34.834  1.00  0.00     0.167 HD
ATOM     67  C   UNL A   1      42.756  28.963  34.069  1.00  0.00     0.074 A 
ATOM     68  C   UNL A   1      43.443  27.920  33.295  1.00  0.00     0.031 C 
ATOM     69  C   UNL A   1      43.176  29.410  35.324  1.00  0.00     0.037 A 
BRANCH  56  70
ATOM     70  C   UNL A   1      40.059  33.898  37.934  1.00  0.00     0.058 A 
ATOM     71  C   UNL A   1      39.222  33.545  38.979  1.00  0.00     0.135 A 
ATOM     72  C   UNL A   1      40.783  35.010  37.975  1.00  0.00     0.135 A 
ATOM     73  F   UNL A   1      38.679  32.337  39.099  1.00  0.00    -0.206 F 
ATOM     74  C   UNL A   1      38.998  34.587  39.911  1.00  0.00     0.059 A 
ATOM     75  C   UNL A   1      40.608  35.921  38.988  1.00  0.00     0.059 A 
ATOM     76  F   UNL A   1      41.687  35.244  37.027  1.00  0.00    -0.206 F 
ATOM     77  C   UNL A   1      39.754  35.665  40.024  1.00  0.00     0.060 A 
BRANCH  77  78
ATOM     78  S   UNL A   1      39.662  36.744  41.474  1.00  0.00     0.124 S 
ATOM     79  O   UNL A   1      41.062  36.924  42.067  1.00  0.00    -0.237 OA
ATOM     80  O   UNL A   1      39.104  38.109  41.061  1.00  0.00    -0.237 OA
ATOM     81  O   UNL A   1      38.635  36.039  42.645  1.00  0.00    -0.744 OA
ENDBRANCH  77  78
ENDBRANCH  56  70
BRANCH  57  82
ATOM     82  C   UNL A   1      40.718  27.919  30.020  1.00  0.00     0.058 A 
ATOM     83  C   UNL A   1      39.850  26.846  29.914  1.00  0.00     0.135 A 
ATOM     84  C   UNL A   1      41.624  28.168  29.081  1.00  0.00     0.135 A 
ATOM     85  F   UNL A   1      38.775  26.704  30.686  1.00  0.00    -0.206 F 
ATOM     86  C   UNL A   1      40.207  25.914  28.912  1.00  0.00     0.059 A 
ATOM     87  C   UNL A   1      41.827  27.279  28.054  1.00  0.00     0.059 A 
ATOM     88  F   UNL A   1      42.340  29.288  29.136  1.00  0.00    -0.206 F 
ATOM     89  C   UNL A   1      41.044  26.166  27.920  1.00  0.00     0.060 A 
BRANCH  89  90
ATOM     90  S   UNL A   1      41.149  25.095  26.466  1.00  0.00     0.124 S 
ATOM     91  O   UNL A   1      41.156  25.954  25.199  1.00  0.00    -0.237 OA
ATOM     92  O   UNL A   1      42.438  24.271  26.531  1.00  0.00    -0.237 OA
ATOM     93  O   UNL A   1      39.802  24.042  26.433  1.00  0.00    -0.744 OA
ENDBRANCH  89  90
ENDBRANCH  57  82
BRANCH  69  94
ATOM     94  C   UNL A   1      44.398  28.753  35.944  1.00  0.00     0.058 A 
ATOM     95  C   UNL A   1      45.686  29.245  35.815  1.00  0.00     0.135 A 
ATOM     96  C   UNL A   1      44.135  27.702  36.713  1.00  0.00     0.135 A 
ATOM     97  F   UNL A   1      45.960  30.427  35.271  1.00  0.00    -0.206 F 
ATOM     98  C   UNL A   1      46.684  28.376  36.315  1.00  0.00     0.059 A 
ATOM     99  C   UNL A   1      45.156  26.978  37.280  1.00  0.00     0.059 A 
ATOM    100  F   UNL A   1      42.873  27.347  36.934  1.00  0.00    -0.206 F 
ATOM    101  C   UNL A   1      46.458  27.373  37.144  1.00  0.00     0.060 A 
BRANCH 101 102
ATOM    102  S   UNL A   1      47.799  26.566  38.053  1.00  0.00     0.124 S 
ATOM    103  O   UNL A   1      48.496  27.591  38.950  1.00  0.00    -0.237 OA
ATOM    104  O   UNL A   1      47.225  25.440  38.915  1.00  0.00    -0.237 OA
ATOM    105  O   UNL A   1      48.929  25.916  36.946  1.00  0.00    -0.744 OA
ENDBRANCH 101 102
ENDBRANCH  69  94
ENDBRANCH  43  44
ENDBRANCH  35  38
ENDBRANCH  33  34
ENDBRANCH  32  33
ENDBRANCH   1  32
TORSDOF 20
ENDMDL
