MODEL 1
REMARK VINA RESULT:     -10.4      0.000      0.000
REMARK SMILES CSCCC(=O)N1[C@H](C)CCC[C@@H]1C(=O)NCCCCCCNC(=O)c1ccc(-c2c3nc(c(-c4c(F)cc(S(=O)(=O)[O-])cc4F)c4ccc([nH]4)c(-c4c(F)cc(S(=O)(=O)[O-])cc4F)c4nc(c(-c5c(F)cc(S(=O)(=O)[O-])cc5F)c5ccc2[nH]5)C=C4)C=C3)cc1
REMARK SMILES IDX 19 1 18 2 17 3 16 4 14 5 15 6 13 8 7 9 8 10 9 11 10 12 12 13
REMARK SMILES IDX 11 14 5 15 6 16 4 17 3 18 2 19 1 20 20 21 21 22 22 23 23 24
REMARK SMILES IDX 24 25 25 27 26 28 27 29 91 30 28 31 90 32 29 33 30 34 31 35
REMARK SMILES IDX 84 36 32 37 89 38 83 39 85 40 33 41 88 42 82 43 81 44 34 46
REMARK SMILES IDX 68 47 47 48 67 49 48 50 51 51 66 52 86 53 49 54 50 55 65 57
REMARK SMILES IDX 87 58 52 59 35 60 36 61 45 62 37 63 38 64 44 65 46 66 39 67
REMARK SMILES IDX 40 68 41 69 42 70 43 71 69 72 70 73 79 74 71 75 72 76 78 77
REMARK SMILES IDX 80 78 73 79 74 80 75 81 76 82 77 83 53 84 54 85 63 86 55 87
REMARK SMILES IDX 56 88 62 89 64 90 57 91 58 92 59 93 60 94 61 95
REMARK H PARENT 16 7 23 26 85 45 51 56
REMARK Flexibility Score: inf
ROOT
ATOM      1  C   UNL A   1      34.014  29.230  27.226  1.00  0.00     0.002 C 
ENDROOT
BRANCH   1   2
ATOM      2  C   UNL A   1      32.779  29.952  26.671  1.00  0.00     0.021 C 
BRANCH   2   3
ATOM      3  C   UNL A   1      32.531  29.624  25.201  1.00  0.00     0.116 C 
BRANCH   3   4
ATOM      4  N   UNL A   1      33.707  29.318  24.410  1.00  0.00    -0.354 N 
ATOM      5  C   UNL A   1      33.889  28.310  23.498  1.00  0.00     0.242 C 
ATOM      6  O   UNL A   1      34.291  28.670  22.383  1.00  0.00    -0.273 OA
ATOM      7  H   UNL A   1      34.478  29.914  24.545  1.00  0.00     0.163 HD
BRANCH   5   8
ATOM      8  C   UNL A   1      33.711  26.783  23.813  1.00  0.00     0.174 C 
ATOM      9  N   UNL A   1      32.525  26.046  23.308  1.00  0.00    -0.328 N 
ATOM     10  C   UNL A   1      31.299  26.159  24.074  1.00  0.00     0.082 C 
ATOM     11  C   UNL A   1      30.294  27.109  23.424  1.00  0.00     0.031 C 
ATOM     12  C   UNL A   1      31.546  26.267  25.594  1.00  0.00     0.025 C 
ATOM     13  C   UNL A   1      34.034  26.441  25.277  1.00  0.00     0.035 C 
ATOM     14  C   UNL A   1      32.907  25.690  25.978  1.00  0.00     0.005 C 
BRANCH   9  15
ATOM     15  C   UNL A   1      32.683  24.937  22.464  1.00  0.00     0.224 C 
ATOM     16  O   UNL A   1      33.276  25.017  21.385  1.00  0.00    -0.275 OA
BRANCH  15  17
ATOM     17  C   UNL A   1      32.043  23.600  22.882  1.00  0.00     0.111 C 
BRANCH  17  18
ATOM     18  C   UNL A   1      32.938  22.539  23.544  1.00  0.00     0.079 C 
BRANCH  18  19
ATOM     19  S   UNL A   1      34.716  22.998  23.762  1.00  0.00    -0.165 SA
ATOM     20  C   UNL A   1      35.000  22.558  25.510  1.00  0.00     0.085 C 
ENDBRANCH  18  19
ENDBRANCH  17  18
ENDBRANCH  15  17
ENDBRANCH   9  15
ENDBRANCH   5   8
ENDBRANCH   3   4
ENDBRANCH   2   3
ENDBRANCH   1   2
BRANCH   1  21
ATOM     21  C   UNL A   1      35.268  30.090  27.447  1.00  0.00     0.002 C 
BRANCH  21  22
ATOM     22  C   UNL A   1      35.029  31.549  27.847  1.00  0.00     0.021 C 
BRANCH  22  23
ATOM     23  C   UNL A   1      35.986  32.109  28.899  1.00  0.00     0.116 C 
BRANCH  23  24
ATOM     24  N   UNL A   1      35.788  31.514  30.213  1.00  0.00    -0.352 N 
ATOM     25  C   UNL A   1      36.573  30.639  30.922  1.00  0.00     0.251 C 
ATOM     26  H   UNL A   1      34.957  31.784  30.668  1.00  0.00     0.163 HD
ATOM     27  O   UNL A   1      36.137  30.129  31.947  1.00  0.00    -0.269 OA
BRANCH  25  28
ATOM     28  C   UNL A   1      37.930  30.304  30.444  1.00  0.00     0.039 A 
ATOM     29  C   UNL A   1      38.997  30.372  31.343  1.00  0.00     0.014 A 
ATOM     30  C   UNL A   1      38.157  29.951  29.111  1.00  0.00     0.014 A 
ATOM     31  C   UNL A   1      40.282  30.030  30.919  1.00  0.00     0.010 A 
ATOM     32  C   UNL A   1      39.422  29.534  28.710  1.00  0.00     0.010 A 
ATOM     33  C   UNL A   1      40.499  29.579  29.607  1.00  0.00    -0.014 A 
BRANCH  33  34
ATOM     34  C   UNL A   1      41.846  29.146  29.158  1.00  0.00     0.031 A 
ATOM     35  C   UNL A   1      42.973  30.138  29.076  1.00  0.00     0.074 A 
ATOM     36  C   UNL A   1      42.033  27.870  28.765  1.00  0.00     0.049 A 
ATOM     37  N   UNL A   1      44.199  29.963  28.654  1.00  0.00    -0.248 NA
ATOM     38  C   UNL A   1      42.673  31.516  29.492  1.00  0.00     0.031 C 
ATOM     39  C   UNL A   1      41.000  26.834  28.742  1.00  0.00     0.029 A 
ATOM     40  N   UNL A   1      43.153  27.233  28.293  1.00  0.00    -0.354 N 
ATOM     41  C   UNL A   1      44.813  31.206  28.750  1.00  0.00     0.074 A 
ATOM     42  C   UNL A   1      43.805  32.140  29.203  1.00  0.00     0.031 C 
ATOM     43  C   UNL A   1      41.536  25.687  28.297  1.00  0.00     0.029 A 
ATOM     44  C   UNL A   1      42.939  25.916  27.964  1.00  0.00     0.049 A 
ATOM     45  H   UNL A   1      44.027  27.677  28.200  1.00  0.00     0.167 HD
ATOM     46  C   UNL A   1      46.106  31.533  28.509  1.00  0.00     0.037 A 
ATOM     47  C   UNL A   1      43.774  24.998  27.440  1.00  0.00     0.037 A 
ATOM     48  C   UNL A   1      47.100  30.593  28.062  1.00  0.00     0.049 A 
ATOM     49  C   UNL A   1      45.204  25.380  27.176  1.00  0.00     0.074 A 
ATOM     50  C   UNL A   1      48.448  30.807  27.833  1.00  0.00     0.029 A 
ATOM     51  N   UNL A   1      46.854  29.259  27.767  1.00  0.00    -0.354 N 
ATOM     52  N   UNL A   1      45.789  26.543  27.340  1.00  0.00    -0.248 NA
ATOM     53  C   UNL A   1      46.091  24.325  26.670  1.00  0.00     0.031 C 
ATOM     54  C   UNL A   1      49.004  29.617  27.348  1.00  0.00     0.029 A 
ATOM     55  C   UNL A   1      48.017  28.643  27.334  1.00  0.00     0.049 A 
ATOM     56  H   UNL A   1      45.979  28.815  27.852  1.00  0.00     0.167 HD
ATOM     57  C   UNL A   1      47.118  26.356  26.976  1.00  0.00     0.074 A 
ATOM     58  C   UNL A   1      47.252  24.963  26.600  1.00  0.00     0.031 C 
ATOM     59  C   UNL A   1      48.133  27.255  26.954  1.00  0.00     0.037 A 
BRANCH  46  60
ATOM     60  C   UNL A   1      46.507  32.970  28.724  1.00  0.00     0.058 A 
ATOM     61  C   UNL A   1      46.450  33.916  27.687  1.00  0.00     0.135 A 
ATOM     62  C   UNL A   1      46.955  33.409  29.981  1.00  0.00     0.135 A 
ATOM     63  F   UNL A   1      46.042  33.552  26.460  1.00  0.00    -0.206 F 
ATOM     64  C   UNL A   1      46.872  35.229  27.873  1.00  0.00     0.059 A 
ATOM     65  C   UNL A   1      47.349  34.726  30.199  1.00  0.00     0.059 A 
ATOM     66  F   UNL A   1      47.027  32.552  31.011  1.00  0.00    -0.206 F 
ATOM     67  C   UNL A   1      47.326  35.623  29.132  1.00  0.00     0.060 A 
BRANCH  67  68
ATOM     68  S   UNL A   1      47.897  37.321  29.349  1.00  0.00     0.124 S 
ATOM     69  O   UNL A   1      46.831  37.881  30.177  1.00  0.00    -0.237 OA
ATOM     70  O   UNL A   1      49.183  37.136  30.013  1.00  0.00    -0.237 OA
ATOM     71  O   UNL A   1      47.965  37.836  27.985  1.00  0.00    -0.744 OA
ENDBRANCH  67  68
ENDBRANCH  46  60
BRANCH  47  72
ATOM     72  C   UNL A   1      43.267  23.631  27.148  1.00  0.00     0.058 A 
ATOM     73  C   UNL A   1      42.822  23.277  25.866  1.00  0.00     0.135 A 
ATOM     74  C   UNL A   1      43.267  22.634  28.138  1.00  0.00     0.135 A 
ATOM     75  F   UNL A   1      42.796  24.196  24.888  1.00  0.00    -0.206 F 
ATOM     76  C   UNL A   1      42.392  21.987  25.574  1.00  0.00     0.059 A 
ATOM     77  C   UNL A   1      42.868  21.330  27.864  1.00  0.00     0.059 A 
ATOM     78  F   UNL A   1      43.702  22.917  29.376  1.00  0.00    -0.206 F 
ATOM     79  C   UNL A   1      42.428  21.017  26.578  1.00  0.00     0.060 A 
BRANCH  79  80
ATOM     80  S   UNL A   1      41.941  19.326  26.169  1.00  0.00     0.124 S 
ATOM     81  O   UNL A   1      42.281  18.618  27.398  1.00  0.00    -0.237 OA
ATOM     82  O   UNL A   1      40.517  19.480  25.892  1.00  0.00    -0.237 OA
ATOM     83  O   UNL A   1      42.768  19.011  25.008  1.00  0.00    -0.744 OA
ENDBRANCH  79  80
ENDBRANCH  47  72
BRANCH  59  84
ATOM     84  C   UNL A   1      49.489  26.757  26.532  1.00  0.00     0.058 A 
ATOM     85  C   UNL A   1      50.341  26.085  27.423  1.00  0.00     0.135 A 
ATOM     86  C   UNL A   1      49.922  26.913  25.205  1.00  0.00     0.135 A 
ATOM     87  F   UNL A   1      49.980  25.915  28.705  1.00  0.00    -0.206 F 
ATOM     88  C   UNL A   1      51.584  25.608  27.019  1.00  0.00     0.059 A 
ATOM     89  C   UNL A   1      51.146  26.415  24.771  1.00  0.00     0.059 A 
ATOM     90  F   UNL A   1      49.142  27.538  24.308  1.00  0.00    -0.206 F 
ATOM     91  C   UNL A   1      51.977  25.776  25.690  1.00  0.00     0.060 A 
BRANCH  91  92
ATOM     92  S   UNL A   1      53.579  25.124  25.174  1.00  0.00     0.124 S 
ATOM     93  O   UNL A   1      53.741  25.748  23.864  1.00  0.00    -0.237 OA
ATOM     94  O   UNL A   1      54.467  25.612  26.224  1.00  0.00    -0.237 OA
ATOM     95  O   UNL A   1      53.370  23.679  25.158  1.00  0.00    -0.744 OA
ENDBRANCH  91  92
ENDBRANCH  59  84
ENDBRANCH  33  34
ENDBRANCH  25  28
ENDBRANCH  23  24
ENDBRANCH  22  23
ENDBRANCH  21  22
ENDBRANCH   1  21
TORSDOF 20
ENDMDL
MODEL 2
REMARK VINA RESULT:      -9.9      1.151      2.115
REMARK SMILES CSCCC(=O)N1[C@H](C)CCC[C@@H]1C(=O)NCCCCCCNC(=O)c1ccc(-c2c3nc(c(-c4c(F)cc(S(=O)(=O)[O-])cc4F)c4ccc([nH]4)c(-c4c(F)cc(S(=O)(=O)[O-])cc4F)c4nc(c(-c5c(F)cc(S(=O)(=O)[O-])cc5F)c5ccc2[nH]5)C=C4)C=C3)cc1
REMARK SMILES IDX 19 1 18 2 17 3 16 4 14 5 15 6 13 8 7 9 8 10 9 11 10 12 12 13
REMARK SMILES IDX 11 14 5 15 6 16 4 17 3 18 2 19 1 20 20 21 21 22 22 23 23 24
REMARK SMILES IDX 24 25 25 27 26 28 27 29 91 30 28 31 90 32 29 33 30 34 31 35
REMARK SMILES IDX 84 36 32 37 89 38 83 39 85 40 33 41 88 42 82 43 81 44 34 46
REMARK SMILES IDX 68 47 47 48 67 49 48 50 51 51 66 52 86 53 49 54 50 55 65 57
REMARK SMILES IDX 87 58 52 59 35 60 36 61 45 62 37 63 38 64 44 65 46 66 39 67
REMARK SMILES IDX 40 68 41 69 42 70 43 71 69 72 70 73 79 74 71 75 72 76 78 77
REMARK SMILES IDX 80 78 73 79 74 80 75 81 76 82 77 83 53 84 54 85 63 86 55 87
REMARK SMILES IDX 56 88 62 89 64 90 57 91 58 92 59 93 60 94 61 95
REMARK H PARENT 16 7 23 26 85 45 51 56
REMARK Flexibility Score: inf
ROOT
ATOM      1  C   UNL A   1      34.145  29.986  26.752  1.00  0.00     0.002 C 
ENDROOT
BRANCH   1   2
ATOM      2  C   UNL A   1      33.932  28.475  26.924  1.00  0.00     0.021 C 
BRANCH   2   3
ATOM      3  C   UNL A   1      32.623  28.004  26.298  1.00  0.00     0.116 C 
BRANCH   3   4
ATOM      4  N   UNL A   1      32.742  27.240  25.072  1.00  0.00    -0.354 N 
ATOM      5  C   UNL A   1      32.218  26.008  24.773  1.00  0.00     0.242 C 
ATOM      6  O   UNL A   1      31.555  25.951  23.729  1.00  0.00    -0.273 OA
ATOM      7  H   UNL A   1      33.269  27.662  24.356  1.00  0.00     0.163 HD
BRANCH   5   8
ATOM      8  C   UNL A   1      32.485  24.704  25.605  1.00  0.00     0.174 C 
ATOM      9  N   UNL A   1      33.551  23.756  25.194  1.00  0.00    -0.328 N 
ATOM     10  C   UNL A   1      33.224  22.803  24.151  1.00  0.00     0.082 C 
ATOM     11  C   UNL A   1      33.820  23.194  22.799  1.00  0.00     0.031 C 
ATOM     12  C   UNL A   1      31.756  22.330  24.205  1.00  0.00     0.025 C 
ATOM     13  C   UNL A   1      31.186  23.986  26.010  1.00  0.00     0.035 C 
ATOM     14  C   UNL A   1      31.163  22.516  25.600  1.00  0.00     0.005 C 
BRANCH   9  15
ATOM     15  C   UNL A   1      34.609  23.454  26.063  1.00  0.00     0.224 C 
ATOM     16  O   UNL A   1      34.467  22.699  27.028  1.00  0.00    -0.275 OA
BRANCH  15  17
ATOM     17  C   UNL A   1      35.970  24.139  25.829  1.00  0.00     0.111 C 
BRANCH  17  18
ATOM     18  C   UNL A   1      37.200  23.249  25.583  1.00  0.00     0.079 C 
BRANCH  18  19
ATOM     19  S   UNL A   1      37.056  22.026  24.204  1.00  0.00    -0.165 SA
ATOM     20  C   UNL A   1      36.795  20.468  25.117  1.00  0.00     0.085 C 
ENDBRANCH  18  19
ENDBRANCH  17  18
ENDBRANCH  15  17
ENDBRANCH   9  15
ENDBRANCH   5   8
ENDBRANCH   3   4
ENDBRANCH   2   3
ENDBRANCH   1   2
BRANCH   1  21
ATOM     21  C   UNL A   1      34.630  30.754  27.992  1.00  0.00     0.002 C 
BRANCH  21  22
ATOM     22  C   UNL A   1      35.463  32.010  27.730  1.00  0.00     0.021 C 
BRANCH  22  23
ATOM     23  C   UNL A   1      36.382  32.443  28.872  1.00  0.00     0.116 C 
BRANCH  23  24
ATOM     24  N   UNL A   1      36.026  31.830  30.144  1.00  0.00    -0.352 N 
ATOM     25  C   UNL A   1      36.633  30.818  30.845  1.00  0.00     0.251 C 
ATOM     26  H   UNL A   1      35.221  32.203  30.571  1.00  0.00     0.163 HD
ATOM     27  O   UNL A   1      36.069  30.336  31.821  1.00  0.00    -0.269 OA
BRANCH  25  28
ATOM     28  C   UNL A   1      37.949  30.302  30.417  1.00  0.00     0.039 A 
ATOM     29  C   UNL A   1      38.186  30.109  29.053  1.00  0.00     0.014 A 
ATOM     30  C   UNL A   1      38.936  29.984  31.353  1.00  0.00     0.014 A 
ATOM     31  C   UNL A   1      39.433  29.651  28.626  1.00  0.00     0.010 A 
ATOM     32  C   UNL A   1      40.203  29.604  30.922  1.00  0.00     0.010 A 
ATOM     33  C   UNL A   1      40.462  29.425  29.555  1.00  0.00    -0.014 A 
BRANCH  33  34
ATOM     34  C   UNL A   1      41.815  29.004  29.113  1.00  0.00     0.031 A 
ATOM     35  C   UNL A   1      42.935  30.004  29.045  1.00  0.00     0.074 A 
ATOM     36  C   UNL A   1      42.013  27.732  28.713  1.00  0.00     0.049 A 
ATOM     37  N   UNL A   1      44.166  29.840  28.631  1.00  0.00    -0.248 NA
ATOM     38  C   UNL A   1      42.624  31.378  29.468  1.00  0.00     0.031 C 
ATOM     39  C   UNL A   1      40.987  26.689  28.676  1.00  0.00     0.029 A 
ATOM     40  N   UNL A   1      43.141  27.106  28.245  1.00  0.00    -0.354 N 
ATOM     41  C   UNL A   1      44.772  31.086  28.740  1.00  0.00     0.074 A 
ATOM     42  C   UNL A   1      43.754  32.011  29.191  1.00  0.00     0.031 C 
ATOM     43  C   UNL A   1      41.534  25.549  28.227  1.00  0.00     0.029 A 
ATOM     44  C   UNL A   1      42.937  25.789  27.906  1.00  0.00     0.049 A 
ATOM     45  H   UNL A   1      44.012  27.556  28.162  1.00  0.00     0.167 HD
ATOM     46  C   UNL A   1      46.064  31.423  28.511  1.00  0.00     0.037 A 
ATOM     47  C   UNL A   1      43.782  24.880  27.382  1.00  0.00     0.037 A 
ATOM     48  C   UNL A   1      47.067  30.492  28.065  1.00  0.00     0.049 A 
ATOM     49  C   UNL A   1      45.211  25.273  27.132  1.00  0.00     0.074 A 
ATOM     50  C   UNL A   1      48.415  30.717  27.847  1.00  0.00     0.029 A 
ATOM     51  N   UNL A   1      46.832  29.158  27.759  1.00  0.00    -0.354 N 
ATOM     52  N   UNL A   1      45.788  26.439  27.307  1.00  0.00    -0.248 NA
ATOM     53  C   UNL A   1      46.109  24.227  26.625  1.00  0.00     0.031 C 
ATOM     54  C   UNL A   1      48.983  29.534  27.359  1.00  0.00     0.029 A 
ATOM     55  C   UNL A   1      48.003  28.553  27.330  1.00  0.00     0.049 A 
ATOM     56  H   UNL A   1      45.959  28.708  27.835  1.00  0.00     0.167 HD
ATOM     57  C   UNL A   1      47.120  26.262  26.951  1.00  0.00     0.074 A 
ATOM     58  C   UNL A   1      47.266  24.873  26.567  1.00  0.00     0.031 C 
ATOM     59  C   UNL A   1      48.130  27.168  26.943  1.00  0.00     0.037 A 
BRANCH  46  60
ATOM     60  C   UNL A   1      46.454  32.861  28.738  1.00  0.00     0.058 A 
ATOM     61  C   UNL A   1      46.893  33.318  29.992  1.00  0.00     0.135 A 
ATOM     62  C   UNL A   1      46.388  33.796  27.692  1.00  0.00     0.135 A 
ATOM     63  F   UNL A   1      46.964  32.473  31.033  1.00  0.00    -0.206 F 
ATOM     64  C   UNL A   1      47.201  34.657  30.214  1.00  0.00     0.059 A 
ATOM     65  C   UNL A   1      46.724  35.133  27.882  1.00  0.00     0.059 A 
ATOM     66  F   UNL A   1      45.980  33.417  26.471  1.00  0.00    -0.206 F 
ATOM     67  C   UNL A   1      47.107  35.558  29.154  1.00  0.00     0.060 A 
BRANCH  67  68
ATOM     68  S   UNL A   1      47.482  37.296  29.466  1.00  0.00     0.124 S 
ATOM     69  O   UNL A   1      48.755  37.447  28.766  1.00  0.00    -0.237 OA
ATOM     70  O   UNL A   1      46.342  37.975  28.859  1.00  0.00    -0.237 OA
ATOM     71  O   UNL A   1      47.554  37.374  30.921  1.00  0.00    -0.744 OA
ENDBRANCH  67  68
ENDBRANCH  46  60
BRANCH  47  72
ATOM     72  C   UNL A   1      43.286  23.511  27.078  1.00  0.00     0.058 A 
ATOM     73  C   UNL A   1      43.093  23.083  25.756  1.00  0.00     0.135 A 
ATOM     74  C   UNL A   1      43.045  22.586  28.106  1.00  0.00     0.135 A 
ATOM     75  F   UNL A   1      43.304  23.933  24.739  1.00  0.00    -0.206 F 
ATOM     76  C   UNL A   1      42.676  21.789  25.463  1.00  0.00     0.059 A 
ATOM     77  C   UNL A   1      42.653  21.278  27.837  1.00  0.00     0.059 A 
ATOM     78  F   UNL A   1      43.233  22.940  29.387  1.00  0.00    -0.206 F 
ATOM     79  C   UNL A   1      42.468  20.891  26.511  1.00  0.00     0.060 A 
BRANCH  79  80
ATOM     80  S   UNL A   1      42.002  19.191  26.116  1.00  0.00     0.124 S 
ATOM     81  O   UNL A   1      42.762  18.954  24.895  1.00  0.00    -0.237 OA
ATOM     82  O   UNL A   1      42.454  18.469  27.301  1.00  0.00    -0.237 OA
ATOM     83  O   UNL A   1      40.553  19.270  25.953  1.00  0.00    -0.744 OA
ENDBRANCH  79  80
ENDBRANCH  47  72
BRANCH  59  84
ATOM     84  C   UNL A   1      49.492  26.682  26.527  1.00  0.00     0.058 A 
ATOM     85  C   UNL A   1      50.369  26.072  27.438  1.00  0.00     0.135 A 
ATOM     86  C   UNL A   1      49.906  26.784  25.189  1.00  0.00     0.135 A 
ATOM     87  F   UNL A   1      50.028  25.954  28.731  1.00  0.00    -0.206 F 
ATOM     88  C   UNL A   1      51.619  25.604  27.042  1.00  0.00     0.059 A 
ATOM     89  C   UNL A   1      51.136  26.295  24.764  1.00  0.00     0.059 A 
ATOM     90  F   UNL A   1      49.102  27.349  24.274  1.00  0.00    -0.206 F 
ATOM     91  C   UNL A   1      51.993  25.719  25.701  1.00  0.00     0.060 A 
BRANCH  91  92
ATOM     92  S   UNL A   1      53.603  25.080  25.196  1.00  0.00     0.124 S 
ATOM     93  O   UNL A   1      53.783  25.730  23.901  1.00  0.00    -0.237 OA
ATOM     94  O   UNL A   1      54.475  25.549  26.268  1.00  0.00    -0.237 OA
ATOM     95  O   UNL A   1      53.397  23.635  25.149  1.00  0.00    -0.744 OA
ENDBRANCH  91  92
ENDBRANCH  59  84
ENDBRANCH  33  34
ENDBRANCH  25  28
ENDBRANCH  23  24
ENDBRANCH  22  23
ENDBRANCH  21  22
ENDBRANCH   1  21
TORSDOF 20
ENDMDL
MODEL 3
REMARK VINA RESULT:      -9.5      6.550      8.891
REMARK SMILES CSCCC(=O)N1[C@H](C)CCC[C@@H]1C(=O)NCCCCCCNC(=O)c1ccc(-c2c3nc(c(-c4c(F)cc(S(=O)(=O)[O-])cc4F)c4ccc([nH]4)c(-c4c(F)cc(S(=O)(=O)[O-])cc4F)c4nc(c(-c5c(F)cc(S(=O)(=O)[O-])cc5F)c5ccc2[nH]5)C=C4)C=C3)cc1
REMARK SMILES IDX 19 1 18 2 17 3 16 4 14 5 15 6 13 8 7 9 8 10 9 11 10 12 12 13
REMARK SMILES IDX 11 14 5 15 6 16 4 17 3 18 2 19 1 20 20 21 21 22 22 23 23 24
REMARK SMILES IDX 24 25 25 27 26 28 27 29 91 30 28 31 90 32 29 33 30 34 31 35
REMARK SMILES IDX 84 36 32 37 89 38 83 39 85 40 33 41 88 42 82 43 81 44 34 46
REMARK SMILES IDX 68 47 47 48 67 49 48 50 51 51 66 52 86 53 49 54 50 55 65 57
REMARK SMILES IDX 87 58 52 59 35 60 36 61 45 62 37 63 38 64 44 65 46 66 39 67
REMARK SMILES IDX 40 68 41 69 42 70 43 71 69 72 70 73 79 74 71 75 72 76 78 77
REMARK SMILES IDX 80 78 73 79 74 80 75 81 76 82 77 83 53 84 54 85 63 86 55 87
REMARK SMILES IDX 56 88 62 89 64 90 57 91 58 92 59 93 60 94 61 95
REMARK H PARENT 16 7 23 26 85 45 51 56
REMARK Flexibility Score: inf
ROOT
ATOM      1  C   UNL A   1      35.309  31.898  28.005  1.00  0.00     0.002 C 
ENDROOT
BRANCH   1   2
ATOM      2  C   UNL A   1      33.942  31.201  27.996  1.00  0.00     0.021 C 
BRANCH   2   3
ATOM      3  C   UNL A   1      33.829  30.167  26.879  1.00  0.00     0.116 C 
BRANCH   3   4
ATOM      4  N   UNL A   1      32.740  29.218  26.998  1.00  0.00    -0.354 N 
ATOM      5  C   UNL A   1      32.337  28.258  26.104  1.00  0.00     0.242 C 
ATOM      6  O   UNL A   1      32.244  27.112  26.562  1.00  0.00    -0.273 OA
ATOM      7  H   UNL A   1      32.221  29.267  27.832  1.00  0.00     0.163 HD
BRANCH   5   8
ATOM      8  C   UNL A   1      31.916  28.547  24.620  1.00  0.00     0.174 C 
ATOM      9  N   UNL A   1      31.112  27.557  23.861  1.00  0.00    -0.328 N 
ATOM     10  C   UNL A   1      31.828  26.453  23.249  1.00  0.00     0.082 C 
ATOM     11  C   UNL A   1      31.669  25.152  24.035  1.00  0.00     0.031 C 
ATOM     12  C   UNL A   1      33.232  26.848  22.746  1.00  0.00     0.025 C 
ATOM     13  C   UNL A   1      33.066  29.133  23.784  1.00  0.00     0.035 C 
ATOM     14  C   UNL A   1      33.330  28.353  22.500  1.00  0.00     0.005 C 
BRANCH   9  15
ATOM     15  C   UNL A   1      29.857  27.906  23.342  1.00  0.00     0.224 C 
ATOM     16  O   UNL A   1      28.864  27.193  23.501  1.00  0.00    -0.275 OA
BRANCH  15  17
ATOM     17  C   UNL A   1      29.743  29.192  22.502  1.00  0.00     0.111 C 
BRANCH  17  18
ATOM     18  C   UNL A   1      28.510  30.089  22.706  1.00  0.00     0.079 C 
BRANCH  18  19
ATOM     19  S   UNL A   1      28.730  31.878  22.295  1.00  0.00    -0.165 SA
ATOM     20  C   UNL A   1      28.028  31.961  20.612  1.00  0.00     0.085 C 
ENDBRANCH  18  19
ENDBRANCH  17  18
ENDBRANCH  15  17
ENDBRANCH   9  15
ENDBRANCH   5   8
ENDBRANCH   3   4
ENDBRANCH   2   3
ENDBRANCH   1   2
BRANCH   1  21
ATOM     21  C   UNL A   1      35.294  33.434  28.047  1.00  0.00     0.002 C 
BRANCH  21  22
ATOM     22  C   UNL A   1      33.917  34.101  28.003  1.00  0.00     0.021 C 
BRANCH  22  23
ATOM     23  C   UNL A   1      33.880  35.567  28.434  1.00  0.00     0.116 C 
BRANCH  23  24
ATOM     24  N   UNL A   1      32.983  35.802  29.556  1.00  0.00    -0.352 N 
ATOM     25  C   UNL A   1      33.027  35.330  30.844  1.00  0.00     0.251 C 
ATOM     26  H   UNL A   1      32.223  36.397  29.360  1.00  0.00     0.163 HD
ATOM     27  O   UNL A   1      32.073  35.517  31.589  1.00  0.00    -0.269 OA
BRANCH  25  28
ATOM     28  C   UNL A   1      34.211  34.588  31.324  1.00  0.00     0.039 A 
ATOM     29  C   UNL A   1      35.452  35.230  31.328  1.00  0.00     0.014 A 
ATOM     30  C   UNL A   1      34.106  33.259  31.741  1.00  0.00     0.014 A 
ATOM     31  C   UNL A   1      36.577  34.555  31.806  1.00  0.00     0.010 A 
ATOM     32  C   UNL A   1      35.211  32.615  32.290  1.00  0.00     0.010 A 
ATOM     33  C   UNL A   1      36.459  33.254  32.320  1.00  0.00    -0.014 A 
BRANCH  33  34
ATOM     34  C   UNL A   1      37.632  32.548  32.895  1.00  0.00     0.031 A 
ATOM     35  C   UNL A   1      38.224  33.000  34.200  1.00  0.00     0.074 A 
ATOM     36  C   UNL A   1      38.198  31.538  32.204  1.00  0.00     0.049 A 
ATOM     37  N   UNL A   1      39.278  32.549  34.830  1.00  0.00    -0.248 NA
ATOM     38  C   UNL A   1      37.563  34.131  34.870  1.00  0.00     0.031 C 
ATOM     39  C   UNL A   1      37.749  31.052  30.898  1.00  0.00     0.029 A 
ATOM     40  N   UNL A   1      39.284  30.752  32.497  1.00  0.00    -0.354 N 
ATOM     41  C   UNL A   1      39.408  33.339  35.965  1.00  0.00     0.074 A 
ATOM     42  C   UNL A   1      38.369  34.344  35.900  1.00  0.00     0.031 C 
ATOM     43  C   UNL A   1      38.541  30.041  30.510  1.00  0.00     0.029 A 
ATOM     44  C   UNL A   1      39.577  29.833  31.516  1.00  0.00     0.049 A 
ATOM     45  H   UNL A   1      39.802  30.836  33.329  1.00  0.00     0.167 HD
ATOM     46  C   UNL A   1      40.297  33.223  36.982  1.00  0.00     0.037 A 
ATOM     47  C   UNL A   1      40.576  28.934  31.431  1.00  0.00     0.037 A 
ATOM     48  C   UNL A   1      41.324  32.216  37.036  1.00  0.00     0.049 A 
ATOM     49  C   UNL A   1      41.554  28.820  32.567  1.00  0.00     0.074 A 
ATOM     50  C   UNL A   1      42.246  31.979  38.041  1.00  0.00     0.029 A 
ATOM     51  N   UNL A   1      41.573  31.283  36.039  1.00  0.00    -0.354 N 
ATOM     52  N   UNL A   1      41.621  29.530  33.669  1.00  0.00    -0.248 NA
ATOM     53  C   UNL A   1      42.582  27.778  32.458  1.00  0.00     0.031 C 
ATOM     54  C   UNL A   1      43.086  30.938  37.627  1.00  0.00     0.029 A 
ATOM     55  C   UNL A   1      42.650  30.484  36.391  1.00  0.00     0.049 A 
ATOM     56  H   UNL A   1      41.060  31.201  35.202  1.00  0.00     0.167 HD
ATOM     57  C   UNL A   1      42.687  29.008  34.394  1.00  0.00     0.074 A 
ATOM     58  C   UNL A   1      43.223  27.912  33.612  1.00  0.00     0.031 C 
ATOM     59  C   UNL A   1      43.177  29.401  35.597  1.00  0.00     0.037 A 
BRANCH  46  60
ATOM     60  C   UNL A   1      40.189  34.215  38.111  1.00  0.00     0.058 A 
ATOM     61  C   UNL A   1      40.915  35.418  38.110  1.00  0.00     0.135 A 
ATOM     62  C   UNL A   1      39.351  33.964  39.210  1.00  0.00     0.135 A 
ATOM     63  F   UNL A   1      41.743  35.707  37.093  1.00  0.00    -0.206 F 
ATOM     64  C   UNL A   1      40.856  36.307  39.179  1.00  0.00     0.059 A 
ATOM     65  C   UNL A   1      39.248  34.856  40.274  1.00  0.00     0.059 A 
ATOM     66  F   UNL A   1      38.628  32.833  39.265  1.00  0.00    -0.206 F 
ATOM     67  C   UNL A   1      40.024  36.014  40.259  1.00  0.00     0.060 A 
BRANCH  67  68
ATOM     68  S   UNL A   1      39.981  37.164  41.650  1.00  0.00     0.124 S 
ATOM     69  O   UNL A   1      39.245  36.387  42.644  1.00  0.00    -0.237 OA
ATOM     70  O   UNL A   1      41.398  37.368  41.930  1.00  0.00    -0.237 OA
ATOM     71  O   UNL A   1      39.276  38.323  41.113  1.00  0.00    -0.744 OA
ENDBRANCH  67  68
ENDBRANCH  46  60
BRANCH  47  72
ATOM     72  C   UNL A   1      40.679  28.069  30.226  1.00  0.00     0.058 A 
ATOM     73  C   UNL A   1      39.750  27.047  29.981  1.00  0.00     0.135 A 
ATOM     74  C   UNL A   1      41.684  28.283  29.268  1.00  0.00     0.135 A 
ATOM     75  F   UNL A   1      38.776  26.799  30.870  1.00  0.00    -0.206 F 
ATOM     76  C   UNL A   1      39.813  26.266  28.832  1.00  0.00     0.059 A 
ATOM     77  C   UNL A   1      41.751  27.533  28.098  1.00  0.00     0.059 A 
ATOM     78  F   UNL A   1      42.586  29.261  29.446  1.00  0.00    -0.206 F 
ATOM     79  C   UNL A   1      40.813  26.523  27.891  1.00  0.00     0.060 A 
BRANCH  79  80
ATOM     80  S   UNL A   1      40.839  25.554  26.366  1.00  0.00     0.124 S 
ATOM     81  O   UNL A   1      41.155  26.576  25.375  1.00  0.00    -0.237 OA
ATOM     82  O   UNL A   1      41.892  24.583  26.642  1.00  0.00    -0.237 OA
ATOM     83  O   UNL A   1      39.489  25.002  26.297  1.00  0.00    -0.744 OA
ENDBRANCH  79  80
ENDBRANCH  47  72
BRANCH  59  84
ATOM     84  C   UNL A   1      44.340  28.626  36.156  1.00  0.00     0.058 A 
ATOM     85  C   UNL A   1      44.154  27.468  36.929  1.00  0.00     0.135 A 
ATOM     86  C   UNL A   1      45.658  29.020  35.875  1.00  0.00     0.135 A 
ATOM     87  F   UNL A   1      42.915  27.050  37.233  1.00  0.00    -0.206 F 
ATOM     88  C   UNL A   1      45.234  26.744  37.424  1.00  0.00     0.059 A 
ATOM     89  C   UNL A   1      46.752  28.294  36.332  1.00  0.00     0.059 A 
ATOM     90  F   UNL A   1      45.893  30.113  35.131  1.00  0.00    -0.206 F 
ATOM     91  C   UNL A   1      46.530  27.164  37.118  1.00  0.00     0.060 A 
BRANCH  91  92
ATOM     92  S   UNL A   1      47.921  26.197  37.741  1.00  0.00     0.124 S 
ATOM     93  O   UNL A   1      48.783  26.131  36.565  1.00  0.00    -0.237 OA
ATOM     94  O   UNL A   1      48.408  27.025  38.840  1.00  0.00    -0.237 OA
ATOM     95  O   UNL A   1      47.306  24.935  38.141  1.00  0.00    -0.744 OA
ENDBRANCH  91  92
ENDBRANCH  59  84
ENDBRANCH  33  34
ENDBRANCH  25  28
ENDBRANCH  23  24
ENDBRANCH  22  23
ENDBRANCH  21  22
ENDBRANCH   1  21
TORSDOF 20
ENDMDL
