MODEL 1
REMARK VINA RESULT:     -10.0      0.000      0.000
REMARK SMILES C[C@@H](C(=O)NCCCCCCNC(=O)c1ccc(-c2c3nc(c(-c4c(F)cc(S(=O)(=O)[O-])cc4F)c4ccc([nH]4)c(-c4c(F)cc(S(=O)(=O)[O-])cc4F)c4nc(c(-c5c(F)cc(S(=O)(=O)[O-])cc5F)c5ccc2[nH]5)C=C4)C=C3)cc1)[C@@H](N[S@](=O)C(C)(C)C)C(C)(C)C
REMARK SMILES IDX 8 1 7 2 6 3 5 4 3 5 4 6 2 8 1 9 81 10 82 11 83 13 84 14
REMARK SMILES IDX 85 15 86 16 87 17 88 18 89 19 90 20 91 21 92 22 9 23 10 24
REMARK SMILES IDX 11 25 12 26 13 27 14 29 15 30 16 31 80 32 17 33 79 34 18 35
REMARK SMILES IDX 19 36 20 37 73 38 21 39 78 40 72 41 74 42 22 43 77 44 71 45
REMARK SMILES IDX 70 46 23 48 57 49 36 50 56 51 37 52 40 53 55 54 75 55 38 56
REMARK SMILES IDX 39 57 54 59 76 60 41 61 24 62 25 63 34 64 26 65 27 66 33 67
REMARK SMILES IDX 35 68 28 69 29 70 30 71 31 72 32 73 58 74 59 75 68 76 60 77
REMARK SMILES IDX 61 78 67 79 69 80 62 81 63 82 64 83 65 84 66 85 42 86 43 87
REMARK SMILES IDX 52 88 44 89 45 90 51 91 53 92 46 93 47 94 48 95 49 96 50 97
REMARK H PARENT 5 7 82 12 12 28 74 47 40 58
REMARK Flexibility Score: inf
ROOT
ATOM      1  C   UNL A   1      31.211  27.387  24.515  1.00  0.00     0.002 C 
ENDROOT
BRANCH   1   2
ATOM      2  C   UNL A   1      30.888  25.952  24.072  1.00  0.00     0.021 C 
BRANCH   2   3
ATOM      3  C   UNL A   1      31.867  25.386  23.039  1.00  0.00     0.116 C 
BRANCH   3   4
ATOM      4  N   UNL A   1      31.573  23.980  22.815  1.00  0.00    -0.356 N 
ATOM      5  C   UNL A   1      32.396  22.900  22.929  1.00  0.00     0.224 C 
ATOM      6  O   UNL A   1      32.134  21.893  22.270  1.00  0.00    -0.275 OA
ATOM      7  H   UNL A   1      30.648  23.779  22.544  1.00  0.00     0.163 HD
BRANCH   5   8
ATOM      8  C   UNL A   1      33.608  22.975  23.851  1.00  0.00     0.094 C 
ATOM      9  C   UNL A   1      34.821  22.943  22.901  1.00  0.00     0.020 C 
BRANCH   8  10
ATOM     10  C   UNL A   1      33.587  21.812  24.933  1.00  0.00     0.085 C 
BRANCH  10  11
ATOM     11  N   UNL A   1      33.921  20.518  24.244  1.00  0.00    -0.233 NA
ATOM     12  H   UNL A   1      34.755  20.157  24.708  1.00  0.00     0.138 HD
BRANCH  11  13
ATOM     13  S   UNL A   1      32.850  19.244  24.163  1.00  0.00     0.097 S 
ATOM     14  O   UNL A   1      31.946  19.181  25.356  1.00  0.00    -0.242 OA
BRANCH  13  15
ATOM     15  C   UNL A   1      34.011  17.802  24.294  1.00  0.00     0.052 C 
ATOM     16  C   UNL A   1      34.070  17.018  22.979  1.00  0.00     0.027 C 
ATOM     17  C   UNL A   1      35.400  18.416  24.575  1.00  0.00     0.027 C 
ATOM     18  C   UNL A   1      33.641  16.890  25.469  1.00  0.00     0.027 C 
ENDBRANCH  13  15
ENDBRANCH  11  13
ENDBRANCH  10  11
BRANCH  10  19
ATOM     19  C   UNL A   1      34.500  22.116  26.234  1.00  0.00    -0.021 C 
ATOM     20  C   UNL A   1      35.976  21.673  26.091  1.00  0.00     0.012 C 
ATOM     21  C   UNL A   1      34.603  23.639  26.522  1.00  0.00     0.012 C 
ATOM     22  C   UNL A   1      33.948  21.398  27.482  1.00  0.00     0.012 C 
ENDBRANCH  10  19
ENDBRANCH   8  10
ENDBRANCH   5   8
ENDBRANCH   3   4
ENDBRANCH   2   3
ENDBRANCH   1   2
BRANCH   1  23
ATOM     23  C   UNL A   1      31.807  27.510  25.920  1.00  0.00     0.002 C 
BRANCH  23  24
ATOM     24  C   UNL A   1      33.251  27.019  26.056  1.00  0.00     0.021 C 
BRANCH  24  25
ATOM     25  C   UNL A   1      34.318  28.103  25.926  1.00  0.00     0.116 C 
BRANCH  25  26
ATOM     26  N   UNL A   1      33.810  29.420  26.274  1.00  0.00    -0.352 N 
ATOM     27  C   UNL A   1      34.271  30.316  27.204  1.00  0.00     0.251 C 
ATOM     28  H   UNL A   1      33.019  29.712  25.767  1.00  0.00     0.163 HD
ATOM     29  O   UNL A   1      33.593  31.308  27.479  1.00  0.00    -0.269 OA
BRANCH  27  30
ATOM     30  C   UNL A   1      35.560  30.090  27.895  1.00  0.00     0.039 A 
ATOM     31  C   UNL A   1      35.542  29.598  29.203  1.00  0.00     0.014 A 
ATOM     32  C   UNL A   1      36.780  30.384  27.277  1.00  0.00     0.014 A 
ATOM     33  C   UNL A   1      36.743  29.347  29.867  1.00  0.00     0.010 A 
ATOM     34  C   UNL A   1      37.980  30.075  27.920  1.00  0.00     0.010 A 
ATOM     35  C   UNL A   1      37.974  29.553  29.221  1.00  0.00    -0.014 A 
BRANCH  35  36
ATOM     36  C   UNL A   1      39.251  29.203  29.898  1.00  0.00     0.031 A 
ATOM     37  C   UNL A   1      39.710  29.961  31.114  1.00  0.00     0.074 A 
ATOM     38  C   UNL A   1      40.016  28.215  29.390  1.00  0.00     0.049 A 
ATOM     39  N   UNL A   1      40.799  29.801  31.822  1.00  0.00    -0.248 NA
ATOM     40  C   UNL A   1      38.845  31.053  31.586  1.00  0.00     0.031 C 
ATOM     41  C   UNL A   1      39.709  27.445  28.181  1.00  0.00     0.029 A 
ATOM     42  N   UNL A   1      41.208  27.689  29.822  1.00  0.00    -0.354 N 
ATOM     43  C   UNL A   1      40.749  30.764  32.823  1.00  0.00     0.074 A 
ATOM     44  C   UNL A   1      39.550  31.542  32.597  1.00  0.00     0.031 C 
ATOM     45  C   UNL A   1      40.676  26.535  27.981  1.00  0.00     0.029 A 
ATOM     46  C   UNL A   1      41.683  26.672  29.028  1.00  0.00     0.049 A 
ATOM     47  H   UNL A   1      41.678  28.011  30.625  1.00  0.00     0.167 HD
ATOM     48  C   UNL A   1      41.607  30.964  33.852  1.00  0.00     0.037 A 
ATOM     49  C   UNL A   1      42.806  25.935  29.129  1.00  0.00     0.037 A 
ATOM     50  C   UNL A   1      42.792  30.178  34.083  1.00  0.00     0.049 A 
ATOM     51  C   UNL A   1      43.737  26.171  30.287  1.00  0.00     0.074 A 
ATOM     52  C   UNL A   1      43.707  30.281  35.119  1.00  0.00     0.029 A 
ATOM     53  N   UNL A   1      43.226  29.140  33.273  1.00  0.00    -0.354 N 
ATOM     54  N   UNL A   1      43.641  27.051  31.255  1.00  0.00    -0.248 NA
ATOM     55  C   UNL A   1      44.921  25.306  30.374  1.00  0.00     0.031 C 
ATOM     56  C   UNL A   1      44.710  29.327  34.916  1.00  0.00     0.029 A 
ATOM     57  C   UNL A   1      44.400  28.601  33.778  1.00  0.00     0.049 A 
ATOM     58  H   UNL A   1      42.768  28.830  32.458  1.00  0.00     0.167 HD
ATOM     59  C   UNL A   1      44.742  26.833  32.075  1.00  0.00     0.074 A 
ATOM     60  C   UNL A   1      45.476  25.723  31.503  1.00  0.00     0.031 C 
ATOM     61  C   UNL A   1      45.118  27.497  33.197  1.00  0.00     0.037 A 
BRANCH  48  62
ATOM     62  C   UNL A   1      41.288  32.064  34.828  1.00  0.00     0.058 A 
ATOM     63  C   UNL A   1      41.797  33.361  34.655  1.00  0.00     0.135 A 
ATOM     64  C   UNL A   1      40.418  31.840  35.906  1.00  0.00     0.135 A 
ATOM     65  F   UNL A   1      42.645  33.627  33.649  1.00  0.00    -0.206 F 
ATOM     66  C   UNL A   1      41.465  34.395  35.525  1.00  0.00     0.059 A 
ATOM     67  C   UNL A   1      40.053  32.865  36.775  1.00  0.00     0.059 A 
ATOM     68  F   UNL A   1      39.906  30.618  36.119  1.00  0.00    -0.206 F 
ATOM     69  C   UNL A   1      40.590  34.138  36.581  1.00  0.00     0.060 A 
BRANCH  69  70
ATOM     70  S   UNL A   1      40.147  35.498  37.683  1.00  0.00     0.124 S 
ATOM     71  O   UNL A   1      41.356  35.624  38.490  1.00  0.00    -0.237 OA
ATOM     72  O   UNL A   1      39.893  36.588  36.747  1.00  0.00    -0.237 OA
ATOM     73  O   UNL A   1      38.972  34.995  38.388  1.00  0.00    -0.744 OA
ENDBRANCH  69  70
ENDBRANCH  48  62
BRANCH  49  74
ATOM     74  C   UNL A   1      43.111  24.895  28.111  1.00  0.00     0.058 A 
ATOM     75  C   UNL A   1      42.803  23.546  28.336  1.00  0.00     0.135 A 
ATOM     76  C   UNL A   1      43.732  25.230  26.898  1.00  0.00     0.135 A 
ATOM     77  F   UNL A   1      42.212  23.176  29.483  1.00  0.00    -0.206 F 
ATOM     78  C   UNL A   1      43.126  22.559  27.410  1.00  0.00     0.059 A 
ATOM     79  C   UNL A   1      44.041  24.266  25.944  1.00  0.00     0.059 A 
ATOM     80  F   UNL A   1      44.029  26.511  26.625  1.00  0.00    -0.206 F 
ATOM     81  C   UNL A   1      43.750  22.930  26.217  1.00  0.00     0.060 A 
BRANCH  81  82
ATOM     82  S   UNL A   1      44.148  21.649  25.008  1.00  0.00     0.124 S 
ATOM     83  O   UNL A   1      43.996  22.375  23.753  1.00  0.00    -0.237 OA
ATOM     84  O   UNL A   1      45.514  21.290  25.378  1.00  0.00    -0.237 OA
ATOM     85  O   UNL A   1      43.145  20.621  25.270  1.00  0.00    -0.744 OA
ENDBRANCH  81  82
ENDBRANCH  49  74
BRANCH  61  86
ATOM     86  C   UNL A   1      46.367  27.021  33.886  1.00  0.00     0.058 A 
ATOM     87  C   UNL A   1      47.626  27.558  33.578  1.00  0.00     0.135 A 
ATOM     88  C   UNL A   1      46.300  26.028  34.877  1.00  0.00     0.135 A 
ATOM     89  F   UNL A   1      47.744  28.506  32.635  1.00  0.00    -0.206 F 
ATOM     90  C   UNL A   1      48.782  27.102  34.201  1.00  0.00     0.059 A 
ATOM     91  C   UNL A   1      47.442  25.576  35.532  1.00  0.00     0.059 A 
ATOM     92  F   UNL A   1      45.120  25.490  35.219  1.00  0.00    -0.206 F 
ATOM     93  C   UNL A   1      48.680  26.106  35.174  1.00  0.00     0.060 A 
BRANCH  93  94
ATOM     94  S   UNL A   1      50.188  25.522  35.979  1.00  0.00     0.124 S 
ATOM     95  O   UNL A   1      50.828  26.779  36.350  1.00  0.00    -0.237 OA
ATOM     96  O   UNL A   1      49.665  24.726  37.085  1.00  0.00    -0.237 OA
ATOM     97  O   UNL A   1      50.858  24.760  34.928  1.00  0.00    -0.744 OA
ENDBRANCH  93  94
ENDBRANCH  61  86
ENDBRANCH  35  36
ENDBRANCH  27  30
ENDBRANCH  25  26
ENDBRANCH  24  25
ENDBRANCH  23  24
ENDBRANCH   1  23
TORSDOF 21
ENDMDL
MODEL 2
REMARK VINA RESULT:      -9.7      2.337      3.111
REMARK SMILES C[C@@H](C(=O)NCCCCCCNC(=O)c1ccc(-c2c3nc(c(-c4c(F)cc(S(=O)(=O)[O-])cc4F)c4ccc([nH]4)c(-c4c(F)cc(S(=O)(=O)[O-])cc4F)c4nc(c(-c5c(F)cc(S(=O)(=O)[O-])cc5F)c5ccc2[nH]5)C=C4)C=C3)cc1)[C@@H](N[S@](=O)C(C)(C)C)C(C)(C)C
REMARK SMILES IDX 8 1 7 2 6 3 5 4 3 5 4 6 2 8 1 9 81 10 82 11 83 13 84 14
REMARK SMILES IDX 85 15 86 16 87 17 88 18 89 19 90 20 91 21 92 22 9 23 10 24
REMARK SMILES IDX 11 25 12 26 13 27 14 29 15 30 16 31 80 32 17 33 79 34 18 35
REMARK SMILES IDX 19 36 20 37 73 38 21 39 78 40 72 41 74 42 22 43 77 44 71 45
REMARK SMILES IDX 70 46 23 48 57 49 36 50 56 51 37 52 40 53 55 54 75 55 38 56
REMARK SMILES IDX 39 57 54 59 76 60 41 61 24 62 25 63 34 64 26 65 27 66 33 67
REMARK SMILES IDX 35 68 28 69 29 70 30 71 31 72 32 73 58 74 59 75 68 76 60 77
REMARK SMILES IDX 61 78 67 79 69 80 62 81 63 82 64 83 65 84 66 85 42 86 43 87
REMARK SMILES IDX 52 88 44 89 45 90 51 91 53 92 46 93 47 94 48 95 49 96 50 97
REMARK H PARENT 5 7 82 12 12 28 74 47 40 58
REMARK Flexibility Score: inf
ROOT
ATOM      1  C   UNL A   1      31.253  27.120  24.550  1.00  0.00     0.002 C 
ENDROOT
BRANCH   1   2
ATOM      2  C   UNL A   1      31.141  25.600  24.359  1.00  0.00     0.021 C 
BRANCH   2   3
ATOM      3  C   UNL A   1      31.429  25.130  22.929  1.00  0.00     0.116 C 
BRANCH   3   4
ATOM      4  N   UNL A   1      31.192  23.700  22.834  1.00  0.00    -0.356 N 
ATOM      5  C   UNL A   1      32.069  22.669  22.992  1.00  0.00     0.224 C 
ATOM      6  O   UNL A   1      31.824  21.602  22.430  1.00  0.00    -0.275 OA
ATOM      7  H   UNL A   1      30.265  23.438  22.627  1.00  0.00     0.163 HD
BRANCH   5   8
ATOM      8  C   UNL A   1      33.318  22.872  23.843  1.00  0.00     0.094 C 
ATOM      9  C   UNL A   1      34.488  22.764  22.846  1.00  0.00     0.020 C 
BRANCH   8  10
ATOM     10  C   UNL A   1      33.377  21.834  25.044  1.00  0.00     0.085 C 
BRANCH  10  11
ATOM     11  N   UNL A   1      33.608  20.461  24.473  1.00  0.00    -0.233 NA
ATOM     12  H   UNL A   1      34.558  20.201  24.735  1.00  0.00     0.138 HD
BRANCH  11  13
ATOM     13  S   UNL A   1      32.648  19.156  24.863  1.00  0.00     0.097 S 
ATOM     14  O   UNL A   1      32.546  18.945  26.343  1.00  0.00    -0.242 OA
BRANCH  13  15
ATOM     15  C   UNL A   1      33.669  17.758  24.193  1.00  0.00     0.052 C 
ATOM     16  C   UNL A   1      35.164  18.014  24.409  1.00  0.00     0.027 C 
ATOM     17  C   UNL A   1      33.249  16.515  25.006  1.00  0.00     0.027 C 
ATOM     18  C   UNL A   1      33.358  17.495  22.716  1.00  0.00     0.027 C 
ENDBRANCH  13  15
ENDBRANCH  11  13
ENDBRANCH  10  11
BRANCH  10  19
ATOM     19  C   UNL A   1      34.424  22.242  26.208  1.00  0.00    -0.021 C 
ATOM     20  C   UNL A   1      33.952  21.889  27.639  1.00  0.00     0.012 C 
ATOM     21  C   UNL A   1      35.768  21.476  26.068  1.00  0.00     0.012 C 
ATOM     22  C   UNL A   1      34.700  23.759  26.200  1.00  0.00     0.012 C 
ENDBRANCH  10  19
ENDBRANCH   8  10
ENDBRANCH   5   8
ENDBRANCH   3   4
ENDBRANCH   2   3
ENDBRANCH   1   2
BRANCH   1  23
ATOM     23  C   UNL A   1      31.612  27.568  25.970  1.00  0.00     0.002 C 
BRANCH  23  24
ATOM     24  C   UNL A   1      32.923  26.995  26.516  1.00  0.00     0.021 C 
BRANCH  24  25
ATOM     25  C   UNL A   1      34.089  27.979  26.561  1.00  0.00     0.116 C 
BRANCH  25  26
ATOM     26  N   UNL A   1      33.685  29.291  27.039  1.00  0.00    -0.352 N 
ATOM     27  C   UNL A   1      34.373  30.187  27.815  1.00  0.00     0.251 C 
ATOM     28  H   UNL A   1      32.785  29.579  26.764  1.00  0.00     0.163 HD
ATOM     29  O   UNL A   1      33.787  31.173  28.267  1.00  0.00    -0.269 OA
BRANCH  27  30
ATOM     30  C   UNL A   1      35.801  29.969  28.135  1.00  0.00     0.039 A 
ATOM     31  C   UNL A   1      36.148  29.608  29.439  1.00  0.00     0.014 A 
ATOM     32  C   UNL A   1      36.799  30.144  27.169  1.00  0.00     0.014 A 
ATOM     33  C   UNL A   1      37.485  29.366  29.760  1.00  0.00     0.010 A 
ATOM     34  C   UNL A   1      38.127  29.842  27.477  1.00  0.00     0.010 A 
ATOM     35  C   UNL A   1      38.484  29.450  28.775  1.00  0.00    -0.014 A 
BRANCH  35  36
ATOM     36  C   UNL A   1      39.895  29.107  29.097  1.00  0.00     0.031 A 
ATOM     37  C   UNL A   1      40.799  30.114  29.754  1.00  0.00     0.074 A 
ATOM     38  C   UNL A   1      40.369  27.890  28.764  1.00  0.00     0.049 A 
ATOM     39  N   UNL A   1      42.057  29.992  30.094  1.00  0.00    -0.248 NA
ATOM     40  C   UNL A   1      40.225  31.436  30.050  1.00  0.00     0.031 C 
ATOM     41  C   UNL A   1      39.607  26.847  28.070  1.00  0.00     0.029 A 
ATOM     42  N   UNL A   1      41.603  27.322  28.959  1.00  0.00    -0.354 N 
ATOM     43  C   UNL A   1      42.423  31.213  30.648  1.00  0.00     0.074 A 
ATOM     44  C   UNL A   1      41.271  32.083  30.545  1.00  0.00     0.031 C 
ATOM     45  C   UNL A   1      40.384  25.762  27.916  1.00  0.00     0.029 A 
ATOM     46  C   UNL A   1      41.703  26.038  28.474  1.00  0.00     0.049 A 
ATOM     47  H   UNL A   1      42.345  27.789  29.405  1.00  0.00     0.167 HD
ATOM     48  C   UNL A   1      43.602  31.569  31.214  1.00  0.00     0.037 A 
ATOM     49  C   UNL A   1      42.743  25.181  28.476  1.00  0.00     0.037 A 
ATOM     50  C   UNL A   1      44.742  30.696  31.328  1.00  0.00     0.049 A 
ATOM     51  C   UNL A   1      44.037  25.599  29.121  1.00  0.00     0.074 A 
ATOM     52  C   UNL A   1      45.969  30.954  31.918  1.00  0.00     0.029 A 
ATOM     53  N   UNL A   1      44.798  29.397  30.850  1.00  0.00    -0.354 N 
ATOM     54  N   UNL A   1      44.343  26.740  29.689  1.00  0.00    -0.248 NA
ATOM     55  C   UNL A   1      45.121  24.607  29.137  1.00  0.00     0.031 C 
ATOM     56  C   UNL A   1      46.776  29.822  31.767  1.00  0.00     0.029 A 
ATOM     57  C   UNL A   1      46.039  28.843  31.121  1.00  0.00     0.049 A 
ATOM     58  H   UNL A   1      44.063  28.934  30.386  1.00  0.00     0.167 HD
ATOM     59  C   UNL A   1      45.649  26.598  30.145  1.00  0.00     0.074 A 
ATOM     60  C   UNL A   1      46.064  25.251  29.809  1.00  0.00     0.031 C 
ATOM     61  C   UNL A   1      46.437  27.501  30.778  1.00  0.00     0.037 A 
BRANCH  48  62
ATOM     62  C   UNL A   1      43.716  32.959  31.780  1.00  0.00     0.058 A 
ATOM     63  C   UNL A   1      43.355  33.235  33.109  1.00  0.00     0.135 A 
ATOM     64  C   UNL A   1      44.248  34.008  31.014  1.00  0.00     0.135 A 
ATOM     65  F   UNL A   1      42.827  32.272  33.880  1.00  0.00    -0.206 F 
ATOM     66  C   UNL A   1      43.506  34.507  33.653  1.00  0.00     0.059 A 
ATOM     67  C   UNL A   1      44.430  35.281  31.546  1.00  0.00     0.059 A 
ATOM     68  F   UNL A   1      44.606  33.798  29.737  1.00  0.00    -0.206 F 
ATOM     69  C   UNL A   1      44.047  35.523  32.865  1.00  0.00     0.060 A 
BRANCH  69  70
ATOM     70  S   UNL A   1      44.262  37.159  33.599  1.00  0.00     0.124 S 
ATOM     71  O   UNL A   1      44.827  36.821  34.902  1.00  0.00    -0.237 OA
ATOM     72  O   UNL A   1      45.174  37.803  32.661  1.00  0.00    -0.237 OA
ATOM     73  O   UNL A   1      42.907  37.701  33.625  1.00  0.00    -0.744 OA
ENDBRANCH  69  70
ENDBRANCH  48  62
BRANCH  49  74
ATOM     74  C   UNL A   1      42.604  23.838  27.856  1.00  0.00     0.058 A 
ATOM     75  C   UNL A   1      42.609  23.677  26.463  1.00  0.00     0.135 A 
ATOM     76  C   UNL A   1      42.450  22.688  28.646  1.00  0.00     0.135 A 
ATOM     77  F   UNL A   1      42.750  24.747  25.665  1.00  0.00    -0.206 F 
ATOM     78  C   UNL A   1      42.433  22.430  25.872  1.00  0.00     0.059 A 
ATOM     79  C   UNL A   1      42.300  21.426  28.080  1.00  0.00     0.059 A 
ATOM     80  F   UNL A   1      42.460  22.785  29.985  1.00  0.00    -0.206 F 
ATOM     81  C   UNL A   1      42.276  21.310  26.690  1.00  0.00     0.060 A 
BRANCH  81  82
ATOM     82  S   UNL A   1      42.070  19.690  25.919  1.00  0.00     0.124 S 
ATOM     83  O   UNL A   1      42.268  18.799  27.056  1.00  0.00    -0.237 OA
ATOM     84  O   UNL A   1      40.710  19.768  25.395  1.00  0.00    -0.237 OA
ATOM     85  O   UNL A   1      43.123  19.667  24.907  1.00  0.00    -0.744 OA
ENDBRANCH  81  82
ENDBRANCH  49  74
BRANCH  61  86
ATOM     86  C   UNL A   1      47.819  27.051  31.165  1.00  0.00     0.058 A 
ATOM     87  C   UNL A   1      48.893  27.119  30.265  1.00  0.00     0.135 A 
ATOM     88  C   UNL A   1      48.073  26.560  32.456  1.00  0.00     0.135 A 
ATOM     89  F   UNL A   1      48.701  27.577  29.018  1.00  0.00    -0.206 F 
ATOM     90  C   UNL A   1      50.165  26.682  30.617  1.00  0.00     0.059 A 
ATOM     91  C   UNL A   1      49.344  26.142  32.838  1.00  0.00     0.059 A 
ATOM     92  F   UNL A   1      47.084  26.485  33.360  1.00  0.00    -0.206 F 
ATOM     93  C   UNL A   1      50.379  26.189  31.906  1.00  0.00     0.060 A 
BRANCH  93  94
ATOM     94  S   UNL A   1      52.036  25.626  32.354  1.00  0.00     0.124 S 
ATOM     95  O   UNL A   1      51.847  24.181  32.415  1.00  0.00    -0.237 OA
ATOM     96  O   UNL A   1      52.845  26.113  31.241  1.00  0.00    -0.237 OA
ATOM     97  O   UNL A   1      52.282  26.284  33.635  1.00  0.00    -0.744 OA
ENDBRANCH  93  94
ENDBRANCH  61  86
ENDBRANCH  35  36
ENDBRANCH  27  30
ENDBRANCH  25  26
ENDBRANCH  24  25
ENDBRANCH  23  24
ENDBRANCH   1  23
TORSDOF 21
ENDMDL
MODEL 3
REMARK VINA RESULT:      -9.4      5.095      6.837
REMARK SMILES C[C@@H](C(=O)NCCCCCCNC(=O)c1ccc(-c2c3nc(c(-c4c(F)cc(S(=O)(=O)[O-])cc4F)c4ccc([nH]4)c(-c4c(F)cc(S(=O)(=O)[O-])cc4F)c4nc(c(-c5c(F)cc(S(=O)(=O)[O-])cc5F)c5ccc2[nH]5)C=C4)C=C3)cc1)[C@@H](N[S@](=O)C(C)(C)C)C(C)(C)C
REMARK SMILES IDX 8 1 7 2 6 3 5 4 3 5 4 6 2 8 1 9 81 10 82 11 83 13 84 14
REMARK SMILES IDX 85 15 86 16 87 17 88 18 89 19 90 20 91 21 92 22 9 23 10 24
REMARK SMILES IDX 11 25 12 26 13 27 14 29 15 30 16 31 80 32 17 33 79 34 18 35
REMARK SMILES IDX 19 36 20 37 73 38 21 39 78 40 72 41 74 42 22 43 77 44 71 45
REMARK SMILES IDX 70 46 23 48 57 49 36 50 56 51 37 52 40 53 55 54 75 55 38 56
REMARK SMILES IDX 39 57 54 59 76 60 41 61 24 62 25 63 34 64 26 65 27 66 33 67
REMARK SMILES IDX 35 68 28 69 29 70 30 71 31 72 32 73 58 74 59 75 68 76 60 77
REMARK SMILES IDX 61 78 67 79 69 80 62 81 63 82 64 83 65 84 66 85 42 86 43 87
REMARK SMILES IDX 52 88 44 89 45 90 51 91 53 92 46 93 47 94 48 95 49 96 50 97
REMARK H PARENT 5 7 82 12 12 28 74 47 40 58
REMARK Flexibility Score: inf
ROOT
ATOM      1  C   UNL A   1      34.108  30.637  26.995  1.00  0.00     0.002 C 
ENDROOT
BRANCH   1   2
ATOM      2  C   UNL A   1      34.243  29.112  26.866  1.00  0.00     0.021 C 
BRANCH   2   3
ATOM      3  C   UNL A   1      33.842  28.567  25.492  1.00  0.00     0.116 C 
BRANCH   3   4
ATOM      4  N   UNL A   1      32.571  29.147  25.094  1.00  0.00    -0.356 N 
ATOM      5  C   UNL A   1      31.497  28.548  24.507  1.00  0.00     0.224 C 
ATOM      6  O   UNL A   1      30.737  29.243  23.832  1.00  0.00    -0.275 OA
ATOM      7  H   UNL A   1      32.471  30.110  25.274  1.00  0.00     0.163 HD
BRANCH   5   8
ATOM      8  C   UNL A   1      31.280  27.051  24.693  1.00  0.00     0.094 C 
ATOM      9  C   UNL A   1      30.911  26.896  26.182  1.00  0.00     0.020 C 
BRANCH   8  10
ATOM     10  C   UNL A   1      32.553  26.218  24.239  1.00  0.00     0.085 C 
BRANCH  10  11
ATOM     11  N   UNL A   1      32.545  24.903  24.970  1.00  0.00    -0.233 NA
ATOM     12  H   UNL A   1      32.507  24.180  24.252  1.00  0.00     0.138 HD
BRANCH  11  13
ATOM     13  S   UNL A   1      33.762  24.453  26.015  1.00  0.00     0.097 S 
ATOM     14  O   UNL A   1      35.066  24.232  25.312  1.00  0.00    -0.242 OA
BRANCH  13  15
ATOM     15  C   UNL A   1      33.158  22.784  26.557  1.00  0.00     0.052 C 
ATOM     16  C   UNL A   1      34.076  22.184  27.626  1.00  0.00     0.027 C 
ATOM     17  C   UNL A   1      31.764  23.031  27.174  1.00  0.00     0.027 C 
ATOM     18  C   UNL A   1      32.995  21.833  25.366  1.00  0.00     0.027 C 
ENDBRANCH  13  15
ENDBRANCH  11  13
ENDBRANCH  10  11
BRANCH  10  19
ATOM     19  C   UNL A   1      32.698  26.073  22.634  1.00  0.00    -0.021 C 
ATOM     20  C   UNL A   1      33.656  27.102  21.987  1.00  0.00     0.012 C 
ATOM     21  C   UNL A   1      33.311  24.702  22.233  1.00  0.00     0.012 C 
ATOM     22  C   UNL A   1      31.334  26.245  21.934  1.00  0.00     0.012 C 
ENDBRANCH  10  19
ENDBRANCH   8  10
ENDBRANCH   5   8
ENDBRANCH   3   4
ENDBRANCH   2   3
ENDBRANCH   1   2
BRANCH   1  23
ATOM     23  C   UNL A   1      34.726  31.236  28.261  1.00  0.00     0.002 C 
BRANCH  23  24
ATOM     24  C   UNL A   1      35.819  32.280  28.016  1.00  0.00     0.021 C 
BRANCH  24  25
ATOM     25  C   UNL A   1      36.532  32.776  29.272  1.00  0.00     0.116 C 
BRANCH  25  26
ATOM     26  N   UNL A   1      36.141  32.032  30.458  1.00  0.00    -0.352 N 
ATOM     27  C   UNL A   1      36.723  30.928  31.026  1.00  0.00     0.251 C 
ATOM     28  H   UNL A   1      35.342  32.371  30.921  1.00  0.00     0.163 HD
ATOM     29  O   UNL A   1      36.135  30.331  31.930  1.00  0.00    -0.269 OA
BRANCH  27  30
ATOM     30  C   UNL A   1      38.033  30.435  30.549  1.00  0.00     0.039 A 
ATOM     31  C   UNL A   1      38.116  29.886  29.266  1.00  0.00     0.014 A 
ATOM     32  C   UNL A   1      39.171  30.483  31.363  1.00  0.00     0.014 A 
ATOM     33  C   UNL A   1      39.347  29.441  28.780  1.00  0.00     0.010 A 
ATOM     34  C   UNL A   1      40.411  30.094  30.852  1.00  0.00     0.010 A 
ATOM     35  C   UNL A   1      40.512  29.569  29.556  1.00  0.00    -0.014 A 
BRANCH  35  36
ATOM     36  C   UNL A   1      41.835  29.177  29.004  1.00  0.00     0.031 A 
ATOM     37  C   UNL A   1      42.943  30.187  28.873  1.00  0.00     0.074 A 
ATOM     38  C   UNL A   1      42.026  27.908  28.589  1.00  0.00     0.049 A 
ATOM     39  N   UNL A   1      44.153  30.024  28.402  1.00  0.00    -0.248 NA
ATOM     40  C   UNL A   1      42.649  31.561  29.306  1.00  0.00     0.031 C 
ATOM     41  C   UNL A   1      41.010  26.851  28.610  1.00  0.00     0.029 A 
ATOM     42  N   UNL A   1      43.135  27.290  28.068  1.00  0.00    -0.354 N 
ATOM     43  C   UNL A   1      44.767  31.269  28.488  1.00  0.00     0.074 A 
ATOM     44  C   UNL A   1      43.776  32.190  29.001  1.00  0.00     0.031 C 
ATOM     45  C   UNL A   1      41.549  25.713  28.142  1.00  0.00     0.029 A 
ATOM     46  C   UNL A   1      42.936  25.963  27.764  1.00  0.00     0.049 A 
ATOM     47  H   UNL A   1      43.991  27.753  27.925  1.00  0.00     0.167 HD
ATOM     48  C   UNL A   1      46.045  31.607  28.192  1.00  0.00     0.037 A 
ATOM     49  C   UNL A   1      43.776  25.051  27.237  1.00  0.00     0.037 A 
ATOM     50  C   UNL A   1      47.033  30.684  27.695  1.00  0.00     0.049 A 
ATOM     51  C   UNL A   1      45.193  25.452  26.927  1.00  0.00     0.074 A 
ATOM     52  C   UNL A   1      48.365  30.924  27.399  1.00  0.00     0.029 A 
ATOM     53  N   UNL A   1      46.803  29.344  27.425  1.00  0.00    -0.354 N 
ATOM     54  N   UNL A   1      45.768  26.622  27.068  1.00  0.00    -0.248 NA
ATOM     55  C   UNL A   1      46.078  24.404  26.399  1.00  0.00     0.031 C 
ATOM     56  C   UNL A   1      48.930  29.737  26.921  1.00  0.00     0.029 A 
ATOM     57  C   UNL A   1      47.963  28.747  26.957  1.00  0.00     0.049 A 
ATOM     58  H   UNL A   1      45.941  28.883  27.549  1.00  0.00     0.167 HD
ATOM     59  C   UNL A   1      47.087  26.447  26.664  1.00  0.00     0.074 A 
ATOM     60  C   UNL A   1      47.230  25.053  26.296  1.00  0.00     0.031 C 
ATOM     61  C   UNL A   1      48.088  27.358  26.595  1.00  0.00     0.037 A 
BRANCH  48  62
ATOM     62  C   UNL A   1      46.463  33.034  28.420  1.00  0.00     0.058 A 
ATOM     63  C   UNL A   1      47.069  33.432  29.622  1.00  0.00     0.135 A 
ATOM     64  C   UNL A   1      46.317  33.998  27.410  1.00  0.00     0.135 A 
ATOM     65  F   UNL A   1      47.218  32.555  30.627  1.00  0.00    -0.206 F 
ATOM     66  C   UNL A   1      47.503  34.739  29.820  1.00  0.00     0.059 A 
ATOM     67  C   UNL A   1      46.766  35.305  27.577  1.00  0.00     0.059 A 
ATOM     68  F   UNL A   1      45.741  33.672  26.242  1.00  0.00    -0.206 F 
ATOM     69  C   UNL A   1      47.351  35.668  28.791  1.00  0.00     0.060 A 
BRANCH  69  70
ATOM     70  S   UNL A   1      47.947  37.352  29.055  1.00  0.00     0.124 S 
ATOM     71  O   UNL A   1      49.350  37.227  28.671  1.00  0.00    -0.237 OA
ATOM     72  O   UNL A   1      47.109  38.126  28.146  1.00  0.00    -0.237 OA
ATOM     73  O   UNL A   1      47.705  37.579  30.476  1.00  0.00    -0.744 OA
ENDBRANCH  69  70
ENDBRANCH  48  62
BRANCH  49  74
ATOM     74  C   UNL A   1      43.305  23.666  26.975  1.00  0.00     0.058 A 
ATOM     75  C   UNL A   1      43.105  22.757  28.024  1.00  0.00     0.135 A 
ATOM     76  C   UNL A   1      43.060  23.219  25.668  1.00  0.00     0.135 A 
ATOM     77  F   UNL A   1      43.331  23.136  29.292  1.00  0.00    -0.206 F 
ATOM     78  C   UNL A   1      42.710  21.444  27.786  1.00  0.00     0.059 A 
ATOM     79  C   UNL A   1      42.638  21.920  25.405  1.00  0.00     0.059 A 
ATOM     80  F   UNL A   1      43.216  24.057  24.630  1.00  0.00    -0.206 F 
ATOM     81  C   UNL A   1      42.482  21.034  26.471  1.00  0.00     0.060 A 
BRANCH  81  82
ATOM     82  S   UNL A   1      41.948  19.336  26.169  1.00  0.00     0.124 S 
ATOM     83  O   UNL A   1      42.774  18.970  25.024  1.00  0.00    -0.237 OA
ATOM     84  O   UNL A   1      42.277  18.679  27.430  1.00  0.00    -0.237 OA
ATOM     85  O   UNL A   1      40.521  19.479  25.899  1.00  0.00    -0.744 OA
ENDBRANCH  81  82
ENDBRANCH  49  74
BRANCH  61  86
ATOM     86  C   UNL A   1      49.429  26.867  26.123  1.00  0.00     0.058 A 
ATOM     87  C   UNL A   1      49.814  26.960  24.778  1.00  0.00     0.135 A 
ATOM     88  C   UNL A   1      50.344  26.310  27.032  1.00  0.00     0.135 A 
ATOM     89  F   UNL A   1      48.974  27.480  23.869  1.00  0.00    -0.206 F 
ATOM     90  C   UNL A   1      51.045  26.485  24.340  1.00  0.00     0.059 A 
ATOM     91  C   UNL A   1      51.592  25.853  26.620  1.00  0.00     0.059 A 
ATOM     92  F   UNL A   1      50.031  26.208  28.333  1.00  0.00    -0.206 F 
ATOM     93  C   UNL A   1      51.926  25.928  25.269  1.00  0.00     0.060 A 
BRANCH  93  94
ATOM     94  S   UNL A   1      53.524  25.316  24.690  1.00  0.00     0.124 S 
ATOM     95  O   UNL A   1      54.449  26.094  25.506  1.00  0.00    -0.237 OA
ATOM     96  O   UNL A   1      53.446  23.892  25.003  1.00  0.00    -0.237 OA
ATOM     97  O   UNL A   1      53.514  25.639  23.266  1.00  0.00    -0.744 OA
ENDBRANCH  93  94
ENDBRANCH  61  86
ENDBRANCH  35  36
ENDBRANCH  27  30
ENDBRANCH  25  26
ENDBRANCH  24  25
ENDBRANCH  23  24
ENDBRANCH   1  23
TORSDOF 21
ENDMDL
