MODEL 1
REMARK VINA RESULT:     -10.8      0.000      0.000
REMARK SMILES C[C@H](NC(=O)NCCc1ccccc1F)C(=O)NCCCCCCNC(=O)c1ccc(-c2c3nc(c(-c4c(F)cc(S(=O)(=O)[O-])cc4F)c4ccc([nH]4)c(-c4c(F)cc(S(=O)(=O)[O-])cc4F)c4nc(c(-c5c(F)cc(S(=O)(=O)[O-])cc5F)c5ccc2[nH]5)C=C4)C=C3)cc1
REMARK SMILES IDX 21 1 20 2 19 3 18 4 16 5 17 6 2 8 1 9 3 10 4 11 5 13 6 14
REMARK SMILES IDX 7 16 8 17 9 18 10 19 14 20 11 21 13 22 15 23 12 24 22 25
REMARK SMILES IDX 23 26 24 27 25 28 26 29 27 31 28 32 29 33 93 34 30 35 92 36
REMARK SMILES IDX 31 37 32 38 33 39 86 40 34 41 91 42 85 43 87 44 35 45 90 46
REMARK SMILES IDX 84 47 83 48 36 50 70 51 49 52 69 53 50 54 53 55 68 56 88 57
REMARK SMILES IDX 51 58 52 59 67 61 89 62 54 63 37 64 38 65 47 66 39 67 40 68
REMARK SMILES IDX 46 69 48 70 41 71 42 72 43 73 44 74 45 75 71 76 72 77 81 78
REMARK SMILES IDX 73 79 74 80 80 81 82 82 75 83 76 84 77 85 78 86 79 87 55 88
REMARK SMILES IDX 56 89 65 90 57 91 58 92 64 93 66 94 59 95 60 96 61 97 62 98
REMARK SMILES IDX 63 99
REMARK H PARENT 18 7 3 12 6 15 25 30 87 49 53 60
REMARK Flexibility Score: inf
ROOT
ATOM      1  C   UNL A   1      34.189  23.834  23.104  1.00  0.00     0.002 C 
ENDROOT
BRANCH   1   2
ATOM      2  C   UNL A   1      33.215  23.119  22.165  1.00  0.00     0.021 C 
BRANCH   2   3
ATOM      3  C   UNL A   1      31.914  22.729  22.848  1.00  0.00     0.116 C 
BRANCH   3   4
ATOM      4  N   UNL A   1      32.045  21.430  23.492  1.00  0.00    -0.354 N 
ATOM      5  C   UNL A   1      32.144  21.134  24.820  1.00  0.00     0.242 C 
ATOM      6  O   UNL A   1      32.150  19.953  25.168  1.00  0.00    -0.273 OA
ATOM      7  H   UNL A   1      32.066  20.657  22.882  1.00  0.00     0.163 HD
BRANCH   5   8
ATOM      8  C   UNL A   1      32.151  22.279  25.838  1.00  0.00     0.170 C 
ATOM      9  C   UNL A   1      33.458  22.195  26.642  1.00  0.00     0.041 C 
BRANCH   8  10
ATOM     10  N   UNL A   1      30.922  22.205  26.637  1.00  0.00    -0.327 N 
ATOM     11  C   UNL A   1      29.977  23.070  27.012  1.00  0.00     0.315 C 
ATOM     12  H   UNL A   1      30.755  21.297  26.980  1.00  0.00     0.166 HD
ATOM     13  O   UNL A   1      29.093  22.666  27.769  1.00  0.00    -0.249 OA
ATOM     14  N   UNL A   1      29.948  24.347  26.617  1.00  0.00    -0.338 N 
ATOM     15  H   UNL A   1      29.224  24.874  27.026  1.00  0.00     0.165 HD
BRANCH  14  16
ATOM     16  C   UNL A   1      30.777  25.104  25.702  1.00  0.00     0.122 C 
BRANCH  16  17
ATOM     17  C   UNL A   1      31.950  25.798  26.378  1.00  0.00     0.060 C 
BRANCH  17  18
ATOM     18  C   UNL A   1      31.902  27.286  26.207  1.00  0.00    -0.010 A 
ATOM     19  C   UNL A   1      31.727  28.128  27.307  1.00  0.00     0.007 A 
ATOM     20  C   UNL A   1      32.063  27.847  24.936  1.00  0.00     0.126 A 
ATOM     21  C   UNL A   1      31.705  29.511  27.126  1.00  0.00     0.000 A 
ATOM     22  C   UNL A   1      32.044  29.222  24.751  1.00  0.00     0.039 A 
ATOM     23  F   UNL A   1      32.247  27.047  23.874  1.00  0.00    -0.207 F 
ATOM     24  C   UNL A   1      31.863  30.058  25.851  1.00  0.00     0.003 A 
ENDBRANCH  17  18
ENDBRANCH  16  17
ENDBRANCH  14  16
ENDBRANCH   8  10
ENDBRANCH   5   8
ENDBRANCH   3   4
ENDBRANCH   2   3
ENDBRANCH   1   2
BRANCH   1  25
ATOM     25  C   UNL A   1      35.336  22.953  23.610  1.00  0.00     0.002 C 
BRANCH  25  26
ATOM     26  C   UNL A   1      36.642  23.706  23.871  1.00  0.00     0.021 C 
BRANCH  26  27
ATOM     27  C   UNL A   1      37.077  23.699  25.331  1.00  0.00     0.116 C 
BRANCH  27  28
ATOM     28  N   UNL A   1      38.132  22.729  25.573  1.00  0.00    -0.352 N 
ATOM     29  C   UNL A   1      39.353  22.917  26.168  1.00  0.00     0.251 C 
ATOM     30  H   UNL A   1      37.945  21.812  25.268  1.00  0.00     0.163 HD
ATOM     31  O   UNL A   1      40.214  22.049  26.103  1.00  0.00    -0.269 OA
BRANCH  29  32
ATOM     32  C   UNL A   1      39.616  24.189  26.870  1.00  0.00     0.039 A 
ATOM     33  C   UNL A   1      39.064  24.388  28.135  1.00  0.00     0.014 A 
ATOM     34  C   UNL A   1      40.426  25.167  26.283  1.00  0.00     0.014 A 
ATOM     35  C   UNL A   1      39.366  25.556  28.836  1.00  0.00     0.010 A 
ATOM     36  C   UNL A   1      40.788  26.290  27.015  1.00  0.00     0.010 A 
ATOM     37  C   UNL A   1      40.256  26.500  28.295  1.00  0.00    -0.014 A 
BRANCH  37  38
ATOM     38  C   UNL A   1      40.638  27.715  29.055  1.00  0.00     0.031 A 
ATOM     39  C   UNL A   1      41.978  27.789  29.734  1.00  0.00     0.074 A 
ATOM     40  C   UNL A   1      39.760  28.732  29.170  1.00  0.00     0.049 A 
ATOM     41  N   UNL A   1      42.471  28.740  30.484  1.00  0.00    -0.248 NA
ATOM     42  C   UNL A   1      42.874  26.631  29.570  1.00  0.00     0.031 C 
ATOM     43  C   UNL A   1      38.418  28.757  28.583  1.00  0.00     0.029 A 
ATOM     44  N   UNL A   1      39.862  29.937  29.815  1.00  0.00    -0.354 N 
ATOM     45  C   UNL A   1      43.728  28.299  30.877  1.00  0.00     0.074 A 
ATOM     46  C   UNL A   1      43.897  26.966  30.341  1.00  0.00     0.031 C 
ATOM     47  C   UNL A   1      37.839  29.934  28.863  1.00  0.00     0.029 A 
ATOM     48  C   UNL A   1      38.746  30.729  29.687  1.00  0.00     0.049 A 
ATOM     49  H   UNL A   1      40.661  30.211  30.323  1.00  0.00     0.167 HD
ATOM     50  C   UNL A   1      44.668  28.958  31.594  1.00  0.00     0.037 A 
ATOM     51  C   UNL A   1      38.479  31.955  30.180  1.00  0.00     0.037 A 
ATOM     52  C   UNL A   1      44.496  30.291  32.110  1.00  0.00     0.049 A 
ATOM     53  C   UNL A   1      39.525  32.652  31.005  1.00  0.00     0.074 A 
ATOM     54  C   UNL A   1      45.401  31.059  32.820  1.00  0.00     0.029 A 
ATOM     55  N   UNL A   1      43.344  31.053  31.973  1.00  0.00    -0.354 N 
ATOM     56  N   UNL A   1      40.727  32.238  31.333  1.00  0.00    -0.248 NA
ATOM     57  C   UNL A   1      39.185  33.982  31.528  1.00  0.00     0.031 C 
ATOM     58  C   UNL A   1      44.780  32.265  33.157  1.00  0.00     0.029 A 
ATOM     59  C   UNL A   1      43.508  32.274  32.605  1.00  0.00     0.049 A 
ATOM     60  H   UNL A   1      42.531  30.768  31.496  1.00  0.00     0.167 HD
ATOM     61  C   UNL A   1      41.294  33.265  32.079  1.00  0.00     0.074 A 
ATOM     62  C   UNL A   1      40.308  34.325  32.145  1.00  0.00     0.031 C 
ATOM     63  C   UNL A   1      42.519  33.323  32.657  1.00  0.00     0.037 A 
BRANCH  50  64
ATOM     64  C   UNL A   1      45.976  28.258  31.849  1.00  0.00     0.058 A 
ATOM     65  C   UNL A   1      46.168  27.499  33.015  1.00  0.00     0.135 A 
ATOM     66  C   UNL A   1      47.061  28.387  30.968  1.00  0.00     0.135 A 
ATOM     67  F   UNL A   1      45.164  27.336  33.891  1.00  0.00    -0.206 F 
ATOM     68  C   UNL A   1      47.394  26.908  33.305  1.00  0.00     0.059 A 
ATOM     69  C   UNL A   1      48.287  27.779  31.222  1.00  0.00     0.059 A 
ATOM     70  F   UNL A   1      46.927  29.083  29.827  1.00  0.00    -0.206 F 
ATOM     71  C   UNL A   1      48.448  27.055  32.402  1.00  0.00     0.060 A 
BRANCH  71  72
ATOM     72  S   UNL A   1      50.023  26.256  32.779  1.00  0.00     0.124 S 
ATOM     73  O   UNL A   1      50.981  27.291  32.410  1.00  0.00    -0.237 OA
ATOM     74  O   UNL A   1      49.892  25.987  34.208  1.00  0.00    -0.237 OA
ATOM     75  O   UNL A   1      50.014  25.072  31.925  1.00  0.00    -0.744 OA
ENDBRANCH  71  72
ENDBRANCH  50  64
BRANCH  51  76
ATOM     76  C   UNL A   1      37.180  32.608  29.868  1.00  0.00     0.058 A 
ATOM     77  C   UNL A   1      37.075  33.593  28.874  1.00  0.00     0.135 A 
ATOM     78  C   UNL A   1      36.022  32.290  30.594  1.00  0.00     0.135 A 
ATOM     79  F   UNL A   1      38.155  33.944  28.156  1.00  0.00    -0.206 F 
ATOM     80  C   UNL A   1      35.880  34.260  28.630  1.00  0.00     0.059 A 
ATOM     81  C   UNL A   1      34.807  32.923  30.352  1.00  0.00     0.059 A 
ATOM     82  F   UNL A   1      36.069  31.346  31.547  1.00  0.00    -0.206 F 
ATOM     83  C   UNL A   1      34.752  33.920  29.379  1.00  0.00     0.060 A 
BRANCH  83  84
ATOM     84  S   UNL A   1      33.215  34.817  29.063  1.00  0.00     0.124 S 
ATOM     85  O   UNL A   1      32.586  33.971  28.055  1.00  0.00    -0.237 OA
ATOM     86  O   UNL A   1      32.585  34.811  30.379  1.00  0.00    -0.237 OA
ATOM     87  O   UNL A   1      33.674  36.120  28.594  1.00  0.00    -0.744 OA
ENDBRANCH  83  84
ENDBRANCH  51  76
BRANCH  63  88
ATOM     88  C   UNL A   1      42.886  34.580  33.398  1.00  0.00     0.058 A 
ATOM     89  C   UNL A   1      43.569  35.617  32.743  1.00  0.00     0.135 A 
ATOM     90  C   UNL A   1      42.645  34.720  34.774  1.00  0.00     0.135 A 
ATOM     91  F   UNL A   1      43.830  35.532  31.429  1.00  0.00    -0.206 F 
ATOM     92  C   UNL A   1      44.023  36.737  33.430  1.00  0.00     0.059 A 
ATOM     93  C   UNL A   1      43.064  35.847  35.476  1.00  0.00     0.059 A 
ATOM     94  F   UNL A   1      41.987  33.763  35.446  1.00  0.00    -0.206 F 
ATOM     95  C   UNL A   1      43.768  36.842  34.797  1.00  0.00     0.060 A 
BRANCH  95  96
ATOM     96  S   UNL A   1      44.364  38.305  35.672  1.00  0.00     0.124 S 
ATOM     97  O   UNL A   1      43.756  39.384  34.901  1.00  0.00    -0.237 OA
ATOM     98  O   UNL A   1      43.827  38.101  37.014  1.00  0.00    -0.237 OA
ATOM     99  O   UNL A   1      45.817  38.197  35.562  1.00  0.00    -0.744 OA
ENDBRANCH  95  96
ENDBRANCH  63  88
ENDBRANCH  37  38
ENDBRANCH  29  32
ENDBRANCH  27  28
ENDBRANCH  26  27
ENDBRANCH  25  26
ENDBRANCH   1  25
TORSDOF 20
ENDMDL
MODEL 2
REMARK VINA RESULT:     -10.8      3.179      4.863
REMARK SMILES C[C@H](NC(=O)NCCc1ccccc1F)C(=O)NCCCCCCNC(=O)c1ccc(-c2c3nc(c(-c4c(F)cc(S(=O)(=O)[O-])cc4F)c4ccc([nH]4)c(-c4c(F)cc(S(=O)(=O)[O-])cc4F)c4nc(c(-c5c(F)cc(S(=O)(=O)[O-])cc5F)c5ccc2[nH]5)C=C4)C=C3)cc1
REMARK SMILES IDX 21 1 20 2 19 3 18 4 16 5 17 6 2 8 1 9 3 10 4 11 5 13 6 14
REMARK SMILES IDX 7 16 8 17 9 18 10 19 14 20 11 21 13 22 15 23 12 24 22 25
REMARK SMILES IDX 23 26 24 27 25 28 26 29 27 31 28 32 29 33 93 34 30 35 92 36
REMARK SMILES IDX 31 37 32 38 33 39 86 40 34 41 91 42 85 43 87 44 35 45 90 46
REMARK SMILES IDX 84 47 83 48 36 50 70 51 49 52 69 53 50 54 53 55 68 56 88 57
REMARK SMILES IDX 51 58 52 59 67 61 89 62 54 63 37 64 38 65 47 66 39 67 40 68
REMARK SMILES IDX 46 69 48 70 41 71 42 72 43 73 44 74 45 75 71 76 72 77 81 78
REMARK SMILES IDX 73 79 74 80 80 81 82 82 75 83 76 84 77 85 78 86 79 87 55 88
REMARK SMILES IDX 56 89 65 90 57 91 58 92 64 93 66 94 59 95 60 96 61 97 62 98
REMARK SMILES IDX 63 99
REMARK H PARENT 18 7 3 12 6 15 25 30 87 49 53 60
REMARK Flexibility Score: inf
ROOT
ATOM      1  C   UNL A   1      36.313  23.191  23.760  1.00  0.00     0.002 C 
ENDROOT
BRANCH   1   2
ATOM      2  C   UNL A   1      35.299  24.081  24.482  1.00  0.00     0.021 C 
BRANCH   2   3
ATOM      3  C   UNL A   1      34.205  24.596  23.561  1.00  0.00     0.116 C 
BRANCH   3   4
ATOM      4  N   UNL A   1      33.514  25.723  24.170  1.00  0.00    -0.354 N 
ATOM      5  C   UNL A   1      32.231  25.799  24.629  1.00  0.00     0.242 C 
ATOM      6  O   UNL A   1      31.865  26.825  25.204  1.00  0.00    -0.273 OA
ATOM      7  H   UNL A   1      34.047  26.545  24.263  1.00  0.00     0.163 HD
BRANCH   5   8
ATOM      8  C   UNL A   1      31.320  24.575  24.497  1.00  0.00     0.170 C 
ATOM      9  C   UNL A   1      30.185  24.926  23.522  1.00  0.00     0.041 C 
BRANCH   8  10
ATOM     10  N   UNL A   1      30.885  24.166  25.837  1.00  0.00    -0.327 N 
ATOM     11  C   UNL A   1      30.767  23.005  26.488  1.00  0.00     0.315 C 
ATOM     12  H   UNL A   1      30.613  24.933  26.392  1.00  0.00     0.166 HD
ATOM     13  O   UNL A   1      30.284  23.025  27.621  1.00  0.00    -0.249 OA
ATOM     14  N   UNL A   1      31.136  21.829  25.969  1.00  0.00    -0.338 N 
ATOM     15  H   UNL A   1      30.931  21.058  26.545  1.00  0.00     0.165 HD
BRANCH  14  16
ATOM     16  C   UNL A   1      31.782  21.473  24.723  1.00  0.00     0.122 C 
BRANCH  16  17
ATOM     17  C   UNL A   1      33.241  21.074  24.888  1.00  0.00     0.060 C 
BRANCH  17  18
ATOM     18  C   UNL A   1      33.496  19.666  24.443  1.00  0.00    -0.010 A 
ATOM     19  C   UNL A   1      32.505  18.930  23.789  1.00  0.00     0.007 A 
ATOM     20  C   UNL A   1      34.749  19.083  24.657  1.00  0.00     0.126 A 
ATOM     21  C   UNL A   1      32.772  17.628  23.366  1.00  0.00     0.000 A 
ATOM     22  C   UNL A   1      35.021  17.789  24.237  1.00  0.00     0.039 A 
ATOM     23  F   UNL A   1      35.713  19.786  25.272  1.00  0.00    -0.207 F 
ATOM     24  C   UNL A   1      34.027  17.058  23.590  1.00  0.00     0.003 A 
ENDBRANCH  17  18
ENDBRANCH  16  17
ENDBRANCH  14  16
ENDBRANCH   8  10
ENDBRANCH   5   8
ENDBRANCH   3   4
ENDBRANCH   2   3
ENDBRANCH   1   2
BRANCH   1  25
ATOM     25  C   UNL A   1      37.369  22.568  24.679  1.00  0.00     0.002 C 
BRANCH  25  26
ATOM     26  C   UNL A   1      37.295  23.036  26.134  1.00  0.00     0.021 C 
BRANCH  26  27
ATOM     27  C   UNL A   1      38.173  24.243  26.440  1.00  0.00     0.116 C 
BRANCH  27  28
ATOM     28  N   UNL A   1      39.577  23.966  26.183  1.00  0.00    -0.352 N 
ATOM     29  C   UNL A   1      40.681  24.666  26.597  1.00  0.00     0.251 C 
ATOM     30  H   UNL A   1      39.760  23.166  25.640  1.00  0.00     0.163 HD
ATOM     31  O   UNL A   1      41.781  24.425  26.119  1.00  0.00    -0.269 OA
BRANCH  29  32
ATOM     32  C   UNL A   1      40.515  25.725  27.612  1.00  0.00     0.039 A 
ATOM     33  C   UNL A   1      39.548  25.563  28.605  1.00  0.00     0.014 A 
ATOM     34  C   UNL A   1      41.330  26.861  27.589  1.00  0.00     0.014 A 
ATOM     35  C   UNL A   1      39.433  26.524  29.609  1.00  0.00     0.010 A 
ATOM     36  C   UNL A   1      41.267  27.774  28.635  1.00  0.00     0.010 A 
ATOM     37  C   UNL A   1      40.313  27.620  29.650  1.00  0.00    -0.014 A 
BRANCH  37  38
ATOM     38  C   UNL A   1      40.247  28.615  30.748  1.00  0.00     0.031 A 
ATOM     39  C   UNL A   1      41.157  28.486  31.938  1.00  0.00     0.074 A 
ATOM     40  C   UNL A   1      39.336  29.608  30.691  1.00  0.00     0.049 A 
ATOM     41  N   UNL A   1      41.213  29.224  33.016  1.00  0.00    -0.248 NA
ATOM     42  C   UNL A   1      42.115  27.367  31.927  1.00  0.00     0.031 C 
ATOM     43  C   UNL A   1      38.377  29.811  29.603  1.00  0.00     0.029 A 
ATOM     44  N   UNL A   1      39.067  30.629  31.565  1.00  0.00    -0.354 N 
ATOM     45  C   UNL A   1      42.207  28.662  33.808  1.00  0.00     0.074 A 
ATOM     46  C   UNL A   1      42.682  27.483  33.118  1.00  0.00     0.031 C 
ATOM     47  C   UNL A   1      37.653  30.912  29.856  1.00  0.00     0.029 A 
ATOM     48  C   UNL A   1      38.061  31.466  31.144  1.00  0.00     0.049 A 
ATOM     49  H   UNL A   1      39.550  30.752  32.415  1.00  0.00     0.167 HD
ATOM     50  C   UNL A   1      42.701  29.108  34.986  1.00  0.00     0.037 A 
ATOM     51  C   UNL A   1      37.525  32.555  31.729  1.00  0.00     0.037 A 
ATOM     52  C   UNL A   1      42.231  30.292  35.656  1.00  0.00     0.049 A 
ATOM     53  C   UNL A   1      38.064  33.009  33.058  1.00  0.00     0.074 A 
ATOM     54  C   UNL A   1      42.688  30.847  36.839  1.00  0.00     0.029 A 
ATOM     55  N   UNL A   1      41.200  31.104  35.206  1.00  0.00    -0.354 N 
ATOM     56  N   UNL A   1      39.034  32.491  33.773  1.00  0.00    -0.248 NA
ATOM     57  C   UNL A   1      37.440  34.195  33.660  1.00  0.00     0.031 C 
ATOM     58  C   UNL A   1      41.900  31.964  37.130  1.00  0.00     0.029 A 
ATOM     59  C   UNL A   1      40.990  32.142  36.098  1.00  0.00     0.049 A 
ATOM     60  H   UNL A   1      40.691  30.963  34.374  1.00  0.00     0.167 HD
ATOM     61  C   UNL A   1      39.153  33.300  34.898  1.00  0.00     0.074 A 
ATOM     62  C   UNL A   1      38.164  34.350  34.761  1.00  0.00     0.031 C 
ATOM     63  C   UNL A   1      40.004  33.183  35.946  1.00  0.00     0.037 A 
BRANCH  50  64
ATOM     64  C   UNL A   1      43.817  28.324  35.622  1.00  0.00     0.058 A 
ATOM     65  C   UNL A   1      43.545  27.335  36.581  1.00  0.00     0.135 A 
ATOM     66  C   UNL A   1      45.163  28.594  35.326  1.00  0.00     0.135 A 
ATOM     67  F   UNL A   1      42.277  27.031  36.899  1.00  0.00    -0.206 F 
ATOM     68  C   UNL A   1      44.567  26.654  37.234  1.00  0.00     0.059 A 
ATOM     69  C   UNL A   1      46.201  27.904  35.945  1.00  0.00     0.059 A 
ATOM     70  F   UNL A   1      45.481  29.515  34.401  1.00  0.00    -0.206 F 
ATOM     71  C   UNL A   1      45.893  26.946  36.909  1.00  0.00     0.060 A 
BRANCH  71  72
ATOM     72  S   UNL A   1      47.206  26.031  37.746  1.00  0.00     0.124 S 
ATOM     73  O   UNL A   1      47.344  26.775  38.992  1.00  0.00    -0.237 OA
ATOM     74  O   UNL A   1      46.623  24.698  37.859  1.00  0.00    -0.237 OA
ATOM     75  O   UNL A   1      48.332  26.136  36.822  1.00  0.00    -0.744 OA
ENDBRANCH  71  72
ENDBRANCH  50  64
BRANCH  51  76
ATOM     76  C   UNL A   1      36.443  33.305  31.038  1.00  0.00     0.058 A 
ATOM     77  C   UNL A   1      35.107  33.220  31.460  1.00  0.00     0.135 A 
ATOM     78  C   UNL A   1      36.720  34.090  29.907  1.00  0.00     0.135 A 
ATOM     79  F   UNL A   1      34.784  32.474  32.529  1.00  0.00    -0.206 F 
ATOM     80  C   UNL A   1      34.082  33.859  30.771  1.00  0.00     0.059 A 
ATOM     81  C   UNL A   1      35.716  34.761  29.217  1.00  0.00     0.059 A 
ATOM     82  F   UNL A   1      37.983  34.212  29.472  1.00  0.00    -0.206 F 
ATOM     83  C   UNL A   1      34.396  34.624  29.647  1.00  0.00     0.060 A 
BRANCH  83  84
ATOM     84  S   UNL A   1      33.046  35.425  28.753  1.00  0.00     0.124 S 
ATOM     85  O   UNL A   1      33.766  36.427  27.975  1.00  0.00    -0.237 OA
ATOM     86  O   UNL A   1      32.485  34.313  27.993  1.00  0.00    -0.237 OA
ATOM     87  O   UNL A   1      32.198  35.947  29.820  1.00  0.00    -0.744 OA
ENDBRANCH  83  84
ENDBRANCH  51  76
BRANCH  63  88
ATOM     88  C   UNL A   1      39.929  34.224  37.030  1.00  0.00     0.058 A 
ATOM     89  C   UNL A   1      39.076  34.045  38.131  1.00  0.00     0.135 A 
ATOM     90  C   UNL A   1      40.631  35.436  36.936  1.00  0.00     0.135 A 
ATOM     91  F   UNL A   1      38.378  32.906  38.268  1.00  0.00    -0.206 F 
ATOM     92  C   UNL A   1      38.901  35.040  39.086  1.00  0.00     0.059 A 
ATOM     93  C   UNL A   1      40.494  36.434  37.896  1.00  0.00     0.059 A 
ATOM     94  F   UNL A   1      41.468  35.655  35.910  1.00  0.00    -0.206 F 
ATOM     95  C   UNL A   1      39.612  36.233  38.958  1.00  0.00     0.060 A 
BRANCH  95  96
ATOM     96  S   UNL A   1      39.372  37.513  40.209  1.00  0.00     0.124 S 
ATOM     97  O   UNL A   1      38.978  36.726  41.373  1.00  0.00    -0.237 OA
ATOM     98  O   UNL A   1      40.693  38.129  40.276  1.00  0.00    -0.237 OA
ATOM     99  O   UNL A   1      38.324  38.354  39.636  1.00  0.00    -0.744 OA
ENDBRANCH  95  96
ENDBRANCH  63  88
ENDBRANCH  37  38
ENDBRANCH  29  32
ENDBRANCH  27  28
ENDBRANCH  26  27
ENDBRANCH  25  26
ENDBRANCH   1  25
TORSDOF 20
ENDMDL
MODEL 3
REMARK VINA RESULT:     -10.8      2.534      3.263
REMARK SMILES C[C@H](NC(=O)NCCc1ccccc1F)C(=O)NCCCCCCNC(=O)c1ccc(-c2c3nc(c(-c4c(F)cc(S(=O)(=O)[O-])cc4F)c4ccc([nH]4)c(-c4c(F)cc(S(=O)(=O)[O-])cc4F)c4nc(c(-c5c(F)cc(S(=O)(=O)[O-])cc5F)c5ccc2[nH]5)C=C4)C=C3)cc1
REMARK SMILES IDX 21 1 20 2 19 3 18 4 16 5 17 6 2 8 1 9 3 10 4 11 5 13 6 14
REMARK SMILES IDX 7 16 8 17 9 18 10 19 14 20 11 21 13 22 15 23 12 24 22 25
REMARK SMILES IDX 23 26 24 27 25 28 26 29 27 31 28 32 29 33 93 34 30 35 92 36
REMARK SMILES IDX 31 37 32 38 33 39 86 40 34 41 91 42 85 43 87 44 35 45 90 46
REMARK SMILES IDX 84 47 83 48 36 50 70 51 49 52 69 53 50 54 53 55 68 56 88 57
REMARK SMILES IDX 51 58 52 59 67 61 89 62 54 63 37 64 38 65 47 66 39 67 40 68
REMARK SMILES IDX 46 69 48 70 41 71 42 72 43 73 44 74 45 75 71 76 72 77 81 78
REMARK SMILES IDX 73 79 74 80 80 81 82 82 75 83 76 84 77 85 78 86 79 87 55 88
REMARK SMILES IDX 56 89 65 90 57 91 58 92 64 93 66 94 59 95 60 96 61 97 62 98
REMARK SMILES IDX 63 99
REMARK H PARENT 18 7 3 12 6 15 25 30 87 49 53 60
REMARK Flexibility Score: inf
ROOT
ATOM      1  C   UNL A   1      34.279  23.801  23.107  1.00  0.00     0.002 C 
ENDROOT
BRANCH   1   2
ATOM      2  C   UNL A   1      33.270  23.063  22.225  1.00  0.00     0.021 C 
BRANCH   2   3
ATOM      3  C   UNL A   1      31.977  22.734  22.954  1.00  0.00     0.116 C 
BRANCH   3   4
ATOM      4  N   UNL A   1      32.070  21.429  23.592  1.00  0.00    -0.354 N 
ATOM      5  C   UNL A   1      32.187  21.126  24.917  1.00  0.00     0.242 C 
ATOM      6  O   UNL A   1      32.153  19.945  25.263  1.00  0.00    -0.273 OA
ATOM      7  H   UNL A   1      32.043  20.657  22.981  1.00  0.00     0.163 HD
BRANCH   5   8
ATOM      8  C   UNL A   1      32.267  22.267  25.936  1.00  0.00     0.170 C 
ATOM      9  C   UNL A   1      33.588  22.128  26.709  1.00  0.00     0.041 C 
BRANCH   8  10
ATOM     10  N   UNL A   1      31.056  22.241  26.765  1.00  0.00    -0.327 N 
ATOM     11  C   UNL A   1      30.068  23.099  27.035  1.00  0.00     0.315 C 
ATOM     12  H   UNL A   1      30.945  21.385  27.237  1.00  0.00     0.166 HD
ATOM     13  O   UNL A   1      29.219  22.761  27.861  1.00  0.00    -0.249 OA
ATOM     14  N   UNL A   1      29.962  24.304  26.464  1.00  0.00    -0.338 N 
ATOM     15  H   UNL A   1      29.215  24.844  26.810  1.00  0.00     0.165 HD
BRANCH  14  16
ATOM     16  C   UNL A   1      30.733  24.965  25.433  1.00  0.00     0.122 C 
BRANCH  16  17
ATOM     17  C   UNL A   1      31.860  25.830  25.978  1.00  0.00     0.060 C 
BRANCH  17  18
ATOM     18  C   UNL A   1      32.482  26.685  24.917  1.00  0.00    -0.010 A 
ATOM     19  C   UNL A   1      32.042  26.617  23.593  1.00  0.00     0.007 A 
ATOM     20  C   UNL A   1      33.497  27.587  25.253  1.00  0.00     0.126 A 
ATOM     21  C   UNL A   1      32.621  27.438  22.625  1.00  0.00     0.000 A 
ATOM     22  C   UNL A   1      34.076  28.406  24.295  1.00  0.00     0.039 A 
ATOM     23  F   UNL A   1      33.918  27.670  26.525  1.00  0.00    -0.207 F 
ATOM     24  C   UNL A   1      33.637  28.330  22.975  1.00  0.00     0.003 A 
ENDBRANCH  17  18
ENDBRANCH  16  17
ENDBRANCH  14  16
ENDBRANCH   8  10
ENDBRANCH   5   8
ENDBRANCH   3   4
ENDBRANCH   2   3
ENDBRANCH   1   2
BRANCH   1  25
ATOM     25  C   UNL A   1      35.435  22.928  23.606  1.00  0.00     0.002 C 
BRANCH  25  26
ATOM     26  C   UNL A   1      36.620  23.713  24.172  1.00  0.00     0.021 C 
BRANCH  26  27
ATOM     27  C   UNL A   1      36.772  23.598  25.683  1.00  0.00     0.116 C 
BRANCH  27  28
ATOM     28  N   UNL A   1      37.722  22.561  26.051  1.00  0.00    -0.352 N 
ATOM     29  C   UNL A   1      39.005  22.697  26.516  1.00  0.00     0.251 C 
ATOM     30  H   UNL A   1      37.401  21.636  25.954  1.00  0.00     0.163 HD
ATOM     31  O   UNL A   1      39.748  21.726  26.576  1.00  0.00    -0.269 OA
BRANCH  29  32
ATOM     32  C   UNL A   1      39.478  24.035  26.924  1.00  0.00     0.039 A 
ATOM     33  C   UNL A   1      39.372  24.409  28.264  1.00  0.00     0.014 A 
ATOM     34  C   UNL A   1      40.044  24.902  25.985  1.00  0.00     0.014 A 
ATOM     35  C   UNL A   1      39.882  25.641  28.671  1.00  0.00     0.010 A 
ATOM     36  C   UNL A   1      40.622  26.093  26.408  1.00  0.00     0.010 A 
ATOM     37  C   UNL A   1      40.540  26.478  27.753  1.00  0.00    -0.014 A 
BRANCH  37  38
ATOM     38  C   UNL A   1      41.145  27.762  28.184  1.00  0.00     0.031 A 
ATOM     39  C   UNL A   1      42.630  27.971  28.070  1.00  0.00     0.074 A 
ATOM     40  C   UNL A   1      40.361  28.720  28.718  1.00  0.00     0.049 A 
ATOM     41  N   UNL A   1      43.348  28.999  28.439  1.00  0.00    -0.248 NA
ATOM     42  C   UNL A   1      43.416  26.870  27.486  1.00  0.00     0.031 C 
ATOM     43  C   UNL A   1      38.913  28.615  28.910  1.00  0.00     0.029 A 
ATOM     44  N   UNL A   1      40.670  29.968  29.196  1.00  0.00    -0.354 N 
ATOM     45  C   UNL A   1      44.663  28.672  28.133  1.00  0.00     0.074 A 
ATOM     46  C   UNL A   1      44.653  27.323  27.610  1.00  0.00     0.031 C 
ATOM     47  C   UNL A   1      38.455  29.765  29.429  1.00  0.00     0.029 A 
ATOM     48  C   UNL A   1      39.579  30.671  29.650  1.00  0.00     0.049 A 
ATOM     49  H   UNL A   1      41.587  30.328  29.212  1.00  0.00     0.167 HD
ATOM     50  C   UNL A   1      45.773  29.438  28.247  1.00  0.00     0.037 A 
ATOM     51  C   UNL A   1      39.492  31.904  30.188  1.00  0.00     0.037 A 
ATOM     52  C   UNL A   1      45.769  30.785  28.754  1.00  0.00     0.049 A 
ATOM     53  C   UNL A   1      40.745  32.722  30.340  1.00  0.00     0.074 A 
ATOM     54  C   UNL A   1      46.835  31.658  28.880  1.00  0.00     0.029 A 
ATOM     55  N   UNL A   1      44.646  31.456  29.220  1.00  0.00    -0.354 N 
ATOM     56  N   UNL A   1      41.976  32.414  30.006  1.00  0.00    -0.248 NA
ATOM     57  C   UNL A   1      40.601  34.055  30.940  1.00  0.00     0.031 C 
ATOM     58  C   UNL A   1      46.367  32.836  29.468  1.00  0.00     0.029 A 
ATOM     59  C   UNL A   1      44.998  32.723  29.654  1.00  0.00     0.049 A 
ATOM     60  H   UNL A   1      43.733  31.086  29.238  1.00  0.00     0.167 HD
ATOM     61  C   UNL A   1      42.749  33.522  30.333  1.00  0.00     0.074 A 
ATOM     62  C   UNL A   1      41.844  34.514  30.880  1.00  0.00     0.031 C 
ATOM     63  C   UNL A   1      44.085  33.701  30.193  1.00  0.00     0.037 A 
BRANCH  50  64
ATOM     64  C   UNL A   1      47.084  28.848  27.802  1.00  0.00     0.058 A 
ATOM     65  C   UNL A   1      47.435  28.824  26.443  1.00  0.00     0.135 A 
ATOM     66  C   UNL A   1      47.967  28.251  28.716  1.00  0.00     0.135 A 
ATOM     67  F   UNL A   1      46.632  29.384  25.525  1.00  0.00    -0.206 F 
ATOM     68  C   UNL A   1      48.607  28.215  26.005  1.00  0.00     0.059 A 
ATOM     69  C   UNL A   1      49.159  27.664  28.304  1.00  0.00     0.059 A 
ATOM     70  F   UNL A   1      47.691  28.264  30.031  1.00  0.00    -0.206 F 
ATOM     71  C   UNL A   1      49.463  27.637  26.944  1.00  0.00     0.060 A 
BRANCH  71  72
ATOM     72  S   UNL A   1      50.994  26.878  26.361  1.00  0.00     0.124 S 
ATOM     73  O   UNL A   1      50.673  25.457  26.436  1.00  0.00    -0.237 OA
ATOM     74  O   UNL A   1      51.117  27.435  25.018  1.00  0.00    -0.237 OA
ATOM     75  O   UNL A   1      51.991  27.349  27.319  1.00  0.00    -0.744 OA
ENDBRANCH  71  72
ENDBRANCH  50  64
BRANCH  51  76
ATOM     76  C   UNL A   1      38.164  32.444  30.582  1.00  0.00     0.058 A 
ATOM     77  C   UNL A   1      37.389  33.204  29.692  1.00  0.00     0.135 A 
ATOM     78  C   UNL A   1      37.663  32.248  31.878  1.00  0.00     0.135 A 
ATOM     79  F   UNL A   1      37.826  33.431  28.443  1.00  0.00    -0.206 F 
ATOM     80  C   UNL A   1      36.182  33.774  30.080  1.00  0.00     0.059 A 
ATOM     81  C   UNL A   1      36.445  32.786  32.283  1.00  0.00     0.059 A 
ATOM     82  F   UNL A   1      38.362  31.519  32.761  1.00  0.00    -0.206 F 
ATOM     83  C   UNL A   1      35.721  33.563  31.380  1.00  0.00     0.060 A 
BRANCH  83  84
ATOM     84  S   UNL A   1      34.162  34.334  31.870  1.00  0.00     0.124 S 
ATOM     85  O   UNL A   1      33.502  34.502  30.580  1.00  0.00    -0.237 OA
ATOM     86  O   UNL A   1      33.587  33.323  32.751  1.00  0.00    -0.237 OA
ATOM     87  O   UNL A   1      34.587  35.567  32.525  1.00  0.00    -0.744 OA
ENDBRANCH  83  84
ENDBRANCH  51  76
BRANCH  63  88
ATOM     88  C   UNL A   1      44.664  35.025  30.614  1.00  0.00     0.058 A 
ATOM     89  C   UNL A   1      45.088  35.226  31.937  1.00  0.00     0.135 A 
ATOM     90  C   UNL A   1      44.715  36.118  29.735  1.00  0.00     0.135 A 
ATOM     91  F   UNL A   1      45.056  34.215  32.820  1.00  0.00    -0.206 F 
ATOM     92  C   UNL A   1      45.518  36.471  32.382  1.00  0.00     0.059 A 
ATOM     93  C   UNL A   1      45.171  37.366  30.152  1.00  0.00     0.059 A 
ATOM     94  F   UNL A   1      44.332  35.977  28.457  1.00  0.00    -0.206 F 
ATOM     95  C   UNL A   1      45.553  37.537  31.482  1.00  0.00     0.060 A 
BRANCH  95  96
ATOM     96  S   UNL A   1      46.115  39.145  32.079  1.00  0.00     0.124 S 
ATOM     97  O   UNL A   1      47.351  38.794  32.770  1.00  0.00    -0.237 OA
ATOM     98  O   UNL A   1      46.272  39.895  30.836  1.00  0.00    -0.237 OA
ATOM     99  O   UNL A   1      45.021  39.590  32.938  1.00  0.00    -0.744 OA
ENDBRANCH  95  96
ENDBRANCH  63  88
ENDBRANCH  37  38
ENDBRANCH  29  32
ENDBRANCH  27  28
ENDBRANCH  26  27
ENDBRANCH  25  26
ENDBRANCH   1  25
TORSDOF 20
ENDMDL
