MODEL 1
REMARK VINA RESULT:      -9.9      0.000      0.000
REMARK SMILES O=C(NCCCCCCNC(=O)[C@@H](CCOCCO)c1cccc(F)c1)c1ccc(-c2c3nc(c(-c4c(F)cc(S(=O)(=O)[O-])cc4F)c4ccc([nH]4)c(-c4c(F)cc(S(=O)(=O)[O-])cc4F)c4nc(c(-c5c(F)cc(S(=O)(=O)[O-])cc5F)c5ccc2[nH]5)C=C4)C=C3)cc1
REMARK SMILES IDX 8 1 7 2 6 3 5 4 4 5 3 6 1 7 2 8 27 10 28 11 92 12 29 13
REMARK SMILES IDX 91 14 30 15 31 16 32 17 85 18 33 19 90 20 84 21 86 22 34 23
REMARK SMILES IDX 89 24 83 25 82 26 35 28 69 29 48 30 68 31 49 32 52 33 67 34
REMARK SMILES IDX 87 35 50 36 51 37 66 39 88 40 53 41 36 42 37 43 46 44 38 45
REMARK SMILES IDX 39 46 45 47 47 48 40 49 41 50 42 51 43 52 44 53 70 54 71 55
REMARK SMILES IDX 80 56 72 57 73 58 79 59 81 60 74 61 75 62 76 63 77 64 78 65
REMARK SMILES IDX 54 66 55 67 64 68 56 69 57 70 63 71 65 72 58 73 59 74 60 75
REMARK SMILES IDX 61 76 62 77 9 78 10 79 11 80 12 82 13 83 14 84 15 85 16 86
REMARK SMILES IDX 17 87 18 88 19 89 20 91 21 92 26 93 22 94 24 95 23 96 25 97
REMARK H PARENT 3 9 86 27 52 38 10 81 19 90
REMARK Flexibility Score: inf
ROOT
ATOM      1  C   UNL A   1      31.439  28.133  22.853  1.00  0.00     0.021 C 
ENDROOT
BRANCH   1   2
ATOM      2  C   UNL A   1      30.952  28.169  24.313  1.00  0.00     0.002 C 
BRANCH   2   3
ATOM      3  C   UNL A   1      31.903  28.727  25.378  1.00  0.00     0.002 C 
BRANCH   3   4
ATOM      4  C   UNL A   1      32.791  27.720  26.099  1.00  0.00     0.021 C 
BRANCH   4   5
ATOM      5  C   UNL A   1      33.628  28.247  27.252  1.00  0.00     0.116 C 
BRANCH   5   6
ATOM      6  N   UNL A   1      33.460  29.671  27.481  1.00  0.00    -0.352 N 
ATOM      7  O   UNL A   1      33.968  31.731  28.236  1.00  0.00    -0.269 OA
ATOM      8  C   UNL A   1      34.344  30.595  27.997  1.00  0.00     0.251 C 
ATOM      9  H   UNL A   1      32.578  30.033  27.230  1.00  0.00     0.163 HD
BRANCH   8  10
ATOM     10  C   UNL A   1      35.744  30.195  28.275  1.00  0.00     0.039 A 
ATOM     11  C   UNL A   1      36.717  30.279  27.280  1.00  0.00     0.014 A 
ATOM     12  C   UNL A   1      36.092  29.744  29.554  1.00  0.00     0.014 A 
ATOM     13  C   UNL A   1      37.985  29.766  27.508  1.00  0.00     0.010 A 
ATOM     14  C   UNL A   1      37.405  29.336  29.817  1.00  0.00     0.010 A 
ATOM     15  C   UNL A   1      38.358  29.326  28.789  1.00  0.00    -0.014 A 
BRANCH  15  16
ATOM     16  C   UNL A   1      39.784  28.980  29.028  1.00  0.00     0.031 A 
ATOM     17  C   UNL A   1      40.352  27.645  28.636  1.00  0.00     0.074 A 
ATOM     18  C   UNL A   1      40.581  29.939  29.548  1.00  0.00     0.049 A 
ATOM     19  N   UNL A   1      41.590  27.228  28.724  1.00  0.00    -0.248 NA
ATOM     20  C   UNL A   1      39.424  26.646  28.083  1.00  0.00     0.031 C 
ATOM     21  C   UNL A   1      40.125  31.266  29.974  1.00  0.00     0.029 A 
ATOM     22  N   UNL A   1      41.933  29.972  29.770  1.00  0.00    -0.354 N 
ATOM     23  C   UNL A   1      41.591  25.923  28.245  1.00  0.00     0.074 A 
ATOM     24  C   UNL A   1      40.224  25.603  27.893  1.00  0.00     0.031 C 
ATOM     25  C   UNL A   1      41.183  32.009  30.323  1.00  0.00     0.029 A 
ATOM     26  C   UNL A   1      42.382  31.186  30.234  1.00  0.00     0.049 A 
ATOM     27  H   UNL A   1      42.525  29.202  29.611  1.00  0.00     0.167 HD
ATOM     28  C   UNL A   1      42.643  25.081  28.104  1.00  0.00     0.037 A 
ATOM     29  C   UNL A   1      43.620  31.593  30.570  1.00  0.00     0.037 A 
ATOM     30  C   UNL A   1      44.002  25.423  28.448  1.00  0.00     0.049 A 
ATOM     31  C   UNL A   1      44.754  30.621  30.439  1.00  0.00     0.074 A 
ATOM     32  C   UNL A   1      45.140  24.644  28.325  1.00  0.00     0.029 A 
ATOM     33  N   UNL A   1      44.409  26.639  28.978  1.00  0.00    -0.354 N 
ATOM     34  N   UNL A   1      44.736  29.397  29.968  1.00  0.00    -0.248 NA
ATOM     35  C   UNL A   1      46.073  31.075  30.896  1.00  0.00     0.031 C 
ATOM     36  C   UNL A   1      46.226  25.369  28.826  1.00  0.00     0.029 A 
ATOM     37  C   UNL A   1      45.776  26.622  29.210  1.00  0.00     0.049 A 
ATOM     38  H   UNL A   1      43.816  27.402  29.162  1.00  0.00     0.167 HD
ATOM     39  C   UNL A   1      46.042  28.936  30.066  1.00  0.00     0.074 A 
ATOM     40  C   UNL A   1      46.829  30.025  30.606  1.00  0.00     0.031 C 
ATOM     41  C   UNL A   1      46.542  27.715  29.752  1.00  0.00     0.037 A 
BRANCH  28  42
ATOM     42  C   UNL A   1      42.395  23.703  27.551  1.00  0.00     0.058 A 
ATOM     43  C   UNL A   1      42.239  22.605  28.413  1.00  0.00     0.135 A 
ATOM     44  C   UNL A   1      42.446  23.448  26.171  1.00  0.00     0.135 A 
ATOM     45  F   UNL A   1      42.177  22.792  29.741  1.00  0.00    -0.206 F 
ATOM     46  C   UNL A   1      42.182  21.301  27.931  1.00  0.00     0.059 A 
ATOM     47  C   UNL A   1      42.367  22.152  25.665  1.00  0.00     0.059 A 
ATOM     48  F   UNL A   1      42.572  24.462  25.301  1.00  0.00    -0.206 F 
ATOM     49  C   UNL A   1      42.258  21.084  26.555  1.00  0.00     0.060 A 
BRANCH  49  50
ATOM     50  S   UNL A   1      42.213  19.383  25.948  1.00  0.00     0.124 S 
ATOM     51  O   UNL A   1      42.742  18.642  27.088  1.00  0.00    -0.237 OA
ATOM     52  O   UNL A   1      40.792  19.197  25.671  1.00  0.00    -0.237 OA
ATOM     53  O   UNL A   1      43.073  19.421  24.769  1.00  0.00    -0.744 OA
ENDBRANCH  49  50
ENDBRANCH  28  42
BRANCH  29  54
ATOM     54  C   UNL A   1      43.839  32.975  31.079  1.00  0.00     0.058 A 
ATOM     55  C   UNL A   1      44.220  34.016  30.217  1.00  0.00     0.135 A 
ATOM     56  C   UNL A   1      43.680  33.280  32.439  1.00  0.00     0.135 A 
ATOM     57  F   UNL A   1      44.400  33.777  28.908  1.00  0.00    -0.206 F 
ATOM     58  C   UNL A   1      44.456  35.301  30.686  1.00  0.00     0.059 A 
ATOM     59  C   UNL A   1      43.875  34.570  32.926  1.00  0.00     0.059 A 
ATOM     60  F   UNL A   1      43.310  32.322  33.302  1.00  0.00    -0.206 F 
ATOM     61  C   UNL A   1      44.275  35.571  32.042  1.00  0.00     0.060 A 
BRANCH  61  62
ATOM     62  S   UNL A   1      44.549  37.258  32.621  1.00  0.00     0.124 S 
ATOM     63  O   UNL A   1      44.437  38.014  31.378  1.00  0.00    -0.237 OA
ATOM     64  O   UNL A   1      43.458  37.434  33.573  1.00  0.00    -0.237 OA
ATOM     65  O   UNL A   1      45.886  37.201  33.204  1.00  0.00    -0.744 OA
ENDBRANCH  61  62
ENDBRANCH  29  54
BRANCH  41  66
ATOM     66  C   UNL A   1      48.013  27.501  29.979  1.00  0.00     0.058 A 
ATOM     67  C   UNL A   1      48.475  26.913  31.167  1.00  0.00     0.135 A 
ATOM     68  C   UNL A   1      48.967  27.911  29.033  1.00  0.00     0.135 A 
ATOM     69  F   UNL A   1      47.606  26.507  32.106  1.00  0.00    -0.206 F 
ATOM     70  C   UNL A   1      49.833  26.745  31.412  1.00  0.00     0.059 A 
ATOM     71  C   UNL A   1      50.329  27.722  29.244  1.00  0.00     0.059 A 
ATOM     72  F   UNL A   1      48.574  28.467  27.876  1.00  0.00    -0.206 F 
ATOM     73  C   UNL A   1      50.752  27.149  30.443  1.00  0.00     0.060 A 
BRANCH  73  74
ATOM     74  S   UNL A   1      52.508  26.882  30.761  1.00  0.00     0.124 S 
ATOM     75  O   UNL A   1      53.001  28.248  30.886  1.00  0.00    -0.237 OA
ATOM     76  O   UNL A   1      52.482  26.099  31.993  1.00  0.00    -0.237 OA
ATOM     77  O   UNL A   1      52.960  26.156  29.576  1.00  0.00    -0.744 OA
ENDBRANCH  73  74
ENDBRANCH  41  66
ENDBRANCH  15  16
ENDBRANCH   8  10
ENDBRANCH   5   6
ENDBRANCH   4   5
ENDBRANCH   3   4
ENDBRANCH   2   3
ENDBRANCH   1   2
BRANCH   1  78
ATOM     78  C   UNL A   1      32.964  28.122  22.679  1.00  0.00     0.116 C 
BRANCH  78  79
ATOM     79  N   UNL A   1      33.530  26.822  22.308  1.00  0.00    -0.356 N 
ATOM     80  C   UNL A   1      32.981  25.587  22.587  1.00  0.00     0.227 C 
ATOM     81  H   UNL A   1      34.381  26.829  21.814  1.00  0.00     0.163 HD
ATOM     82  O   UNL A   1      32.570  24.951  21.607  1.00  0.00    -0.274 OA
BRANCH  80  83
ATOM     83  C   UNL A   1      33.081  24.898  23.987  1.00  0.00     0.111 C 
BRANCH  83  84
ATOM     84  C   UNL A   1      31.776  24.161  24.400  1.00  0.00     0.047 C 
BRANCH  84  85
ATOM     85  C   UNL A   1      31.938  22.861  25.209  1.00  0.00     0.161 C 
BRANCH  85  86
ATOM     86  O   UNL A   1      31.640  21.768  24.358  1.00  0.00    -0.379 OA
BRANCH  86  87
ATOM     87  C   UNL A   1      32.641  20.808  24.092  1.00  0.00     0.188 C 
BRANCH  87  88
ATOM     88  C   UNL A   1      33.189  20.309  25.447  1.00  0.00     0.184 C 
BRANCH  88  89
ATOM     89  O   UNL A   1      32.458  19.197  25.966  1.00  0.00    -0.394 OA
ATOM     90  H   UNL A   1      32.923  18.374  25.749  1.00  0.00     0.210 HD
ENDBRANCH  88  89
ENDBRANCH  87  88
ENDBRANCH  86  87
ENDBRANCH  85  86
ENDBRANCH  84  85
ENDBRANCH  83  84
BRANCH  83  91
ATOM     91  C   UNL A   1      34.413  24.171  24.332  1.00  0.00    -0.033 A 
ATOM     92  C   UNL A   1      35.041  24.284  25.583  1.00  0.00     0.005 A 
ATOM     93  C   UNL A   1      35.099  23.415  23.353  1.00  0.00     0.043 A 
ATOM     94  C   UNL A   1      36.359  23.833  25.777  1.00  0.00     0.003 A 
ATOM     95  C   UNL A   1      36.427  23.036  23.528  1.00  0.00     0.123 A 
ATOM     96  C   UNL A   1      37.074  23.258  24.729  1.00  0.00     0.039 A 
ATOM     97  F   UNL A   1      37.104  22.512  22.496  1.00  0.00    -0.207 F 
ENDBRANCH  83  91
ENDBRANCH  80  83
ENDBRANCH  78  79
ENDBRANCH   1  78
TORSDOF 23
ENDMDL
MODEL 2
REMARK VINA RESULT:      -9.9      3.340      9.437
REMARK SMILES O=C(NCCCCCCNC(=O)[C@@H](CCOCCO)c1cccc(F)c1)c1ccc(-c2c3nc(c(-c4c(F)cc(S(=O)(=O)[O-])cc4F)c4ccc([nH]4)c(-c4c(F)cc(S(=O)(=O)[O-])cc4F)c4nc(c(-c5c(F)cc(S(=O)(=O)[O-])cc5F)c5ccc2[nH]5)C=C4)C=C3)cc1
REMARK SMILES IDX 8 1 7 2 6 3 5 4 4 5 3 6 1 7 2 8 27 10 28 11 92 12 29 13
REMARK SMILES IDX 91 14 30 15 31 16 32 17 85 18 33 19 90 20 84 21 86 22 34 23
REMARK SMILES IDX 89 24 83 25 82 26 35 28 69 29 48 30 68 31 49 32 52 33 67 34
REMARK SMILES IDX 87 35 50 36 51 37 66 39 88 40 53 41 36 42 37 43 46 44 38 45
REMARK SMILES IDX 39 46 45 47 47 48 40 49 41 50 42 51 43 52 44 53 70 54 71 55
REMARK SMILES IDX 80 56 72 57 73 58 79 59 81 60 74 61 75 62 76 63 77 64 78 65
REMARK SMILES IDX 54 66 55 67 64 68 56 69 57 70 63 71 65 72 58 73 59 74 60 75
REMARK SMILES IDX 61 76 62 77 9 78 10 79 11 80 12 82 13 83 14 84 15 85 16 86
REMARK SMILES IDX 17 87 18 88 19 89 20 91 21 92 26 93 22 94 24 95 23 96 25 97
REMARK H PARENT 3 9 86 27 52 38 10 81 19 90
REMARK Flexibility Score: inf
ROOT
ATOM      1  C   UNL A   1      33.545  23.622  26.195  1.00  0.00     0.021 C 
ENDROOT
BRANCH   1   2
ATOM      2  C   UNL A   1      34.191  22.805  25.061  1.00  0.00     0.002 C 
BRANCH   2   3
ATOM      3  C   UNL A   1      34.795  23.566  23.875  1.00  0.00     0.002 C 
BRANCH   3   4
ATOM      4  C   UNL A   1      36.314  23.666  23.827  1.00  0.00     0.021 C 
BRANCH   4   5
ATOM      5  C   UNL A   1      37.035  23.783  25.160  1.00  0.00     0.116 C 
BRANCH   5   6
ATOM      6  N   UNL A   1      38.049  22.763  25.358  1.00  0.00    -0.352 N 
ATOM      7  O   UNL A   1      40.038  21.896  25.961  1.00  0.00    -0.269 OA
ATOM      8  C   UNL A   1      39.258  22.833  26.016  1.00  0.00     0.251 C 
ATOM      9  H   UNL A   1      37.841  21.886  24.960  1.00  0.00     0.163 HD
BRANCH   8  10
ATOM     10  C   UNL A   1      39.611  24.057  26.774  1.00  0.00     0.039 A 
ATOM     11  C   UNL A   1      39.204  24.214  28.098  1.00  0.00     0.014 A 
ATOM     12  C   UNL A   1      40.374  25.055  26.157  1.00  0.00     0.014 A 
ATOM     13  C   UNL A   1      39.413  25.421  28.748  1.00  0.00     0.010 A 
ATOM     14  C   UNL A   1      40.686  26.228  26.856  1.00  0.00     0.010 A 
ATOM     15  C   UNL A   1      40.191  26.428  28.151  1.00  0.00    -0.014 A 
BRANCH  15  16
ATOM     16  C   UNL A   1      40.555  27.614  28.970  1.00  0.00     0.031 A 
ATOM     17  C   UNL A   1      39.623  28.782  29.131  1.00  0.00     0.074 A 
ATOM     18  C   UNL A   1      41.733  27.580  29.629  1.00  0.00     0.049 A 
ATOM     19  N   UNL A   1      39.780  29.855  29.865  1.00  0.00    -0.248 NA
ATOM     20  C   UNL A   1      38.360  28.754  28.376  1.00  0.00     0.031 C 
ATOM     21  C   UNL A   1      42.718  26.497  29.530  1.00  0.00     0.029 A 
ATOM     22  N   UNL A   1      42.289  28.443  30.537  1.00  0.00    -0.354 N 
ATOM     23  C   UNL A   1      38.645  30.631  29.660  1.00  0.00     0.074 A 
ATOM     24  C   UNL A   1      37.817  29.920  28.708  1.00  0.00     0.031 C 
ATOM     25  C   UNL A   1      43.709  26.716  30.403  1.00  0.00     0.029 A 
ATOM     26  C   UNL A   1      43.482  27.997  31.059  1.00  0.00     0.049 A 
ATOM     27  H   UNL A   1      41.874  29.298  30.793  1.00  0.00     0.167 HD
ATOM     28  C   UNL A   1      38.326  31.819  30.225  1.00  0.00     0.037 A 
ATOM     29  C   UNL A   1      44.314  28.562  31.953  1.00  0.00     0.037 A 
ATOM     30  C   UNL A   1      39.159  32.506  31.183  1.00  0.00     0.049 A 
ATOM     31  C   UNL A   1      43.947  29.897  32.529  1.00  0.00     0.074 A 
ATOM     32  C   UNL A   1      38.914  33.707  31.827  1.00  0.00     0.029 A 
ATOM     33  N   UNL A   1      40.390  32.056  31.637  1.00  0.00    -0.354 N 
ATOM     34  N   UNL A   1      42.861  30.606  32.333  1.00  0.00    -0.248 NA
ATOM     35  C   UNL A   1      44.921  30.518  33.435  1.00  0.00     0.031 C 
ATOM     36  C   UNL A   1      40.018  34.008  32.631  1.00  0.00     0.029 A 
ATOM     37  C   UNL A   1      40.928  32.968  32.533  1.00  0.00     0.049 A 
ATOM     38  H   UNL A   1      40.820  31.214  31.364  1.00  0.00     0.167 HD
ATOM     39  C   UNL A   1      43.018  31.755  33.096  1.00  0.00     0.074 A 
ATOM     40  C   UNL A   1      44.286  31.628  33.786  1.00  0.00     0.031 C 
ATOM     41  C   UNL A   1      42.194  32.826  33.206  1.00  0.00     0.037 A 
BRANCH  28  42
ATOM     42  C   UNL A   1      37.024  32.473  29.846  1.00  0.00     0.058 A 
ATOM     43  C   UNL A   1      36.993  33.501  28.889  1.00  0.00     0.135 A 
ATOM     44  C   UNL A   1      35.831  32.177  30.524  1.00  0.00     0.135 A 
ATOM     45  F   UNL A   1      38.103  33.821  28.205  1.00  0.00    -0.206 F 
ATOM     46  C   UNL A   1      35.839  34.237  28.646  1.00  0.00     0.059 A 
ATOM     47  C   UNL A   1      34.656  32.886  30.280  1.00  0.00     0.059 A 
ATOM     48  F   UNL A   1      35.798  31.190  31.434  1.00  0.00    -0.206 F 
ATOM     49  C   UNL A   1      34.677  33.929  29.355  1.00  0.00     0.060 A 
BRANCH  49  50
ATOM     50  S   UNL A   1      33.194  34.915  29.049  1.00  0.00     0.124 S 
ATOM     51  O   UNL A   1      33.762  36.180  28.594  1.00  0.00    -0.237 OA
ATOM     52  O   UNL A   1      32.507  34.123  28.034  1.00  0.00    -0.237 OA
ATOM     53  O   UNL A   1      32.539  34.954  30.353  1.00  0.00    -0.744 OA
ENDBRANCH  49  50
ENDBRANCH  28  42
BRANCH  29  54
ATOM     54  C   UNL A   1      45.576  27.873  32.336  1.00  0.00     0.058 A 
ATOM     55  C   UNL A   1      45.632  27.028  33.456  1.00  0.00     0.135 A 
ATOM     56  C   UNL A   1      46.753  28.052  31.595  1.00  0.00     0.135 A 
ATOM     57  F   UNL A   1      44.539  26.831  34.209  1.00  0.00    -0.206 F 
ATOM     58  C   UNL A   1      46.812  26.404  33.840  1.00  0.00     0.059 A 
ATOM     59  C   UNL A   1      47.939  27.407  31.939  1.00  0.00     0.059 A 
ATOM     60  F   UNL A   1      46.750  28.844  30.512  1.00  0.00    -0.206 F 
ATOM     61  C   UNL A   1      47.959  26.595  33.071  1.00  0.00     0.060 A 
BRANCH  61  62
ATOM     62  S   UNL A   1      49.471  25.741  33.567  1.00  0.00     0.124 S 
ATOM     63  O   UNL A   1      50.173  26.793  34.295  1.00  0.00    -0.237 OA
ATOM     64  O   UNL A   1      48.950  24.646  34.378  1.00  0.00    -0.237 OA
ATOM     65  O   UNL A   1      50.069  25.350  32.295  1.00  0.00    -0.744 OA
ENDBRANCH  61  62
ENDBRANCH  29  54
BRANCH  41  66
ATOM     66  C   UNL A   1      42.639  33.940  34.112  1.00  0.00     0.058 A 
ATOM     67  C   UNL A   1      42.264  33.956  35.464  1.00  0.00     0.135 A 
ATOM     68  C   UNL A   1      43.409  35.012  33.630  1.00  0.00     0.135 A 
ATOM     69  F   UNL A   1      41.525  32.958  35.974  1.00  0.00    -0.206 F 
ATOM     70  C   UNL A   1      42.631  34.999  36.307  1.00  0.00     0.059 A 
ATOM     71  C   UNL A   1      43.814  36.050  34.464  1.00  0.00     0.059 A 
ATOM     72  F   UNL A   1      43.803  35.037  32.347  1.00  0.00    -0.206 F 
ATOM     73  C   UNL A   1      43.410  36.039  35.798  1.00  0.00     0.060 A 
BRANCH  73  74
ATOM     74  S   UNL A   1      43.913  37.362  36.918  1.00  0.00     0.124 S 
ATOM     75  O   UNL A   1      44.026  38.496  36.009  1.00  0.00    -0.237 OA
ATOM     76  O   UNL A   1      42.798  37.408  37.859  1.00  0.00    -0.237 OA
ATOM     77  O   UNL A   1      45.172  36.873  37.474  1.00  0.00    -0.744 OA
ENDBRANCH  73  74
ENDBRANCH  41  66
ENDBRANCH  15  16
ENDBRANCH   8  10
ENDBRANCH   5   6
ENDBRANCH   4   5
ENDBRANCH   3   4
ENDBRANCH   2   3
ENDBRANCH   1   2
BRANCH   1  78
ATOM     78  C   UNL A   1      32.017  23.517  26.281  1.00  0.00     0.116 C 
BRANCH  78  79
ATOM     79  N   UNL A   1      31.351  24.692  26.850  1.00  0.00    -0.356 N 
ATOM     80  C   UNL A   1      30.537  25.574  26.169  1.00  0.00     0.227 C 
ATOM     81  H   UNL A   1      31.498  24.869  27.807  1.00  0.00     0.163 HD
ATOM     82  O   UNL A   1      29.342  25.557  26.491  1.00  0.00    -0.274 OA
BRANCH  80  83
ATOM     83  C   UNL A   1      31.084  26.704  25.237  1.00  0.00     0.111 C 
BRANCH  83  84
ATOM     84  C   UNL A   1      30.089  27.102  24.110  1.00  0.00     0.047 C 
BRANCH  84  85
ATOM     85  C   UNL A   1      30.700  27.573  22.777  1.00  0.00     0.161 C 
BRANCH  85  86
ATOM     86  O   UNL A   1      29.793  28.473  22.167  1.00  0.00    -0.379 OA
BRANCH  86  87
ATOM     87  C   UNL A   1      28.808  29.103  22.958  1.00  0.00     0.188 C 
BRANCH  87  88
ATOM     88  C   UNL A   1      28.295  30.336  22.182  1.00  0.00     0.184 C 
BRANCH  88  89
ATOM     89  O   UNL A   1      27.875  30.021  20.854  1.00  0.00    -0.394 OA
ATOM     90  H   UNL A   1      27.205  29.320  20.884  1.00  0.00     0.210 HD
ENDBRANCH  88  89
ENDBRANCH  87  88
ENDBRANCH  86  87
ENDBRANCH  85  86
ENDBRANCH  84  85
ENDBRANCH  83  84
BRANCH  83  91
ATOM     91  C   UNL A   1      31.856  27.876  25.910  1.00  0.00    -0.033 A 
ATOM     92  C   UNL A   1      31.358  29.188  25.960  1.00  0.00     0.005 A 
ATOM     93  C   UNL A   1      33.151  27.676  26.442  1.00  0.00     0.043 A 
ATOM     94  C   UNL A   1      32.183  30.263  26.339  1.00  0.00     0.003 A 
ATOM     95  C   UNL A   1      33.984  28.750  26.747  1.00  0.00     0.123 A 
ATOM     96  C   UNL A   1      33.516  30.049  26.679  1.00  0.00     0.039 A 
ATOM     97  F   UNL A   1      35.271  28.522  27.042  1.00  0.00    -0.207 F 
ENDBRANCH  83  91
ENDBRANCH  80  83
ENDBRANCH  78  79
ENDBRANCH   1  78
TORSDOF 23
ENDMDL
MODEL 3
REMARK VINA RESULT:      -9.6      3.247      9.304
REMARK SMILES O=C(NCCCCCCNC(=O)[C@@H](CCOCCO)c1cccc(F)c1)c1ccc(-c2c3nc(c(-c4c(F)cc(S(=O)(=O)[O-])cc4F)c4ccc([nH]4)c(-c4c(F)cc(S(=O)(=O)[O-])cc4F)c4nc(c(-c5c(F)cc(S(=O)(=O)[O-])cc5F)c5ccc2[nH]5)C=C4)C=C3)cc1
REMARK SMILES IDX 8 1 7 2 6 3 5 4 4 5 3 6 1 7 2 8 27 10 28 11 92 12 29 13
REMARK SMILES IDX 91 14 30 15 31 16 32 17 85 18 33 19 90 20 84 21 86 22 34 23
REMARK SMILES IDX 89 24 83 25 82 26 35 28 69 29 48 30 68 31 49 32 52 33 67 34
REMARK SMILES IDX 87 35 50 36 51 37 66 39 88 40 53 41 36 42 37 43 46 44 38 45
REMARK SMILES IDX 39 46 45 47 47 48 40 49 41 50 42 51 43 52 44 53 70 54 71 55
REMARK SMILES IDX 80 56 72 57 73 58 79 59 81 60 74 61 75 62 76 63 77 64 78 65
REMARK SMILES IDX 54 66 55 67 64 68 56 69 57 70 63 71 65 72 58 73 59 74 60 75
REMARK SMILES IDX 61 76 62 77 9 78 10 79 11 80 12 82 13 83 14 84 15 85 16 86
REMARK SMILES IDX 17 87 18 88 19 89 20 91 21 92 26 93 22 94 24 95 23 96 25 97
REMARK H PARENT 3 9 86 27 52 38 10 81 19 90
REMARK Flexibility Score: inf
ROOT
ATOM      1  C   UNL A   1      33.411  23.418  26.043  1.00  0.00     0.021 C 
ENDROOT
BRANCH   1   2
ATOM      2  C   UNL A   1      34.114  22.659  24.903  1.00  0.00     0.002 C 
BRANCH   2   3
ATOM      3  C   UNL A   1      34.649  23.472  23.719  1.00  0.00     0.002 C 
BRANCH   3   4
ATOM      4  C   UNL A   1      36.161  23.641  23.633  1.00  0.00     0.021 C 
BRANCH   4   5
ATOM      5  C   UNL A   1      36.910  23.778  24.948  1.00  0.00     0.116 C 
BRANCH   5   6
ATOM      6  N   UNL A   1      37.845  22.694  25.193  1.00  0.00    -0.352 N 
ATOM      7  O   UNL A   1      39.748  21.703  25.878  1.00  0.00    -0.269 OA
ATOM      8  C   UNL A   1      39.031  22.691  25.895  1.00  0.00     0.251 C 
ATOM      9  H   UNL A   1      37.593  21.828  24.795  1.00  0.00     0.163 HD
BRANCH   8  10
ATOM     10  C   UNL A   1      39.439  23.897  26.654  1.00  0.00     0.039 A 
ATOM     11  C   UNL A   1      39.029  24.076  27.975  1.00  0.00     0.014 A 
ATOM     12  C   UNL A   1      40.253  24.856  26.041  1.00  0.00     0.014 A 
ATOM     13  C   UNL A   1      39.293  25.273  28.624  1.00  0.00     0.010 A 
ATOM     14  C   UNL A   1      40.618  26.013  26.741  1.00  0.00     0.010 A 
ATOM     15  C   UNL A   1      40.124  26.239  28.033  1.00  0.00    -0.014 A 
BRANCH  15  16
ATOM     16  C   UNL A   1      40.539  27.407  28.852  1.00  0.00     0.031 A 
ATOM     17  C   UNL A   1      39.640  28.595  29.053  1.00  0.00     0.074 A 
ATOM     18  C   UNL A   1      41.735  27.339  29.476  1.00  0.00     0.049 A 
ATOM     19  N   UNL A   1      39.843  29.655  29.793  1.00  0.00    -0.248 NA
ATOM     20  C   UNL A   1      38.355  28.605  28.336  1.00  0.00     0.031 C 
ATOM     21  C   UNL A   1      42.691  26.235  29.336  1.00  0.00     0.029 A 
ATOM     22  N   UNL A   1      42.337  28.179  30.376  1.00  0.00    -0.354 N 
ATOM     23  C   UNL A   1      38.722  30.460  29.630  1.00  0.00     0.074 A 
ATOM     24  C   UNL A   1      37.850  29.779  28.696  1.00  0.00     0.031 C 
ATOM     25  C   UNL A   1      43.712  26.421  30.182  1.00  0.00     0.029 A 
ATOM     26  C   UNL A   1      43.534  27.700  30.857  1.00  0.00     0.049 A 
ATOM     27  H   UNL A   1      41.950  29.040  30.653  1.00  0.00     0.167 HD
ATOM     28  C   UNL A   1      38.448  31.649  30.217  1.00  0.00     0.037 A 
ATOM     29  C   UNL A   1      44.405  28.235  31.732  1.00  0.00     0.037 A 
ATOM     30  C   UNL A   1      39.324  32.306  31.157  1.00  0.00     0.049 A 
ATOM     31  C   UNL A   1      44.087  29.572  32.333  1.00  0.00     0.074 A 
ATOM     32  C   UNL A   1      39.126  33.505  31.820  1.00  0.00     0.029 A 
ATOM     33  N   UNL A   1      40.557  31.822  31.569  1.00  0.00    -0.354 N 
ATOM     34  N   UNL A   1      43.013  30.308  32.177  1.00  0.00    -0.248 NA
ATOM     35  C   UNL A   1      45.101  30.159  33.216  1.00  0.00     0.031 C 
ATOM     36  C   UNL A   1      40.260  33.771  32.594  1.00  0.00     0.029 A 
ATOM     37  C   UNL A   1      41.142  32.712  32.458  1.00  0.00     0.049 A 
ATOM     38  H   UNL A   1      40.959  30.974  31.275  1.00  0.00     0.167 HD
ATOM     39  C   UNL A   1      43.219  31.444  32.946  1.00  0.00     0.074 A 
ATOM     40  C   UNL A   1      44.503  31.280  33.597  1.00  0.00     0.031 C 
ATOM     41  C   UNL A   1      42.424  32.533  33.092  1.00  0.00     0.037 A 
BRANCH  28  42
ATOM     42  C   UNL A   1      37.151  32.337  29.884  1.00  0.00     0.058 A 
ATOM     43  C   UNL A   1      37.126  33.418  28.987  1.00  0.00     0.135 A 
ATOM     44  C   UNL A   1      35.958  32.015  30.550  1.00  0.00     0.135 A 
ATOM     45  F   UNL A   1      38.236  33.765  28.316  1.00  0.00    -0.206 F 
ATOM     46  C   UNL A   1      35.978  34.179  28.793  1.00  0.00     0.059 A 
ATOM     47  C   UNL A   1      34.790  32.749  30.354  1.00  0.00     0.059 A 
ATOM     48  F   UNL A   1      35.919  30.978  31.402  1.00  0.00    -0.206 F 
ATOM     49  C   UNL A   1      34.816  33.843  29.490  1.00  0.00     0.060 A 
BRANCH  49  50
ATOM     50  S   UNL A   1      33.343  34.860  29.250  1.00  0.00     0.124 S 
ATOM     51  O   UNL A   1      32.822  34.960  30.609  1.00  0.00    -0.237 OA
ATOM     52  O   UNL A   1      33.907  36.085  28.692  1.00  0.00    -0.237 OA
ATOM     53  O   UNL A   1      32.536  34.073  28.323  1.00  0.00    -0.744 OA
ENDBRANCH  49  50
ENDBRANCH  28  42
BRANCH  29  54
ATOM     54  C   UNL A   1      45.661  27.512  32.071  1.00  0.00     0.058 A 
ATOM     55  C   UNL A   1      45.725  26.638  33.167  1.00  0.00     0.135 A 
ATOM     56  C   UNL A   1      46.826  27.689  31.309  1.00  0.00     0.135 A 
ATOM     57  F   UNL A   1      44.644  26.442  33.939  1.00  0.00    -0.206 F 
ATOM     58  C   UNL A   1      46.900  25.982  33.510  1.00  0.00     0.059 A 
ATOM     59  C   UNL A   1      48.006  27.013  31.611  1.00  0.00     0.059 A 
ATOM     60  F   UNL A   1      46.815  28.508  30.247  1.00  0.00    -0.206 F 
ATOM     61  C   UNL A   1      48.035  26.171  32.722  1.00  0.00     0.060 A 
BRANCH  61  62
ATOM     62  S   UNL A   1      49.540  25.277  33.163  1.00  0.00     0.124 S 
ATOM     63  O   UNL A   1      49.009  24.218  34.015  1.00  0.00    -0.237 OA
ATOM     64  O   UNL A   1      50.037  24.855  31.859  1.00  0.00    -0.237 OA
ATOM     65  O   UNL A   1      50.344  26.287  33.843  1.00  0.00    -0.744 OA
ENDBRANCH  61  62
ENDBRANCH  29  54
BRANCH  41  66
ATOM     66  C   UNL A   1      42.922  33.626  33.995  1.00  0.00     0.058 A 
ATOM     67  C   UNL A   1      43.760  34.637  33.500  1.00  0.00     0.135 A 
ATOM     68  C   UNL A   1      42.596  33.652  35.361  1.00  0.00     0.135 A 
ATOM     69  F   UNL A   1      44.106  34.657  32.203  1.00  0.00    -0.206 F 
ATOM     70  C   UNL A   1      44.264  35.633  34.330  1.00  0.00     0.059 A 
ATOM     71  C   UNL A   1      43.063  34.658  36.202  1.00  0.00     0.059 A 
ATOM     72  F   UNL A   1      41.787  32.715  35.880  1.00  0.00    -0.206 F 
ATOM     73  C   UNL A   1      43.906  35.637  35.678  1.00  0.00     0.060 A 
BRANCH  73  74
ATOM     74  S   UNL A   1      44.534  36.963  36.729  1.00  0.00     0.124 S 
ATOM     75  O   UNL A   1      44.384  36.386  38.060  1.00  0.00    -0.237 OA
ATOM     76  O   UNL A   1      45.905  37.111  36.251  1.00  0.00    -0.237 OA
ATOM     77  O   UNL A   1      43.648  38.083  36.426  1.00  0.00    -0.744 OA
ENDBRANCH  73  74
ENDBRANCH  41  66
ENDBRANCH  15  16
ENDBRANCH   8  10
ENDBRANCH   5   6
ENDBRANCH   4   5
ENDBRANCH   3   4
ENDBRANCH   2   3
ENDBRANCH   1   2
BRANCH   1  78
ATOM     78  C   UNL A   1      31.886  23.251  26.090  1.00  0.00     0.116 C 
BRANCH  78  79
ATOM     79  N   UNL A   1      31.180  24.269  26.874  1.00  0.00    -0.356 N 
ATOM     80  C   UNL A   1      30.447  25.322  26.367  1.00  0.00     0.227 C 
ATOM     81  H   UNL A   1      31.234  24.194  27.854  1.00  0.00     0.163 HD
ATOM     82  O   UNL A   1      29.225  25.266  26.562  1.00  0.00    -0.274 OA
BRANCH  80  83
ATOM     83  C   UNL A   1      31.095  26.629  25.806  1.00  0.00     0.111 C 
BRANCH  83  84
ATOM     84  C   UNL A   1      31.638  27.568  26.920  1.00  0.00     0.047 C 
BRANCH  84  85
ATOM     85  C   UNL A   1      31.441  29.082  26.710  1.00  0.00     0.161 C 
BRANCH  85  86
ATOM     86  O   UNL A   1      32.350  29.768  27.551  1.00  0.00    -0.379 OA
BRANCH  86  87
ATOM     87  C   UNL A   1      33.124  30.822  27.016  1.00  0.00     0.188 C 
BRANCH  87  88
ATOM     88  C   UNL A   1      34.604  30.542  27.358  1.00  0.00     0.184 C 
BRANCH  88  89
ATOM     89  O   UNL A   1      35.173  29.508  26.555  1.00  0.00    -0.394 OA
ATOM     90  H   UNL A   1      35.709  29.903  25.850  1.00  0.00     0.210 HD
ENDBRANCH  88  89
ENDBRANCH  87  88
ENDBRANCH  86  87
ENDBRANCH  85  86
ENDBRANCH  84  85
ENDBRANCH  83  84
BRANCH  83  91
ATOM     91  C   UNL A   1      31.979  26.499  24.532  1.00  0.00    -0.033 A 
ATOM     92  C   UNL A   1      33.334  26.869  24.503  1.00  0.00     0.005 A 
ATOM     93  C   UNL A   1      31.422  26.067  23.306  1.00  0.00     0.043 A 
ATOM     94  C   UNL A   1      34.029  26.984  23.286  1.00  0.00     0.003 A 
ATOM     95  C   UNL A   1      32.091  26.251  22.099  1.00  0.00     0.123 A 
ATOM     96  C   UNL A   1      33.388  26.729  22.076  1.00  0.00     0.039 A 
ATOM     97  F   UNL A   1      31.444  26.028  20.947  1.00  0.00    -0.207 F 
ENDBRANCH  83  91
ENDBRANCH  80  83
ENDBRANCH  78  79
ENDBRANCH   1  78
TORSDOF 23
ENDMDL
