MODEL 1
REMARK VINA RESULT:     -12.2      0.000      0.000
REMARK SMILES Cc1ccc(C)c(N2C(=O)S[C@H](CC(=O)Nc3ccc(C(=O)NCCCCCCNC(=O)c4ccc(-c5c6nc(c(-c7c(F)cc(S(=O)(=O)[O-])cc7F)c7ccc([nH]7)c(-c7c(F)cc(S(=O)(=O)[O-])cc7F)c7nc(c(-c8c(F)cc(S(=O)(=O)[O-])cc8F)c8ccc5[nH]8)C=C7)C=C6)cc4)c(O)c3)C2=O)c1
REMARK SMILES IDX 26 1 25 2 24 3 23 4 21 5 22 6 20 8 17 9 18 10 101 11 19 12
REMARK SMILES IDX 99 13 16 14 14 15 15 16 13 18 12 19 8 20 9 21 102 22 10 23
REMARK SMILES IDX 11 24 103 25 7 26 1 27 2 28 3 29 104 30 4 31 5 32 6 33
REMARK SMILES IDX 100 34 27 36 28 37 29 38 30 39 31 40 32 42 33 43 34 44 98 45
REMARK SMILES IDX 35 46 97 47 36 48 37 49 38 50 91 51 39 52 96 53 90 54 92 55
REMARK SMILES IDX 40 56 95 57 89 58 88 59 41 61 75 62 54 63 74 64 55 65 58 66
REMARK SMILES IDX 73 67 93 68 56 69 57 70 72 72 94 73 59 74 42 75 43 76 52 77
REMARK SMILES IDX 44 78 45 79 51 80 53 81 46 82 47 83 48 84 49 85 50 86 76 87
REMARK SMILES IDX 77 88 86 89 78 90 79 91 85 92 87 93 80 94 81 95 82 96 83 97
REMARK SMILES IDX 84 98 60 99 61 100 70 101 62 102 63 103 69 104 71 105 64 106
REMARK SMILES IDX 65 107 66 108 67 109 68 110
REMARK H PARENT 23 7 16 17 100 35 30 41 92 60 58 71
REMARK Flexibility Score: inf
ROOT
ATOM      1  C   UNL A   1      36.031  32.841  28.413  1.00  0.00     0.002 C 
ENDROOT
BRANCH   1   2
ATOM      2  C   UNL A   1      35.260  31.582  28.826  1.00  0.00     0.021 C 
BRANCH   2   3
ATOM      3  C   UNL A   1      34.505  30.810  27.757  1.00  0.00     0.116 C 
BRANCH   3   4
ATOM      4  N   UNL A   1      33.249  31.389  27.342  1.00  0.00    -0.352 N 
ATOM      5  C   UNL A   1      32.149  30.810  26.761  1.00  0.00     0.255 C 
ATOM      6  O   UNL A   1      31.139  31.508  26.656  1.00  0.00    -0.269 OA
ATOM      7  H   UNL A   1      33.168  32.357  27.503  1.00  0.00     0.163 HD
BRANCH   5   8
ATOM      8  C   UNL A   1      32.149  29.435  26.171  1.00  0.00     0.081 A 
ATOM      9  C   UNL A   1      31.573  26.831  25.242  1.00  0.00     0.044 A 
ATOM     10  C   UNL A   1      31.588  27.126  26.596  1.00  0.00     0.027 A 
ATOM     11  C   UNL A   1      32.108  27.769  24.372  1.00  0.00     0.073 A 
ATOM     12  C   UNL A   1      31.799  28.419  27.061  1.00  0.00     0.020 A 
ATOM     13  C   UNL A   1      32.451  29.043  24.860  1.00  0.00     0.130 A 
BRANCH   9  14
ATOM     14  N   UNL A   1      31.120  25.578  24.801  1.00  0.00    -0.326 N 
ATOM     15  C   UNL A   1      31.809  24.694  23.988  1.00  0.00     0.226 C 
ATOM     16  O   UNL A   1      31.195  23.956  23.218  1.00  0.00    -0.275 OA
ATOM     17  H   UNL A   1      30.224  25.300  25.100  1.00  0.00     0.169 HD
BRANCH  15  18
ATOM     18  C   UNL A   1      33.318  24.557  24.204  1.00  0.00     0.125 C 
BRANCH  18  19
ATOM     19  C   UNL A   1      33.740  23.571  25.292  1.00  0.00     0.156 C 
ATOM     20  N   UNL A   1      32.732  21.477  24.703  1.00  0.00    -0.240 N 
ATOM     21  C   UNL A   1      31.775  21.947  25.561  1.00  0.00     0.293 C 
ATOM     22  C   UNL A   1      33.934  22.173  24.711  1.00  0.00     0.248 C 
ATOM     23  O   UNL A   1      30.635  21.534  25.750  1.00  0.00    -0.261 OA
ATOM     24  S   UNL A   1      32.442  23.253  26.534  1.00  0.00    -0.050 SA
ATOM     25  O   UNL A   1      35.034  21.724  24.410  1.00  0.00    -0.273 OA
BRANCH  20  26
ATOM     26  C   UNL A   1      32.662  20.124  24.287  1.00  0.00     0.056 A 
ATOM     27  C   UNL A   1      33.475  16.656  25.684  1.00  0.00     0.044 C 
ATOM     28  C   UNL A   1      33.062  17.765  24.760  1.00  0.00    -0.049 A 
ATOM     29  C   UNL A   1      32.680  17.453  23.452  1.00  0.00     0.004 A 
ATOM     30  C   UNL A   1      33.038  19.106  25.179  1.00  0.00     0.030 A 
ATOM     31  C   UNL A   1      32.307  18.460  22.564  1.00  0.00     0.006 A 
ATOM     32  C   UNL A   1      32.309  19.805  22.960  1.00  0.00    -0.027 A 
ATOM     33  C   UNL A   1      31.913  20.829  21.932  1.00  0.00     0.046 C 
ENDBRANCH  20  26
ENDBRANCH  18  19
ENDBRANCH  15  18
ENDBRANCH   9  14
BRANCH  13  34
ATOM     34  O   UNL A   1      33.197  29.805  24.003  1.00  0.00    -0.507 OA
ATOM     35  H   UNL A   1      32.784  30.240  23.284  1.00  0.00     0.293 HD
ENDBRANCH  13  34
ENDBRANCH   5   8
ENDBRANCH   3   4
ENDBRANCH   2   3
ENDBRANCH   1   2
BRANCH   1  36
ATOM     36  C   UNL A   1      35.358  34.222  28.405  1.00  0.00     0.002 C 
BRANCH  36  37
ATOM     37  C   UNL A   1      34.094  34.514  29.221  1.00  0.00     0.021 C 
BRANCH  37  38
ATOM     38  C   UNL A   1      34.233  35.308  30.512  1.00  0.00     0.116 C 
BRANCH  38  39
ATOM     39  N   UNL A   1      33.620  34.676  31.689  1.00  0.00    -0.352 N 
ATOM     40  C   UNL A   1      34.036  33.652  32.531  1.00  0.00     0.251 C 
ATOM     41  H   UNL A   1      32.743  35.051  31.927  1.00  0.00     0.163 HD
ATOM     42  O   UNL A   1      33.214  33.108  33.265  1.00  0.00    -0.269 OA
BRANCH  40  43
ATOM     43  C   UNL A   1      35.450  33.214  32.576  1.00  0.00     0.039 A 
ATOM     44  C   UNL A   1      36.550  34.062  32.438  1.00  0.00     0.014 A 
ATOM     45  C   UNL A   1      35.688  31.860  32.559  1.00  0.00     0.014 A 
ATOM     46  C   UNL A   1      37.804  33.489  32.166  1.00  0.00     0.010 A 
ATOM     47  C   UNL A   1      36.924  31.365  32.785  1.00  0.00     0.010 A 
ATOM     48  C   UNL A   1      37.946  32.103  32.253  1.00  0.00    -0.014 A 
BRANCH  48  49
ATOM     49  C   UNL A   1      39.139  31.339  31.955  1.00  0.00     0.031 A 
ATOM     50  C   UNL A   1      39.918  30.974  33.150  1.00  0.00     0.074 A 
ATOM     51  C   UNL A   1      39.313  30.677  30.790  1.00  0.00     0.049 A 
ATOM     52  N   UNL A   1      40.969  31.565  33.607  1.00  0.00    -0.248 NA
ATOM     53  C   UNL A   1      39.336  29.983  34.070  1.00  0.00     0.031 C 
ATOM     54  C   UNL A   1      38.389  30.539  29.657  1.00  0.00     0.029 A 
ATOM     55  N   UNL A   1      40.357  29.887  30.421  1.00  0.00    -0.354 N 
ATOM     56  C   UNL A   1      41.319  30.831  34.732  1.00  0.00     0.074 A 
ATOM     57  C   UNL A   1      40.127  30.136  35.131  1.00  0.00     0.031 C 
ATOM     58  C   UNL A   1      38.843  29.578  28.818  1.00  0.00     0.029 A 
ATOM     59  C   UNL A   1      40.145  29.124  29.280  1.00  0.00     0.049 A 
ATOM     60  H   UNL A   1      41.201  29.857  30.927  1.00  0.00     0.167 HD
ATOM     61  C   UNL A   1      42.622  30.576  35.034  1.00  0.00     0.037 A 
ATOM     62  C   UNL A   1      40.971  28.157  28.799  1.00  0.00     0.037 A 
ATOM     63  C   UNL A   1      43.504  31.380  34.215  1.00  0.00     0.049 A 
ATOM     64  C   UNL A   1      42.310  28.384  29.413  1.00  0.00     0.074 A 
ATOM     65  C   UNL A   1      43.633  32.733  33.964  1.00  0.00     0.029 A 
ATOM     66  N   UNL A   1      44.167  30.746  33.189  1.00  0.00    -0.354 N 
ATOM     67  N   UNL A   1      43.058  29.427  29.176  1.00  0.00    -0.248 NA
ATOM     68  C   UNL A   1      42.634  27.657  30.633  1.00  0.00     0.031 C 
ATOM     69  C   UNL A   1      43.953  32.828  32.576  1.00  0.00     0.029 A 
ATOM     70  C   UNL A   1      44.065  31.533  32.069  1.00  0.00     0.049 A 
ATOM     71  H   UNL A   1      44.632  29.880  33.248  1.00  0.00     0.167 HD
ATOM     72  C   UNL A   1      43.645  29.733  30.397  1.00  0.00     0.074 A 
ATOM     73  C   UNL A   1      43.437  28.547  31.222  1.00  0.00     0.031 C 
ATOM     74  C   UNL A   1      43.985  31.018  30.716  1.00  0.00     0.037 A 
BRANCH  61  75
ATOM     75  C   UNL A   1      43.108  29.340  35.763  1.00  0.00     0.058 A 
ATOM     76  C   UNL A   1      43.969  29.510  36.866  1.00  0.00     0.135 A 
ATOM     77  C   UNL A   1      42.984  28.010  35.297  1.00  0.00     0.135 A 
ATOM     78  F   UNL A   1      44.158  30.726  37.404  1.00  0.00    -0.206 F 
ATOM     79  C   UNL A   1      44.723  28.464  37.396  1.00  0.00     0.059 A 
ATOM     80  C   UNL A   1      43.675  26.941  35.852  1.00  0.00     0.059 A 
ATOM     81  F   UNL A   1      42.271  27.675  34.217  1.00  0.00    -0.206 F 
ATOM     82  C   UNL A   1      44.584  27.186  36.864  1.00  0.00     0.060 A 
BRANCH  82  83
ATOM     83  S   UNL A   1      45.654  25.861  37.441  1.00  0.00     0.124 S 
ATOM     84  O   UNL A   1      46.926  26.561  37.573  1.00  0.00    -0.237 OA
ATOM     85  O   UNL A   1      45.003  25.468  38.686  1.00  0.00    -0.237 OA
ATOM     86  O   UNL A   1      45.579  24.879  36.363  1.00  0.00    -0.744 OA
ENDBRANCH  82  83
ENDBRANCH  61  75
BRANCH  62  87
ATOM     87  C   UNL A   1      40.620  26.895  28.095  1.00  0.00     0.058 A 
ATOM     88  C   UNL A   1      41.387  26.422  27.013  1.00  0.00     0.135 A 
ATOM     89  C   UNL A   1      39.697  25.981  28.643  1.00  0.00     0.135 A 
ATOM     90  F   UNL A   1      42.302  27.216  26.437  1.00  0.00    -0.206 F 
ATOM     91  C   UNL A   1      41.286  25.106  26.541  1.00  0.00     0.059 A 
ATOM     92  C   UNL A   1      39.569  24.672  28.183  1.00  0.00     0.059 A 
ATOM     93  F   UNL A   1      38.949  26.303  29.709  1.00  0.00    -0.206 F 
ATOM     94  C   UNL A   1      40.388  24.232  27.152  1.00  0.00     0.060 A 
BRANCH  94  95
ATOM     95  S   UNL A   1      40.364  22.489  26.668  1.00  0.00     0.124 S 
ATOM     96  O   UNL A   1      39.068  22.379  26.009  1.00  0.00    -0.237 OA
ATOM     97  O   UNL A   1      41.535  22.397  25.805  1.00  0.00    -0.237 OA
ATOM     98  O   UNL A   1      40.471  21.785  27.946  1.00  0.00    -0.744 OA
ENDBRANCH  94  95
ENDBRANCH  62  87
BRANCH  74  99
ATOM     99  C   UNL A   1      44.052  32.032  29.599  1.00  0.00     0.058 A 
ATOM    100  C   UNL A   1      43.023  32.934  29.274  1.00  0.00     0.135 A 
ATOM    101  C   UNL A   1      45.273  32.189  28.924  1.00  0.00     0.135 A 
ATOM    102  F   UNL A   1      41.860  32.924  29.940  1.00  0.00    -0.206 F 
ATOM    103  C   UNL A   1      43.185  33.917  28.296  1.00  0.00     0.059 A 
ATOM    104  C   UNL A   1      45.468  33.183  27.968  1.00  0.00     0.059 A 
ATOM    105  F   UNL A   1      46.316  31.399  29.229  1.00  0.00    -0.206 F 
ATOM    106  C   UNL A   1      44.415  34.036  27.650  1.00  0.00     0.060 A 
BRANCH 106 107
ATOM    107  S   UNL A   1      44.650  35.363  26.447  1.00  0.00     0.124 S 
ATOM    108  O   UNL A   1      45.416  36.340  27.213  1.00  0.00    -0.237 OA
ATOM    109  O   UNL A   1      45.373  34.692  25.371  1.00  0.00    -0.237 OA
ATOM    110  O   UNL A   1      43.285  35.764  26.111  1.00  0.00    -0.744 OA
ENDBRANCH 106 107
ENDBRANCH  74  99
ENDBRANCH  48  49
ENDBRANCH  40  43
ENDBRANCH  38  39
ENDBRANCH  37  38
ENDBRANCH  36  37
ENDBRANCH   1  36
TORSDOF 21
ENDMDL
MODEL 2
REMARK VINA RESULT:     -11.8      1.940      2.643
REMARK SMILES Cc1ccc(C)c(N2C(=O)S[C@H](CC(=O)Nc3ccc(C(=O)NCCCCCCNC(=O)c4ccc(-c5c6nc(c(-c7c(F)cc(S(=O)(=O)[O-])cc7F)c7ccc([nH]7)c(-c7c(F)cc(S(=O)(=O)[O-])cc7F)c7nc(c(-c8c(F)cc(S(=O)(=O)[O-])cc8F)c8ccc5[nH]8)C=C7)C=C6)cc4)c(O)c3)C2=O)c1
REMARK SMILES IDX 26 1 25 2 24 3 23 4 21 5 22 6 20 8 17 9 18 10 101 11 19 12
REMARK SMILES IDX 99 13 16 14 14 15 15 16 13 18 12 19 8 20 9 21 102 22 10 23
REMARK SMILES IDX 11 24 103 25 7 26 1 27 2 28 3 29 104 30 4 31 5 32 6 33
REMARK SMILES IDX 100 34 27 36 28 37 29 38 30 39 31 40 32 42 33 43 34 44 98 45
REMARK SMILES IDX 35 46 97 47 36 48 37 49 38 50 91 51 39 52 96 53 90 54 92 55
REMARK SMILES IDX 40 56 95 57 89 58 88 59 41 61 75 62 54 63 74 64 55 65 58 66
REMARK SMILES IDX 73 67 93 68 56 69 57 70 72 72 94 73 59 74 42 75 43 76 52 77
REMARK SMILES IDX 44 78 45 79 51 80 53 81 46 82 47 83 48 84 49 85 50 86 76 87
REMARK SMILES IDX 77 88 86 89 78 90 79 91 85 92 87 93 80 94 81 95 82 96 83 97
REMARK SMILES IDX 84 98 60 99 61 100 70 101 62 102 63 103 69 104 71 105 64 106
REMARK SMILES IDX 65 107 66 108 67 109 68 110
REMARK H PARENT 23 7 16 17 100 35 30 41 92 60 58 71
REMARK Flexibility Score: inf
ROOT
ATOM      1  C   UNL A   1      31.913  32.077  27.247  1.00  0.00     0.002 C 
ENDROOT
BRANCH   1   2
ATOM      2  C   UNL A   1      31.021  31.587  26.100  1.00  0.00     0.021 C 
BRANCH   2   3
ATOM      3  C   UNL A   1      31.411  30.311  25.373  1.00  0.00     0.116 C 
BRANCH   3   4
ATOM      4  N   UNL A   1      30.643  30.010  24.189  1.00  0.00    -0.352 N 
ATOM      5  C   UNL A   1      30.638  28.894  23.390  1.00  0.00     0.255 C 
ATOM      6  O   UNL A   1      29.761  28.829  22.525  1.00  0.00    -0.269 OA
ATOM      7  H   UNL A   1      30.021  30.719  23.909  1.00  0.00     0.163 HD
BRANCH   5   8
ATOM      8  C   UNL A   1      31.682  27.824  23.449  1.00  0.00     0.081 A 
ATOM      9  C   UNL A   1      33.277  25.508  23.195  1.00  0.00     0.044 A 
ATOM     10  C   UNL A   1      32.049  25.470  23.837  1.00  0.00     0.027 A 
ATOM     11  C   UNL A   1      33.824  26.753  22.921  1.00  0.00     0.073 A 
ATOM     12  C   UNL A   1      31.225  26.588  23.904  1.00  0.00     0.020 A 
ATOM     13  C   UNL A   1      33.040  27.905  23.113  1.00  0.00     0.130 A 
BRANCH   9  14
ATOM     14  N   UNL A   1      33.970  24.316  22.934  1.00  0.00    -0.326 N 
ATOM     15  C   UNL A   1      35.117  23.875  23.571  1.00  0.00     0.226 C 
ATOM     16  O   UNL A   1      35.939  23.193  22.960  1.00  0.00    -0.275 OA
ATOM     17  H   UNL A   1      33.603  23.735  22.229  1.00  0.00     0.169 HD
BRANCH  15  18
ATOM     18  C   UNL A   1      35.236  24.123  25.077  1.00  0.00     0.125 C 
BRANCH  18  19
ATOM     19  C   UNL A   1      35.225  22.871  25.952  1.00  0.00     0.156 C 
ATOM     20  N   UNL A   1      33.678  21.361  24.914  1.00  0.00    -0.240 N 
ATOM     21  C   UNL A   1      32.837  21.949  25.819  1.00  0.00     0.293 C 
ATOM     22  C   UNL A   1      35.031  21.618  25.103  1.00  0.00     0.248 C 
ATOM     23  O   UNL A   1      31.612  21.899  25.882  1.00  0.00    -0.261 OA
ATOM     24  S   UNL A   1      33.779  22.766  27.060  1.00  0.00    -0.050 SA
ATOM     25  O   UNL A   1      35.960  20.901  24.752  1.00  0.00    -0.273 OA
BRANCH  20  26
ATOM     26  C   UNL A   1      33.233  20.205  24.227  1.00  0.00     0.056 A 
ATOM     27  C   UNL A   1      33.606  16.405  24.481  1.00  0.00     0.044 C 
ATOM     28  C   UNL A   1      33.231  17.777  23.999  1.00  0.00    -0.049 A 
ATOM     29  C   UNL A   1      32.498  17.903  22.814  1.00  0.00     0.004 A 
ATOM     30  C   UNL A   1      33.585  18.934  24.711  1.00  0.00     0.030 A 
ATOM     31  C   UNL A   1      32.147  19.162  22.330  1.00  0.00     0.006 A 
ATOM     32  C   UNL A   1      32.522  20.326  23.015  1.00  0.00    -0.027 A 
ATOM     33  C   UNL A   1      32.120  21.644  22.411  1.00  0.00     0.046 C 
ENDBRANCH  20  26
ENDBRANCH  18  19
ENDBRANCH  15  18
ENDBRANCH   9  14
BRANCH  13  34
ATOM     34  O   UNL A   1      33.731  29.084  23.064  1.00  0.00    -0.507 OA
ATOM     35  H   UNL A   1      33.273  29.899  23.128  1.00  0.00     0.293 HD
ENDBRANCH  13  34
ENDBRANCH   5   8
ENDBRANCH   3   4
ENDBRANCH   2   3
ENDBRANCH   1   2
BRANCH   1  36
ATOM     36  C   UNL A   1      32.550  33.474  27.222  1.00  0.00     0.002 C 
BRANCH  36  37
ATOM     37  C   UNL A   1      33.295  34.049  28.431  1.00  0.00     0.021 C 
BRANCH  37  38
ATOM     38  C   UNL A   1      34.527  33.314  28.941  1.00  0.00     0.116 C 
BRANCH  38  39
ATOM     39  N   UNL A   1      34.541  33.071  30.390  1.00  0.00    -0.352 N 
ATOM     40  C   UNL A   1      35.216  32.153  31.185  1.00  0.00     0.251 C 
ATOM     41  H   UNL A   1      33.957  33.679  30.898  1.00  0.00     0.163 HD
ATOM     42  O   UNL A   1      34.835  31.962  32.337  1.00  0.00    -0.269 OA
BRANCH  40  43
ATOM     43  C   UNL A   1      36.395  31.414  30.679  1.00  0.00     0.039 A 
ATOM     44  C   UNL A   1      36.379  30.084  30.255  1.00  0.00     0.014 A 
ATOM     45  C   UNL A   1      37.622  32.019  30.821  1.00  0.00     0.014 A 
ATOM     46  C   UNL A   1      37.606  29.412  30.121  1.00  0.00     0.010 A 
ATOM     47  C   UNL A   1      38.724  31.512  30.226  1.00  0.00     0.010 A 
ATOM     48  C   UNL A   1      38.791  30.145  30.208  1.00  0.00    -0.014 A 
BRANCH  48  49
ATOM     49  C   UNL A   1      40.137  29.617  30.151  1.00  0.00     0.031 A 
ATOM     50  C   UNL A   1      40.720  29.345  31.476  1.00  0.00     0.074 A 
ATOM     51  C   UNL A   1      40.655  29.047  29.040  1.00  0.00     0.049 A 
ATOM     52  N   UNL A   1      41.534  30.093  32.139  1.00  0.00    -0.248 NA
ATOM     53  C   UNL A   1      40.158  28.228  32.254  1.00  0.00     0.031 C 
ATOM     54  C   UNL A   1      40.012  28.796  27.743  1.00  0.00     0.029 A 
ATOM     55  N   UNL A   1      41.877  28.470  28.884  1.00  0.00    -0.354 N 
ATOM     56  C   UNL A   1      41.784  29.385  33.306  1.00  0.00     0.074 A 
ATOM     57  C   UNL A   1      40.684  28.473  33.453  1.00  0.00     0.031 C 
ATOM     58  C   UNL A   1      40.790  27.967  27.007  1.00  0.00     0.029 A 
ATOM     59  C   UNL A   1      42.036  27.732  27.719  1.00  0.00     0.049 A 
ATOM     60  H   UNL A   1      42.596  28.569  29.550  1.00  0.00     0.167 HD
ATOM     61  C   UNL A   1      43.027  29.351  33.862  1.00  0.00     0.037 A 
ATOM     62  C   UNL A   1      43.102  26.948  27.407  1.00  0.00     0.037 A 
ATOM     63  C   UNL A   1      43.891  30.333  33.243  1.00  0.00     0.049 A 
ATOM     64  C   UNL A   1      44.230  27.381  28.280  1.00  0.00     0.074 A 
ATOM     65  C   UNL A   1      43.819  31.697  33.031  1.00  0.00     0.029 A 
ATOM     66  N   UNL A   1      44.848  29.871  32.367  1.00  0.00    -0.354 N 
ATOM     67  N   UNL A   1      44.808  28.550  28.205  1.00  0.00    -0.248 NA
ATOM     68  C   UNL A   1      44.435  26.672  29.535  1.00  0.00     0.031 C 
ATOM     69  C   UNL A   1      44.383  31.907  31.737  1.00  0.00     0.029 A 
ATOM     70  C   UNL A   1      44.826  30.674  31.254  1.00  0.00     0.049 A 
ATOM     71  H   UNL A   1      45.442  29.099  32.513  1.00  0.00     0.167 HD
ATOM     72  C   UNL A   1      45.078  28.902  29.521  1.00  0.00     0.074 A 
ATOM     73  C   UNL A   1      44.931  27.664  30.279  1.00  0.00     0.031 C 
ATOM     74  C   UNL A   1      45.108  30.212  29.909  1.00  0.00     0.037 A 
BRANCH  61  75
ATOM     75  C   UNL A   1      43.577  28.190  34.667  1.00  0.00     0.058 A 
ATOM     76  C   UNL A   1      44.111  28.456  35.943  1.00  0.00     0.135 A 
ATOM     77  C   UNL A   1      43.837  26.894  34.163  1.00  0.00     0.135 A 
ATOM     78  F   UNL A   1      43.920  29.649  36.529  1.00  0.00    -0.206 F 
ATOM     79  C   UNL A   1      44.923  27.546  36.619  1.00  0.00     0.059 A 
ATOM     80  C   UNL A   1      44.587  25.949  34.850  1.00  0.00     0.059 A 
ATOM     81  F   UNL A   1      43.472  26.495  32.941  1.00  0.00    -0.206 F 
ATOM     82  C   UNL A   1      45.172  26.302  36.051  1.00  0.00     0.060 A 
BRANCH  82  83
ATOM     83  S   UNL A   1      46.331  25.178  36.842  1.00  0.00     0.124 S 
ATOM     84  O   UNL A   1      47.199  24.831  35.723  1.00  0.00    -0.237 OA
ATOM     85  O   UNL A   1      46.918  26.026  37.874  1.00  0.00    -0.237 OA
ATOM     86  O   UNL A   1      45.472  24.104  37.334  1.00  0.00    -0.744 OA
ENDBRANCH  82  83
ENDBRANCH  61  75
BRANCH  62  87
ATOM     87  C   UNL A   1      43.132  25.675  26.639  1.00  0.00     0.058 A 
ATOM     88  C   UNL A   1      43.910  25.541  25.473  1.00  0.00     0.135 A 
ATOM     89  C   UNL A   1      42.624  24.477  27.182  1.00  0.00     0.135 A 
ATOM     90  F   UNL A   1      44.448  26.625  24.893  1.00  0.00    -0.206 F 
ATOM     91  C   UNL A   1      44.213  24.293  24.913  1.00  0.00     0.059 A 
ATOM     92  C   UNL A   1      42.902  23.226  26.637  1.00  0.00     0.059 A 
ATOM     93  F   UNL A   1      41.915  24.476  28.320  1.00  0.00    -0.206 F 
ATOM     94  C   UNL A   1      43.722  23.138  25.520  1.00  0.00     0.060 A 
BRANCH  94  95
ATOM     95  S   UNL A   1      44.240  21.515  24.912  1.00  0.00     0.124 S 
ATOM     96  O   UNL A   1      43.106  20.679  25.286  1.00  0.00    -0.237 OA
ATOM     97  O   UNL A   1      44.413  21.766  23.486  1.00  0.00    -0.237 OA
ATOM     98  O   UNL A   1      45.473  21.256  25.656  1.00  0.00    -0.744 OA
ENDBRANCH  94  95
ENDBRANCH  62  87
BRANCH  74  99
ATOM     99  C   UNL A   1      45.208  31.269  28.836  1.00  0.00     0.058 A 
ATOM    100  C   UNL A   1      44.107  31.870  28.200  1.00  0.00     0.135 A 
ATOM    101  C   UNL A   1      46.477  31.796  28.545  1.00  0.00     0.135 A 
ATOM    102  F   UNL A   1      42.853  31.501  28.495  1.00  0.00    -0.206 F 
ATOM    103  C   UNL A   1      44.263  32.915  27.287  1.00  0.00     0.059 A 
ATOM    104  C   UNL A   1      46.653  32.859  27.663  1.00  0.00     0.059 A 
ATOM    105  F   UNL A   1      47.565  31.307  29.163  1.00  0.00    -0.206 F 
ATOM    106  C   UNL A   1      45.542  33.406  27.027  1.00  0.00     0.060 A 
BRANCH 106 107
ATOM    107  S   UNL A   1      45.732  34.814  25.913  1.00  0.00     0.124 S 
ATOM    108  O   UNL A   1      47.177  35.018  25.919  1.00  0.00    -0.237 OA
ATOM    109  O   UNL A   1      45.168  34.309  24.664  1.00  0.00    -0.237 OA
ATOM    110  O   UNL A   1      44.949  35.867  26.556  1.00  0.00    -0.744 OA
ENDBRANCH 106 107
ENDBRANCH  74  99
ENDBRANCH  48  49
ENDBRANCH  40  43
ENDBRANCH  38  39
ENDBRANCH  37  38
ENDBRANCH  36  37
ENDBRANCH   1  36
TORSDOF 21
ENDMDL
MODEL 3
REMARK VINA RESULT:     -11.7      2.181      3.291
REMARK SMILES Cc1ccc(C)c(N2C(=O)S[C@H](CC(=O)Nc3ccc(C(=O)NCCCCCCNC(=O)c4ccc(-c5c6nc(c(-c7c(F)cc(S(=O)(=O)[O-])cc7F)c7ccc([nH]7)c(-c7c(F)cc(S(=O)(=O)[O-])cc7F)c7nc(c(-c8c(F)cc(S(=O)(=O)[O-])cc8F)c8ccc5[nH]8)C=C7)C=C6)cc4)c(O)c3)C2=O)c1
REMARK SMILES IDX 26 1 25 2 24 3 23 4 21 5 22 6 20 8 17 9 18 10 101 11 19 12
REMARK SMILES IDX 99 13 16 14 14 15 15 16 13 18 12 19 8 20 9 21 102 22 10 23
REMARK SMILES IDX 11 24 103 25 7 26 1 27 2 28 3 29 104 30 4 31 5 32 6 33
REMARK SMILES IDX 100 34 27 36 28 37 29 38 30 39 31 40 32 42 33 43 34 44 98 45
REMARK SMILES IDX 35 46 97 47 36 48 37 49 38 50 91 51 39 52 96 53 90 54 92 55
REMARK SMILES IDX 40 56 95 57 89 58 88 59 41 61 75 62 54 63 74 64 55 65 58 66
REMARK SMILES IDX 73 67 93 68 56 69 57 70 72 72 94 73 59 74 42 75 43 76 52 77
REMARK SMILES IDX 44 78 45 79 51 80 53 81 46 82 47 83 48 84 49 85 50 86 76 87
REMARK SMILES IDX 77 88 86 89 78 90 79 91 85 92 87 93 80 94 81 95 82 96 83 97
REMARK SMILES IDX 84 98 60 99 61 100 70 101 62 102 63 103 69 104 71 105 64 106
REMARK SMILES IDX 65 107 66 108 67 109 68 110
REMARK H PARENT 23 7 16 17 100 35 30 41 92 60 58 71
REMARK Flexibility Score: inf
ROOT
ATOM      1  C   UNL A   1      31.384  32.088  26.945  1.00  0.00     0.002 C 
ENDROOT
BRANCH   1   2
ATOM      2  C   UNL A   1      30.668  31.563  25.694  1.00  0.00     0.021 C 
BRANCH   2   3
ATOM      3  C   UNL A   1      31.225  30.328  25.006  1.00  0.00     0.116 C 
BRANCH   3   4
ATOM      4  N   UNL A   1      30.587  29.968  23.762  1.00  0.00    -0.352 N 
ATOM      5  C   UNL A   1      30.192  28.744  23.285  1.00  0.00     0.255 C 
ATOM      6  O   UNL A   1      29.519  28.736  22.252  1.00  0.00    -0.269 OA
ATOM      7  H   UNL A   1      30.404  30.724  23.159  1.00  0.00     0.163 HD
BRANCH   5   8
ATOM      8  C   UNL A   1      30.615  27.441  23.887  1.00  0.00     0.081 A 
ATOM      9  C   UNL A   1      31.761  25.331  25.373  1.00  0.00     0.044 A 
ATOM     10  C   UNL A   1      32.526  26.109  24.518  1.00  0.00     0.027 A 
ATOM     11  C   UNL A   1      30.382  25.436  25.279  1.00  0.00     0.073 A 
ATOM     12  C   UNL A   1      31.987  27.195  23.838  1.00  0.00     0.020 A 
ATOM     13  C   UNL A   1      29.822  26.452  24.484  1.00  0.00     0.130 A 
BRANCH   9  14
ATOM     14  N   UNL A   1      32.383  24.404  26.223  1.00  0.00    -0.326 N 
ATOM     15  C   UNL A   1      31.866  23.185  26.628  1.00  0.00     0.226 C 
ATOM     16  O   UNL A   1      32.153  22.729  27.734  1.00  0.00    -0.275 OA
ATOM     17  H   UNL A   1      33.274  24.643  26.565  1.00  0.00     0.169 HD
BRANCH  15  18
ATOM     18  C   UNL A   1      31.078  22.368  25.601  1.00  0.00     0.125 C 
BRANCH  18  19
ATOM     19  C   UNL A   1      31.839  21.210  24.957  1.00  0.00     0.156 C 
ATOM     20  N   UNL A   1      34.110  21.952  24.755  1.00  0.00    -0.240 N 
ATOM     21  C   UNL A   1      33.657  22.290  23.509  1.00  0.00     0.293 C 
ATOM     22  C   UNL A   1      33.265  21.134  25.495  1.00  0.00     0.248 C 
ATOM     23  O   UNL A   1      34.189  22.998  22.659  1.00  0.00    -0.261 OA
ATOM     24  S   UNL A   1      32.153  21.441  23.175  1.00  0.00    -0.050 SA
ATOM     25  O   UNL A   1      33.601  20.361  26.384  1.00  0.00    -0.273 OA
BRANCH  20  26
ATOM     26  C   UNL A   1      35.504  21.995  25.004  1.00  0.00     0.056 A 
ATOM     27  C   UNL A   1      38.486  19.597  25.001  1.00  0.00     0.044 C 
ATOM     28  C   UNL A   1      37.640  20.827  25.158  1.00  0.00    -0.049 A 
ATOM     29  C   UNL A   1      38.232  22.003  25.629  1.00  0.00     0.004 A 
ATOM     30  C   UNL A   1      36.273  20.832  24.832  1.00  0.00     0.030 A 
ATOM     31  C   UNL A   1      37.473  23.159  25.801  1.00  0.00     0.006 A 
ATOM     32  C   UNL A   1      36.101  23.168  25.510  1.00  0.00    -0.027 A 
ATOM     33  C   UNL A   1      35.353  24.452  25.744  1.00  0.00     0.046 C 
ENDBRANCH  20  26
ENDBRANCH  18  19
ENDBRANCH  15  18
ENDBRANCH   9  14
BRANCH  13  34
ATOM     34  O   UNL A   1      28.481  26.324  24.249  1.00  0.00    -0.507 OA
ATOM     35  H   UNL A   1      27.878  26.929  24.634  1.00  0.00     0.293 HD
ENDBRANCH  13  34
ENDBRANCH   5   8
ENDBRANCH   3   4
ENDBRANCH   2   3
ENDBRANCH   1   2
BRANCH   1  36
ATOM     36  C   UNL A   1      32.331  33.294  26.876  1.00  0.00     0.002 C 
BRANCH  36  37
ATOM     37  C   UNL A   1      32.997  33.877  28.127  1.00  0.00     0.021 C 
BRANCH  37  38
ATOM     38  C   UNL A   1      34.224  33.175  28.689  1.00  0.00     0.116 C 
BRANCH  38  39
ATOM     39  N   UNL A   1      34.294  33.142  30.156  1.00  0.00    -0.352 N 
ATOM     40  C   UNL A   1      35.015  32.357  31.048  1.00  0.00     0.251 C 
ATOM     41  H   UNL A   1      33.715  33.807  30.594  1.00  0.00     0.163 HD
ATOM     42  O   UNL A   1      34.678  32.327  32.229  1.00  0.00    -0.269 OA
BRANCH  40  43
ATOM     43  C   UNL A   1      36.190  31.571  30.609  1.00  0.00     0.039 A 
ATOM     44  C   UNL A   1      36.181  30.198  30.357  1.00  0.00     0.014 A 
ATOM     45  C   UNL A   1      37.412  32.201  30.640  1.00  0.00     0.014 A 
ATOM     46  C   UNL A   1      37.413  29.527  30.277  1.00  0.00     0.010 A 
ATOM     47  C   UNL A   1      38.506  31.633  30.085  1.00  0.00     0.010 A 
ATOM     48  C   UNL A   1      38.590  30.276  30.238  1.00  0.00    -0.014 A 
BRANCH  48  49
ATOM     49  C   UNL A   1      39.941  29.758  30.213  1.00  0.00     0.031 A 
ATOM     50  C   UNL A   1      40.460  29.400  31.543  1.00  0.00     0.074 A 
ATOM     51  C   UNL A   1      40.517  29.268  29.093  1.00  0.00     0.049 A 
ATOM     52  N   UNL A   1      41.235  30.103  32.296  1.00  0.00    -0.248 NA
ATOM     53  C   UNL A   1      39.868  28.230  32.215  1.00  0.00     0.031 C 
ATOM     54  C   UNL A   1      39.941  29.103  27.752  1.00  0.00     0.029 A 
ATOM     55  N   UNL A   1      41.749  28.708  28.959  1.00  0.00    -0.354 N 
ATOM     56  C   UNL A   1      41.432  29.318  33.423  1.00  0.00     0.074 A 
ATOM     57  C   UNL A   1      40.333  28.395  33.453  1.00  0.00     0.031 C 
ATOM     58  C   UNL A   1      40.760  28.330  27.001  1.00  0.00     0.029 A 
ATOM     59  C   UNL A   1      41.971  28.051  27.756  1.00  0.00     0.049 A 
ATOM     60  H   UNL A   1      42.434  28.764  29.665  1.00  0.00     0.167 HD
ATOM     61  C   UNL A   1      42.646  29.252  34.037  1.00  0.00     0.037 A 
ATOM     62  C   UNL A   1      43.057  27.294  27.446  1.00  0.00     0.037 A 
ATOM     63  C   UNL A   1      43.532  30.277  33.529  1.00  0.00     0.049 A 
ATOM     64  C   UNL A   1      44.138  27.671  28.400  1.00  0.00     0.074 A 
ATOM     65  C   UNL A   1      43.461  31.652  33.407  1.00  0.00     0.029 A 
ATOM     66  N   UNL A   1      44.534  29.879  32.672  1.00  0.00    -0.354 N 
ATOM     67  N   UNL A   1      44.710  28.844  28.434  1.00  0.00    -0.248 NA
ATOM     68  C   UNL A   1      44.285  26.879  29.613  1.00  0.00     0.031 C 
ATOM     69  C   UNL A   1      44.087  31.951  32.160  1.00  0.00     0.029 A 
ATOM     70  C   UNL A   1      44.562  30.757  31.617  1.00  0.00     0.049 A 
ATOM     71  H   UNL A   1      45.126  29.102  32.795  1.00  0.00     0.167 HD
ATOM     72  C   UNL A   1      44.912  29.108  29.782  1.00  0.00     0.074 A 
ATOM     73  C   UNL A   1      44.737  27.820  30.447  1.00  0.00     0.031 C 
ATOM     74  C   UNL A   1      44.914  30.388  30.260  1.00  0.00     0.037 A 
BRANCH  61  75
ATOM     75  C   UNL A   1      43.164  28.041  34.787  1.00  0.00     0.058 A 
ATOM     76  C   UNL A   1      43.595  28.214  36.117  1.00  0.00     0.135 A 
ATOM     77  C   UNL A   1      43.493  26.794  34.205  1.00  0.00     0.135 A 
ATOM     78  F   UNL A   1      43.331  29.352  36.779  1.00  0.00    -0.206 F 
ATOM     79  C   UNL A   1      44.377  27.268  36.780  1.00  0.00     0.059 A 
ATOM     80  C   UNL A   1      44.214  25.812  34.870  1.00  0.00     0.059 A 
ATOM     81  F   UNL A   1      43.229  26.488  32.931  1.00  0.00    -0.206 F 
ATOM     82  C   UNL A   1      44.699  26.079  36.135  1.00  0.00     0.060 A 
BRANCH  82  83
ATOM     83  S   UNL A   1      45.824  24.917  36.922  1.00  0.00     0.124 S 
ATOM     84  O   UNL A   1      46.616  25.811  37.759  1.00  0.00    -0.237 OA
ATOM     85  O   UNL A   1      44.901  24.030  37.622  1.00  0.00    -0.237 OA
ATOM     86  O   UNL A   1      46.528  24.317  35.792  1.00  0.00    -0.744 OA
ENDBRANCH  82  83
ENDBRANCH  61  75
BRANCH  62  87
ATOM     87  C   UNL A   1      43.134  26.076  26.595  1.00  0.00     0.058 A 
ATOM     88  C   UNL A   1      44.115  25.943  25.594  1.00  0.00     0.135 A 
ATOM     89  C   UNL A   1      42.431  24.901  26.930  1.00  0.00     0.135 A 
ATOM     90  F   UNL A   1      44.845  27.005  25.219  1.00  0.00    -0.206 F 
ATOM     91  C   UNL A   1      44.420  24.710  25.002  1.00  0.00     0.059 A 
ATOM     92  C   UNL A   1      42.708  23.666  26.347  1.00  0.00     0.059 A 
ATOM     93  F   UNL A   1      41.511  24.896  27.905  1.00  0.00    -0.206 F 
ATOM     94  C   UNL A   1      43.724  23.571  25.406  1.00  0.00     0.060 A 
BRANCH  94  95
ATOM     95  S   UNL A   1      44.216  21.949  24.777  1.00  0.00     0.124 S 
ATOM     96  O   UNL A   1      43.189  21.083  25.344  1.00  0.00    -0.237 OA
ATOM     97  O   UNL A   1      44.162  22.153  23.335  1.00  0.00    -0.237 OA
ATOM     98  O   UNL A   1      45.557  21.767  25.334  1.00  0.00    -0.744 OA
ENDBRANCH  94  95
ENDBRANCH  62  87
BRANCH  74  99
ATOM     99  C   UNL A   1      45.058  31.516  29.267  1.00  0.00     0.058 A 
ATOM    100  C   UNL A   1      46.281  31.959  28.731  1.00  0.00     0.135 A 
ATOM    101  C   UNL A   1      43.888  32.077  28.731  1.00  0.00     0.135 A 
ATOM    102  F   UNL A   1      47.441  31.405  29.109  1.00  0.00    -0.206 F 
ATOM    103  C   UNL A   1      46.339  32.940  27.739  1.00  0.00     0.059 A 
ATOM    104  C   UNL A   1      43.920  33.033  27.719  1.00  0.00     0.059 A 
ATOM    105  F   UNL A   1      42.685  31.656  29.157  1.00  0.00    -0.206 F 
ATOM    106  C   UNL A   1      45.151  33.470  27.236  1.00  0.00     0.060 A 
BRANCH 106 107
ATOM    107  S   UNL A   1      45.227  34.675  25.894  1.00  0.00     0.124 S 
ATOM    108  O   UNL A   1      46.487  35.358  26.165  1.00  0.00    -0.237 OA
ATOM    109  O   UNL A   1      45.207  33.828  24.704  1.00  0.00    -0.237 OA
ATOM    110  O   UNL A   1      44.024  35.482  26.091  1.00  0.00    -0.744 OA
ENDBRANCH 106 107
ENDBRANCH  74  99
ENDBRANCH  48  49
ENDBRANCH  40  43
ENDBRANCH  38  39
ENDBRANCH  37  38
ENDBRANCH  36  37
ENDBRANCH   1  36
TORSDOF 21
ENDMDL
