MODEL 1
REMARK VINA RESULT:     -12.5      0.000      0.000
REMARK SMILES O=C(NCCCCCCNC(=O)c1ccc(-c2c3nc(c(-c4c(F)cc(S(=O)(=O)[O-])cc4F)c4ccc([nH]4)c(-c4c(F)cc(S(=O)(=O)[O-])cc4F)c4nc(c(-c5c(F)cc(S(=O)(=O)[O-])cc5F)c5ccc2[nH]5)C=C4)C=C3)cc1)C1=Cc2c(ccc(Cl)c2-c2ccccc2)O[C@H]1C(F)(F)F
REMARK SMILES IDX 7 1 6 2 5 3 4 4 3 5 1 6 2 7 79 9 80 10 95 11 81 12 94 13
REMARK SMILES IDX 82 14 87 15 83 16 85 17 84 18 86 19 96 20 97 21 98 22 99 23
REMARK SMILES IDX 88 24 89 25 93 26 90 27 92 28 91 29 8 30 9 31 10 32 11 33
REMARK SMILES IDX 12 35 13 36 14 37 78 38 15 39 77 40 16 41 17 42 18 43 71 44
REMARK SMILES IDX 19 45 76 46 70 47 72 48 20 49 75 50 69 51 68 52 21 54 55 55
REMARK SMILES IDX 34 56 54 57 35 58 38 59 53 60 73 61 36 62 37 63 52 65 74 66
REMARK SMILES IDX 39 67 22 68 23 69 32 70 24 71 25 72 31 73 33 74 26 75 27 76
REMARK SMILES IDX 28 77 29 78 30 79 56 80 57 81 66 82 58 83 59 84 65 85 67 86
REMARK SMILES IDX 60 87 61 88 62 89 63 90 64 91 40 92 41 93 50 94 42 95 43 96
REMARK SMILES IDX 49 97 51 98 44 99 45 100 46 101 47 102 48 103
REMARK H PARENT 3 8 10 34 72 53 38 64
REMARK Flexibility Score: inf
ROOT
ATOM      1  C   UNL A   1      32.724  28.854  27.153  1.00  0.00     0.002 C 
ENDROOT
BRANCH   1   2
ATOM      2  C   UNL A   1      31.787  27.648  27.293  1.00  0.00     0.002 C 
BRANCH   2   3
ATOM      3  C   UNL A   1      31.023  27.193  26.046  1.00  0.00     0.021 C 
BRANCH   3   4
ATOM      4  C   UNL A   1      30.545  25.743  26.023  1.00  0.00     0.116 C 
BRANCH   4   5
ATOM      5  N   UNL A   1      31.303  24.833  26.863  1.00  0.00    -0.352 N 
ATOM      6  O   UNL A   1      32.836  23.259  27.356  1.00  0.00    -0.270 OA
ATOM      7  C   UNL A   1      32.360  24.031  26.528  1.00  0.00     0.251 C 
ATOM      8  H   UNL A   1      31.016  24.785  27.803  1.00  0.00     0.163 HD
BRANCH   7   9
ATOM      9  C   UNL A   1      32.953  24.083  25.174  1.00  0.00     0.067 C 
ATOM     10  C   UNL A   1      33.058  22.935  24.495  1.00  0.00     0.026 C 
ATOM     11  C   UNL A   1      33.795  25.246  24.753  1.00  0.00     0.314 C 
ATOM     12  C   UNL A   1      34.489  22.519  24.455  1.00  0.00     0.027 A 
ATOM     13  O   UNL A   1      35.193  24.860  24.535  1.00  0.00    -0.475 OA
ATOM     14  C   UNL A   1      35.480  23.514  24.497  1.00  0.00     0.128 A 
ATOM     15  C   UNL A   1      34.801  21.139  24.558  1.00  0.00     0.011 A 
ATOM     16  C   UNL A   1      36.810  23.143  24.645  1.00  0.00     0.049 A 
ATOM     17  C   UNL A   1      36.145  20.794  24.746  1.00  0.00     0.049 A 
ATOM     18  C   UNL A   1      37.139  21.788  24.787  1.00  0.00     0.025 A 
ATOM     19  Cl  UNL A   1      36.628  19.160  25.017  1.00  0.00    -0.084 Cl
BRANCH  11  20
ATOM     20  C   UNL A   1      33.221  25.955  23.504  1.00  0.00     0.429 C 
ATOM     21  F   UNL A   1      31.927  25.634  23.258  1.00  0.00    -0.167 F 
ATOM     22  F   UNL A   1      33.267  27.302  23.646  1.00  0.00    -0.167 F 
ATOM     23  F   UNL A   1      33.910  25.649  22.378  1.00  0.00    -0.167 F 
ENDBRANCH  11  20
BRANCH  15  24
ATOM     24  C   UNL A   1      33.662  20.197  24.581  1.00  0.00    -0.016 A 
ATOM     25  C   UNL A   1      33.167  19.678  23.373  1.00  0.00     0.009 A 
ATOM     26  C   UNL A   1      33.323  19.546  25.779  1.00  0.00     0.009 A 
ATOM     27  C   UNL A   1      32.463  18.473  23.351  1.00  0.00     0.001 A 
ATOM     28  C   UNL A   1      32.620  18.339  25.754  1.00  0.00     0.001 A 
ATOM     29  C   UNL A   1      32.218  17.790  24.538  1.00  0.00     0.000 A 
ENDBRANCH  15  24
ENDBRANCH   7   9
ENDBRANCH   4   5
ENDBRANCH   3   4
ENDBRANCH   2   3
ENDBRANCH   1   2
BRANCH   1  30
ATOM     30  C   UNL A   1      34.228  28.580  27.069  1.00  0.00     0.021 C 
BRANCH  30  31
ATOM     31  C   UNL A   1      35.154  29.754  27.375  1.00  0.00     0.116 C 
BRANCH  31  32
ATOM     32  N   UNL A   1      35.154  30.135  28.776  1.00  0.00    -0.352 N 
ATOM     33  C   UNL A   1      36.165  30.115  29.707  1.00  0.00     0.251 C 
ATOM     34  H   UNL A   1      34.289  30.462  29.113  1.00  0.00     0.163 HD
ATOM     35  O   UNL A   1      35.897  30.380  30.878  1.00  0.00    -0.269 OA
BRANCH  33  36
ATOM     36  C   UNL A   1      37.559  29.758  29.340  1.00  0.00     0.039 A 
ATOM     37  C   UNL A   1      38.460  29.449  30.366  1.00  0.00     0.014 A 
ATOM     38  C   UNL A   1      38.009  29.778  28.017  1.00  0.00     0.014 A 
ATOM     39  C   UNL A   1      39.785  29.114  30.066  1.00  0.00     0.010 A 
ATOM     40  C   UNL A   1      39.314  29.380  27.713  1.00  0.00     0.010 A 
ATOM     41  C   UNL A   1      40.219  29.050  28.733  1.00  0.00    -0.014 A 
BRANCH  41  42
ATOM     42  C   UNL A   1      41.614  28.655  28.394  1.00  0.00     0.031 A 
ATOM     43  C   UNL A   1      42.715  29.684  28.375  1.00  0.00     0.074 A 
ATOM     44  C   UNL A   1      41.884  27.379  28.052  1.00  0.00     0.049 A 
ATOM     45  N   UNL A   1      43.975  29.541  28.051  1.00  0.00    -0.248 NA
ATOM     46  C   UNL A   1      42.345  31.059  28.745  1.00  0.00     0.031 C 
ATOM     47  C   UNL A   1      40.905  26.292  27.997  1.00  0.00     0.029 A 
ATOM     48  N   UNL A   1      43.063  26.781  27.679  1.00  0.00    -0.354 N 
ATOM     49  C   UNL A   1      44.543  30.806  28.156  1.00  0.00     0.074 A 
ATOM     50  C   UNL A   1      43.478  31.711  28.534  1.00  0.00     0.031 C 
ATOM     51  C   UNL A   1      41.526  25.157  27.638  1.00  0.00     0.029 A 
ATOM     52  C   UNL A   1      42.939  25.440  27.401  1.00  0.00     0.049 A 
ATOM     53  H   UNL A   1      43.917  27.266  27.616  1.00  0.00     0.167 HD
ATOM     54  C   UNL A   1      45.832  31.178  27.971  1.00  0.00     0.037 A 
ATOM     55  C   UNL A   1      43.856  24.538  26.998  1.00  0.00     0.037 A 
ATOM     56  C   UNL A   1      46.896  30.267  27.632  1.00  0.00     0.049 A 
ATOM     57  C   UNL A   1      45.284  24.973  26.802  1.00  0.00     0.074 A 
ATOM     58  C   UNL A   1      48.248  30.535  27.499  1.00  0.00     0.029 A 
ATOM     59  N   UNL A   1      46.730  28.916  27.366  1.00  0.00    -0.354 N 
ATOM     60  N   UNL A   1      45.813  26.162  26.969  1.00  0.00    -0.248 NA
ATOM     61  C   UNL A   1      46.238  23.945  26.366  1.00  0.00     0.031 C 
ATOM     62  C   UNL A   1      48.893  29.355  27.112  1.00  0.00     0.029 A 
ATOM     63  C   UNL A   1      47.950  28.342  27.046  1.00  0.00     0.049 A 
ATOM     64  H   UNL A   1      45.872  28.436  27.400  1.00  0.00     0.167 HD
ATOM     65  C   UNL A   1      47.167  26.017  26.687  1.00  0.00     0.074 A 
ATOM     66  C   UNL A   1      47.377  24.625  26.344  1.00  0.00     0.031 C 
ATOM     67  C   UNL A   1      48.148  26.954  26.713  1.00  0.00     0.037 A 
BRANCH  54  68
ATOM     68  C   UNL A   1      46.168  32.636  28.127  1.00  0.00     0.058 A 
ATOM     69  C   UNL A   1      46.643  33.161  29.339  1.00  0.00     0.135 A 
ATOM     70  C   UNL A   1      46.039  33.516  27.040  1.00  0.00     0.135 A 
ATOM     71  F   UNL A   1      46.774  32.368  30.414  1.00  0.00    -0.206 F 
ATOM     72  C   UNL A   1      46.943  34.513  29.478  1.00  0.00     0.059 A 
ATOM     73  C   UNL A   1      46.361  34.866  27.149  1.00  0.00     0.059 A 
ATOM     74  F   UNL A   1      45.593  33.068  25.856  1.00  0.00    -0.206 F 
ATOM     75  C   UNL A   1      46.794  35.358  28.379  1.00  0.00     0.060 A 
BRANCH  75  76
ATOM     76  S   UNL A   1      47.176  37.112  28.575  1.00  0.00     0.124 S 
ATOM     77  O   UNL A   1      46.744  37.349  29.950  1.00  0.00    -0.237 OA
ATOM     78  O   UNL A   1      48.621  37.145  28.355  1.00  0.00    -0.237 OA
ATOM     79  O   UNL A   1      46.374  37.754  27.545  1.00  0.00    -0.744 OA
ENDBRANCH  75  76
ENDBRANCH  54  68
BRANCH  55  80
ATOM     80  C   UNL A   1      43.459  23.121  26.784  1.00  0.00     0.058 A 
ATOM     81  C   UNL A   1      43.413  22.577  25.491  1.00  0.00     0.135 A 
ATOM     82  C   UNL A   1      43.137  22.280  27.860  1.00  0.00     0.135 A 
ATOM     83  F   UNL A   1      43.705  23.344  24.431  1.00  0.00    -0.206 F 
ATOM     84  C   UNL A   1      43.050  21.252  25.271  1.00  0.00     0.059 A 
ATOM     85  C   UNL A   1      42.794  20.946  27.667  1.00  0.00     0.059 A 
ATOM     86  F   UNL A   1      43.179  22.750  29.117  1.00  0.00    -0.206 F 
ATOM     87  C   UNL A   1      42.745  20.443  26.367  1.00  0.00     0.060 A 
BRANCH  87  88
ATOM     88  S   UNL A   1      42.330  18.710  26.073  1.00  0.00     0.124 S 
ATOM     89  O   UNL A   1      43.241  18.370  24.986  1.00  0.00    -0.237 OA
ATOM     90  O   UNL A   1      42.620  18.100  27.366  1.00  0.00    -0.237 OA
ATOM     91  O   UNL A   1      40.915  18.762  25.717  1.00  0.00    -0.744 OA
ENDBRANCH  87  88
ENDBRANCH  55  80
BRANCH  67  92
ATOM     92  C   UNL A   1      49.546  26.501  26.393  1.00  0.00     0.058 A 
ATOM     93  C   UNL A   1      50.085  26.623  25.104  1.00  0.00     0.135 A 
ATOM     94  C   UNL A   1      50.375  25.986  27.404  1.00  0.00     0.135 A 
ATOM     95  F   UNL A   1      49.333  27.103  24.100  1.00  0.00    -0.206 F 
ATOM     96  C   UNL A   1      51.390  26.231  24.822  1.00  0.00     0.059 A 
ATOM     97  C   UNL A   1      51.690  25.611  27.151  1.00  0.00     0.059 A 
ATOM     98  F   UNL A   1      49.911  25.859  28.659  1.00  0.00    -0.206 F 
ATOM     99  C   UNL A   1      52.186  25.727  25.853  1.00  0.00     0.060 A 
BRANCH  99 100
ATOM    100  S   UNL A   1      53.889  25.256  25.483  1.00  0.00     0.124 S 
ATOM    101  O   UNL A   1      54.142  26.007  24.258  1.00  0.00    -0.237 OA
ATOM    102  O   UNL A   1      54.605  25.715  26.669  1.00  0.00    -0.237 OA
ATOM    103  O   UNL A   1      53.814  23.806  25.327  1.00  0.00    -0.744 OA
ENDBRANCH  99 100
ENDBRANCH  67  92
ENDBRANCH  41  42
ENDBRANCH  33  36
ENDBRANCH  31  32
ENDBRANCH  30  31
ENDBRANCH   1  30
TORSDOF 18
ENDMDL
MODEL 2
REMARK VINA RESULT:     -12.3      6.589     11.945
REMARK SMILES O=C(NCCCCCCNC(=O)c1ccc(-c2c3nc(c(-c4c(F)cc(S(=O)(=O)[O-])cc4F)c4ccc([nH]4)c(-c4c(F)cc(S(=O)(=O)[O-])cc4F)c4nc(c(-c5c(F)cc(S(=O)(=O)[O-])cc5F)c5ccc2[nH]5)C=C4)C=C3)cc1)C1=Cc2c(ccc(Cl)c2-c2ccccc2)O[C@H]1C(F)(F)F
REMARK SMILES IDX 7 1 6 2 5 3 4 4 3 5 1 6 2 7 79 9 80 10 95 11 81 12 94 13
REMARK SMILES IDX 82 14 87 15 83 16 85 17 84 18 86 19 96 20 97 21 98 22 99 23
REMARK SMILES IDX 88 24 89 25 93 26 90 27 92 28 91 29 8 30 9 31 10 32 11 33
REMARK SMILES IDX 12 35 13 36 14 37 78 38 15 39 77 40 16 41 17 42 18 43 71 44
REMARK SMILES IDX 19 45 76 46 70 47 72 48 20 49 75 50 69 51 68 52 21 54 55 55
REMARK SMILES IDX 34 56 54 57 35 58 38 59 53 60 73 61 36 62 37 63 52 65 74 66
REMARK SMILES IDX 39 67 22 68 23 69 32 70 24 71 25 72 31 73 33 74 26 75 27 76
REMARK SMILES IDX 28 77 29 78 30 79 56 80 57 81 66 82 58 83 59 84 65 85 67 86
REMARK SMILES IDX 60 87 61 88 62 89 63 90 64 91 40 92 41 93 50 94 42 95 43 96
REMARK SMILES IDX 49 97 51 98 44 99 45 100 46 101 47 102 48 103
REMARK H PARENT 3 8 10 34 72 53 38 64
REMARK Flexibility Score: inf
ROOT
ATOM      1  C   UNL A   1      37.179  22.545  25.731  1.00  0.00     0.002 C 
ENDROOT
BRANCH   1   2
ATOM      2  C   UNL A   1      35.663  22.759  25.806  1.00  0.00     0.002 C 
BRANCH   2   3
ATOM      3  C   UNL A   1      34.963  22.428  27.127  1.00  0.00     0.021 C 
BRANCH   3   4
ATOM      4  C   UNL A   1      33.661  21.637  27.036  1.00  0.00     0.116 C 
BRANCH   4   5
ATOM      5  N   UNL A   1      32.469  22.368  27.428  1.00  0.00    -0.352 N 
ATOM      6  O   UNL A   1      30.789  23.854  27.225  1.00  0.00    -0.270 OA
ATOM      7  C   UNL A   1      31.733  23.266  26.703  1.00  0.00     0.251 C 
ATOM      8  H   UNL A   1      32.146  22.195  28.341  1.00  0.00     0.163 HD
BRANCH   7   9
ATOM      9  C   UNL A   1      32.052  23.539  25.285  1.00  0.00     0.067 C 
ATOM     10  C   UNL A   1      32.633  24.707  24.991  1.00  0.00     0.026 C 
ATOM     11  C   UNL A   1      31.374  22.778  24.190  1.00  0.00     0.314 C 
ATOM     12  C   UNL A   1      31.640  25.592  24.317  1.00  0.00     0.027 A 
ATOM     13  O   UNL A   1      30.503  23.639  23.381  1.00  0.00    -0.475 OA
ATOM     14  C   UNL A   1      30.615  25.000  23.562  1.00  0.00     0.128 A 
ATOM     15  C   UNL A   1      31.657  26.981  24.607  1.00  0.00     0.011 A 
ATOM     16  C   UNL A   1      29.580  25.791  23.080  1.00  0.00     0.049 A 
ATOM     17  C   UNL A   1      30.582  27.750  24.144  1.00  0.00     0.049 A 
ATOM     18  C   UNL A   1      29.555  27.158  23.386  1.00  0.00     0.025 A 
ATOM     19  Cl  UNL A   1      30.426  29.420  24.548  1.00  0.00    -0.084 Cl
BRANCH  11  20
ATOM     20  C   UNL A   1      32.386  22.027  23.294  1.00  0.00     0.429 C 
ATOM     21  F   UNL A   1      31.825  21.009  22.596  1.00  0.00    -0.167 F 
ATOM     22  F   UNL A   1      32.943  22.863  22.383  1.00  0.00    -0.167 F 
ATOM     23  F   UNL A   1      33.402  21.485  24.009  1.00  0.00    -0.167 F 
ENDBRANCH  11  20
BRANCH  15  24
ATOM     24  C   UNL A   1      32.747  27.467  25.478  1.00  0.00    -0.016 A 
ATOM     25  C   UNL A   1      33.881  28.065  24.903  1.00  0.00     0.009 A 
ATOM     26  C   UNL A   1      32.503  27.673  26.847  1.00  0.00     0.009 A 
ATOM     27  C   UNL A   1      34.675  28.945  25.640  1.00  0.00     0.001 A 
ATOM     28  C   UNL A   1      33.297  28.557  27.582  1.00  0.00     0.001 A 
ATOM     29  C   UNL A   1      34.363  29.213  26.970  1.00  0.00     0.000 A 
ENDBRANCH  15  24
ENDBRANCH   7   9
ENDBRANCH   4   5
ENDBRANCH   3   4
ENDBRANCH   2   3
ENDBRANCH   1   2
BRANCH   1  30
ATOM     30  C   UNL A   1      38.082  23.718  26.125  1.00  0.00     0.021 C 
BRANCH  30  31
ATOM     31  C   UNL A   1      39.380  23.367  26.849  1.00  0.00     0.116 C 
BRANCH  31  32
ATOM     32  N   UNL A   1      40.570  23.775  26.123  1.00  0.00    -0.352 N 
ATOM     33  C   UNL A   1      41.390  24.865  26.294  1.00  0.00     0.251 C 
ATOM     34  H   UNL A   1      40.831  23.174  25.390  1.00  0.00     0.163 HD
ATOM     35  O   UNL A   1      42.285  25.067  25.475  1.00  0.00    -0.269 OA
BRANCH  33  36
ATOM     36  C   UNL A   1      41.207  25.812  27.424  1.00  0.00     0.039 A 
ATOM     37  C   UNL A   1      42.138  26.845  27.585  1.00  0.00     0.014 A 
ATOM     38  C   UNL A   1      40.174  25.669  28.356  1.00  0.00     0.014 A 
ATOM     39  C   UNL A   1      42.008  27.755  28.639  1.00  0.00     0.010 A 
ATOM     40  C   UNL A   1      40.007  26.617  29.370  1.00  0.00     0.010 A 
ATOM     41  C   UNL A   1      40.925  27.666  29.528  1.00  0.00    -0.014 A 
BRANCH  41  42
ATOM     42  C   UNL A   1      40.749  28.651  30.630  1.00  0.00     0.031 A 
ATOM     43  C   UNL A   1      41.594  28.564  31.874  1.00  0.00     0.074 A 
ATOM     44  C   UNL A   1      39.791  29.596  30.537  1.00  0.00     0.049 A 
ATOM     45  N   UNL A   1      41.547  29.294  32.959  1.00  0.00    -0.248 NA
ATOM     46  C   UNL A   1      42.609  27.500  31.914  1.00  0.00     0.031 C 
ATOM     47  C   UNL A   1      38.881  29.770  29.403  1.00  0.00     0.029 A 
ATOM     48  N   UNL A   1      39.418  30.586  31.414  1.00  0.00    -0.354 N 
ATOM     49  C   UNL A   1      42.507  28.768  33.816  1.00  0.00     0.074 A 
ATOM     50  C   UNL A   1      43.091  27.629  33.140  1.00  0.00     0.031 C 
ATOM     51  C   UNL A   1      38.074  30.816  29.642  1.00  0.00     0.029 A 
ATOM     52  C   UNL A   1      38.382  31.366  30.959  1.00  0.00     0.049 A 
ATOM     53  H   UNL A   1      39.852  30.723  32.287  1.00  0.00     0.167 HD
ATOM     54  C   UNL A   1      42.879  29.200  35.046  1.00  0.00     0.037 A 
ATOM     55  C   UNL A   1      37.747  32.405  31.537  1.00  0.00     0.037 A 
ATOM     56  C   UNL A   1      42.321  30.356  35.700  1.00  0.00     0.049 A 
ATOM     57  C   UNL A   1      38.179  32.870  32.901  1.00  0.00     0.074 A 
ATOM     58  C   UNL A   1      42.687  30.919  36.911  1.00  0.00     0.029 A 
ATOM     59  N   UNL A   1      41.278  31.124  35.203  1.00  0.00    -0.354 N 
ATOM     60  N   UNL A   1      39.132  32.398  33.668  1.00  0.00    -0.248 NA
ATOM     61  C   UNL A   1      37.452  34.010  33.477  1.00  0.00     0.031 C 
ATOM     62  C   UNL A   1      41.837  32.001  37.166  1.00  0.00     0.029 A 
ATOM     63  C   UNL A   1      40.971  32.140  36.093  1.00  0.00     0.049 A 
ATOM     64  H   UNL A   1      40.824  30.969  34.343  1.00  0.00     0.167 HD
ATOM     65  C   UNL A   1      39.139  33.201  34.804  1.00  0.00     0.074 A 
ATOM     66  C   UNL A   1      38.098  34.193  34.621  1.00  0.00     0.031 C 
ATOM     67  C   UNL A   1      39.937  33.125  35.898  1.00  0.00     0.037 A 
BRANCH  54  68
ATOM     68  C   UNL A   1      43.939  28.416  35.770  1.00  0.00     0.058 A 
ATOM     69  C   UNL A   1      45.306  28.692  35.607  1.00  0.00     0.135 A 
ATOM     70  C   UNL A   1      43.581  27.392  36.662  1.00  0.00     0.135 A 
ATOM     71  F   UNL A   1      45.705  29.652  34.758  1.00  0.00    -0.206 F 
ATOM     72  C   UNL A   1      46.281  27.957  36.275  1.00  0.00     0.059 A 
ATOM     73  C   UNL A   1      44.540  26.663  37.362  1.00  0.00     0.059 A 
ATOM     74  F   UNL A   1      42.290  27.087  36.860  1.00  0.00    -0.206 F 
ATOM     75  C   UNL A   1      45.888  26.941  37.146  1.00  0.00     0.060 A 
BRANCH  75  76
ATOM     76  S   UNL A   1      47.163  25.986  37.997  1.00  0.00     0.124 S 
ATOM     77  O   UNL A   1      46.452  24.742  38.278  1.00  0.00    -0.237 OA
ATOM     78  O   UNL A   1      48.214  25.895  36.984  1.00  0.00    -0.237 OA
ATOM     79  O   UNL A   1      47.485  26.803  39.156  1.00  0.00    -0.744 OA
ENDBRANCH  75  76
ENDBRANCH  54  68
BRANCH  55  80
ATOM     80  C   UNL A   1      36.652  33.102  30.810  1.00  0.00     0.058 A 
ATOM     81  C   UNL A   1      35.309  32.881  31.153  1.00  0.00     0.135 A 
ATOM     82  C   UNL A   1      36.922  34.011  29.776  1.00  0.00     0.135 A 
ATOM     83  F   UNL A   1      35.002  32.014  32.129  1.00  0.00    -0.206 F 
ATOM     84  C   UNL A   1      34.272  33.527  30.489  1.00  0.00     0.059 A 
ATOM     85  C   UNL A   1      35.902  34.688  29.114  1.00  0.00     0.059 A 
ATOM     86  F   UNL A   1      38.190  34.268  29.419  1.00  0.00    -0.206 F 
ATOM     87  C   UNL A   1      34.579  34.433  29.472  1.00  0.00     0.060 A 
BRANCH  87  88
ATOM     88  S   UNL A   1      33.226  35.307  28.656  1.00  0.00     0.124 S 
ATOM     89  O   UNL A   1      33.953  36.227  27.788  1.00  0.00    -0.237 OA
ATOM     90  O   UNL A   1      32.517  34.222  27.987  1.00  0.00    -0.237 OA
ATOM     91  O   UNL A   1      32.508  35.923  29.768  1.00  0.00    -0.744 OA
ENDBRANCH  87  88
ENDBRANCH  55  80
BRANCH  67  92
ATOM     92  C   UNL A   1      39.743  34.161  36.971  1.00  0.00     0.058 A 
ATOM     93  C   UNL A   1      39.024  33.882  38.143  1.00  0.00     0.135 A 
ATOM     94  C   UNL A   1      40.328  35.432  36.846  1.00  0.00     0.135 A 
ATOM     95  F   UNL A   1      38.439  32.685  38.309  1.00  0.00    -0.206 F 
ATOM     96  C   UNL A   1      38.874  34.835  39.146  1.00  0.00     0.059 A 
ATOM     97  C   UNL A   1      40.212  36.391  37.846  1.00  0.00     0.059 A 
ATOM     98  F   UNL A   1      41.035  35.745  35.748  1.00  0.00    -0.206 F 
ATOM     99  C   UNL A   1      39.472  36.087  38.989  1.00  0.00     0.060 A 
BRANCH  99 100
ATOM    100  S   UNL A   1      39.302  37.302  40.313  1.00  0.00     0.124 S 
ATOM    101  O   UNL A   1      38.558  38.364  39.643  1.00  0.00    -0.237 OA
ATOM    102  O   UNL A   1      38.566  36.557  41.330  1.00  0.00    -0.237 OA
ATOM    103  O   UNL A   1      40.683  37.625  40.658  1.00  0.00    -0.744 OA
ENDBRANCH  99 100
ENDBRANCH  67  92
ENDBRANCH  41  42
ENDBRANCH  33  36
ENDBRANCH  31  32
ENDBRANCH  30  31
ENDBRANCH   1  30
TORSDOF 18
ENDMDL
MODEL 3
REMARK VINA RESULT:     -12.1      6.691     11.493
REMARK SMILES O=C(NCCCCCCNC(=O)c1ccc(-c2c3nc(c(-c4c(F)cc(S(=O)(=O)[O-])cc4F)c4ccc([nH]4)c(-c4c(F)cc(S(=O)(=O)[O-])cc4F)c4nc(c(-c5c(F)cc(S(=O)(=O)[O-])cc5F)c5ccc2[nH]5)C=C4)C=C3)cc1)C1=Cc2c(ccc(Cl)c2-c2ccccc2)O[C@H]1C(F)(F)F
REMARK SMILES IDX 7 1 6 2 5 3 4 4 3 5 1 6 2 7 79 9 80 10 95 11 81 12 94 13
REMARK SMILES IDX 82 14 87 15 83 16 85 17 84 18 86 19 96 20 97 21 98 22 99 23
REMARK SMILES IDX 88 24 89 25 93 26 90 27 92 28 91 29 8 30 9 31 10 32 11 33
REMARK SMILES IDX 12 35 13 36 14 37 78 38 15 39 77 40 16 41 17 42 18 43 71 44
REMARK SMILES IDX 19 45 76 46 70 47 72 48 20 49 75 50 69 51 68 52 21 54 55 55
REMARK SMILES IDX 34 56 54 57 35 58 38 59 53 60 73 61 36 62 37 63 52 65 74 66
REMARK SMILES IDX 39 67 22 68 23 69 32 70 24 71 25 72 31 73 33 74 26 75 27 76
REMARK SMILES IDX 28 77 29 78 30 79 56 80 57 81 66 82 58 83 59 84 65 85 67 86
REMARK SMILES IDX 60 87 61 88 62 89 63 90 64 91 40 92 41 93 50 94 42 95 43 96
REMARK SMILES IDX 49 97 51 98 44 99 45 100 46 101 47 102 48 103
REMARK H PARENT 3 8 10 34 72 53 38 64
REMARK Flexibility Score: inf
ROOT
ATOM      1  C   UNL A   1      37.060  22.637  25.791  1.00  0.00     0.002 C 
ENDROOT
BRANCH   1   2
ATOM      2  C   UNL A   1      35.528  22.694  25.798  1.00  0.00     0.002 C 
BRANCH   2   3
ATOM      3  C   UNL A   1      34.820  22.635  27.154  1.00  0.00     0.021 C 
BRANCH   3   4
ATOM      4  C   UNL A   1      33.571  21.763  27.242  1.00  0.00     0.116 C 
BRANCH   4   5
ATOM      5  N   UNL A   1      32.346  22.474  27.559  1.00  0.00    -0.352 N 
ATOM      6  O   UNL A   1      30.647  23.919  27.245  1.00  0.00    -0.270 OA
ATOM      7  C   UNL A   1      31.629  23.344  26.783  1.00  0.00     0.251 C 
ATOM      8  H   UNL A   1      31.979  22.308  28.458  1.00  0.00     0.163 HD
BRANCH   7   9
ATOM      9  C   UNL A   1      32.014  23.601  25.379  1.00  0.00     0.067 C 
ATOM     10  C   UNL A   1      32.625  24.759  25.102  1.00  0.00     0.026 C 
ATOM     11  C   UNL A   1      31.375  22.842  24.260  1.00  0.00     0.314 C 
ATOM     12  C   UNL A   1      31.677  25.653  24.379  1.00  0.00     0.027 A 
ATOM     13  O   UNL A   1      30.554  23.709  23.407  1.00  0.00    -0.475 OA
ATOM     14  C   UNL A   1      30.677  25.069  23.582  1.00  0.00     0.128 A 
ATOM     15  C   UNL A   1      31.701  27.043  24.660  1.00  0.00     0.011 A 
ATOM     16  C   UNL A   1      29.677  25.872  23.050  1.00  0.00     0.049 A 
ATOM     17  C   UNL A   1      30.658  27.824  24.143  1.00  0.00     0.049 A 
ATOM     18  C   UNL A   1      29.658  27.241  23.344  1.00  0.00     0.025 A 
ATOM     19  Cl  UNL A   1      30.509  29.499  24.528  1.00  0.00    -0.084 Cl
BRANCH  11  20
ATOM     20  C   UNL A   1      32.415  22.069  23.415  1.00  0.00     0.429 C 
ATOM     21  F   UNL A   1      33.316  22.881  22.808  1.00  0.00    -0.167 F 
ATOM     22  F   UNL A   1      33.125  21.210  24.187  1.00  0.00    -0.167 F 
ATOM     23  F   UNL A   1      31.837  21.338  22.432  1.00  0.00    -0.167 F 
ENDBRANCH  11  20
BRANCH  15  24
ATOM     24  C   UNL A   1      32.758  27.521  25.575  1.00  0.00    -0.016 A 
ATOM     25  C   UNL A   1      33.935  28.075  25.046  1.00  0.00     0.009 A 
ATOM     26  C   UNL A   1      32.450  27.764  26.924  1.00  0.00     0.009 A 
ATOM     27  C   UNL A   1      34.714  28.951  25.804  1.00  0.00     0.001 A 
ATOM     28  C   UNL A   1      33.230  28.643  27.681  1.00  0.00     0.001 A 
ATOM     29  C   UNL A   1      34.343  29.257  27.110  1.00  0.00     0.000 A 
ENDBRANCH  15  24
ENDBRANCH   7   9
ENDBRANCH   4   5
ENDBRANCH   3   4
ENDBRANCH   2   3
ENDBRANCH   1   2
BRANCH   1  30
ATOM     30  C   UNL A   1      37.820  23.924  26.122  1.00  0.00     0.021 C 
BRANCH  30  31
ATOM     31  C   UNL A   1      39.246  23.761  26.642  1.00  0.00     0.116 C 
BRANCH  31  32
ATOM     32  N   UNL A   1      40.240  24.406  25.803  1.00  0.00    -0.352 N 
ATOM     33  C   UNL A   1      40.919  25.590  25.972  1.00  0.00     0.251 C 
ATOM     34  H   UNL A   1      40.465  23.916  24.980  1.00  0.00     0.163 HD
ATOM     35  O   UNL A   1      41.639  25.995  25.061  1.00  0.00    -0.269 OA
BRANCH  33  36
ATOM     36  C   UNL A   1      40.785  26.398  27.211  1.00  0.00     0.039 A 
ATOM     37  C   UNL A   1      41.589  27.535  27.355  1.00  0.00     0.014 A 
ATOM     38  C   UNL A   1      39.930  26.027  28.253  1.00  0.00     0.014 A 
ATOM     39  C   UNL A   1      41.501  28.321  28.509  1.00  0.00     0.010 A 
ATOM     40  C   UNL A   1      39.795  26.848  29.376  1.00  0.00     0.010 A 
ATOM     41  C   UNL A   1      40.583  28.000  29.521  1.00  0.00    -0.014 A 
BRANCH  41  42
ATOM     42  C   UNL A   1      40.447  28.849  30.736  1.00  0.00     0.031 A 
ATOM     43  C   UNL A   1      39.402  29.933  30.796  1.00  0.00     0.074 A 
ATOM     44  C   UNL A   1      41.297  28.682  31.769  1.00  0.00     0.049 A 
ATOM     45  N   UNL A   1      39.169  30.806  31.743  1.00  0.00    -0.248 NA
ATOM     46  C   UNL A   1      38.517  30.068  29.628  1.00  0.00     0.031 C 
ATOM     47  C   UNL A   1      42.377  27.694  31.825  1.00  0.00     0.029 A 
ATOM     48  N   UNL A   1      41.394  29.345  32.968  1.00  0.00    -0.354 N 
ATOM     49  C   UNL A   1      38.131  31.606  31.279  1.00  0.00     0.074 A 
ATOM     50  C   UNL A   1      37.807  31.139  29.947  1.00  0.00     0.031 C 
ATOM     51  C   UNL A   1      43.008  27.798  33.005  1.00  0.00     0.029 A 
ATOM     52  C   UNL A   1      42.407  28.883  33.776  1.00  0.00     0.049 A 
ATOM     53  H   UNL A   1      40.795  30.083  33.226  1.00  0.00     0.167 HD
ATOM     54  C   UNL A   1      37.495  32.625  31.907  1.00  0.00     0.037 A 
ATOM     55  C   UNL A   1      42.809  29.287  34.997  1.00  0.00     0.037 A 
ATOM     56  C   UNL A   1      37.795  33.063  33.246  1.00  0.00     0.049 A 
ATOM     57  C   UNL A   1      42.086  30.418  35.677  1.00  0.00     0.074 A 
ATOM     58  C   UNL A   1      37.155  34.034  33.998  1.00  0.00     0.029 A 
ATOM     59  N   UNL A   1      38.823  32.564  34.033  1.00  0.00    -0.354 N 
ATOM     60  N   UNL A   1      41.065  31.119  35.247  1.00  0.00    -0.248 NA
ATOM     61  C   UNL A   1      42.568  30.811  37.008  1.00  0.00     0.031 C 
ATOM     62  C   UNL A   1      37.822  34.152  35.222  1.00  0.00     0.029 A 
ATOM     63  C   UNL A   1      38.850  33.223  35.252  1.00  0.00     0.049 A 
ATOM     64  H   UNL A   1      39.441  31.846  33.765  1.00  0.00     0.167 HD
ATOM     65  C   UNL A   1      40.763  32.016  36.267  1.00  0.00     0.074 A 
ATOM     66  C   UNL A   1      41.707  31.764  37.337  1.00  0.00     0.031 C 
ATOM     67  C   UNL A   1      39.791  32.960  36.312  1.00  0.00     0.037 A 
BRANCH  54  68
ATOM     68  C   UNL A   1      36.411  33.343  31.151  1.00  0.00     0.058 A 
ATOM     69  C   UNL A   1      35.054  33.195  31.481  1.00  0.00     0.135 A 
ATOM     70  C   UNL A   1      36.735  34.215  30.098  1.00  0.00     0.135 A 
ATOM     71  F   UNL A   1      34.687  32.365  32.471  1.00  0.00    -0.206 F 
ATOM     72  C   UNL A   1      34.056  33.856  30.772  1.00  0.00     0.059 A 
ATOM     73  C   UNL A   1      35.754  34.908  29.393  1.00  0.00     0.059 A 
ATOM     74  F   UNL A   1      38.015  34.398  29.741  1.00  0.00    -0.206 F 
ATOM     75  C   UNL A   1      34.415  34.706  29.726  1.00  0.00     0.060 A 
BRANCH  75  76
ATOM     76  S   UNL A   1      33.111  35.549  28.806  1.00  0.00     0.124 S 
ATOM     77  O   UNL A   1      32.282  36.068  29.891  1.00  0.00    -0.237 OA
ATOM     78  O   UNL A   1      33.859  36.553  28.050  1.00  0.00    -0.237 OA
ATOM     79  O   UNL A   1      32.513  34.488  28.010  1.00  0.00    -0.744 OA
ENDBRANCH  75  76
ENDBRANCH  54  68
BRANCH  55  80
ATOM     80  C   UNL A   1      43.937  28.593  35.673  1.00  0.00     0.058 A 
ATOM     81  C   UNL A   1      43.699  27.515  36.540  1.00  0.00     0.135 A 
ATOM     82  C   UNL A   1      45.269  28.976  35.456  1.00  0.00     0.135 A 
ATOM     83  F   UNL A   1      42.442  27.118  36.786  1.00  0.00    -0.206 F 
ATOM     84  C   UNL A   1      44.741  26.849  37.178  1.00  0.00     0.059 A 
ATOM     85  C   UNL A   1      46.329  28.311  36.063  1.00  0.00     0.059 A 
ATOM     86  F   UNL A   1      45.550  29.992  34.625  1.00  0.00    -0.206 F 
ATOM     87  C   UNL A   1      46.055  27.253  36.930  1.00  0.00     0.060 A 
BRANCH  87  88
ATOM     88  S   UNL A   1      47.401  26.345  37.719  1.00  0.00     0.124 S 
ATOM     89  O   UNL A   1      47.761  27.243  38.810  1.00  0.00    -0.237 OA
ATOM     90  O   UNL A   1      46.748  25.099  38.105  1.00  0.00    -0.237 OA
ATOM     91  O   UNL A   1      48.390  26.220  36.652  1.00  0.00    -0.744 OA
ENDBRANCH  87  88
ENDBRANCH  55  80
BRANCH  67  92
ATOM     92  C   UNL A   1      39.672  33.772  37.572  1.00  0.00     0.058 A 
ATOM     93  C   UNL A   1      40.347  34.992  37.730  1.00  0.00     0.135 A 
ATOM     94  C   UNL A   1      38.831  33.349  38.614  1.00  0.00     0.135 A 
ATOM     95  F   UNL A   1      41.169  35.439  36.767  1.00  0.00    -0.206 F 
ATOM     96  C   UNL A   1      40.209  35.754  38.886  1.00  0.00     0.059 A 
ATOM     97  C   UNL A   1      38.658  34.106  39.768  1.00  0.00     0.059 A 
ATOM     98  F   UNL A   1      38.154  32.193  38.509  1.00  0.00    -0.206 F 
ATOM     99  C   UNL A   1      39.361  35.304  39.900  1.00  0.00     0.060 A 
BRANCH  99 100
ATOM    100  S   UNL A   1      39.161  36.318  41.379  1.00  0.00     0.124 S 
ATOM    101  O   UNL A   1      38.916  37.636  40.801  1.00  0.00    -0.237 OA
ATOM    102  O   UNL A   1      38.018  35.692  42.037  1.00  0.00    -0.237 OA
ATOM    103  O   UNL A   1      40.437  36.164  42.072  1.00  0.00    -0.744 OA
ENDBRANCH  99 100
ENDBRANCH  67  92
ENDBRANCH  41  42
ENDBRANCH  33  36
ENDBRANCH  31  32
ENDBRANCH  30  31
ENDBRANCH   1  30
TORSDOF 18
ENDMDL
