MODEL 1
REMARK VINA RESULT:     -14.0      0.000      0.000
REMARK SMILES COc1ccc(-c2cc(Cl)cc3c2O[C@@H](C(F)(F)F)C(C(=O)NCCCCCCNC(=O)c2ccc(-c4c5nc(c(-c6c(F)cc(S(=O)(=O)[O-])cc6F)c6ccc([nH]6)c(-c6c(F)cc(S(=O)(=O)[O-])cc6F)c6nc(c(-c7c(F)cc(S(=O)(=O)[O-])cc7F)c7ccc4[nH]7)C=C6)C=C5)cc2)=C3)cc1C
REMARK SMILES IDX 27 1 26 2 25 3 24 4 23 5 21 6 22 7 20 9 7 10 8 11 13 12 9 13
REMARK SMILES IDX 12 14 14 15 10 16 11 17 99 18 15 19 6 20 3 21 4 22 101 23
REMARK SMILES IDX 5 24 100 25 102 26 2 27 1 28 16 29 17 30 18 31 19 32 28 33
REMARK SMILES IDX 29 34 30 35 31 36 32 38 33 39 34 40 98 41 35 42 97 43 36 44
REMARK SMILES IDX 37 45 38 46 91 47 39 48 96 49 90 50 92 51 40 52 95 53 89 54
REMARK SMILES IDX 88 55 41 57 75 58 54 59 74 60 55 61 58 62 73 63 93 64 56 65
REMARK SMILES IDX 57 66 72 68 94 69 59 70 42 71 43 72 52 73 44 74 45 75 51 76
REMARK SMILES IDX 53 77 46 78 47 79 48 80 49 81 50 82 76 83 77 84 86 85 78 86
REMARK SMILES IDX 79 87 85 88 87 89 80 90 81 91 82 92 83 93 84 94 60 95 61 96
REMARK SMILES IDX 70 97 62 98 63 99 69 100 71 101 64 102 65 103 66 104 67 105
REMARK SMILES IDX 68 106
REMARK H PARENT 23 8 30 37 92 56 58 67
REMARK Flexibility Score: inf
ROOT
ATOM      1  C   UNL A   1      31.971  27.978  27.215  1.00  0.00     0.002 C 
ENDROOT
BRANCH   1   2
ATOM      2  C   UNL A   1      31.357  27.545  25.884  1.00  0.00     0.002 C 
BRANCH   2   3
ATOM      3  C   UNL A   1      30.356  26.395  25.876  1.00  0.00     0.021 C 
BRANCH   3   4
ATOM      4  C   UNL A   1      30.581  25.160  25.005  1.00  0.00     0.116 C 
BRANCH   4   5
ATOM      5  N   UNL A   1      31.325  24.038  25.533  1.00  0.00    -0.352 N 
ATOM      6  C   UNL A   1      32.617  23.938  25.987  1.00  0.00     0.251 C 
ATOM      7  O   UNL A   1      32.858  22.994  26.748  1.00  0.00    -0.270 OA
ATOM      8  H   UNL A   1      30.815  23.197  25.575  1.00  0.00     0.163 HD
BRANCH   6   9
ATOM      9  C   UNL A   1      33.775  24.862  25.565  1.00  0.00     0.067 C 
ATOM     10  C   UNL A   1      35.553  21.465  24.437  1.00  0.00     0.026 A 
ATOM     11  C   UNL A   1      36.921  21.241  24.689  1.00  0.00     0.033 A 
ATOM     12  C   UNL A   1      35.117  22.769  24.661  1.00  0.00     0.135 A 
ATOM     13  C   UNL A   1      37.653  22.142  25.472  1.00  0.00     0.042 A 
ATOM     14  C   UNL A   1      35.709  23.525  25.705  1.00  0.00     0.019 A 
ATOM     15  O   UNL A   1      34.221  23.398  23.764  1.00  0.00    -0.475 OA
ATOM     16  Cl  UNL A   1      39.299  21.803  25.838  1.00  0.00    -0.084 Cl
ATOM     17  C   UNL A   1      37.019  23.234  26.069  1.00  0.00     0.032 A 
ATOM     18  C   UNL A   1      34.897  24.645  26.307  1.00  0.00     0.025 C 
ATOM     19  C   UNL A   1      34.183  24.824  24.104  1.00  0.00     0.314 C 
BRANCH  10  20
ATOM     20  C   UNL A   1      34.673  20.327  24.842  1.00  0.00    -0.014 A 
ATOM     21  C   UNL A   1      32.954  18.098  25.189  1.00  0.00     0.121 A 
ATOM     22  C   UNL A   1      32.682  19.336  25.795  1.00  0.00     0.047 A 
ATOM     23  C   UNL A   1      34.099  17.944  24.408  1.00  0.00    -0.008 A 
ATOM     24  C   UNL A   1      33.532  20.445  25.627  1.00  0.00     0.013 A 
ATOM     25  C   UNL A   1      34.959  19.050  24.287  1.00  0.00     0.016 A 
ATOM     26  C   UNL A   1      34.437  16.693  23.650  1.00  0.00     0.048 C 
BRANCH  21  27
ATOM     27  O   UNL A   1      31.971  17.150  25.311  1.00  0.00    -0.496 OA
ATOM     28  C   UNL A   1      32.387  15.944  25.948  1.00  0.00     0.278 C 
ENDBRANCH  21  27
ENDBRANCH  10  20
BRANCH  19  29
ATOM     29  C   UNL A   1      33.568  25.920  23.212  1.00  0.00     0.429 C 
ATOM     30  F   UNL A   1      33.292  27.022  23.966  1.00  0.00    -0.167 F 
ATOM     31  F   UNL A   1      34.394  26.320  22.226  1.00  0.00    -0.167 F 
ATOM     32  F   UNL A   1      32.384  25.562  22.662  1.00  0.00    -0.167 F 
ENDBRANCH  19  29
ENDBRANCH   6   9
ENDBRANCH   4   5
ENDBRANCH   3   4
ENDBRANCH   2   3
ENDBRANCH   1   2
BRANCH   1  33
ATOM     33  C   UNL A   1      32.708  29.313  27.242  1.00  0.00     0.021 C 
BRANCH  33  34
ATOM     34  C   UNL A   1      34.201  29.247  26.945  1.00  0.00     0.116 C 
BRANCH  34  35
ATOM     35  N   UNL A   1      34.872  30.519  27.145  1.00  0.00    -0.352 N 
ATOM     36  C   UNL A   1      36.056  30.789  27.818  1.00  0.00     0.251 C 
ATOM     37  H   UNL A   1      34.425  31.301  26.747  1.00  0.00     0.163 HD
ATOM     38  O   UNL A   1      36.341  31.915  28.156  1.00  0.00    -0.269 OA
BRANCH  36  39
ATOM     39  C   UNL A   1      37.018  29.674  27.998  1.00  0.00     0.039 A 
ATOM     40  C   UNL A   1      36.973  28.978  29.213  1.00  0.00     0.014 A 
ATOM     41  C   UNL A   1      38.057  29.461  27.101  1.00  0.00     0.014 A 
ATOM     42  C   UNL A   1      38.069  28.216  29.616  1.00  0.00     0.010 A 
ATOM     43  C   UNL A   1      39.175  28.777  27.534  1.00  0.00     0.010 A 
ATOM     44  C   UNL A   1      39.202  28.192  28.810  1.00  0.00    -0.014 A 
BRANCH  44  45
ATOM     45  C   UNL A   1      40.500  27.646  29.192  1.00  0.00     0.031 A 
ATOM     46  C   UNL A   1      40.860  26.265  28.801  1.00  0.00     0.074 A 
ATOM     47  C   UNL A   1      41.458  28.480  29.654  1.00  0.00     0.049 A 
ATOM     48  N   UNL A   1      41.993  25.706  29.052  1.00  0.00    -0.248 NA
ATOM     49  C   UNL A   1      39.917  25.366  28.140  1.00  0.00     0.031 C 
ATOM     50  C   UNL A   1      42.904  28.303  29.555  1.00  0.00     0.029 A 
ATOM     51  N   UNL A   1      41.302  29.559  30.525  1.00  0.00    -0.354 N 
ATOM     52  C   UNL A   1      42.047  24.518  28.364  1.00  0.00     0.074 A 
ATOM     53  C   UNL A   1      40.692  24.299  27.924  1.00  0.00     0.031 C 
ATOM     54  C   UNL A   1      43.504  29.059  30.484  1.00  0.00     0.029 A 
ATOM     55  C   UNL A   1      42.461  29.600  31.334  1.00  0.00     0.049 A 
ATOM     56  H   UNL A   1      40.534  30.174  30.567  1.00  0.00     0.167 HD
ATOM     57  C   UNL A   1      43.266  23.936  28.166  1.00  0.00     0.037 A 
ATOM     58  C   UNL A   1      42.375  29.380  32.682  1.00  0.00     0.037 A 
ATOM     59  C   UNL A   1      44.267  24.519  29.069  1.00  0.00     0.049 A 
ATOM     60  C   UNL A   1      43.105  28.147  33.184  1.00  0.00     0.074 A 
ATOM     61  C   UNL A   1      45.354  25.368  28.946  1.00  0.00     0.029 A 
ATOM     62  N   UNL A   1      44.051  24.384  30.431  1.00  0.00    -0.354 N 
ATOM     63  N   UNL A   1      43.786  27.327  32.430  1.00  0.00    -0.248 NA
ATOM     64  C   UNL A   1      43.060  27.702  34.579  1.00  0.00     0.031 C 
ATOM     65  C   UNL A   1      45.761  25.762  30.261  1.00  0.00     0.029 A 
ATOM     66  C   UNL A   1      44.932  25.138  31.176  1.00  0.00     0.049 A 
ATOM     67  H   UNL A   1      43.350  23.815  30.821  1.00  0.00     0.167 HD
ATOM     68  C   UNL A   1      44.172  26.240  33.170  1.00  0.00     0.074 A 
ATOM     69  C   UNL A   1      43.725  26.535  34.518  1.00  0.00     0.031 C 
ATOM     70  C   UNL A   1      44.774  25.143  32.622  1.00  0.00     0.037 A 
BRANCH  57  71
ATOM     71  C   UNL A   1      43.613  22.928  27.078  1.00  0.00     0.058 A 
ATOM     72  C   UNL A   1      42.986  21.659  27.059  1.00  0.00     0.135 A 
ATOM     73  C   UNL A   1      44.621  23.079  26.100  1.00  0.00     0.135 A 
ATOM     74  F   UNL A   1      41.998  21.355  27.913  1.00  0.00    -0.206 F 
ATOM     75  C   UNL A   1      43.361  20.626  26.189  1.00  0.00     0.059 A 
ATOM     76  C   UNL A   1      44.993  22.075  25.204  1.00  0.00     0.059 A 
ATOM     77  F   UNL A   1      45.343  24.192  25.970  1.00  0.00    -0.206 F 
ATOM     78  C   UNL A   1      44.379  20.840  25.272  1.00  0.00     0.060 A 
BRANCH  78  79
ATOM     79  S   UNL A   1      44.918  19.496  24.202  1.00  0.00     0.124 S 
ATOM     80  O   UNL A   1      46.360  19.494  24.426  1.00  0.00    -0.237 OA
ATOM     81  O   UNL A   1      44.187  18.355  24.741  1.00  0.00    -0.237 OA
ATOM     82  O   UNL A   1      44.499  19.930  22.872  1.00  0.00    -0.744 OA
ENDBRANCH  78  79
ENDBRANCH  57  71
BRANCH  58  83
ATOM     83  C   UNL A   1      41.120  29.940  33.257  1.00  0.00     0.058 A 
ATOM     84  C   UNL A   1      41.059  31.337  33.425  1.00  0.00     0.135 A 
ATOM     85  C   UNL A   1      39.910  29.240  33.147  1.00  0.00     0.135 A 
ATOM     86  F   UNL A   1      42.192  32.048  33.556  1.00  0.00    -0.206 F 
ATOM     87  C   UNL A   1      39.866  32.033  33.278  1.00  0.00     0.059 A 
ATOM     88  C   UNL A   1      38.699  29.918  33.017  1.00  0.00     0.059 A 
ATOM     89  F   UNL A   1      39.911  27.907  32.998  1.00  0.00    -0.206 F 
ATOM     90  C   UNL A   1      38.706  31.314  32.995  1.00  0.00     0.060 A 
BRANCH  90  91
ATOM     91  S   UNL A   1      37.279  32.236  32.378  1.00  0.00     0.124 S 
ATOM     92  O   UNL A   1      36.769  32.861  33.594  1.00  0.00    -0.237 OA
ATOM     93  O   UNL A   1      37.910  33.139  31.418  1.00  0.00    -0.237 OA
ATOM     94  O   UNL A   1      36.434  31.197  31.800  1.00  0.00    -0.744 OA
ENDBRANCH  90  91
ENDBRANCH  58  83
BRANCH  70  95
ATOM     95  C   UNL A   1      45.211  23.950  33.427  1.00  0.00     0.058 A 
ATOM     96  C   UNL A   1      44.307  22.961  33.851  1.00  0.00     0.135 A 
ATOM     97  C   UNL A   1      46.535  23.826  33.903  1.00  0.00     0.135 A 
ATOM     98  F   UNL A   1      43.016  23.013  33.485  1.00  0.00    -0.206 F 
ATOM     99  C   UNL A   1      44.698  21.902  34.672  1.00  0.00     0.059 A 
ATOM    100  C   UNL A   1      46.935  22.807  34.761  1.00  0.00     0.059 A 
ATOM    101  F   UNL A   1      47.494  24.682  33.522  1.00  0.00    -0.206 F 
ATOM    102  C   UNL A   1      46.014  21.835  35.126  1.00  0.00     0.060 A 
BRANCH 102 103
ATOM    103  S   UNL A   1      46.516  20.488  36.215  1.00  0.00     0.124 S 
ATOM    104  O   UNL A   1      47.937  20.753  36.419  1.00  0.00    -0.237 OA
ATOM    105  O   UNL A   1      45.659  20.718  37.374  1.00  0.00    -0.237 OA
ATOM    106  O   UNL A   1      46.213  19.292  35.436  1.00  0.00    -0.744 OA
ENDBRANCH 102 103
ENDBRANCH  70  95
ENDBRANCH  44  45
ENDBRANCH  36  39
ENDBRANCH  34  35
ENDBRANCH  33  34
ENDBRANCH   1  33
TORSDOF 19
ENDMDL
MODEL 2
REMARK VINA RESULT:     -13.9      4.481     10.928
REMARK SMILES COc1ccc(-c2cc(Cl)cc3c2O[C@@H](C(F)(F)F)C(C(=O)NCCCCCCNC(=O)c2ccc(-c4c5nc(c(-c6c(F)cc(S(=O)(=O)[O-])cc6F)c6ccc([nH]6)c(-c6c(F)cc(S(=O)(=O)[O-])cc6F)c6nc(c(-c7c(F)cc(S(=O)(=O)[O-])cc7F)c7ccc4[nH]7)C=C6)C=C5)cc2)=C3)cc1C
REMARK SMILES IDX 27 1 26 2 25 3 24 4 23 5 21 6 22 7 20 9 7 10 8 11 13 12 9 13
REMARK SMILES IDX 12 14 14 15 10 16 11 17 99 18 15 19 6 20 3 21 4 22 101 23
REMARK SMILES IDX 5 24 100 25 102 26 2 27 1 28 16 29 17 30 18 31 19 32 28 33
REMARK SMILES IDX 29 34 30 35 31 36 32 38 33 39 34 40 98 41 35 42 97 43 36 44
REMARK SMILES IDX 37 45 38 46 91 47 39 48 96 49 90 50 92 51 40 52 95 53 89 54
REMARK SMILES IDX 88 55 41 57 75 58 54 59 74 60 55 61 58 62 73 63 93 64 56 65
REMARK SMILES IDX 57 66 72 68 94 69 59 70 42 71 43 72 52 73 44 74 45 75 51 76
REMARK SMILES IDX 53 77 46 78 47 79 48 80 49 81 50 82 76 83 77 84 86 85 78 86
REMARK SMILES IDX 79 87 85 88 87 89 80 90 81 91 82 92 83 93 84 94 60 95 61 96
REMARK SMILES IDX 70 97 62 98 63 99 69 100 71 101 64 102 65 103 66 104 67 105
REMARK SMILES IDX 68 106
REMARK H PARENT 23 8 30 37 92 56 58 67
REMARK Flexibility Score: inf
ROOT
ATOM      1  C   UNL A   1      35.255  21.456  26.110  1.00  0.00     0.002 C 
ENDROOT
BRANCH   1   2
ATOM      2  C   UNL A   1      34.606  22.569  26.933  1.00  0.00     0.002 C 
BRANCH   2   3
ATOM      3  C   UNL A   1      33.238  22.319  27.558  1.00  0.00     0.021 C 
BRANCH   3   4
ATOM      4  C   UNL A   1      31.971  22.913  26.947  1.00  0.00     0.116 C 
BRANCH   4   5
ATOM      5  N   UNL A   1      31.775  24.346  26.957  1.00  0.00    -0.352 N 
ATOM      6  C   UNL A   1      31.014  25.163  26.159  1.00  0.00     0.251 C 
ATOM      7  O   UNL A   1      30.711  26.264  26.635  1.00  0.00    -0.270 OA
ATOM      8  H   UNL A   1      32.277  24.818  27.660  1.00  0.00     0.163 HD
BRANCH   6   9
ATOM      9  C   UNL A   1      30.581  24.837  24.718  1.00  0.00     0.067 C 
ATOM     10  C   UNL A   1      32.182  28.394  23.849  1.00  0.00     0.026 A 
ATOM     11  C   UNL A   1      31.545  29.281  22.958  1.00  0.00     0.033 A 
ATOM     12  C   UNL A   1      31.652  27.107  23.881  1.00  0.00     0.135 A 
ATOM     13  C   UNL A   1      30.264  28.996  22.471  1.00  0.00     0.042 A 
ATOM     14  C   UNL A   1      30.258  26.928  23.685  1.00  0.00     0.019 A 
ATOM     15  O   UNL A   1      32.499  25.974  23.936  1.00  0.00    -0.475 OA
ATOM     16  Cl  UNL A   1      29.473  30.134  21.453  1.00  0.00    -0.084 Cl
ATOM     17  C   UNL A   1      29.575  27.866  22.918  1.00  0.00     0.032 A 
ATOM     18  C   UNL A   1      29.621  25.691  24.267  1.00  0.00     0.025 C 
ATOM     19  C   UNL A   1      31.676  24.791  23.668  1.00  0.00     0.314 C 
BRANCH  10  20
ATOM     20  C   UNL A   1      32.608  29.035  25.131  1.00  0.00    -0.014 A 
ATOM     21  C   UNL A   1      33.428  30.617  27.338  1.00  0.00     0.121 A 
ATOM     22  C   UNL A   1      34.141  29.469  26.952  1.00  0.00     0.047 A 
ATOM     23  C   UNL A   1      32.281  30.990  26.636  1.00  0.00    -0.008 A 
ATOM     24  C   UNL A   1      33.738  28.680  25.858  1.00  0.00     0.013 A 
ATOM     25  C   UNL A   1      31.870  30.165  25.575  1.00  0.00     0.016 A 
ATOM     26  C   UNL A   1      31.497  32.240  26.912  1.00  0.00     0.048 C 
BRANCH  21  27
ATOM     27  O   UNL A   1      34.010  31.374  28.321  1.00  0.00    -0.496 OA
ATOM     28  C   UNL A   1      35.131  32.142  27.892  1.00  0.00     0.278 C 
ENDBRANCH  21  27
ENDBRANCH  10  20
BRANCH  19  29
ATOM     29  C   UNL A   1      32.235  23.391  23.349  1.00  0.00     0.429 C 
ATOM     30  F   UNL A   1      33.365  23.172  24.078  1.00  0.00    -0.167 F 
ATOM     31  F   UNL A   1      31.375  22.400  23.656  1.00  0.00    -0.167 F 
ATOM     32  F   UNL A   1      32.614  23.246  22.057  1.00  0.00    -0.167 F 
ENDBRANCH  19  29
ENDBRANCH   6   9
ENDBRANCH   4   5
ENDBRANCH   3   4
ENDBRANCH   2   3
ENDBRANCH   1   2
BRANCH   1  33
ATOM     33  C   UNL A   1      36.327  21.866  25.106  1.00  0.00     0.021 C 
BRANCH  33  34
ATOM     34  C   UNL A   1      37.362  22.861  25.617  1.00  0.00     0.116 C 
BRANCH  34  35
ATOM     35  N   UNL A   1      38.471  22.220  26.302  1.00  0.00    -0.352 N 
ATOM     36  C   UNL A   1      39.636  22.785  26.802  1.00  0.00     0.251 C 
ATOM     37  H   UNL A   1      38.384  21.248  26.430  1.00  0.00     0.163 HD
ATOM     38  O   UNL A   1      40.593  22.100  27.081  1.00  0.00    -0.269 OA
BRANCH  36  39
ATOM     39  C   UNL A   1      39.626  24.238  27.102  1.00  0.00     0.039 A 
ATOM     40  C   UNL A   1      40.208  25.092  26.156  1.00  0.00     0.014 A 
ATOM     41  C   UNL A   1      39.254  24.717  28.352  1.00  0.00     0.014 A 
ATOM     42  C   UNL A   1      40.596  26.378  26.530  1.00  0.00     0.010 A 
ATOM     43  C   UNL A   1      39.713  25.957  28.747  1.00  0.00     0.010 A 
ATOM     44  C   UNL A   1      40.426  26.772  27.852  1.00  0.00    -0.014 A 
BRANCH  44  45
ATOM     45  C   UNL A   1      40.986  27.977  28.455  1.00  0.00     0.031 A 
ATOM     46  C   UNL A   1      40.113  29.147  28.705  1.00  0.00     0.074 A 
ATOM     47  C   UNL A   1      42.211  27.925  29.022  1.00  0.00     0.049 A 
ATOM     48  N   UNL A   1      40.500  30.240  29.268  1.00  0.00    -0.248 NA
ATOM     49  C   UNL A   1      38.722  29.196  28.264  1.00  0.00     0.031 C 
ATOM     50  C   UNL A   1      42.711  28.751  30.117  1.00  0.00     0.029 A 
ATOM     51  N   UNL A   1      43.340  27.254  28.553  1.00  0.00    -0.354 N 
ATOM     52  C   UNL A   1      39.388  31.006  29.523  1.00  0.00     0.074 A 
ATOM     53  C   UNL A   1      38.337  30.373  28.767  1.00  0.00     0.031 C 
ATOM     54  C   UNL A   1      44.050  28.734  30.104  1.00  0.00     0.029 A 
ATOM     55  C   UNL A   1      44.457  28.052  28.890  1.00  0.00     0.049 A 
ATOM     56  H   UNL A   1      43.357  26.390  28.080  1.00  0.00     0.167 HD
ATOM     57  C   UNL A   1      39.491  32.017  30.435  1.00  0.00     0.037 A 
ATOM     58  C   UNL A   1      45.227  28.618  27.911  1.00  0.00     0.037 A 
ATOM     59  C   UNL A   1      40.902  32.329  30.700  1.00  0.00     0.049 A 
ATOM     60  C   UNL A   1      45.226  30.136  27.884  1.00  0.00     0.074 A 
ATOM     61  C   UNL A   1      41.791  32.141  31.745  1.00  0.00     0.029 A 
ATOM     62  N   UNL A   1      41.669  32.766  29.633  1.00  0.00    -0.354 N 
ATOM     63  N   UNL A   1      44.564  30.895  28.714  1.00  0.00    -0.248 NA
ATOM     64  C   UNL A   1      45.923  30.920  26.860  1.00  0.00     0.031 C 
ATOM     65  C   UNL A   1      43.106  32.443  31.270  1.00  0.00     0.029 A 
ATOM     66  C   UNL A   1      43.010  32.830  29.946  1.00  0.00     0.049 A 
ATOM     67  H   UNL A   1      41.298  33.004  28.753  1.00  0.00     0.167 HD
ATOM     68  C   UNL A   1      44.649  32.201  28.307  1.00  0.00     0.074 A 
ATOM     69  C   UNL A   1      45.539  32.172  27.162  1.00  0.00     0.031 C 
ATOM     70  C   UNL A   1      43.939  33.210  28.892  1.00  0.00     0.037 A 
BRANCH  57  71
ATOM     71  C   UNL A   1      38.339  32.656  31.199  1.00  0.00     0.058 A 
ATOM     72  C   UNL A   1      37.458  31.850  31.961  1.00  0.00     0.135 A 
ATOM     73  C   UNL A   1      37.962  34.016  31.144  1.00  0.00     0.135 A 
ATOM     74  F   UNL A   1      37.678  30.538  32.126  1.00  0.00    -0.206 F 
ATOM     75  C   UNL A   1      36.292  32.340  32.563  1.00  0.00     0.059 A 
ATOM     76  C   UNL A   1      36.819  34.533  31.758  1.00  0.00     0.059 A 
ATOM     77  F   UNL A   1      38.648  34.931  30.458  1.00  0.00    -0.206 F 
ATOM     78  C   UNL A   1      35.972  33.684  32.443  1.00  0.00     0.060 A 
BRANCH  78  79
ATOM     79  S   UNL A   1      34.436  34.307  33.148  1.00  0.00     0.124 S 
ATOM     80  O   UNL A   1      34.042  35.313  32.168  1.00  0.00    -0.237 OA
ATOM     81  O   UNL A   1      33.609  33.108  33.201  1.00  0.00    -0.237 OA
ATOM     82  O   UNL A   1      34.847  34.836  34.446  1.00  0.00    -0.744 OA
ENDBRANCH  78  79
ENDBRANCH  57  71
BRANCH  58  83
ATOM     83  C   UNL A   1      45.357  27.729  26.723  1.00  0.00     0.058 A 
ATOM     84  C   UNL A   1      46.351  26.733  26.773  1.00  0.00     0.135 A 
ATOM     85  C   UNL A   1      44.269  27.525  25.861  1.00  0.00     0.135 A 
ATOM     86  F   UNL A   1      47.423  26.893  27.568  1.00  0.00    -0.206 F 
ATOM     87  C   UNL A   1      46.173  25.499  26.160  1.00  0.00     0.059 A 
ATOM     88  C   UNL A   1      44.080  26.302  25.221  1.00  0.00     0.059 A 
ATOM     89  F   UNL A   1      43.300  28.448  25.766  1.00  0.00    -0.206 F 
ATOM     90  C   UNL A   1      44.994  25.271  25.452  1.00  0.00     0.060 A 
BRANCH  90  91
ATOM     91  S   UNL A   1      44.579  23.559  25.046  1.00  0.00     0.124 S 
ATOM     92  O   UNL A   1      45.005  22.848  26.246  1.00  0.00    -0.237 OA
ATOM     93  O   UNL A   1      43.135  23.652  24.843  1.00  0.00    -0.237 OA
ATOM     94  O   UNL A   1      45.366  23.300  23.845  1.00  0.00    -0.744 OA
ENDBRANCH  90  91
ENDBRANCH  58  83
BRANCH  70  95
ATOM     95  C   UNL A   1      44.034  34.648  28.461  1.00  0.00     0.058 A 
ATOM     96  C   UNL A   1      44.521  35.654  29.311  1.00  0.00     0.135 A 
ATOM     97  C   UNL A   1      43.521  35.080  27.217  1.00  0.00     0.135 A 
ATOM     98  F   UNL A   1      44.991  35.349  30.531  1.00  0.00    -0.206 F 
ATOM     99  C   UNL A   1      44.525  37.001  28.941  1.00  0.00     0.059 A 
ATOM    100  C   UNL A   1      43.471  36.420  26.847  1.00  0.00     0.059 A 
ATOM    101  F   UNL A   1      43.079  34.203  26.304  1.00  0.00    -0.206 F 
ATOM    102  C   UNL A   1      43.994  37.375  27.708  1.00  0.00     0.060 A 
BRANCH 102 103
ATOM    103  S   UNL A   1      43.965  39.116  27.240  1.00  0.00     0.124 S 
ATOM    104  O   UNL A   1      42.665  39.252  26.589  1.00  0.00    -0.237 OA
ATOM    105  O   UNL A   1      44.091  39.768  28.540  1.00  0.00    -0.237 OA
ATOM    106  O   UNL A   1      45.118  39.247  26.354  1.00  0.00    -0.744 OA
ENDBRANCH 102 103
ENDBRANCH  70  95
ENDBRANCH  44  45
ENDBRANCH  36  39
ENDBRANCH  34  35
ENDBRANCH  33  34
ENDBRANCH   1  33
TORSDOF 19
ENDMDL
MODEL 3
REMARK VINA RESULT:     -13.7      2.059      3.278
REMARK SMILES COc1ccc(-c2cc(Cl)cc3c2O[C@@H](C(F)(F)F)C(C(=O)NCCCCCCNC(=O)c2ccc(-c4c5nc(c(-c6c(F)cc(S(=O)(=O)[O-])cc6F)c6ccc([nH]6)c(-c6c(F)cc(S(=O)(=O)[O-])cc6F)c6nc(c(-c7c(F)cc(S(=O)(=O)[O-])cc7F)c7ccc4[nH]7)C=C6)C=C5)cc2)=C3)cc1C
REMARK SMILES IDX 27 1 26 2 25 3 24 4 23 5 21 6 22 7 20 9 7 10 8 11 13 12 9 13
REMARK SMILES IDX 12 14 14 15 10 16 11 17 99 18 15 19 6 20 3 21 4 22 101 23
REMARK SMILES IDX 5 24 100 25 102 26 2 27 1 28 16 29 17 30 18 31 19 32 28 33
REMARK SMILES IDX 29 34 30 35 31 36 32 38 33 39 34 40 98 41 35 42 97 43 36 44
REMARK SMILES IDX 37 45 38 46 91 47 39 48 96 49 90 50 92 51 40 52 95 53 89 54
REMARK SMILES IDX 88 55 41 57 75 58 54 59 74 60 55 61 58 62 73 63 93 64 56 65
REMARK SMILES IDX 57 66 72 68 94 69 59 70 42 71 43 72 52 73 44 74 45 75 51 76
REMARK SMILES IDX 53 77 46 78 47 79 48 80 49 81 50 82 76 83 77 84 86 85 78 86
REMARK SMILES IDX 79 87 85 88 87 89 80 90 81 91 82 92 83 93 84 94 60 95 61 96
REMARK SMILES IDX 70 97 62 98 63 99 69 100 71 101 64 102 65 103 66 104 67 105
REMARK SMILES IDX 68 106
REMARK H PARENT 23 8 30 37 92 56 58 67
REMARK Flexibility Score: inf
ROOT
ATOM      1  C   UNL A   1      31.690  29.626  25.205  1.00  0.00     0.002 C 
ENDROOT
BRANCH   1   2
ATOM      2  C   UNL A   1      32.984  29.363  24.437  1.00  0.00     0.002 C 
BRANCH   2   3
ATOM      3  C   UNL A   1      33.142  28.040  23.693  1.00  0.00     0.021 C 
BRANCH   3   4
ATOM      4  C   UNL A   1      33.485  26.753  24.439  1.00  0.00     0.116 C 
BRANCH   4   5
ATOM      5  N   UNL A   1      34.025  25.626  23.710  1.00  0.00    -0.352 N 
ATOM      6  C   UNL A   1      33.411  24.566  23.092  1.00  0.00     0.251 C 
ATOM      7  O   UNL A   1      34.065  23.991  22.214  1.00  0.00    -0.270 OA
ATOM      8  H   UNL A   1      35.008  25.618  23.648  1.00  0.00     0.163 HD
BRANCH   6   9
ATOM      9  C   UNL A   1      32.020  24.015  23.457  1.00  0.00     0.067 C 
ATOM     10  C   UNL A   1      34.038  21.714  26.026  1.00  0.00     0.026 A 
ATOM     11  C   UNL A   1      33.707  20.355  26.200  1.00  0.00     0.033 A 
ATOM     12  C   UNL A   1      33.117  22.456  25.291  1.00  0.00     0.135 A 
ATOM     13  C   UNL A   1      32.761  19.745  25.368  1.00  0.00     0.042 A 
ATOM     14  C   UNL A   1      32.410  21.827  24.233  1.00  0.00     0.019 A 
ATOM     15  O   UNL A   1      32.758  23.766  25.687  1.00  0.00    -0.475 OA
ATOM     16  Cl  UNL A   1      32.438  18.065  25.544  1.00  0.00    -0.084 Cl
ATOM     17  C   UNL A   1      32.186  20.457  24.313  1.00  0.00     0.032 A 
ATOM     18  C   UNL A   1      31.886  22.702  23.121  1.00  0.00     0.025 C 
ATOM     19  C   UNL A   1      31.584  24.161  24.902  1.00  0.00     0.314 C 
BRANCH  10  20
ATOM     20  C   UNL A   1      35.497  21.954  25.813  1.00  0.00    -0.014 A 
ATOM     21  C   UNL A   1      38.328  22.072  25.669  1.00  0.00     0.121 A 
ATOM     22  C   UNL A   1      37.565  23.189  26.050  1.00  0.00     0.047 A 
ATOM     23  C   UNL A   1      37.690  20.876  25.338  1.00  0.00    -0.008 A 
ATOM     24  C   UNL A   1      36.161  23.136  26.123  1.00  0.00     0.013 A 
ATOM     25  C   UNL A   1      36.285  20.856  25.374  1.00  0.00     0.016 A 
ATOM     26  C   UNL A   1      38.412  19.604  25.000  1.00  0.00     0.048 C 
BRANCH  21  27
ATOM     27  O   UNL A   1      39.686  22.214  25.784  1.00  0.00    -0.496 OA
ATOM     28  C   UNL A   1      40.168  22.240  27.125  1.00  0.00     0.278 C 
ENDBRANCH  21  27
ENDBRANCH  10  20
BRANCH  19  29
ATOM     29  C   UNL A   1      30.696  25.382  25.211  1.00  0.00     0.429 C 
ATOM     30  F   UNL A   1      30.476  26.089  24.067  1.00  0.00    -0.167 F 
ATOM     31  F   UNL A   1      29.486  25.042  25.697  1.00  0.00    -0.167 F 
ATOM     32  F   UNL A   1      31.270  26.261  26.066  1.00  0.00    -0.167 F 
ENDBRANCH  19  29
ENDBRANCH   6   9
ENDBRANCH   4   5
ENDBRANCH   3   4
ENDBRANCH   2   3
ENDBRANCH   1   2
BRANCH   1  33
ATOM     33  C   UNL A   1      31.810  29.892  26.702  1.00  0.00     0.021 C 
BRANCH  33  34
ATOM     34  C   UNL A   1      33.227  29.884  27.262  1.00  0.00     0.116 C 
BRANCH  34  35
ATOM     35  N   UNL A   1      33.761  31.219  27.465  1.00  0.00    -0.352 N 
ATOM     36  C   UNL A   1      34.890  31.612  28.170  1.00  0.00     0.251 C 
ATOM     37  H   UNL A   1      33.250  31.948  27.045  1.00  0.00     0.163 HD
ATOM     38  O   UNL A   1      35.050  32.764  28.502  1.00  0.00    -0.269 OA
BRANCH  36  39
ATOM     39  C   UNL A   1      35.952  30.601  28.393  1.00  0.00     0.039 A 
ATOM     40  C   UNL A   1      35.936  29.911  29.612  1.00  0.00     0.014 A 
ATOM     41  C   UNL A   1      37.038  30.489  27.533  1.00  0.00     0.014 A 
ATOM     42  C   UNL A   1      37.089  29.265  30.059  1.00  0.00     0.010 A 
ATOM     43  C   UNL A   1      38.204  29.924  28.011  1.00  0.00     0.010 A 
ATOM     44  C   UNL A   1      38.245  29.352  29.292  1.00  0.00    -0.014 A 
BRANCH  44  45
ATOM     45  C   UNL A   1      39.578  28.942  29.723  1.00  0.00     0.031 A 
ATOM     46  C   UNL A   1      40.134  27.651  29.260  1.00  0.00     0.074 A 
ATOM     47  C   UNL A   1      40.392  29.849  30.308  1.00  0.00     0.049 A 
ATOM     48  N   UNL A   1      41.313  27.218  29.549  1.00  0.00    -0.248 NA
ATOM     49  C   UNL A   1      39.356  26.697  28.475  1.00  0.00     0.031 C 
ATOM     50  C   UNL A   1      41.852  29.860  30.295  1.00  0.00     0.029 A 
ATOM     51  N   UNL A   1      40.047  30.828  31.239  1.00  0.00    -0.354 N 
ATOM     52  C   UNL A   1      41.559  26.104  28.784  1.00  0.00     0.074 A 
ATOM     53  C   UNL A   1      40.272  25.754  28.237  1.00  0.00     0.031 C 
ATOM     54  C   UNL A   1      42.294  30.609  31.315  1.00  0.00     0.029 A 
ATOM     55  C   UNL A   1      41.141  30.948  32.127  1.00  0.00     0.049 A 
ATOM     56  H   UNL A   1      39.206  31.339  31.273  1.00  0.00     0.167 HD
ATOM     57  C   UNL A   1      42.852  25.694  28.630  1.00  0.00     0.037 A 
ATOM     58  C   UNL A   1      41.005  30.613  33.447  1.00  0.00     0.037 A 
ATOM     59  C   UNL A   1      43.715  26.324  29.639  1.00  0.00     0.049 A 
ATOM     60  C   UNL A   1      41.856  29.444  33.910  1.00  0.00     0.074 A 
ATOM     61  C   UNL A   1      44.689  27.307  29.651  1.00  0.00     0.029 A 
ATOM     62  N   UNL A   1      43.438  26.056  30.969  1.00  0.00    -0.354 N 
ATOM     63  N   UNL A   1      42.679  28.777  33.148  1.00  0.00    -0.248 NA
ATOM     64  C   UNL A   1      41.786  28.888  35.263  1.00  0.00     0.031 C 
ATOM     65  C   UNL A   1      44.964  27.644  31.015  1.00  0.00     0.029 A 
ATOM     66  C   UNL A   1      44.170  26.852  31.824  1.00  0.00     0.049 A 
ATOM     67  H   UNL A   1      42.794  25.375  31.269  1.00  0.00     0.167 HD
ATOM     68  C   UNL A   1      43.157  27.690  33.834  1.00  0.00     0.074 A 
ATOM     69  C   UNL A   1      42.597  27.821  35.166  1.00  0.00     0.031 C 
ATOM     70  C   UNL A   1      43.926  26.723  33.253  1.00  0.00     0.037 A 
BRANCH  57  71
ATOM     71  C   UNL A   1      43.390  24.825  27.500  1.00  0.00     0.058 A 
ATOM     72  C   UNL A   1      44.122  23.650  27.793  1.00  0.00     0.135 A 
ATOM     73  C   UNL A   1      43.333  25.131  26.121  1.00  0.00     0.135 A 
ATOM     74  F   UNL A   1      44.261  23.210  29.052  1.00  0.00    -0.206 F 
ATOM     75  C   UNL A   1      44.777  22.886  26.818  1.00  0.00     0.059 A 
ATOM     76  C   UNL A   1      43.954  24.370  25.129  1.00  0.00     0.059 A 
ATOM     77  F   UNL A   1      42.710  26.209  25.643  1.00  0.00    -0.206 F 
ATOM     78  C   UNL A   1      44.699  23.263  25.486  1.00  0.00     0.060 A 
BRANCH  78  79
ATOM     79  S   UNL A   1      45.599  22.332  24.235  1.00  0.00     0.124 S 
ATOM     80  O   UNL A   1      44.527  21.930  23.331  1.00  0.00    -0.237 OA
ATOM     81  O   UNL A   1      46.532  23.326  23.718  1.00  0.00    -0.237 OA
ATOM     82  O   UNL A   1      46.209  21.243  24.995  1.00  0.00    -0.744 OA
ENDBRANCH  78  79
ENDBRANCH  57  71
BRANCH  58  83
ATOM     83  C   UNL A   1      39.656  30.967  33.973  1.00  0.00     0.058 A 
ATOM     84  C   UNL A   1      39.465  32.292  34.408  1.00  0.00     0.135 A 
ATOM     85  C   UNL A   1      38.524  30.236  33.585  1.00  0.00     0.135 A 
ATOM     86  F   UNL A   1      40.518  33.026  34.810  1.00  0.00    -0.206 F 
ATOM     87  C   UNL A   1      38.241  32.933  34.266  1.00  0.00     0.059 A 
ATOM     88  C   UNL A   1      37.282  30.854  33.453  1.00  0.00     0.059 A 
ATOM     89  F   UNL A   1      38.649  28.965  33.174  1.00  0.00    -0.206 F 
ATOM     90  C   UNL A   1      37.178  32.222  33.712  1.00  0.00     0.060 A 
BRANCH  90  91
ATOM     91  S   UNL A   1      35.751  33.167  33.130  1.00  0.00     0.124 S 
ATOM     92  O   UNL A   1      35.046  33.453  34.375  1.00  0.00    -0.237 OA
ATOM     93  O   UNL A   1      36.401  34.310  32.493  1.00  0.00    -0.237 OA
ATOM     94  O   UNL A   1      35.082  32.239  32.225  1.00  0.00    -0.744 OA
ENDBRANCH  90  91
ENDBRANCH  58  83
BRANCH  70  95
ATOM     95  C   UNL A   1      44.464  25.533  33.999  1.00  0.00     0.058 A 
ATOM     96  C   UNL A   1      45.842  25.308  34.156  1.00  0.00     0.135 A 
ATOM     97  C   UNL A   1      43.610  24.514  34.476  1.00  0.00     0.135 A 
ATOM     98  F   UNL A   1      46.736  26.199  33.699  1.00  0.00    -0.206 F 
ATOM     99  C   UNL A   1      46.341  24.158  34.771  1.00  0.00     0.059 A 
ATOM    100  C   UNL A   1      44.086  23.338  35.048  1.00  0.00     0.059 A 
ATOM    101  F   UNL A   1      42.277  24.644  34.427  1.00  0.00    -0.206 F 
ATOM    102  C   UNL A   1      45.455  23.176  35.211  1.00  0.00     0.060 A 
BRANCH 102 103
ATOM    103  S   UNL A   1      46.095  21.673  35.974  1.00  0.00     0.124 S 
ATOM    104  O   UNL A   1      45.648  21.801  37.359  1.00  0.00    -0.237 OA
ATOM    105  O   UNL A   1      45.426  20.640  35.189  1.00  0.00    -0.237 OA
ATOM    106  O   UNL A   1      47.536  21.780  35.776  1.00  0.00    -0.744 OA
ENDBRANCH 102 103
ENDBRANCH  70  95
ENDBRANCH  44  45
ENDBRANCH  36  39
ENDBRANCH  34  35
ENDBRANCH  33  34
ENDBRANCH   1  33
TORSDOF 19
ENDMDL
