MODEL 1
REMARK VINA RESULT:     -12.0      0.000      0.000
REMARK SMILES C[C@H](c1ccc(C(=O)NCCCCCCNC(=O)c2ccc(-c3c4nc(c(-c5c(F)cc(S(=O)(=O)[O-])cc5F)c5ccc([nH]5)c(-c5c(F)cc(S(=O)(=O)[O-])cc5F)c5nc(c(-c6c(F)cc(S(=O)(=O)[O-])cc6F)c6ccc3[nH]6)C=C5)C=C4)cc2)o1)[NH+]1Cc2ccccc2C1
REMARK SMILES IDX 13 1 12 2 11 3 10 4 9 5 7 6 8 7 6 9 3 10 4 11 85 12 5 13
REMARK SMILES IDX 2 14 1 15 86 16 87 17 94 18 88 20 93 21 89 22 92 23 90 24
REMARK SMILES IDX 91 25 14 26 15 27 16 28 17 29 18 31 19 32 20 33 84 34 21 35
REMARK SMILES IDX 83 36 22 37 23 38 24 39 77 40 25 41 82 42 76 43 78 44 26 45
REMARK SMILES IDX 81 46 75 47 74 48 27 50 61 51 40 52 60 53 41 54 44 55 59 56
REMARK SMILES IDX 79 57 42 58 43 59 58 61 80 62 45 63 28 64 29 65 38 66 30 67
REMARK SMILES IDX 31 68 37 69 39 70 32 71 33 72 34 73 35 74 36 75 62 76 63 77
REMARK SMILES IDX 72 78 64 79 65 80 71 81 73 82 66 83 67 84 68 85 69 86 70 87
REMARK SMILES IDX 46 88 47 89 56 90 48 91 49 92 55 93 57 94 50 95 51 96 52 97
REMARK SMILES IDX 53 98 54 99
REMARK H PARENT 9 8 86 19 16 30 78 49 44 60
REMARK Flexibility Score: inf
ROOT
ATOM      1  C   UNL A   1      39.698  22.656  26.879  1.00  0.00     0.002 C 
ENDROOT
BRANCH   1   2
ATOM      2  C   UNL A   1      38.907  21.616  26.079  1.00  0.00     0.002 C 
BRANCH   2   3
ATOM      3  C   UNL A   1      37.805  22.182  25.175  1.00  0.00     0.021 C 
BRANCH   3   4
ATOM      4  C   UNL A   1      36.568  21.292  25.061  1.00  0.00     0.116 C 
BRANCH   4   5
ATOM      5  N   UNL A   1      35.761  21.330  26.267  1.00  0.00    -0.349 N 
ATOM      6  C   UNL A   1      34.420  21.614  26.412  1.00  0.00     0.287 C 
ATOM      7  O   UNL A   1      33.916  21.375  27.511  1.00  0.00    -0.266 OA
ATOM      8  H   UNL A   1      36.242  21.124  27.101  1.00  0.00     0.163 HD
BRANCH   6   9
ATOM      9  C   UNL A   1      33.678  22.163  25.296  1.00  0.00     0.191 A 
ATOM     10  C   UNL A   1      32.793  23.809  24.119  1.00  0.00     0.162 A 
ATOM     11  C   UNL A   1      32.507  22.641  23.439  1.00  0.00     0.053 A 
ATOM     12  O   UNL A   1      33.524  23.527  25.235  1.00  0.00    -0.450 OA
ATOM     13  C   UNL A   1      33.077  21.592  24.188  1.00  0.00     0.057 A 
BRANCH  10  14
ATOM     14  C   UNL A   1      32.483  25.260  23.832  1.00  0.00     0.248 C 
ATOM     15  C   UNL A   1      33.105  25.597  22.454  1.00  0.00     0.084 C 
BRANCH  14  16
ATOM     16  N   UNL A   1      31.064  25.666  24.119  1.00  0.00    -0.319 N 
ATOM     17  C   UNL A   1      30.722  27.054  23.690  1.00  0.00     0.300 C 
ATOM     18  C   UNL A   1      30.765  25.717  25.584  1.00  0.00     0.300 C 
ATOM     19  H   UNL A   1      30.537  24.958  23.609  1.00  0.00     0.349 HD
ATOM     20  C   UNL A   1      31.146  27.909  24.839  1.00  0.00     0.015 A 
ATOM     21  C   UNL A   1      31.149  27.112  25.989  1.00  0.00     0.015 A 
ATOM     22  C   UNL A   1      31.550  29.227  24.866  1.00  0.00     0.010 A 
ATOM     23  C   UNL A   1      31.549  27.620  27.208  1.00  0.00     0.010 A 
ATOM     24  C   UNL A   1      31.987  29.744  26.086  1.00  0.00     0.001 A 
ATOM     25  C   UNL A   1      31.982  28.949  27.247  1.00  0.00     0.001 A 
ENDBRANCH  14  16
ENDBRANCH  10  14
ENDBRANCH   6   9
ENDBRANCH   4   5
ENDBRANCH   3   4
ENDBRANCH   2   3
ENDBRANCH   1   2
BRANCH   1  26
ATOM     26  C   UNL A   1      40.987  22.148  27.535  1.00  0.00     0.021 C 
BRANCH  26  27
ATOM     27  C   UNL A   1      42.119  23.172  27.626  1.00  0.00     0.116 C 
BRANCH  27  28
ATOM     28  N   UNL A   1      42.222  23.978  26.422  1.00  0.00    -0.352 N 
ATOM     29  C   UNL A   1      41.965  25.311  26.222  1.00  0.00     0.251 C 
ATOM     30  H   UNL A   1      42.524  23.491  25.622  1.00  0.00     0.163 HD
ATOM     31  O   UNL A   1      41.918  25.742  25.072  1.00  0.00    -0.269 OA
BRANCH  29  32
ATOM     32  C   UNL A   1      41.735  26.228  27.363  1.00  0.00     0.039 A 
ATOM     33  C   UNL A   1      40.621  26.007  28.178  1.00  0.00     0.014 A 
ATOM     34  C   UNL A   1      42.559  27.333  27.600  1.00  0.00     0.014 A 
ATOM     35  C   UNL A   1      40.357  26.866  29.247  1.00  0.00     0.010 A 
ATOM     36  C   UNL A   1      42.330  28.154  28.707  1.00  0.00     0.010 A 
ATOM     37  C   UNL A   1      41.220  27.935  29.536  1.00  0.00    -0.014 A 
BRANCH  37  38
ATOM     38  C   UNL A   1      40.963  28.810  30.709  1.00  0.00     0.031 A 
ATOM     39  C   UNL A   1      41.801  28.702  31.955  1.00  0.00     0.074 A 
ATOM     40  C   UNL A   1      39.953  29.701  30.654  1.00  0.00     0.049 A 
ATOM     41  N   UNL A   1      41.750  29.421  33.048  1.00  0.00    -0.248 NA
ATOM     42  C   UNL A   1      42.810  27.633  31.989  1.00  0.00     0.031 C 
ATOM     43  C   UNL A   1      39.025  29.855  29.531  1.00  0.00     0.029 A 
ATOM     44  N   UNL A   1      39.541  30.649  31.556  1.00  0.00    -0.354 N 
ATOM     45  C   UNL A   1      42.714  28.893  33.898  1.00  0.00     0.074 A 
ATOM     46  C   UNL A   1      43.298  27.758  33.216  1.00  0.00     0.031 C 
ATOM     47  C   UNL A   1      38.177  30.862  29.795  1.00  0.00     0.029 A 
ATOM     48  C   UNL A   1      38.486  31.410  31.112  1.00  0.00     0.049 A 
ATOM     49  H   UNL A   1      39.960  30.771  32.439  1.00  0.00     0.167 HD
ATOM     50  C   UNL A   1      43.096  29.329  35.125  1.00  0.00     0.037 A 
ATOM     51  C   UNL A   1      37.849  32.445  31.692  1.00  0.00     0.037 A 
ATOM     52  C   UNL A   1      42.527  30.473  35.790  1.00  0.00     0.049 A 
ATOM     53  C   UNL A   1      38.317  32.937  33.033  1.00  0.00     0.074 A 
ATOM     54  C   UNL A   1      42.886  31.031  37.006  1.00  0.00     0.029 A 
ATOM     55  N   UNL A   1      41.476  31.233  35.299  1.00  0.00    -0.354 N 
ATOM     56  N   UNL A   1      39.284  32.473  33.789  1.00  0.00    -0.248 NA
ATOM     57  C   UNL A   1      37.622  34.103  33.591  1.00  0.00     0.031 C 
ATOM     58  C   UNL A   1      42.029  32.108  37.265  1.00  0.00     0.029 A 
ATOM     59  C   UNL A   1      41.163  32.246  36.193  1.00  0.00     0.049 A 
ATOM     60  H   UNL A   1      41.019  31.077  34.441  1.00  0.00     0.167 HD
ATOM     61  C   UNL A   1      39.323  33.301  34.905  1.00  0.00     0.074 A 
ATOM     62  C   UNL A   1      38.298  34.308  34.713  1.00  0.00     0.031 C 
ATOM     63  C   UNL A   1      40.131  33.232  35.993  1.00  0.00     0.037 A 
BRANCH  50  64
ATOM     64  C   UNL A   1      44.192  28.567  35.822  1.00  0.00     0.058 A 
ATOM     65  C   UNL A   1      45.545  28.904  35.652  1.00  0.00     0.135 A 
ATOM     66  C   UNL A   1      43.886  27.511  36.696  1.00  0.00     0.135 A 
ATOM     67  F   UNL A   1      45.895  29.896  34.820  1.00  0.00    -0.206 F 
ATOM     68  C   UNL A   1      46.557  28.200  36.297  1.00  0.00     0.059 A 
ATOM     69  C   UNL A   1      44.882  26.809  37.372  1.00  0.00     0.059 A 
ATOM     70  F   UNL A   1      42.610  27.147  36.897  1.00  0.00    -0.206 F 
ATOM     71  C   UNL A   1      46.215  27.152  37.153  1.00  0.00     0.060 A 
BRANCH  71  72
ATOM     72  S   UNL A   1      47.541  26.246  37.980  1.00  0.00     0.124 S 
ATOM     73  O   UNL A   1      47.067  24.871  37.868  1.00  0.00    -0.237 OA
ATOM     74  O   UNL A   1      48.705  26.583  37.168  1.00  0.00    -0.237 OA
ATOM     75  O   UNL A   1      47.540  26.802  39.330  1.00  0.00    -0.744 OA
ENDBRANCH  71  72
ENDBRANCH  50  64
BRANCH  51  76
ATOM     76  C   UNL A   1      36.727  33.114  30.982  1.00  0.00     0.058 A 
ATOM     77  C   UNL A   1      35.400  32.933  31.396  1.00  0.00     0.135 A 
ATOM     78  C   UNL A   1      36.962  33.964  29.891  1.00  0.00     0.135 A 
ATOM     79  F   UNL A   1      35.125  32.126  32.433  1.00  0.00    -0.206 F 
ATOM     80  C   UNL A   1      34.341  33.559  30.747  1.00  0.00     0.059 A 
ATOM     81  C   UNL A   1      35.922  34.621  29.239  1.00  0.00     0.059 A 
ATOM     82  F   UNL A   1      38.216  34.186  29.468  1.00  0.00    -0.206 F 
ATOM     83  C   UNL A   1      34.614  34.404  29.669  1.00  0.00     0.060 A 
BRANCH  83  84
ATOM     84  S   UNL A   1      33.240  35.260  28.868  1.00  0.00     0.124 S 
ATOM     85  O   UNL A   1      32.439  35.666  30.016  1.00  0.00    -0.237 OA
ATOM     86  O   UNL A   1      33.921  36.333  28.151  1.00  0.00    -0.237 OA
ATOM     87  O   UNL A   1      32.653  34.226  28.021  1.00  0.00    -0.744 OA
ENDBRANCH  83  84
ENDBRANCH  51  76
BRANCH  63  88
ATOM     88  C   UNL A   1      39.940  34.288  37.048  1.00  0.00     0.058 A 
ATOM     89  C   UNL A   1      39.086  34.085  38.143  1.00  0.00     0.135 A 
ATOM     90  C   UNL A   1      40.618  35.514  36.962  1.00  0.00     0.135 A 
ATOM     91  F   UNL A   1      38.411  32.930  38.270  1.00  0.00    -0.206 F 
ATOM     92  C   UNL A   1      38.873  35.079  39.092  1.00  0.00     0.059 A 
ATOM     93  C   UNL A   1      40.441  36.512  37.914  1.00  0.00     0.059 A 
ATOM     94  F   UNL A   1      41.457  35.753  35.942  1.00  0.00    -0.206 F 
ATOM     95  C   UNL A   1      39.549  36.294  38.964  1.00  0.00     0.060 A 
BRANCH  95  96
ATOM     96  S   UNL A   1      39.257  37.584  40.192  1.00  0.00     0.124 S 
ATOM     97  O   UNL A   1      38.875  36.797  41.359  1.00  0.00    -0.237 OA
ATOM     98  O   UNL A   1      40.556  38.246  40.271  1.00  0.00    -0.237 OA
ATOM     99  O   UNL A   1      38.190  38.384  39.594  1.00  0.00    -0.744 OA
ENDBRANCH  95  96
ENDBRANCH  63  88
ENDBRANCH  37  38
ENDBRANCH  29  32
ENDBRANCH  27  28
ENDBRANCH  26  27
ENDBRANCH   1  26
TORSDOF 18
ENDMDL
MODEL 2
REMARK VINA RESULT:     -11.9      1.024      2.129
REMARK SMILES C[C@H](c1ccc(C(=O)NCCCCCCNC(=O)c2ccc(-c3c4nc(c(-c5c(F)cc(S(=O)(=O)[O-])cc5F)c5ccc([nH]5)c(-c5c(F)cc(S(=O)(=O)[O-])cc5F)c5nc(c(-c6c(F)cc(S(=O)(=O)[O-])cc6F)c6ccc3[nH]6)C=C5)C=C4)cc2)o1)[NH+]1Cc2ccccc2C1
REMARK SMILES IDX 13 1 12 2 11 3 10 4 9 5 7 6 8 7 6 9 3 10 4 11 85 12 5 13
REMARK SMILES IDX 2 14 1 15 86 16 87 17 94 18 88 20 93 21 89 22 92 23 90 24
REMARK SMILES IDX 91 25 14 26 15 27 16 28 17 29 18 31 19 32 20 33 84 34 21 35
REMARK SMILES IDX 83 36 22 37 23 38 24 39 77 40 25 41 82 42 76 43 78 44 26 45
REMARK SMILES IDX 81 46 75 47 74 48 27 50 61 51 40 52 60 53 41 54 44 55 59 56
REMARK SMILES IDX 79 57 42 58 43 59 58 61 80 62 45 63 28 64 29 65 38 66 30 67
REMARK SMILES IDX 31 68 37 69 39 70 32 71 33 72 34 73 35 74 36 75 62 76 63 77
REMARK SMILES IDX 72 78 64 79 65 80 71 81 73 82 66 83 67 84 68 85 69 86 70 87
REMARK SMILES IDX 46 88 47 89 56 90 48 91 49 92 55 93 57 94 50 95 51 96 52 97
REMARK SMILES IDX 53 98 54 99
REMARK H PARENT 9 8 86 19 16 30 78 49 44 60
REMARK Flexibility Score: inf
ROOT
ATOM      1  C   UNL A   1      40.741  21.550  26.425  1.00  0.00     0.002 C 
ENDROOT
BRANCH   1   2
ATOM      2  C   UNL A   1      39.239  21.612  26.129  1.00  0.00     0.002 C 
BRANCH   2   3
ATOM      3  C   UNL A   1      38.610  23.008  26.215  1.00  0.00     0.021 C 
BRANCH   3   4
ATOM      4  C   UNL A   1      37.150  23.068  25.766  1.00  0.00     0.116 C 
BRANCH   4   5
ATOM      5  N   UNL A   1      36.680  21.784  25.280  1.00  0.00    -0.349 N 
ATOM      6  C   UNL A   1      35.429  21.216  25.386  1.00  0.00     0.287 C 
ATOM      7  O   UNL A   1      35.216  20.208  24.710  1.00  0.00    -0.266 OA
ATOM      8  H   UNL A   1      37.352  21.241  24.808  1.00  0.00     0.163 HD
BRANCH   6   9
ATOM      9  C   UNL A   1      34.441  21.812  26.262  1.00  0.00     0.191 A 
ATOM     10  C   UNL A   1      32.605  22.960  26.692  1.00  0.00     0.162 A 
ATOM     11  C   UNL A   1      33.120  22.571  27.914  1.00  0.00     0.053 A 
ATOM     12  O   UNL A   1      33.390  22.481  25.686  1.00  0.00    -0.450 OA
ATOM     13  C   UNL A   1      34.290  21.834  27.637  1.00  0.00     0.057 A 
BRANCH  10  14
ATOM     14  C   UNL A   1      31.372  23.745  26.308  1.00  0.00     0.248 C 
ATOM     15  C   UNL A   1      30.142  22.903  26.731  1.00  0.00     0.084 C 
BRANCH  14  16
ATOM     16  N   UNL A   1      31.424  25.206  26.663  1.00  0.00    -0.319 N 
ATOM     17  C   UNL A   1      30.358  26.033  26.024  1.00  0.00     0.300 C 
ATOM     18  C   UNL A   1      32.667  25.874  26.169  1.00  0.00     0.300 C 
ATOM     19  H   UNL A   1      31.339  25.176  27.678  1.00  0.00     0.349 HD
ATOM     20  C   UNL A   1      30.922  26.389  24.688  1.00  0.00     0.015 A 
ATOM     21  C   UNL A   1      32.317  26.320  24.778  1.00  0.00     0.015 A 
ATOM     22  C   UNL A   1      30.283  26.680  23.500  1.00  0.00     0.010 A 
ATOM     23  C   UNL A   1      33.115  26.552  23.677  1.00  0.00     0.010 A 
ATOM     24  C   UNL A   1      31.079  26.885  22.372  1.00  0.00     0.001 A 
ATOM     25  C   UNL A   1      32.481  26.827  22.461  1.00  0.00     0.001 A 
ENDBRANCH  14  16
ENDBRANCH  10  14
ENDBRANCH   6   9
ENDBRANCH   4   5
ENDBRANCH   3   4
ENDBRANCH   2   3
ENDBRANCH   1   2
BRANCH   1  26
ATOM     26  C   UNL A   1      41.211  22.356  27.641  1.00  0.00     0.021 C 
BRANCH  26  27
ATOM     27  C   UNL A   1      42.366  23.322  27.376  1.00  0.00     0.116 C 
BRANCH  27  28
ATOM     28  N   UNL A   1      42.127  24.148  26.206  1.00  0.00    -0.352 N 
ATOM     29  C   UNL A   1      41.576  25.400  26.099  1.00  0.00     0.251 C 
ATOM     30  H   UNL A   1      42.404  23.745  25.351  1.00  0.00     0.163 HD
ATOM     31  O   UNL A   1      41.277  25.827  24.987  1.00  0.00    -0.269 OA
BRANCH  29  32
ATOM     32  C   UNL A   1      41.329  26.234  27.299  1.00  0.00     0.039 A 
ATOM     33  C   UNL A   1      42.216  27.281  27.573  1.00  0.00     0.014 A 
ATOM     34  C   UNL A   1      40.284  25.961  28.187  1.00  0.00     0.014 A 
ATOM     35  C   UNL A   1      42.031  28.072  28.709  1.00  0.00     0.010 A 
ATOM     36  C   UNL A   1      40.063  26.793  29.288  1.00  0.00     0.010 A 
ATOM     37  C   UNL A   1      40.941  27.850  29.566  1.00  0.00    -0.014 A 
BRANCH  37  38
ATOM     38  C   UNL A   1      40.721  28.733  30.741  1.00  0.00     0.031 A 
ATOM     39  C   UNL A   1      41.560  28.594  31.983  1.00  0.00     0.074 A 
ATOM     40  C   UNL A   1      39.743  29.659  30.692  1.00  0.00     0.049 A 
ATOM     41  N   UNL A   1      41.541  29.313  33.076  1.00  0.00    -0.248 NA
ATOM     42  C   UNL A   1      42.531  27.489  32.011  1.00  0.00     0.031 C 
ATOM     43  C   UNL A   1      38.816  29.848  29.573  1.00  0.00     0.029 A 
ATOM     44  N   UNL A   1      39.370  30.620  31.597  1.00  0.00    -0.354 N 
ATOM     45  C   UNL A   1      42.490  28.750  33.921  1.00  0.00     0.074 A 
ATOM     46  C   UNL A   1      43.029  27.595  33.235  1.00  0.00     0.031 C 
ATOM     47  C   UNL A   1      38.006  30.884  29.843  1.00  0.00     0.029 A 
ATOM     48  C   UNL A   1      38.341  31.420  31.158  1.00  0.00     0.049 A 
ATOM     49  H   UNL A   1      39.797  30.727  32.477  1.00  0.00     0.167 HD
ATOM     50  C   UNL A   1      42.894  29.170  35.146  1.00  0.00     0.037 A 
ATOM     51  C   UNL A   1      37.744  32.476  31.743  1.00  0.00     0.037 A 
ATOM     52  C   UNL A   1      42.369  30.334  35.816  1.00  0.00     0.049 A 
ATOM     53  C   UNL A   1      38.237  32.949  33.082  1.00  0.00     0.074 A 
ATOM     54  C   UNL A   1      42.754  30.877  37.029  1.00  0.00     0.029 A 
ATOM     55  N   UNL A   1      41.344  31.132  35.330  1.00  0.00    -0.354 N 
ATOM     56  N   UNL A   1      39.190  32.450  33.833  1.00  0.00    -0.248 NA
ATOM     57  C   UNL A   1      37.586  34.140  33.644  1.00  0.00     0.031 C 
ATOM     58  C   UNL A   1      41.937  31.984  37.294  1.00  0.00     0.029 A 
ATOM     59  C   UNL A   1      41.072  32.154  36.226  1.00  0.00     0.049 A 
ATOM     60  H   UNL A   1      40.877  30.992  34.474  1.00  0.00     0.167 HD
ATOM     61  C   UNL A   1      39.264  33.275  34.949  1.00  0.00     0.074 A 
ATOM     62  C   UNL A   1      38.275  34.319  34.762  1.00  0.00     0.031 C 
ATOM     63  C   UNL A   1      40.074  33.176  36.032  1.00  0.00     0.037 A 
BRANCH  50  64
ATOM     64  C   UNL A   1      43.965  28.370  35.838  1.00  0.00     0.058 A 
ATOM     65  C   UNL A   1      43.649  27.281  36.667  1.00  0.00     0.135 A 
ATOM     66  C   UNL A   1      45.322  28.672  35.646  1.00  0.00     0.135 A 
ATOM     67  F   UNL A   1      42.367  26.954  36.896  1.00  0.00    -0.206 F 
ATOM     68  C   UNL A   1      44.638  26.541  37.306  1.00  0.00     0.059 A 
ATOM     69  C   UNL A   1      46.331  27.929  36.255  1.00  0.00     0.059 A 
ATOM     70  F   UNL A   1      45.682  29.701  34.862  1.00  0.00    -0.206 F 
ATOM     71  C   UNL A   1      45.977  26.875  37.096  1.00  0.00     0.060 A 
BRANCH  71  72
ATOM     72  S   UNL A   1      47.251  25.907  37.935  1.00  0.00     0.124 S 
ATOM     73  O   UNL A   1      48.205  25.683  36.855  1.00  0.00    -0.237 OA
ATOM     74  O   UNL A   1      47.689  26.815  38.991  1.00  0.00    -0.237 OA
ATOM     75  O   UNL A   1      46.530  24.722  38.392  1.00  0.00    -0.744 OA
ENDBRANCH  71  72
ENDBRANCH  50  64
BRANCH  51  76
ATOM     76  C   UNL A   1      36.643  33.185  31.039  1.00  0.00     0.058 A 
ATOM     77  C   UNL A   1      36.904  34.007  29.933  1.00  0.00     0.135 A 
ATOM     78  C   UNL A   1      35.308  33.037  31.444  1.00  0.00     0.135 A 
ATOM     79  F   UNL A   1      38.166  34.182  29.511  1.00  0.00    -0.206 F 
ATOM     80  C   UNL A   1      35.884  34.669  29.259  1.00  0.00     0.059 A 
ATOM     81  C   UNL A   1      34.266  33.671  30.772  1.00  0.00     0.059 A 
ATOM     82  F   UNL A   1      35.004  32.247  32.484  1.00  0.00    -0.206 F 
ATOM     83  C   UNL A   1      34.566  34.493  29.686  1.00  0.00     0.060 A 
BRANCH  83  84
ATOM     84  S   UNL A   1      33.240  35.309  28.770  1.00  0.00     0.124 S 
ATOM     85  O   UNL A   1      33.986  36.282  27.982  1.00  0.00    -0.237 OA
ATOM     86  O   UNL A   1      32.651  34.199  28.026  1.00  0.00    -0.237 OA
ATOM     87  O   UNL A   1      32.398  35.861  29.827  1.00  0.00    -0.744 OA
ENDBRANCH  83  84
ENDBRANCH  51  76
BRANCH  63  88
ATOM     88  C   UNL A   1      39.927  34.237  37.089  1.00  0.00     0.058 A 
ATOM     89  C   UNL A   1      39.087  34.055  38.200  1.00  0.00     0.135 A 
ATOM     90  C   UNL A   1      40.631  35.447  36.990  1.00  0.00     0.135 A 
ATOM     91  F   UNL A   1      38.388  32.918  38.339  1.00  0.00    -0.206 F 
ATOM     92  C   UNL A   1      38.914  35.056  39.151  1.00  0.00     0.059 A 
ATOM     93  C   UNL A   1      40.495  36.450  37.944  1.00  0.00     0.059 A 
ATOM     94  F   UNL A   1      41.458  35.666  35.955  1.00  0.00    -0.206 F 
ATOM     95  C   UNL A   1      39.617  36.254  39.009  1.00  0.00     0.060 A 
BRANCH  95  96
ATOM     96  S   UNL A   1      39.376  37.552  40.240  1.00  0.00     0.124 S 
ATOM     97  O   UNL A   1      40.735  38.058  40.401  1.00  0.00    -0.237 OA
ATOM     98  O   UNL A   1      38.440  38.451  39.573  1.00  0.00    -0.237 OA
ATOM     99  O   UNL A   1      38.832  36.832  41.389  1.00  0.00    -0.744 OA
ENDBRANCH  95  96
ENDBRANCH  63  88
ENDBRANCH  37  38
ENDBRANCH  29  32
ENDBRANCH  27  28
ENDBRANCH  26  27
ENDBRANCH   1  26
TORSDOF 18
ENDMDL
MODEL 3
REMARK VINA RESULT:     -11.9      3.205      9.810
REMARK SMILES C[C@H](c1ccc(C(=O)NCCCCCCNC(=O)c2ccc(-c3c4nc(c(-c5c(F)cc(S(=O)(=O)[O-])cc5F)c5ccc([nH]5)c(-c5c(F)cc(S(=O)(=O)[O-])cc5F)c5nc(c(-c6c(F)cc(S(=O)(=O)[O-])cc6F)c6ccc3[nH]6)C=C5)C=C4)cc2)o1)[NH+]1Cc2ccccc2C1
REMARK SMILES IDX 13 1 12 2 11 3 10 4 9 5 7 6 8 7 6 9 3 10 4 11 85 12 5 13
REMARK SMILES IDX 2 14 1 15 86 16 87 17 94 18 88 20 93 21 89 22 92 23 90 24
REMARK SMILES IDX 91 25 14 26 15 27 16 28 17 29 18 31 19 32 20 33 84 34 21 35
REMARK SMILES IDX 83 36 22 37 23 38 24 39 77 40 25 41 82 42 76 43 78 44 26 45
REMARK SMILES IDX 81 46 75 47 74 48 27 50 61 51 40 52 60 53 41 54 44 55 59 56
REMARK SMILES IDX 79 57 42 58 43 59 58 61 80 62 45 63 28 64 29 65 38 66 30 67
REMARK SMILES IDX 31 68 37 69 39 70 32 71 33 72 34 73 35 74 36 75 62 76 63 77
REMARK SMILES IDX 72 78 64 79 65 80 71 81 73 82 66 83 67 84 68 85 69 86 70 87
REMARK SMILES IDX 46 88 47 89 56 90 48 91 49 92 55 93 57 94 50 95 51 96 52 97
REMARK SMILES IDX 53 98 54 99
REMARK H PARENT 9 8 86 19 16 30 78 49 44 60
REMARK Flexibility Score: inf
ROOT
ATOM      1  C   UNL A   1      31.477  27.533  25.330  1.00  0.00     0.002 C 
ENDROOT
BRANCH   1   2
ATOM      2  C   UNL A   1      30.607  26.356  24.878  1.00  0.00     0.002 C 
BRANCH   2   3
ATOM      3  C   UNL A   1      30.479  26.179  23.360  1.00  0.00     0.021 C 
BRANCH   3   4
ATOM      4  C   UNL A   1      31.190  27.255  22.540  1.00  0.00     0.116 C 
BRANCH   4   5
ATOM      5  N   UNL A   1      31.779  26.713  21.329  1.00  0.00    -0.349 N 
ATOM      6  C   UNL A   1      32.716  25.712  21.186  1.00  0.00     0.287 C 
ATOM      7  O   UNL A   1      32.902  25.283  20.046  1.00  0.00    -0.266 OA
ATOM      8  H   UNL A   1      31.463  27.119  20.490  1.00  0.00     0.163 HD
BRANCH   6   9
ATOM      9  C   UNL A   1      33.422  25.218  22.350  1.00  0.00     0.191 A 
ATOM     10  C   UNL A   1      34.272  23.632  23.631  1.00  0.00     0.162 A 
ATOM     11  C   UNL A   1      34.564  24.835  24.247  1.00  0.00     0.053 A 
ATOM     12  O   UNL A   1      33.599  23.861  22.468  1.00  0.00    -0.450 OA
ATOM     13  C   UNL A   1      34.025  25.846  23.425  1.00  0.00     0.057 A 
BRANCH  10  14
ATOM     14  C   UNL A   1      34.587  22.199  23.990  1.00  0.00     0.248 C 
ATOM     15  C   UNL A   1      36.110  22.118  24.258  1.00  0.00     0.084 C 
BRANCH  14  16
ATOM     16  N   UNL A   1      33.631  21.573  24.968  1.00  0.00    -0.319 N 
ATOM     17  C   UNL A   1      34.134  20.320  25.604  1.00  0.00     0.300 C 
ATOM     18  C   UNL A   1      32.369  21.102  24.318  1.00  0.00     0.300 C 
ATOM     19  H   UNL A   1      33.499  22.327  25.642  1.00  0.00     0.349 HD
ATOM     20  C   UNL A   1      33.766  19.244  24.636  1.00  0.00     0.015 A 
ATOM     21  C   UNL A   1      32.685  19.702  23.875  1.00  0.00     0.015 A 
ATOM     22  C   UNL A   1      34.356  18.020  24.399  1.00  0.00     0.010 A 
ATOM     23  C   UNL A   1      32.154  18.937  22.857  1.00  0.00     0.010 A 
ATOM     24  C   UNL A   1      33.848  17.251  23.351  1.00  0.00     0.001 A 
ATOM     25  C   UNL A   1      32.755  17.703  22.590  1.00  0.00     0.001 A 
ENDBRANCH  14  16
ENDBRANCH  10  14
ENDBRANCH   6   9
ENDBRANCH   4   5
ENDBRANCH   3   4
ENDBRANCH   2   3
ENDBRANCH   1   2
BRANCH   1  26
ATOM     26  C   UNL A   1      32.411  27.251  26.513  1.00  0.00     0.021 C 
BRANCH  26  27
ATOM     27  C   UNL A   1      33.749  27.989  26.477  1.00  0.00     0.116 C 
BRANCH  27  28
ATOM     28  N   UNL A   1      33.578  29.430  26.536  1.00  0.00    -0.352 N 
ATOM     29  C   UNL A   1      34.264  30.377  27.255  1.00  0.00     0.251 C 
ATOM     30  H   UNL A   1      32.855  29.785  25.971  1.00  0.00     0.163 HD
ATOM     31  O   UNL A   1      33.816  31.520  27.314  1.00  0.00    -0.269 OA
BRANCH  29  32
ATOM     32  C   UNL A   1      35.522  30.041  27.961  1.00  0.00     0.039 A 
ATOM     33  C   UNL A   1      36.723  30.111  27.247  1.00  0.00     0.014 A 
ATOM     34  C   UNL A   1      35.529  29.600  29.288  1.00  0.00     0.014 A 
ATOM     35  C   UNL A   1      37.926  29.777  27.872  1.00  0.00     0.010 A 
ATOM     36  C   UNL A   1      36.740  29.328  29.930  1.00  0.00     0.010 A 
ATOM     37  C   UNL A   1      37.950  29.403  29.226  1.00  0.00    -0.014 A 
BRANCH  37  38
ATOM     38  C   UNL A   1      39.241  29.104  29.897  1.00  0.00     0.031 A 
ATOM     39  C   UNL A   1      39.655  29.839  31.144  1.00  0.00     0.074 A 
ATOM     40  C   UNL A   1      40.055  28.168  29.368  1.00  0.00     0.049 A 
ATOM     41  N   UNL A   1      40.719  29.668  31.887  1.00  0.00    -0.248 NA
ATOM     42  C   UNL A   1      38.774  30.924  31.601  1.00  0.00     0.031 C 
ATOM     43  C   UNL A   1      39.800  27.434  28.126  1.00  0.00     0.029 A 
ATOM     44  N   UNL A   1      41.254  27.668  29.808  1.00  0.00    -0.354 N 
ATOM     45  C   UNL A   1      40.637  30.620  32.896  1.00  0.00     0.074 A 
ATOM     46  C   UNL A   1      39.448  31.404  32.638  1.00  0.00     0.031 C 
ATOM     47  C   UNL A   1      40.793  26.553  27.923  1.00  0.00     0.029 A 
ATOM     48  C   UNL A   1      41.763  26.673  29.007  1.00  0.00     0.049 A 
ATOM     49  H   UNL A   1      41.708  27.991  30.619  1.00  0.00     0.167 HD
ATOM     50  C   UNL A   1      41.464  30.810  33.955  1.00  0.00     0.037 A 
ATOM     51  C   UNL A   1      42.878  25.929  29.138  1.00  0.00     0.037 A 
ATOM     52  C   UNL A   1      42.635  30.013  34.220  1.00  0.00     0.049 A 
ATOM     53  C   UNL A   1      43.756  26.128  30.341  1.00  0.00     0.074 A 
ATOM     54  C   UNL A   1      43.502  30.086  35.297  1.00  0.00     0.029 A 
ATOM     55  N   UNL A   1      43.105  29.000  33.398  1.00  0.00    -0.354 N 
ATOM     56  N   UNL A   1      43.621  26.983  31.328  1.00  0.00    -0.248 NA
ATOM     57  C   UNL A   1      44.927  25.250  30.460  1.00  0.00     0.031 C 
ATOM     58  C   UNL A   1      44.517  29.139  35.108  1.00  0.00     0.029 A 
ATOM     59  C   UNL A   1      44.259  28.449  33.936  1.00  0.00     0.049 A 
ATOM     60  H   UNL A   1      42.682  28.713  32.557  1.00  0.00     0.167 HD
ATOM     61  C   UNL A   1      44.681  26.735  32.192  1.00  0.00     0.074 A 
ATOM     62  C   UNL A   1      45.433  25.634  31.623  1.00  0.00     0.031 C 
ATOM     63  C   UNL A   1      45.004  27.363  33.350  1.00  0.00     0.037 A 
BRANCH  50  64
ATOM     64  C   UNL A   1      41.122  31.920  34.913  1.00  0.00     0.058 A 
ATOM     65  C   UNL A   1      40.252  31.714  35.997  1.00  0.00     0.135 A 
ATOM     66  C   UNL A   1      41.694  33.194  34.768  1.00  0.00     0.135 A 
ATOM     67  F   UNL A   1      39.667  30.520  36.177  1.00  0.00    -0.206 F 
ATOM     68  C   UNL A   1      39.936  32.739  36.882  1.00  0.00     0.059 A 
ATOM     69  C   UNL A   1      41.412  34.228  35.657  1.00  0.00     0.059 A 
ATOM     70  F   UNL A   1      42.533  33.447  33.751  1.00  0.00    -0.206 F 
ATOM     71  C   UNL A   1      40.519  33.995  36.702  1.00  0.00     0.060 A 
BRANCH  71  72
ATOM     72  S   UNL A   1      40.097  35.317  37.858  1.00  0.00     0.124 S 
ATOM     73  O   UNL A   1      41.298  35.375  38.684  1.00  0.00    -0.237 OA
ATOM     74  O   UNL A   1      39.883  36.454  36.969  1.00  0.00    -0.237 OA
ATOM     75  O   UNL A   1      38.900  34.813  38.526  1.00  0.00    -0.744 OA
ENDBRANCH  71  72
ENDBRANCH  50  64
BRANCH  51  76
ATOM     76  C   UNL A   1      43.199  24.894  28.120  1.00  0.00     0.058 A 
ATOM     77  C   UNL A   1      43.889  25.225  26.946  1.00  0.00     0.135 A 
ATOM     78  C   UNL A   1      42.842  23.550  28.314  1.00  0.00     0.135 A 
ATOM     79  F   UNL A   1      44.248  26.497  26.715  1.00  0.00    -0.206 F 
ATOM     80  C   UNL A   1      44.204  24.265  25.989  1.00  0.00     0.059 A 
ATOM     81  C   UNL A   1      43.166  22.567  27.383  1.00  0.00     0.059 A 
ATOM     82  F   UNL A   1      42.198  23.179  29.431  1.00  0.00    -0.206 F 
ATOM     83  C   UNL A   1      43.839  22.937  26.219  1.00  0.00     0.060 A 
BRANCH  83  84
ATOM     84  S   UNL A   1      44.302  21.687  25.001  1.00  0.00     0.124 S 
ATOM     85  O   UNL A   1      43.318  20.644  25.263  1.00  0.00    -0.237 OA
ATOM     86  O   UNL A   1      44.148  22.410  23.742  1.00  0.00    -0.237 OA
ATOM     87  O   UNL A   1      45.679  21.364  25.363  1.00  0.00    -0.744 OA
ENDBRANCH  83  84
ENDBRANCH  51  76
BRANCH  63  88
ATOM     88  C   UNL A   1      46.220  26.859  34.079  1.00  0.00     0.058 A 
ATOM     89  C   UNL A   1      47.497  27.388  33.832  1.00  0.00     0.135 A 
ATOM     90  C   UNL A   1      46.107  25.836  35.033  1.00  0.00     0.135 A 
ATOM     91  F   UNL A   1      47.659  28.366  32.925  1.00  0.00    -0.206 F 
ATOM     92  C   UNL A   1      48.627  26.888  34.471  1.00  0.00     0.059 A 
ATOM     93  C   UNL A   1      47.220  25.340  35.705  1.00  0.00     0.059 A 
ATOM     94  F   UNL A   1      44.908  25.305  35.317  1.00  0.00    -0.206 F 
ATOM     95  C   UNL A   1      48.479  25.857  35.400  1.00  0.00     0.060 A 
BRANCH  95  96
ATOM     96  S   UNL A   1      49.951  25.204  36.215  1.00  0.00     0.124 S 
ATOM     97  O   UNL A   1      50.700  24.672  35.082  1.00  0.00    -0.237 OA
ATOM     98  O   UNL A   1      50.516  26.393  36.847  1.00  0.00    -0.237 OA
ATOM     99  O   UNL A   1      49.413  24.208  37.138  1.00  0.00    -0.744 OA
ENDBRANCH  95  96
ENDBRANCH  63  88
ENDBRANCH  37  38
ENDBRANCH  29  32
ENDBRANCH  27  28
ENDBRANCH  26  27
ENDBRANCH   1  26
TORSDOF 18
ENDMDL
