MODEL 1
REMARK VINA RESULT:     -13.0      0.000      0.000
REMARK SMILES CC(C)[C@H](NC(=O)Cn1ccc2c(Br)cccc21)C(=O)NCCCCCCNC(=O)c1ccc(-c2c3nc(c(-c4c(F)cc(S(=O)(=O)[O-])cc4F)c4ccc([nH]4)c(-c4c(F)cc(S(=O)(=O)[O-])cc4F)c4nc(c(-c5c(F)cc(S(=O)(=O)[O-])cc5F)c5ccc2[nH]5)C=C4)C=C3)cc1
REMARK SMILES IDX 24 1 23 2 22 3 21 4 19 5 20 6 4 8 2 9 1 10 3 11 5 12 6 13
REMARK SMILES IDX 7 15 8 16 9 17 10 18 18 19 11 20 12 21 17 22 13 23 16 24
REMARK SMILES IDX 14 25 15 26 25 27 26 28 27 29 28 30 29 31 30 33 31 34 32 35
REMARK SMILES IDX 96 36 33 37 95 38 34 39 35 40 36 41 89 42 37 43 94 44 88 45
REMARK SMILES IDX 90 46 38 47 93 48 87 49 86 50 39 52 73 53 52 54 72 55 53 56
REMARK SMILES IDX 56 57 71 58 91 59 54 60 55 61 70 63 92 64 57 65 40 66 41 67
REMARK SMILES IDX 50 68 42 69 43 70 49 71 51 72 44 73 45 74 46 75 47 76 48 77
REMARK SMILES IDX 74 78 75 79 84 80 76 81 77 82 83 83 85 84 78 85 79 86 80 87
REMARK SMILES IDX 81 88 82 89 58 90 59 91 68 92 60 93 61 94 67 95 69 96 62 97
REMARK SMILES IDX 63 98 64 99 65 100 66 101
REMARK H PARENT 21 7 5 14 28 32 90 51 56 62
REMARK Flexibility Score: inf
ROOT
ATOM      1  C   UNL A   1      42.122  20.942  27.694  1.00  0.00     0.002 C 
ENDROOT
BRANCH   1   2
ATOM      2  C   UNL A   1      40.702  21.913  27.652  1.00  0.00     0.021 C 
BRANCH   2   3
ATOM      3  C   UNL A   1      39.050  22.171  26.226  1.00  0.00     0.116 C 
BRANCH   3   4
ATOM      4  N   UNL A   1      38.164  23.359  25.778  1.00  0.00    -0.354 N 
ATOM      5  C   UNL A   1      36.799  23.402  25.860  1.00  0.00     0.242 C 
ATOM      6  O   UNL A   1      36.257  24.510  25.810  1.00  0.00    -0.273 OA
ATOM      7  H   UNL A   1      38.619  24.147  25.404  1.00  0.00     0.163 HD
BRANCH   5   8
ATOM      8  C   UNL A   1      35.942  22.100  26.040  1.00  0.00     0.173 C 
BRANCH   8   9
ATOM      9  C   UNL A   1      35.651  21.253  24.776  1.00  0.00     0.015 C 
ATOM     10  C   UNL A   1      34.577  20.169  24.907  1.00  0.00     0.010 C 
ATOM     11  C   UNL A   1      35.267  22.181  23.619  1.00  0.00     0.010 C 
ENDBRANCH   8   9
BRANCH   8  12
ATOM     12  N   UNL A   1      34.799  22.311  26.979  1.00  0.00    -0.343 N 
ATOM     13  C   UNL A   1      33.532  22.810  26.981  1.00  0.00     0.240 C 
ATOM     14  H   UNL A   1      35.037  21.987  27.878  1.00  0.00     0.164 HD
ATOM     15  O   UNL A   1      32.964  22.796  28.082  1.00  0.00    -0.273 OA
BRANCH  13  16
ATOM     16  C   UNL A   1      32.762  23.324  25.776  1.00  0.00     0.222 C 
BRANCH  16  17
ATOM     17  N   UNL A   1      31.981  24.552  25.971  1.00  0.00    -0.338 N 
ATOM     18  C   UNL A   1      30.603  24.508  26.208  1.00  0.00     0.087 A 
ATOM     19  C   UNL A   1      32.379  25.810  25.544  1.00  0.00     0.050 A 
ATOM     20  C   UNL A   1      29.893  25.590  25.707  1.00  0.00     0.029 A 
ATOM     21  C   UNL A   1      30.803  26.481  25.103  1.00  0.00     0.014 A 
ATOM     22  C   UNL A   1      33.894  26.465  24.800  1.00  0.00     0.027 A 
ATOM     23  C   UNL A   1      30.711  27.894  23.988  1.00  0.00     0.027 A 
ATOM     24  C   UNL A   1      33.812  27.892  23.697  1.00  0.00     0.003 A 
ATOM     25  Br  UNL A   1      29.023  28.337  23.212  1.00  0.00    -0.050 Br
ATOM     26  C   UNL A   1      32.209  28.552  23.225  1.00  0.00     0.016 A 
ENDBRANCH  16  17
ENDBRANCH  13  16
ENDBRANCH   8  12
ENDBRANCH   5   8
ENDBRANCH   3   4
ENDBRANCH   2   3
ENDBRANCH   1   2
BRANCH   1  27
ATOM     27  C   UNL A   1      41.902  19.426  27.607  1.00  0.00     0.002 C 
BRANCH  27  28
ATOM     28  C   UNL A   1      42.621  18.735  26.440  1.00  0.00     0.021 C 
BRANCH  28  29
ATOM     29  C   UNL A   1      43.056  19.740  25.396  1.00  0.00     0.116 C 
BRANCH  29  30
ATOM     30  N   UNL A   1      44.515  19.797  25.402  1.00  0.00    -0.352 N 
ATOM     31  C   UNL A   1      45.311  20.843  25.059  1.00  0.00     0.251 C 
ATOM     32  H   UNL A   1      44.979  18.976  25.688  1.00  0.00     0.163 HD
ATOM     33  O   UNL A   1      46.416  20.685  24.564  1.00  0.00    -0.269 OA
BRANCH  31  34
ATOM     34  C   UNL A   1      44.846  22.141  25.529  1.00  0.00     0.039 A 
ATOM     35  C   UNL A   1      43.948  22.890  24.781  1.00  0.00     0.014 A 
ATOM     36  C   UNL A   1      45.394  22.605  26.737  1.00  0.00     0.014 A 
ATOM     37  C   UNL A   1      43.633  24.151  25.250  1.00  0.00     0.010 A 
ATOM     38  C   UNL A   1      44.953  23.769  27.278  1.00  0.00     0.010 A 
ATOM     39  C   UNL A   1      44.170  24.579  26.480  1.00  0.00    -0.014 A 
BRANCH  39  40
ATOM     40  C   UNL A   1      43.785  25.834  27.072  1.00  0.00     0.031 A 
ATOM     41  C   UNL A   1      44.771  26.883  26.738  1.00  0.00     0.074 A 
ATOM     42  C   UNL A   1      42.597  26.019  27.684  1.00  0.00     0.049 A 
ATOM     43  N   UNL A   1      45.787  27.216  27.461  1.00  0.00    -0.248 NA
ATOM     44  C   UNL A   1      44.851  27.378  25.351  1.00  0.00     0.031 C 
ATOM     45  C   UNL A   1      41.454  25.109  27.814  1.00  0.00     0.029 A 
ATOM     46  N   UNL A   1      42.165  27.131  28.337  1.00  0.00    -0.354 N 
ATOM     47  C   UNL A   1      46.426  28.217  26.749  1.00  0.00     0.074 A 
ATOM     48  C   UNL A   1      46.003  28.055  25.386  1.00  0.00     0.031 C 
ATOM     49  C   UNL A   1      40.391  25.777  28.328  1.00  0.00     0.029 A 
ATOM     50  C   UNL A   1      40.817  27.109  28.714  1.00  0.00     0.049 A 
ATOM     51  H   UNL A   1      42.756  27.893  28.532  1.00  0.00     0.167 HD
ATOM     52  C   UNL A   1      46.954  29.279  27.418  1.00  0.00     0.037 A 
ATOM     53  C   UNL A   1      40.149  28.125  29.331  1.00  0.00     0.037 A 
ATOM     54  C   UNL A   1      47.061  28.969  28.831  1.00  0.00     0.049 A 
ATOM     55  C   UNL A   1      41.201  28.957  29.988  1.00  0.00     0.074 A 
ATOM     56  C   UNL A   1      47.734  28.008  29.561  1.00  0.00     0.029 A 
ATOM     57  N   UNL A   1      46.042  29.417  29.641  1.00  0.00    -0.354 N 
ATOM     58  N   UNL A   1      41.957  28.510  30.959  1.00  0.00    -0.248 NA
ATOM     59  C   UNL A   1      41.769  30.041  29.199  1.00  0.00     0.031 C 
ATOM     60  C   UNL A   1      46.815  27.602  30.575  1.00  0.00     0.029 A 
ATOM     61  C   UNL A   1      45.675  28.403  30.490  1.00  0.00     0.049 A 
ATOM     62  H   UNL A   1      45.644  30.318  29.617  1.00  0.00     0.167 HD
ATOM     63  C   UNL A   1      43.239  28.946  30.645  1.00  0.00     0.074 A 
ATOM     64  C   UNL A   1      43.051  29.911  29.558  1.00  0.00     0.031 C 
ATOM     65  C   UNL A   1      44.348  28.263  31.063  1.00  0.00     0.037 A 
BRANCH  52  66
ATOM     66  C   UNL A   1      46.943  30.701  26.903  1.00  0.00     0.058 A 
ATOM     67  C   UNL A   1      48.148  31.433  26.936  1.00  0.00     0.135 A 
ATOM     68  C   UNL A   1      45.783  31.463  26.637  1.00  0.00     0.135 A 
ATOM     69  F   UNL A   1      49.318  30.817  27.173  1.00  0.00    -0.206 F 
ATOM     70  C   UNL A   1      48.185  32.819  26.800  1.00  0.00     0.059 A 
ATOM     71  C   UNL A   1      45.804  32.839  26.453  1.00  0.00     0.059 A 
ATOM     72  F   UNL A   1      44.553  30.938  26.622  1.00  0.00    -0.206 F 
ATOM     73  C   UNL A   1      47.004  33.515  26.570  1.00  0.00     0.060 A 
BRANCH  73  74
ATOM     74  S   UNL A   1      47.043  35.309  26.460  1.00  0.00     0.124 S 
ATOM     75  O   UNL A   1      48.091  35.519  25.467  1.00  0.00    -0.237 OA
ATOM     76  O   UNL A   1      45.681  35.608  26.029  1.00  0.00    -0.237 OA
ATOM     77  O   UNL A   1      47.369  35.723  27.821  1.00  0.00    -0.744 OA
ENDBRANCH  73  74
ENDBRANCH  52  66
BRANCH  53  78
ATOM     78  C   UNL A   1      38.793  28.669  29.005  1.00  0.00     0.058 A 
ATOM     79  C   UNL A   1      37.798  28.817  29.995  1.00  0.00     0.135 A 
ATOM     80  C   UNL A   1      38.545  29.336  27.789  1.00  0.00     0.135 A 
ATOM     81  F   UNL A   1      37.949  28.232  31.194  1.00  0.00    -0.206 F 
ATOM     82  C   UNL A   1      36.659  29.619  29.810  1.00  0.00     0.059 A 
ATOM     83  C   UNL A   1      37.420  30.139  27.582  1.00  0.00     0.059 A 
ATOM     84  F   UNL A   1      39.439  29.297  26.791  1.00  0.00    -0.206 F 
ATOM     85  C   UNL A   1      36.491  30.298  28.605  1.00  0.00     0.060 A 
BRANCH  85  86
ATOM     86  S   UNL A   1      35.117  31.465  28.411  1.00  0.00     0.124 S 
ATOM     87  O   UNL A   1      34.858  31.866  29.790  1.00  0.00    -0.237 OA
ATOM     88  O   UNL A   1      35.698  32.488  27.549  1.00  0.00    -0.237 OA
ATOM     89  O   UNL A   1      34.069  30.655  27.792  1.00  0.00    -0.744 OA
ENDBRANCH  85  86
ENDBRANCH  53  78
BRANCH  65  90
ATOM     90  C   UNL A   1      44.180  27.154  32.079  1.00  0.00     0.058 A 
ATOM     91  C   UNL A   1      44.158  25.778  31.777  1.00  0.00     0.135 A 
ATOM     92  C   UNL A   1      44.265  27.500  33.435  1.00  0.00     0.135 A 
ATOM     93  F   UNL A   1      44.156  25.353  30.507  1.00  0.00    -0.206 F 
ATOM     94  C   UNL A   1      44.215  24.798  32.776  1.00  0.00     0.059 A 
ATOM     95  C   UNL A   1      44.350  26.544  34.445  1.00  0.00     0.059 A 
ATOM     96  F   UNL A   1      44.344  28.793  33.790  1.00  0.00    -0.206 F 
ATOM     97  C   UNL A   1      44.323  25.193  34.109  1.00  0.00     0.060 A 
BRANCH  97  98
ATOM     98  S   UNL A   1      44.493  23.937  35.400  1.00  0.00     0.124 S 
ATOM     99  O   UNL A   1      45.932  23.931  35.638  1.00  0.00    -0.237 OA
ATOM    100  O   UNL A   1      43.674  24.481  36.479  1.00  0.00    -0.237 OA
ATOM    101  O   UNL A   1      43.961  22.729  34.774  1.00  0.00    -0.744 OA
ENDBRANCH  97  98
ENDBRANCH  65  90
ENDBRANCH  39  40
ENDBRANCH  31  34
ENDBRANCH  29  30
ENDBRANCH  28  29
ENDBRANCH  27  28
ENDBRANCH   1  27
TORSDOF 20
ENDMDL
MODEL 2
REMARK VINA RESULT:     -12.8      2.740      3.699
REMARK SMILES CC(C)[C@H](NC(=O)Cn1ccc2c(Br)cccc21)C(=O)NCCCCCCNC(=O)c1ccc(-c2c3nc(c(-c4c(F)cc(S(=O)(=O)[O-])cc4F)c4ccc([nH]4)c(-c4c(F)cc(S(=O)(=O)[O-])cc4F)c4nc(c(-c5c(F)cc(S(=O)(=O)[O-])cc5F)c5ccc2[nH]5)C=C4)C=C3)cc1
REMARK SMILES IDX 24 1 23 2 22 3 21 4 19 5 20 6 4 8 2 9 1 10 3 11 5 12 6 13
REMARK SMILES IDX 7 15 8 16 9 17 10 18 18 19 11 20 12 21 17 22 13 23 16 24
REMARK SMILES IDX 14 25 15 26 25 27 26 28 27 29 28 30 29 31 30 33 31 34 32 35
REMARK SMILES IDX 96 36 33 37 95 38 34 39 35 40 36 41 89 42 37 43 94 44 88 45
REMARK SMILES IDX 90 46 38 47 93 48 87 49 86 50 39 52 73 53 52 54 72 55 53 56
REMARK SMILES IDX 56 57 71 58 91 59 54 60 55 61 70 63 92 64 57 65 40 66 41 67
REMARK SMILES IDX 50 68 42 69 43 70 49 71 51 72 44 73 45 74 46 75 47 76 48 77
REMARK SMILES IDX 74 78 75 79 84 80 76 81 77 82 83 83 85 84 78 85 79 86 80 87
REMARK SMILES IDX 81 88 82 89 58 90 59 91 68 92 60 93 61 94 67 95 69 96 62 97
REMARK SMILES IDX 63 98 64 99 65 100 66 101
REMARK H PARENT 21 7 5 14 28 32 90 51 56 62
REMARK Flexibility Score: inf
ROOT
ATOM      1  C   UNL A   1      38.095  23.192  25.993  1.00  0.00     0.002 C 
ENDROOT
BRANCH   1   2
ATOM      2  C   UNL A   1      36.387  23.350  26.131  1.00  0.00     0.021 C 
BRANCH   2   3
ATOM      3  C   UNL A   1      34.729  21.947  26.462  1.00  0.00     0.116 C 
BRANCH   3   4
ATOM      4  N   UNL A   1      34.399  20.510  25.990  1.00  0.00    -0.354 N 
ATOM      5  C   UNL A   1      33.421  20.177  25.091  1.00  0.00     0.242 C 
ATOM      6  O   UNL A   1      33.499  19.073  24.542  1.00  0.00    -0.273 OA
ATOM      7  H   UNL A   1      34.935  19.775  26.366  1.00  0.00     0.163 HD
BRANCH   5   8
ATOM      8  C   UNL A   1      32.255  21.164  24.739  1.00  0.00     0.173 C 
BRANCH   8   9
ATOM      9  C   UNL A   1      32.453  22.104  23.524  1.00  0.00     0.015 C 
ATOM     10  C   UNL A   1      33.863  22.663  23.309  1.00  0.00     0.010 C 
ATOM     11  C   UNL A   1      32.017  21.381  22.245  1.00  0.00     0.010 C 
ENDBRANCH   8   9
BRANCH   8  12
ATOM     12  N   UNL A   1      31.652  21.775  25.962  1.00  0.00    -0.343 N 
ATOM     13  C   UNL A   1      31.537  22.988  26.570  1.00  0.00     0.240 C 
ATOM     14  H   UNL A   1      31.197  21.085  26.495  1.00  0.00     0.164 HD
ATOM     15  O   UNL A   1      30.938  22.977  27.655  1.00  0.00    -0.273 OA
BRANCH  13  16
ATOM     16  C   UNL A   1      32.025  24.321  26.027  1.00  0.00     0.222 C 
BRANCH  16  17
ATOM     17  N   UNL A   1      30.997  25.235  25.513  1.00  0.00    -0.338 N 
ATOM     18  C   UNL A   1      30.313  24.966  24.323  1.00  0.00     0.087 A 
ATOM     19  C   UNL A   1      30.892  26.573  25.863  1.00  0.00     0.050 A 
ATOM     20  C   UNL A   1      29.936  26.091  23.602  1.00  0.00     0.029 A 
ATOM     21  C   UNL A   1      30.338  27.236  24.319  1.00  0.00     0.014 A 
ATOM     22  C   UNL A   1      31.743  27.631  27.061  1.00  0.00     0.027 A 
ATOM     23  C   UNL A   1      30.526  28.997  23.981  1.00  0.00     0.027 A 
ATOM     24  C   UNL A   1      31.919  29.398  26.738  1.00  0.00     0.003 A 
ATOM     25  Br  UNL A   1      30.305  29.610  22.186  1.00  0.00    -0.050 Br
ATOM     26  C   UNL A   1      31.384  30.064  25.157  1.00  0.00     0.016 A 
ENDBRANCH  16  17
ENDBRANCH  13  16
ENDBRANCH   8  12
ENDBRANCH   5   8
ENDBRANCH   3   4
ENDBRANCH   2   3
ENDBRANCH   1   2
BRANCH   1  27
ATOM     27  C   UNL A   1      38.606  21.828  25.512  1.00  0.00     0.002 C 
BRANCH  27  28
ATOM     28  C   UNL A   1      39.729  21.222  26.366  1.00  0.00     0.021 C 
BRANCH  28  29
ATOM     29  C   UNL A   1      40.321  22.254  27.300  1.00  0.00     0.116 C 
BRANCH  29  30
ATOM     30  N   UNL A   1      41.770  22.249  27.123  1.00  0.00    -0.352 N 
ATOM     31  C   UNL A   1      42.552  23.238  26.617  1.00  0.00     0.251 C 
ATOM     32  H   UNL A   1      42.237  21.429  27.403  1.00  0.00     0.163 HD
ATOM     33  O   UNL A   1      43.581  23.003  26.001  1.00  0.00    -0.269 OA
BRANCH  31  34
ATOM     34  C   UNL A   1      42.195  24.581  27.054  1.00  0.00     0.039 A 
ATOM     35  C   UNL A   1      41.476  25.432  26.227  1.00  0.00     0.014 A 
ATOM     36  C   UNL A   1      42.661  24.975  28.319  1.00  0.00     0.014 A 
ATOM     37  C   UNL A   1      41.262  26.720  26.677  1.00  0.00     0.010 A 
ATOM     38  C   UNL A   1      42.305  26.181  28.828  1.00  0.00     0.010 A 
ATOM     39  C   UNL A   1      41.712  27.080  27.963  1.00  0.00    -0.014 A 
BRANCH  39  40
ATOM     40  C   UNL A   1      41.415  28.371  28.529  1.00  0.00     0.031 A 
ATOM     41  C   UNL A   1      42.495  29.329  28.215  1.00  0.00     0.074 A 
ATOM     42  C   UNL A   1      40.229  28.662  29.101  1.00  0.00     0.049 A 
ATOM     43  N   UNL A   1      43.513  29.586  28.965  1.00  0.00    -0.248 NA
ATOM     44  C   UNL A   1      42.658  29.797  26.826  1.00  0.00     0.031 C 
ATOM     45  C   UNL A   1      39.010  27.852  29.205  1.00  0.00     0.029 A 
ATOM     46  N   UNL A   1      39.872  29.814  29.729  1.00  0.00    -0.354 N 
ATOM     47  C   UNL A   1      44.255  30.521  28.263  1.00  0.00     0.074 A 
ATOM     48  C   UNL A   1      43.861  30.376  26.889  1.00  0.00     0.031 C 
ATOM     49  C   UNL A   1      37.992  28.613  29.679  1.00  0.00     0.029 A 
ATOM     50  C   UNL A   1      38.516  29.910  30.063  1.00  0.00     0.049 A 
ATOM     51  H   UNL A   1      40.518  30.528  29.933  1.00  0.00     0.167 HD
ATOM     52  C   UNL A   1      44.849  31.543  28.937  1.00  0.00     0.037 A 
ATOM     53  C   UNL A   1      37.917  30.986  30.648  1.00  0.00     0.037 A 
ATOM     54  C   UNL A   1      44.887  31.245  30.355  1.00  0.00     0.049 A 
ATOM     55  C   UNL A   1      39.014  31.737  31.329  1.00  0.00     0.074 A 
ATOM     56  C   UNL A   1      45.455  30.241  31.117  1.00  0.00     0.029 A 
ATOM     57  N   UNL A   1      43.886  31.788  31.128  1.00  0.00    -0.354 N 
ATOM     58  N   UNL A   1      39.701  31.242  32.327  1.00  0.00    -0.248 NA
ATOM     59  C   UNL A   1      39.695  32.758  30.546  1.00  0.00     0.031 C 
ATOM     60  C   UNL A   1      44.475  29.927  32.106  1.00  0.00     0.029 A 
ATOM     61  C   UNL A   1      43.409  30.819  31.976  1.00  0.00     0.049 A 
ATOM     62  H   UNL A   1      43.565  32.717  31.081  1.00  0.00     0.167 HD
ATOM     63  C   UNL A   1      41.023  31.565  32.049  1.00  0.00     0.074 A 
ATOM     64  C   UNL A   1      40.950  32.527  30.946  1.00  0.00     0.031 C 
ATOM     65  C   UNL A   1      42.058  30.798  32.509  1.00  0.00     0.037 A 
BRANCH  52  66
ATOM     66  C   UNL A   1      44.973  32.954  28.406  1.00  0.00     0.058 A 
ATOM     67  C   UNL A   1      46.265  33.482  28.205  1.00  0.00     0.135 A 
ATOM     68  C   UNL A   1      43.921  33.897  28.343  1.00  0.00     0.135 A 
ATOM     69  F   UNL A   1      47.344  32.683  28.235  1.00  0.00    -0.206 F 
ATOM     70  C   UNL A   1      46.499  34.845  28.038  1.00  0.00     0.059 A 
ATOM     71  C   UNL A   1      44.129  35.253  28.132  1.00  0.00     0.059 A 
ATOM     72  F   UNL A   1      42.642  33.578  28.563  1.00  0.00    -0.206 F 
ATOM     73  C   UNL A   1      45.423  35.726  28.016  1.00  0.00     0.060 A 
BRANCH  73  74
ATOM     74  S   UNL A   1      45.730  37.491  27.866  1.00  0.00     0.124 S 
ATOM     75  O   UNL A   1      45.862  37.644  26.422  1.00  0.00    -0.237 OA
ATOM     76  O   UNL A   1      44.522  38.051  28.464  1.00  0.00    -0.237 OA
ATOM     77  O   UNL A   1      46.953  37.686  28.638  1.00  0.00    -0.744 OA
ENDBRANCH  73  74
ENDBRANCH  52  66
BRANCH  53  78
ATOM     78  C   UNL A   1      36.622  31.637  30.274  1.00  0.00     0.058 A 
ATOM     79  C   UNL A   1      35.831  32.313  31.229  1.00  0.00     0.135 A 
ATOM     80  C   UNL A   1      36.283  31.873  28.928  1.00  0.00     0.135 A 
ATOM     81  F   UNL A   1      36.084  32.165  32.538  1.00  0.00    -0.206 F 
ATOM     82  C   UNL A   1      34.808  33.206  30.868  1.00  0.00     0.059 A 
ATOM     83  C   UNL A   1      35.270  32.757  28.545  1.00  0.00     0.059 A 
ATOM     84  F   UNL A   1      36.990  31.314  27.934  1.00  0.00    -0.206 F 
ATOM     85  C   UNL A   1      34.552  33.442  29.519  1.00  0.00     0.060 A 
BRANCH  85  86
ATOM     86  S   UNL A   1      33.352  34.713  29.037  1.00  0.00     0.124 S 
ATOM     87  O   UNL A   1      34.216  35.779  28.543  1.00  0.00    -0.237 OA
ATOM     88  O   UNL A   1      32.554  34.021  28.030  1.00  0.00    -0.237 OA
ATOM     89  O   UNL A   1      32.652  35.009  30.286  1.00  0.00    -0.744 OA
ENDBRANCH  85  86
ENDBRANCH  53  78
BRANCH  65  90
ATOM     90  C   UNL A   1      41.767  29.720  33.532  1.00  0.00     0.058 A 
ATOM     91  C   UNL A   1      41.545  28.361  33.232  1.00  0.00     0.135 A 
ATOM     92  C   UNL A   1      41.941  30.047  34.884  1.00  0.00     0.135 A 
ATOM     93  F   UNL A   1      41.445  27.945  31.963  1.00  0.00    -0.206 F 
ATOM     94  C   UNL A   1      41.494  27.380  34.231  1.00  0.00     0.059 A 
ATOM     95  C   UNL A   1      41.921  29.086  35.892  1.00  0.00     0.059 A 
ATOM     96  F   UNL A   1      42.210  31.316  35.234  1.00  0.00    -0.206 F 
ATOM     97  C   UNL A   1      41.696  27.753  35.559  1.00  0.00     0.060 A 
BRANCH  97  98
ATOM     98  S   UNL A   1      41.727  26.482  36.846  1.00  0.00     0.124 S 
ATOM     99  O   UNL A   1      40.477  26.730  37.556  1.00  0.00    -0.237 OA
ATOM    100  O   UNL A   1      41.781  25.247  36.069  1.00  0.00    -0.237 OA
ATOM    101  O   UNL A   1      42.941  26.788  37.599  1.00  0.00    -0.744 OA
ENDBRANCH  97  98
ENDBRANCH  65  90
ENDBRANCH  39  40
ENDBRANCH  31  34
ENDBRANCH  29  30
ENDBRANCH  28  29
ENDBRANCH  27  28
ENDBRANCH   1  27
TORSDOF 20
ENDMDL
MODEL 3
REMARK VINA RESULT:     -12.2      3.005      4.534
REMARK SMILES CC(C)[C@H](NC(=O)Cn1ccc2c(Br)cccc21)C(=O)NCCCCCCNC(=O)c1ccc(-c2c3nc(c(-c4c(F)cc(S(=O)(=O)[O-])cc4F)c4ccc([nH]4)c(-c4c(F)cc(S(=O)(=O)[O-])cc4F)c4nc(c(-c5c(F)cc(S(=O)(=O)[O-])cc5F)c5ccc2[nH]5)C=C4)C=C3)cc1
REMARK SMILES IDX 24 1 23 2 22 3 21 4 19 5 20 6 4 8 2 9 1 10 3 11 5 12 6 13
REMARK SMILES IDX 7 15 8 16 9 17 10 18 18 19 11 20 12 21 17 22 13 23 16 24
REMARK SMILES IDX 14 25 15 26 25 27 26 28 27 29 28 30 29 31 30 33 31 34 32 35
REMARK SMILES IDX 96 36 33 37 95 38 34 39 35 40 36 41 89 42 37 43 94 44 88 45
REMARK SMILES IDX 90 46 38 47 93 48 87 49 86 50 39 52 73 53 52 54 72 55 53 56
REMARK SMILES IDX 56 57 71 58 91 59 54 60 55 61 70 63 92 64 57 65 40 66 41 67
REMARK SMILES IDX 50 68 42 69 43 70 49 71 51 72 44 73 45 74 46 75 47 76 48 77
REMARK SMILES IDX 74 78 75 79 84 80 76 81 77 82 83 83 85 84 78 85 79 86 80 87
REMARK SMILES IDX 81 88 82 89 58 90 59 91 68 92 60 93 61 94 67 95 69 96 62 97
REMARK SMILES IDX 63 98 64 99 65 100 66 101
REMARK H PARENT 21 7 5 14 28 32 90 51 56 62
REMARK Flexibility Score: inf
ROOT
ATOM      1  C   UNL A   1      37.064  23.674  25.267  1.00  0.00     0.002 C 
ENDROOT
BRANCH   1   2
ATOM      2  C   UNL A   1      35.520  24.133  25.873  1.00  0.00     0.021 C 
BRANCH   2   3
ATOM      3  C   UNL A   1      34.105  25.751  25.422  1.00  0.00     0.116 C 
BRANCH   3   4
ATOM      4  N   UNL A   1      33.567  26.983  26.190  1.00  0.00    -0.354 N 
ATOM      5  C   UNL A   1      32.519  27.768  25.791  1.00  0.00     0.242 C 
ATOM      6  O   UNL A   1      31.975  28.474  26.645  1.00  0.00    -0.273 OA
ATOM      7  H   UNL A   1      34.014  27.222  27.033  1.00  0.00     0.163 HD
BRANCH   5   8
ATOM      8  C   UNL A   1      31.997  27.758  24.312  1.00  0.00     0.173 C 
BRANCH   8   9
ATOM      9  C   UNL A   1      32.385  28.954  23.407  1.00  0.00     0.015 C 
ATOM     10  C   UNL A   1      33.663  28.803  22.576  1.00  0.00     0.010 C 
ATOM     11  C   UNL A   1      31.223  29.273  22.460  1.00  0.00     0.010 C 
ENDBRANCH   8   9
BRANCH   8  12
ATOM     12  N   UNL A   1      30.582  27.286  24.222  1.00  0.00    -0.343 N 
ATOM     13  C   UNL A   1      29.762  26.349  24.772  1.00  0.00     0.240 C 
ATOM     14  H   UNL A   1      30.090  27.819  23.557  1.00  0.00     0.164 HD
ATOM     15  O   UNL A   1      28.610  26.326  24.315  1.00  0.00    -0.273 OA
BRANCH  13  16
ATOM     16  C   UNL A   1      30.113  25.389  25.897  1.00  0.00     0.222 C 
BRANCH  16  17
ATOM     17  N   UNL A   1      30.450  24.015  25.505  1.00  0.00    -0.338 N 
ATOM     18  C   UNL A   1      30.486  22.979  26.444  1.00  0.00     0.087 A 
ATOM     19  C   UNL A   1      31.145  23.676  24.354  1.00  0.00     0.050 A 
ATOM     20  C   UNL A   1      31.417  21.983  26.177  1.00  0.00     0.029 A 
ATOM     21  C   UNL A   1      32.067  22.295  24.965  1.00  0.00     0.014 A 
ATOM     22  C   UNL A   1      31.738  24.610  22.921  1.00  0.00     0.027 A 
ATOM     23  C   UNL A   1      33.548  21.750  24.094  1.00  0.00     0.027 A 
ATOM     24  C   UNL A   1      33.209  24.059  22.032  1.00  0.00     0.003 A 
ATOM     25  Br  UNL A   1      34.736  20.545  24.979  1.00  0.00    -0.050 Br
ATOM     26  C   UNL A   1      34.162  22.677  22.672  1.00  0.00     0.016 A 
ENDBRANCH  16  17
ENDBRANCH  13  16
ENDBRANCH   8  12
ENDBRANCH   5   8
ENDBRANCH   3   4
ENDBRANCH   2   3
ENDBRANCH   1   2
BRANCH   1  27
ATOM     27  C   UNL A   1      38.209  23.659  26.288  1.00  0.00     0.002 C 
BRANCH  27  28
ATOM     28  C   UNL A   1      39.221  22.518  26.105  1.00  0.00     0.021 C 
BRANCH  28  29
ATOM     29  C   UNL A   1      40.050  22.320  27.355  1.00  0.00     0.116 C 
BRANCH  29  30
ATOM     30  N   UNL A   1      41.458  22.317  26.970  1.00  0.00    -0.352 N 
ATOM     31  C   UNL A   1      42.160  23.311  26.364  1.00  0.00     0.251 C 
ATOM     32  H   UNL A   1      41.960  21.494  27.172  1.00  0.00     0.163 HD
ATOM     33  O   UNL A   1      43.088  23.081  25.604  1.00  0.00    -0.269 OA
BRANCH  31  34
ATOM     34  C   UNL A   1      41.872  24.650  26.860  1.00  0.00     0.039 A 
ATOM     35  C   UNL A   1      41.260  25.594  26.047  1.00  0.00     0.014 A 
ATOM     36  C   UNL A   1      42.292  24.939  28.169  1.00  0.00     0.014 A 
ATOM     37  C   UNL A   1      41.109  26.867  26.561  1.00  0.00     0.010 A 
ATOM     38  C   UNL A   1      41.990  26.138  28.728  1.00  0.00     0.010 A 
ATOM     39  C   UNL A   1      41.509  27.123  27.887  1.00  0.00    -0.014 A 
BRANCH  39  40
ATOM     40  C   UNL A   1      41.270  28.399  28.511  1.00  0.00     0.031 A 
ATOM     41  C   UNL A   1      42.369  29.336  28.200  1.00  0.00     0.074 A 
ATOM     42  C   UNL A   1      40.112  28.702  29.132  1.00  0.00     0.049 A 
ATOM     43  N   UNL A   1      43.417  29.534  28.926  1.00  0.00    -0.248 NA
ATOM     44  C   UNL A   1      42.503  29.854  26.825  1.00  0.00     0.031 C 
ATOM     45  C   UNL A   1      38.873  27.925  29.245  1.00  0.00     0.029 A 
ATOM     46  N   UNL A   1      39.810  29.839  29.815  1.00  0.00    -0.354 N 
ATOM     47  C   UNL A   1      44.165  30.473  28.237  1.00  0.00     0.074 A 
ATOM     48  C   UNL A   1      43.724  30.395  26.872  1.00  0.00     0.031 C 
ATOM     49  C   UNL A   1      37.893  28.696  29.779  1.00  0.00     0.029 A 
ATOM     50  C   UNL A   1      38.469  29.961  30.197  1.00  0.00     0.049 A 
ATOM     51  H   UNL A   1      40.484  30.524  30.026  1.00  0.00     0.167 HD
ATOM     52  C   UNL A   1      44.811  31.451  28.930  1.00  0.00     0.037 A 
ATOM     53  C   UNL A   1      37.921  31.031  30.841  1.00  0.00     0.037 A 
ATOM     54  C   UNL A   1      44.884  31.096  30.334  1.00  0.00     0.049 A 
ATOM     55  C   UNL A   1      39.061  31.722  31.515  1.00  0.00     0.074 A 
ATOM     56  C   UNL A   1      45.444  30.047  31.038  1.00  0.00     0.029 A 
ATOM     57  N   UNL A   1      43.923  31.637  31.159  1.00  0.00    -0.354 N 
ATOM     58  N   UNL A   1      39.763  31.167  32.471  1.00  0.00    -0.248 NA
ATOM     59  C   UNL A   1      39.749  32.753  30.749  1.00  0.00     0.031 C 
ATOM     60  C   UNL A   1      44.486  29.722  32.045  1.00  0.00     0.029 A 
ATOM     61  C   UNL A   1      43.444  30.650  31.984  1.00  0.00     0.049 A 
ATOM     62  H   UNL A   1      43.630  32.577  31.159  1.00  0.00     0.167 HD
ATOM     63  C   UNL A   1      41.086  31.463  32.163  1.00  0.00     0.074 A 
ATOM     64  C   UNL A   1      41.008  32.469  31.100  1.00  0.00     0.031 C 
ATOM     65  C   UNL A   1      42.110  30.647  32.559  1.00  0.00     0.037 A 
BRANCH  52  66
ATOM     66  C   UNL A   1      44.961  32.877  28.450  1.00  0.00     0.058 A 
ATOM     67  C   UNL A   1      46.261  33.368  28.210  1.00  0.00     0.135 A 
ATOM     68  C   UNL A   1      43.942  33.857  28.473  1.00  0.00     0.135 A 
ATOM     69  F   UNL A   1      47.311  32.532  28.158  1.00  0.00    -0.206 F 
ATOM     70  C   UNL A   1      46.537  34.728  28.086  1.00  0.00     0.059 A 
ATOM     71  C   UNL A   1      44.189  35.213  28.307  1.00  0.00     0.059 A 
ATOM     72  F   UNL A   1      42.663  33.573  28.740  1.00  0.00    -0.206 F 
ATOM     73  C   UNL A   1      45.493  35.645  28.149  1.00  0.00     0.060 A 
BRANCH  73  74
ATOM     74  S   UNL A   1      45.856  37.403  28.055  1.00  0.00     0.124 S 
ATOM     75  O   UNL A   1      47.262  37.392  27.670  1.00  0.00    -0.237 OA
ATOM     76  O   UNL A   1      44.912  37.845  27.033  1.00  0.00    -0.237 OA
ATOM     77  O   UNL A   1      45.574  37.878  29.406  1.00  0.00    -0.744 OA
ENDBRANCH  73  74
ENDBRANCH  52  66
BRANCH  53  78
ATOM     78  C   UNL A   1      36.636  31.734  30.534  1.00  0.00     0.058 A 
ATOM     79  C   UNL A   1      35.765  32.164  31.559  1.00  0.00     0.135 A 
ATOM     80  C   UNL A   1      36.379  32.266  29.256  1.00  0.00     0.135 A 
ATOM     81  F   UNL A   1      35.936  31.725  32.816  1.00  0.00    -0.206 F 
ATOM     82  C   UNL A   1      34.743  33.104  31.339  1.00  0.00     0.059 A 
ATOM     83  C   UNL A   1      35.369  33.201  29.013  1.00  0.00     0.059 A 
ATOM     84  F   UNL A   1      37.165  31.957  28.214  1.00  0.00    -0.206 F 
ATOM     85  C   UNL A   1      34.570  33.637  30.063  1.00  0.00     0.060 A 
BRANCH  85  86
ATOM     86  S   UNL A   1      33.369  34.969  29.799  1.00  0.00     0.124 S 
ATOM     87  O   UNL A   1      34.207  36.036  29.262  1.00  0.00    -0.237 OA
ATOM     88  O   UNL A   1      32.433  34.361  28.860  1.00  0.00    -0.237 OA
ATOM     89  O   UNL A   1      32.833  35.213  31.137  1.00  0.00    -0.744 OA
ENDBRANCH  85  86
ENDBRANCH  53  78
BRANCH  65  90
ATOM     90  C   UNL A   1      41.819  29.539  33.548  1.00  0.00     0.058 A 
ATOM     91  C   UNL A   1      41.643  28.182  33.212  1.00  0.00     0.135 A 
ATOM     92  C   UNL A   1      41.941  29.840  34.912  1.00  0.00     0.135 A 
ATOM     93  F   UNL A   1      41.593  27.792  31.933  1.00  0.00    -0.206 F 
ATOM     94  C   UNL A   1      41.589  27.178  34.187  1.00  0.00     0.059 A 
ATOM     95  C   UNL A   1      41.918  28.856  35.898  1.00  0.00     0.059 A 
ATOM     96  F   UNL A   1      42.165  31.108  35.298  1.00  0.00    -0.206 F 
ATOM     97  C   UNL A   1      41.740  27.526  35.530  1.00  0.00     0.060 A 
BRANCH  97  98
ATOM     98  S   UNL A   1      41.767  26.227  36.789  1.00  0.00     0.124 S 
ATOM     99  O   UNL A   1      40.464  26.387  37.426  1.00  0.00    -0.237 OA
ATOM    100  O   UNL A   1      41.938  25.017  35.990  1.00  0.00    -0.237 OA
ATOM    101  O   UNL A   1      42.914  26.582  37.621  1.00  0.00    -0.744 OA
ENDBRANCH  97  98
ENDBRANCH  65  90
ENDBRANCH  39  40
ENDBRANCH  31  34
ENDBRANCH  29  30
ENDBRANCH  28  29
ENDBRANCH  27  28
ENDBRANCH   1  27
TORSDOF 20
ENDMDL
