MODEL 1
REMARK VINA RESULT:      -7.7      0.000      0.000
REMARK SMILES O=C(NCCCCCCNC(=O)[C@H](CO)NC(=O)[C@H](Cc1c[nH]c2ccccc12)NC(=O)[C@H](Cc1ccc(O)cc1)NC(=O)c1ccc(F)cc1)c1ccc(-c2c3nc(c(-c4c(F)cc(S(=O)(=O)[O-])cc4F)c4ccc([nH]4)c(-c4c(F)cc(S(=O)(=O)[O-])cc4F)c4nc(c(-c5c(F)cc(S(=O)(=O)[O-])cc5F)c5ccc2[nH]5)C=C4)C=C3)cc1
REMARK SMILES IDX 8 1 7 2 6 3 5 4 4 5 3 6 1 7 2 8 52 10 53 11 117 12 54 13
REMARK SMILES IDX 116 14 55 15 56 16 57 17 110 18 58 19 115 20 109 21 111 22
REMARK SMILES IDX 59 23 114 24 108 25 107 26 60 28 94 29 73 30 93 31 74 32
REMARK SMILES IDX 77 33 92 34 112 35 75 36 76 37 91 39 113 40 78 41 61 42
REMARK SMILES IDX 62 43 71 44 63 45 64 46 70 47 72 48 65 49 66 50 67 51 68 52
REMARK SMILES IDX 69 53 95 54 96 55 105 56 97 57 98 58 104 59 106 60 99 61
REMARK SMILES IDX 100 62 101 63 102 64 103 65 79 66 80 67 89 68 81 69 82 70
REMARK SMILES IDX 88 71 90 72 83 73 84 74 85 75 86 76 87 77 9 78 10 79 11 80
REMARK SMILES IDX 12 82 13 83 16 84 17 85 18 87 19 88 30 89 31 90 32 92 33 93
REMARK SMILES IDX 42 94 43 95 44 97 45 98 46 99 51 100 47 101 50 102 48 103
REMARK SMILES IDX 49 104 34 105 35 106 36 107 41 108 37 109 40 110 38 111
REMARK SMILES IDX 39 112 20 114 21 115 22 116 29 117 23 118 24 119 28 120
REMARK SMILES IDX 25 122 27 123 26 124 14 125 15 126
REMARK H PARENT 3 9 111 27 77 38 10 81 16 86 30 91 42 96 39 113 23 121 15 127
REMARK Flexibility Score: inf
ROOT
ATOM      1  C   UNL A   1      39.835  27.501  29.119  1.00  0.00     0.021 C 
ENDROOT
BRANCH   1   2
ATOM      2  C   UNL A   1      40.293  26.531  28.026  1.00  0.00     0.002 C 
BRANCH   2   3
ATOM      3  C   UNL A   1      39.285  25.452  27.618  1.00  0.00     0.002 C 
BRANCH   3   4
ATOM      4  C   UNL A   1      39.808  24.367  26.679  1.00  0.00     0.021 C 
BRANCH   4   5
ATOM      5  C   UNL A   1      41.094  24.707  25.938  1.00  0.00     0.116 C 
BRANCH   5   6
ATOM      6  N   UNL A   1      41.966  23.567  25.754  1.00  0.00    -0.352 N 
ATOM      7  O   UNL A   1      43.780  22.272  26.119  1.00  0.00    -0.269 OA
ATOM      8  C   UNL A   1      43.092  23.216  26.473  1.00  0.00     0.251 C 
ATOM      9  H   UNL A   1      41.725  22.960  25.019  1.00  0.00     0.163 HD
BRANCH   8  10
ATOM     10  C   UNL A   1      43.471  24.029  27.650  1.00  0.00     0.039 A 
ATOM     11  C   UNL A   1      42.689  24.017  28.806  1.00  0.00     0.014 A 
ATOM     12  C   UNL A   1      44.603  24.844  27.572  1.00  0.00     0.014 A 
ATOM     13  C   UNL A   1      42.944  24.936  29.817  1.00  0.00     0.010 A 
ATOM     14  C   UNL A   1      44.913  25.702  28.631  1.00  0.00     0.010 A 
ATOM     15  C   UNL A   1      44.063  25.785  29.745  1.00  0.00    -0.014 A 
BRANCH  15  16
ATOM     16  C   UNL A   1      44.334  26.723  30.865  1.00  0.00     0.031 A 
ATOM     17  C   UNL A   1      44.163  28.208  30.696  1.00  0.00     0.074 A 
ATOM     18  C   UNL A   1      44.688  26.214  32.061  1.00  0.00     0.049 A 
ATOM     19  N   UNL A   1      44.326  29.160  31.581  1.00  0.00    -0.248 NA
ATOM     20  C   UNL A   1      43.766  28.692  29.365  1.00  0.00     0.031 C 
ATOM     21  C   UNL A   1      44.890  24.789  32.341  1.00  0.00     0.029 A 
ATOM     22  N   UNL A   1      44.916  26.822  33.268  1.00  0.00    -0.354 N 
ATOM     23  C   UNL A   1      44.067  30.351  30.914  1.00  0.00     0.074 A 
ATOM     24  C   UNL A   1      43.766  30.007  29.541  1.00  0.00     0.031 C 
ATOM     25  C   UNL A   1      45.147  24.629  33.646  1.00  0.00     0.029 A 
ATOM     26  C   UNL A   1      45.193  25.939  34.284  1.00  0.00     0.049 A 
ATOM     27  H   UNL A   1      44.882  27.799  33.395  1.00  0.00     0.167 HD
ATOM     28  C   UNL A   1      44.070  31.614  31.406  1.00  0.00     0.037 A 
ATOM     29  C   UNL A   1      45.464  26.156  35.585  1.00  0.00     0.037 A 
ATOM     30  C   UNL A   1      44.358  31.945  32.779  1.00  0.00     0.049 A 
ATOM     31  C   UNL A   1      45.469  27.563  36.104  1.00  0.00     0.074 A 
ATOM     32  C   UNL A   1      44.385  33.195  33.376  1.00  0.00     0.029 A 
ATOM     33  N   UNL A   1      44.665  31.025  33.771  1.00  0.00    -0.354 N 
ATOM     34  N   UNL A   1      45.228  28.678  35.457  1.00  0.00    -0.248 NA
ATOM     35  C   UNL A   1      45.786  27.746  37.526  1.00  0.00     0.031 C 
ATOM     36  C   UNL A   1      44.741  33.032  34.719  1.00  0.00     0.029 A 
ATOM     37  C   UNL A   1      44.891  31.678  34.972  1.00  0.00     0.049 A 
ATOM     38  H   UNL A   1      44.716  30.051  33.640  1.00  0.00     0.167 HD
ATOM     39  C   UNL A   1      45.350  29.695  36.394  1.00  0.00     0.074 A 
ATOM     40  C   UNL A   1      45.671  29.061  37.657  1.00  0.00     0.031 C 
ATOM     41  C   UNL A   1      45.210  31.032  36.222  1.00  0.00     0.037 A 
BRANCH  28  42
ATOM     42  C   UNL A   1      43.759  32.740  30.455  1.00  0.00     0.058 A 
ATOM     43  C   UNL A   1      44.784  33.367  29.731  1.00  0.00     0.135 A 
ATOM     44  C   UNL A   1      42.452  33.229  30.297  1.00  0.00     0.135 A 
ATOM     45  F   UNL A   1      46.050  32.939  29.840  1.00  0.00    -0.206 F 
ATOM     46  C   UNL A   1      44.527  34.445  28.887  1.00  0.00     0.059 A 
ATOM     47  C   UNL A   1      42.169  34.291  29.441  1.00  0.00     0.059 A 
ATOM     48  F   UNL A   1      41.431  32.652  30.949  1.00  0.00    -0.206 F 
ATOM     49  C   UNL A   1      43.215  34.900  28.749  1.00  0.00     0.060 A 
BRANCH  49  50
ATOM     50  S   UNL A   1      42.889  36.264  27.611  1.00  0.00     0.124 S 
ATOM     51  O   UNL A   1      41.753  35.756  26.849  1.00  0.00    -0.237 OA
ATOM     52  O   UNL A   1      42.603  37.366  28.526  1.00  0.00    -0.237 OA
ATOM     53  O   UNL A   1      44.140  36.390  26.869  1.00  0.00    -0.744 OA
ENDBRANCH  49  50
ENDBRANCH  28  42
BRANCH  29  54
ATOM     54  C   UNL A   1      45.726  24.995  36.475  1.00  0.00     0.058 A 
ATOM     55  C   UNL A   1      44.671  24.293  37.079  1.00  0.00     0.135 A 
ATOM     56  C   UNL A   1      47.036  24.617  36.800  1.00  0.00     0.135 A 
ATOM     57  F   UNL A   1      43.399  24.627  36.810  1.00  0.00    -0.206 F 
ATOM     58  C   UNL A   1      44.905  23.282  38.002  1.00  0.00     0.059 A 
ATOM     59  C   UNL A   1      47.296  23.589  37.702  1.00  0.00     0.059 A 
ATOM     60  F   UNL A   1      48.076  25.254  36.240  1.00  0.00    -0.206 F 
ATOM     61  C   UNL A   1      46.222  22.943  38.314  1.00  0.00     0.060 A 
BRANCH  61  62
ATOM     62  S   UNL A   1      46.505  21.651  39.543  1.00  0.00     0.124 S 
ATOM     63  O   UNL A   1      45.506  21.986  40.552  1.00  0.00    -0.237 OA
ATOM     64  O   UNL A   1      46.250  20.436  38.775  1.00  0.00    -0.237 OA
ATOM     65  O   UNL A   1      47.894  21.861  39.939  1.00  0.00    -0.744 OA
ENDBRANCH  61  62
ENDBRANCH  29  54
BRANCH  41  66
ATOM     66  C   UNL A   1      45.380  31.906  37.433  1.00  0.00     0.058 A 
ATOM     67  C   UNL A   1      46.637  32.444  37.748  1.00  0.00     0.135 A 
ATOM     68  C   UNL A   1      44.316  32.164  38.310  1.00  0.00     0.135 A 
ATOM     69  F   UNL A   1      47.689  32.223  36.943  1.00  0.00    -0.206 F 
ATOM     70  C   UNL A   1      46.836  33.200  38.897  1.00  0.00     0.059 A 
ATOM     71  C   UNL A   1      44.487  32.939  39.453  1.00  0.00     0.059 A 
ATOM     72  F   UNL A   1      43.090  31.682  38.046  1.00  0.00    -0.206 F 
ATOM     73  C   UNL A   1      45.755  33.441  39.746  1.00  0.00     0.060 A 
BRANCH  73  74
ATOM     74  S   UNL A   1      46.024  34.446  41.220  1.00  0.00     0.124 S 
ATOM     75  O   UNL A   1      45.527  35.748  40.790  1.00  0.00    -0.237 OA
ATOM     76  O   UNL A   1      45.213  33.755  42.219  1.00  0.00    -0.237 OA
ATOM     77  O   UNL A   1      47.466  34.361  41.429  1.00  0.00    -0.744 OA
ENDBRANCH  73  74
ENDBRANCH  41  66
ENDBRANCH  15  16
ENDBRANCH   8  10
ENDBRANCH   5   6
ENDBRANCH   4   5
ENDBRANCH   3   4
ENDBRANCH   2   3
ENDBRANCH   1   2
BRANCH   1  78
ATOM     78  C   UNL A   1      39.429  28.874  28.614  1.00  0.00     0.116 C 
BRANCH  78  79
ATOM     79  N   UNL A   1      38.092  28.873  28.061  1.00  0.00    -0.354 N 
ATOM     80  C   UNL A   1      37.033  29.677  28.356  1.00  0.00     0.244 C 
ATOM     81  H   UNL A   1      37.922  28.192  27.371  1.00  0.00     0.163 HD
ATOM     82  O   UNL A   1      36.015  29.552  27.672  1.00  0.00    -0.273 OA
BRANCH  80  83
ATOM     83  C   UNL A   1      37.125  30.746  29.450  1.00  0.00     0.197 C 
BRANCH  83  84
ATOM     84  N   UNL A   1      37.174  30.197  30.812  1.00  0.00    -0.340 N 
ATOM     85  C   UNL A   1      36.834  30.716  32.024  1.00  0.00     0.243 C 
ATOM     86  H   UNL A   1      37.520  29.277  30.856  1.00  0.00     0.164 HD
ATOM     87  O   UNL A   1      37.201  30.052  33.000  1.00  0.00    -0.273 OA
BRANCH  85  88
ATOM     88  C   UNL A   1      36.257  32.155  32.220  1.00  0.00     0.175 C 
BRANCH  88  89
ATOM     89  N   UNL A   1      37.139  33.315  32.065  1.00  0.00    -0.342 N 
ATOM     90  C   UNL A   1      38.078  33.854  32.902  1.00  0.00     0.243 C 
ATOM     91  H   UNL A   1      37.039  33.791  31.209  1.00  0.00     0.164 HD
ATOM     92  O   UNL A   1      38.695  34.842  32.493  1.00  0.00    -0.273 OA
BRANCH  90  93
ATOM     93  C   UNL A   1      38.437  33.212  34.272  1.00  0.00     0.176 C 
BRANCH  93  94
ATOM     94  N   UNL A   1      39.830  33.557  34.639  1.00  0.00    -0.340 N 
ATOM     95  C   UNL A   1      40.896  32.797  35.063  1.00  0.00     0.251 C 
ATOM     96  H   UNL A   1      40.032  34.518  34.566  1.00  0.00     0.164 HD
ATOM     97  O   UNL A   1      41.827  33.363  35.634  1.00  0.00    -0.269 OA
BRANCH  95  98
ATOM     98  C   UNL A   1      41.009  31.338  34.801  1.00  0.00     0.040 A 
ATOM     99  C   UNL A   1      40.916  30.844  33.502  1.00  0.00     0.017 A 
ATOM    100  C   UNL A   1      41.445  30.470  35.806  1.00  0.00     0.017 A 
ATOM    101  C   UNL A   1      41.150  29.506  33.194  1.00  0.00     0.040 A 
ATOM    102  C   UNL A   1      41.711  29.125  35.507  1.00  0.00     0.040 A 
ATOM    103  C   UNL A   1      41.545  28.652  34.208  1.00  0.00     0.123 A 
ATOM    104  F   UNL A   1      41.816  27.374  33.922  1.00  0.00    -0.207 F 
ENDBRANCH  95  98
ENDBRANCH  93  94
BRANCH  93 105
ATOM    105  C   UNL A   1      37.481  33.840  35.320  1.00  0.00     0.070 C 
BRANCH 105 106
ATOM    106  C   UNL A   1      37.758  33.341  36.715  1.00  0.00    -0.045 A 
ATOM    107  C   UNL A   1      38.283  34.216  37.675  1.00  0.00     0.007 A 
ATOM    108  C   UNL A   1      37.461  32.021  37.078  1.00  0.00     0.007 A 
ATOM    109  C   UNL A   1      38.479  33.789  38.987  1.00  0.00     0.046 A 
ATOM    110  C   UNL A   1      37.641  31.598  38.393  1.00  0.00     0.046 A 
ATOM    111  C   UNL A   1      38.142  32.485  39.337  1.00  0.00     0.115 A 
BRANCH 111 112
ATOM    112  O   UNL A   1      38.294  32.035  40.615  1.00  0.00    -0.508 OA
ATOM    113  H   UNL A   1      37.635  32.215  41.257  1.00  0.00     0.293 HD
ENDBRANCH 111 112
ENDBRANCH 105 106
ENDBRANCH  93 105
ENDBRANCH  90  93
ENDBRANCH  88  89
BRANCH  88 114
ATOM    114  C   UNL A   1      34.899  32.328  31.519  1.00  0.00     0.072 C 
BRANCH 114 115
ATOM    115  C   UNL A   1      34.418  33.679  31.074  1.00  0.00    -0.020 A 
ATOM    116  C   UNL A   1      34.108  33.929  29.745  1.00  0.00     0.087 A 
ATOM    117  C   UNL A   1      34.204  34.914  31.778  1.00  0.00     0.003 A 
ATOM    118  N   UNL A   1      33.716  35.228  29.619  1.00  0.00    -0.361 N 
ATOM    119  C   UNL A   1      33.743  35.847  30.842  1.00  0.00     0.046 A 
ATOM    120  C   UNL A   1      34.356  35.360  33.109  1.00  0.00     0.010 A 
ATOM    121  H   UNL A   1      33.453  35.659  28.774  1.00  0.00     0.166 HD
ATOM    122  C   UNL A   1      33.408  37.167  31.172  1.00  0.00     0.026 A 
ATOM    123  C   UNL A   1      34.025  36.675  33.457  1.00  0.00     0.001 A 
ATOM    124  C   UNL A   1      33.551  37.564  32.501  1.00  0.00     0.002 A 
ENDBRANCH 114 115
ENDBRANCH  88 114
ENDBRANCH  85  88
ENDBRANCH  83  84
BRANCH  83 125
ATOM    125  C   UNL A   1      38.273  31.727  29.128  1.00  0.00     0.191 C 
BRANCH 125 126
ATOM    126  O   UNL A   1      37.875  33.076  29.338  1.00  0.00    -0.394 OA
ATOM    127  H   UNL A   1      36.908  33.140  29.287  1.00  0.00     0.210 HD
ENDBRANCH 125 126
ENDBRANCH  83 125
ENDBRANCH  80  83
ENDBRANCH  78  79
ENDBRANCH   1  78
TORSDOF 29
ENDMDL
MODEL 2
REMARK VINA RESULT:      -7.3      5.983      8.352
REMARK SMILES O=C(NCCCCCCNC(=O)[C@H](CO)NC(=O)[C@H](Cc1c[nH]c2ccccc12)NC(=O)[C@H](Cc1ccc(O)cc1)NC(=O)c1ccc(F)cc1)c1ccc(-c2c3nc(c(-c4c(F)cc(S(=O)(=O)[O-])cc4F)c4ccc([nH]4)c(-c4c(F)cc(S(=O)(=O)[O-])cc4F)c4nc(c(-c5c(F)cc(S(=O)(=O)[O-])cc5F)c5ccc2[nH]5)C=C4)C=C3)cc1
REMARK SMILES IDX 8 1 7 2 6 3 5 4 4 5 3 6 1 7 2 8 52 10 53 11 117 12 54 13
REMARK SMILES IDX 116 14 55 15 56 16 57 17 110 18 58 19 115 20 109 21 111 22
REMARK SMILES IDX 59 23 114 24 108 25 107 26 60 28 94 29 73 30 93 31 74 32
REMARK SMILES IDX 77 33 92 34 112 35 75 36 76 37 91 39 113 40 78 41 61 42
REMARK SMILES IDX 62 43 71 44 63 45 64 46 70 47 72 48 65 49 66 50 67 51 68 52
REMARK SMILES IDX 69 53 95 54 96 55 105 56 97 57 98 58 104 59 106 60 99 61
REMARK SMILES IDX 100 62 101 63 102 64 103 65 79 66 80 67 89 68 81 69 82 70
REMARK SMILES IDX 88 71 90 72 83 73 84 74 85 75 86 76 87 77 9 78 10 79 11 80
REMARK SMILES IDX 12 82 13 83 16 84 17 85 18 87 19 88 30 89 31 90 32 92 33 93
REMARK SMILES IDX 42 94 43 95 44 97 45 98 46 99 51 100 47 101 50 102 48 103
REMARK SMILES IDX 49 104 34 105 35 106 36 107 41 108 37 109 40 110 38 111
REMARK SMILES IDX 39 112 20 114 21 115 22 116 29 117 23 118 24 119 28 120
REMARK SMILES IDX 25 122 27 123 26 124 14 125 15 126
REMARK H PARENT 3 9 111 27 77 38 10 81 16 86 30 91 42 96 39 113 23 121 15 127
REMARK Flexibility Score: inf
ROOT
ATOM      1  C   UNL A   1      43.046  27.033  28.694  1.00  0.00     0.021 C 
ENDROOT
BRANCH   1   2
ATOM      2  C   UNL A   1      42.758  25.575  29.062  1.00  0.00     0.002 C 
BRANCH   2   3
ATOM      3  C   UNL A   1      41.746  24.844  28.173  1.00  0.00     0.002 C 
BRANCH   3   4
ATOM      4  C   UNL A   1      41.734  23.321  28.285  1.00  0.00     0.021 C 
BRANCH   4   5
ATOM      5  C   UNL A   1      43.051  22.631  27.960  1.00  0.00     0.116 C 
BRANCH   5   6
ATOM      6  N   UNL A   1      43.159  22.230  26.573  1.00  0.00    -0.352 N 
ATOM      7  O   UNL A   1      43.745  22.435  24.402  1.00  0.00    -0.269 OA
ATOM      8  C   UNL A   1      43.843  22.849  25.546  1.00  0.00     0.251 C 
ATOM      9  H   UNL A   1      42.680  21.406  26.329  1.00  0.00     0.163 HD
BRANCH   8  10
ATOM     10  C   UNL A   1      44.660  24.045  25.849  1.00  0.00     0.039 A 
ATOM     11  C   UNL A   1      44.716  25.116  24.955  1.00  0.00     0.014 A 
ATOM     12  C   UNL A   1      45.412  24.069  27.027  1.00  0.00     0.014 A 
ATOM     13  C   UNL A   1      45.642  26.132  25.158  1.00  0.00     0.010 A 
ATOM     14  C   UNL A   1      46.276  25.140  27.275  1.00  0.00     0.010 A 
ATOM     15  C   UNL A   1      46.429  26.160  26.323  1.00  0.00    -0.014 A 
BRANCH  15  16
ATOM     16  C   UNL A   1      47.375  27.286  26.531  1.00  0.00     0.031 A 
ATOM     17  C   UNL A   1      46.881  28.666  26.871  1.00  0.00     0.074 A 
ATOM     18  C   UNL A   1      48.698  27.039  26.461  1.00  0.00     0.049 A 
ATOM     19  N   UNL A   1      47.574  29.750  27.116  1.00  0.00    -0.248 NA
ATOM     20  C   UNL A   1      45.425  28.862  26.939  1.00  0.00     0.031 C 
ATOM     21  C   UNL A   1      49.292  25.740  26.133  1.00  0.00     0.029 A 
ATOM     22  N   UNL A   1      49.780  27.850  26.686  1.00  0.00    -0.354 N 
ATOM     23  C   UNL A   1      46.644  30.755  27.351  1.00  0.00     0.074 A 
ATOM     24  C   UNL A   1      45.334  30.161  27.190  1.00  0.00     0.031 C 
ATOM     25  C   UNL A   1      50.625  25.826  26.241  1.00  0.00     0.029 A 
ATOM     26  C   UNL A   1      50.985  27.198  26.580  1.00  0.00     0.049 A 
ATOM     27  H   UNL A   1      49.701  28.807  26.903  1.00  0.00     0.167 HD
ATOM     28  C   UNL A   1      46.864  32.051  27.683  1.00  0.00     0.037 A 
ATOM     29  C   UNL A   1      52.244  27.652  26.730  1.00  0.00     0.037 A 
ATOM     30  C   UNL A   1      48.173  32.630  27.855  1.00  0.00     0.049 A 
ATOM     31  C   UNL A   1      52.462  29.092  27.090  1.00  0.00     0.074 A 
ATOM     32  C   UNL A   1      48.501  33.932  28.191  1.00  0.00     0.029 A 
ATOM     33  N   UNL A   1      49.370  31.944  27.709  1.00  0.00    -0.354 N 
ATOM     34  N   UNL A   1      51.569  30.029  27.302  1.00  0.00    -0.248 NA
ATOM     35  C   UNL A   1      53.853  29.540  27.225  1.00  0.00     0.031 C 
ATOM     36  C   UNL A   1      49.896  34.042  28.216  1.00  0.00     0.029 A 
ATOM     37  C   UNL A   1      50.438  32.797  27.940  1.00  0.00     0.049 A 
ATOM     38  H   UNL A   1      49.450  30.991  27.474  1.00  0.00     0.167 HD
ATOM     39  C   UNL A   1      52.288  31.175  27.611  1.00  0.00     0.074 A 
ATOM     40  C   UNL A   1      53.691  30.809  27.572  1.00  0.00     0.031 C 
ATOM     41  C   UNL A   1      51.829  32.417  27.898  1.00  0.00     0.037 A 
BRANCH  28  42
ATOM     42  C   UNL A   1      45.664  32.940  27.876  1.00  0.00     0.058 A 
ATOM     43  C   UNL A   1      45.159  33.701  26.811  1.00  0.00     0.135 A 
ATOM     44  C   UNL A   1      45.043  33.076  29.128  1.00  0.00     0.135 A 
ATOM     45  F   UNL A   1      45.711  33.608  25.591  1.00  0.00    -0.206 F 
ATOM     46  C   UNL A   1      44.085  34.571  26.980  1.00  0.00     0.059 A 
ATOM     47  C   UNL A   1      43.953  33.923  29.315  1.00  0.00     0.059 A 
ATOM     48  F   UNL A   1      45.471  32.356  30.177  1.00  0.00    -0.206 F 
ATOM     49  C   UNL A   1      43.488  34.674  28.236  1.00  0.00     0.060 A 
BRANCH  49  50
ATOM     50  S   UNL A   1      42.062  35.766  28.428  1.00  0.00     0.124 S 
ATOM     51  O   UNL A   1      42.685  36.992  28.914  1.00  0.00    -0.237 OA
ATOM     52  O   UNL A   1      41.528  35.816  27.070  1.00  0.00    -0.237 OA
ATOM     53  O   UNL A   1      41.224  35.058  29.393  1.00  0.00    -0.744 OA
ENDBRANCH  49  50
ENDBRANCH  28  42
BRANCH  29  54
ATOM     54  C   UNL A   1      53.380  26.709  26.561  1.00  0.00     0.058 A 
ATOM     55  C   UNL A   1      53.954  26.061  27.666  1.00  0.00     0.135 A 
ATOM     56  C   UNL A   1      53.963  26.502  25.303  1.00  0.00     0.135 A 
ATOM     57  F   UNL A   1      53.440  26.239  28.893  1.00  0.00    -0.206 F 
ATOM     58  C   UNL A   1      55.088  25.269  27.535  1.00  0.00     0.059 A 
ATOM     59  C   UNL A   1      55.083  25.691  25.143  1.00  0.00     0.059 A 
ATOM     60  F   UNL A   1      53.443  27.094  24.217  1.00  0.00    -0.206 F 
ATOM     61  C   UNL A   1      55.651  25.098  26.270  1.00  0.00     0.060 A 
BRANCH  61  62
ATOM     62  S   UNL A   1      57.146  24.095  26.127  1.00  0.00     0.124 S 
ATOM     63  O   UNL A   1      57.211  23.874  24.687  1.00  0.00    -0.237 OA
ATOM     64  O   UNL A   1      58.165  24.981  26.681  1.00  0.00    -0.237 OA
ATOM     65  O   UNL A   1      56.838  22.916  26.932  1.00  0.00    -0.744 OA
ENDBRANCH  61  62
ENDBRANCH  29  54
BRANCH  41  66
ATOM     66  C   UNL A   1      52.849  33.474  28.217  1.00  0.00     0.058 A 
ATOM     67  C   UNL A   1      53.393  34.266  27.195  1.00  0.00     0.135 A 
ATOM     68  C   UNL A   1      53.326  33.666  29.523  1.00  0.00     0.135 A 
ATOM     69  F   UNL A   1      52.972  34.120  25.929  1.00  0.00    -0.206 F 
ATOM     70  C   UNL A   1      54.385  35.205  27.454  1.00  0.00     0.059 A 
ATOM     71  C   UNL A   1      54.300  34.617  29.809  1.00  0.00     0.059 A 
ATOM     72  F   UNL A   1      52.827  32.941  30.538  1.00  0.00    -0.206 F 
ATOM     73  C   UNL A   1      54.834  35.372  28.765  1.00  0.00     0.060 A 
BRANCH  73  74
ATOM     74  S   UNL A   1      56.104  36.613  29.089  1.00  0.00     0.124 S 
ATOM     75  O   UNL A   1      56.596  36.203  30.399  1.00  0.00    -0.237 OA
ATOM     76  O   UNL A   1      57.025  36.413  27.973  1.00  0.00    -0.237 OA
ATOM     77  O   UNL A   1      55.363  37.871  29.060  1.00  0.00    -0.744 OA
ENDBRANCH  73  74
ENDBRANCH  41  66
ENDBRANCH  15  16
ENDBRANCH   8  10
ENDBRANCH   5   6
ENDBRANCH   4   5
ENDBRANCH   3   4
ENDBRANCH   2   3
ENDBRANCH   1   2
BRANCH   1  78
ATOM     78  C   UNL A   1      42.259  28.054  29.497  1.00  0.00     0.116 C 
BRANCH  78  79
ATOM     79  N   UNL A   1      41.009  27.511  29.985  1.00  0.00    -0.354 N 
ATOM     80  C   UNL A   1      39.733  27.915  29.731  1.00  0.00     0.244 C 
ATOM     81  H   UNL A   1      41.093  26.739  30.588  1.00  0.00     0.163 HD
ATOM     82  O   UNL A   1      38.818  27.225  30.183  1.00  0.00    -0.273 OA
BRANCH  80  83
ATOM     83  C   UNL A   1      39.444  29.140  28.857  1.00  0.00     0.197 C 
BRANCH  83  84
ATOM     84  N   UNL A   1      39.939  30.402  29.424  1.00  0.00    -0.340 N 
ATOM     85  C   UNL A   1      39.387  31.300  30.287  1.00  0.00     0.243 C 
ATOM     86  H   UNL A   1      40.843  30.645  29.121  1.00  0.00     0.164 HD
ATOM     87  O   UNL A   1      39.999  32.368  30.393  1.00  0.00    -0.273 OA
BRANCH  85  88
ATOM     88  C   UNL A   1      37.965  31.139  30.912  1.00  0.00     0.175 C 
BRANCH  88  89
ATOM     89  N   UNL A   1      37.615  29.895  31.605  1.00  0.00    -0.342 N 
ATOM     90  C   UNL A   1      37.876  29.467  32.878  1.00  0.00     0.243 C 
ATOM     91  H   UNL A   1      37.104  29.255  31.059  1.00  0.00     0.164 HD
ATOM     92  O   UNL A   1      37.435  28.360  33.200  1.00  0.00    -0.273 OA
BRANCH  90  93
ATOM     93  C   UNL A   1      38.612  30.356  33.921  1.00  0.00     0.176 C 
BRANCH  93  94
ATOM     94  N   UNL A   1      37.955  30.228  35.242  1.00  0.00    -0.340 N 
ATOM     95  C   UNL A   1      38.008  30.993  36.385  1.00  0.00     0.251 C 
ATOM     96  H   UNL A   1      37.367  29.442  35.317  1.00  0.00     0.164 HD
ATOM     97  O   UNL A   1      37.651  30.484  37.447  1.00  0.00    -0.269 OA
BRANCH  95  98
ATOM     98  C   UNL A   1      38.406  32.426  36.386  1.00  0.00     0.040 A 
ATOM     99  C   UNL A   1      39.417  32.877  37.231  1.00  0.00     0.017 A 
ATOM    100  C   UNL A   1      37.951  33.288  35.384  1.00  0.00     0.017 A 
ATOM    101  C   UNL A   1      39.915  34.176  37.170  1.00  0.00     0.040 A 
ATOM    102  C   UNL A   1      38.463  34.591  35.293  1.00  0.00     0.040 A 
ATOM    103  C   UNL A   1      39.427  35.028  36.197  1.00  0.00     0.123 A 
ATOM    104  F   UNL A   1      39.926  36.266  36.096  1.00  0.00    -0.207 F 
ENDBRANCH  95  98
ENDBRANCH  93  94
BRANCH  93 105
ATOM    105  C   UNL A   1      40.057  29.804  34.033  1.00  0.00     0.070 C 
BRANCH 105 106
ATOM    106  C   UNL A   1      41.034  30.855  34.496  1.00  0.00    -0.045 A 
ATOM    107  C   UNL A   1      41.878  30.588  35.583  1.00  0.00     0.007 A 
ATOM    108  C   UNL A   1      41.138  32.082  33.829  1.00  0.00     0.007 A 
ATOM    109  C   UNL A   1      42.834  31.522  35.978  1.00  0.00     0.046 A 
ATOM    110  C   UNL A   1      42.105  33.009  34.215  1.00  0.00     0.046 A 
ATOM    111  C   UNL A   1      42.947  32.720  35.280  1.00  0.00     0.115 A 
BRANCH 111 112
ATOM    112  O   UNL A   1      43.886  33.649  35.619  1.00  0.00    -0.508 OA
ATOM    113  H   UNL A   1      44.797  33.438  35.558  1.00  0.00     0.293 HD
ENDBRANCH 111 112
ENDBRANCH 105 106
ENDBRANCH  93 105
ENDBRANCH  90  93
ENDBRANCH  88  89
BRANCH  88 114
ATOM    114  C   UNL A   1      37.528  32.400  31.674  1.00  0.00     0.072 C 
BRANCH 114 115
ATOM    115  C   UNL A   1      36.182  33.026  31.442  1.00  0.00    -0.020 A 
ATOM    116  C   UNL A   1      35.231  33.080  32.451  1.00  0.00     0.087 A 
ATOM    117  C   UNL A   1      35.577  33.624  30.284  1.00  0.00     0.003 A 
ATOM    118  N   UNL A   1      34.107  33.679  31.967  1.00  0.00    -0.361 N 
ATOM    119  C   UNL A   1      34.294  34.041  30.658  1.00  0.00     0.046 A 
ATOM    120  C   UNL A   1      35.962  33.855  28.945  1.00  0.00     0.010 A 
ATOM    121  H   UNL A   1      33.281  33.830  32.482  1.00  0.00     0.166 HD
ATOM    122  C   UNL A   1      33.410  34.689  29.786  1.00  0.00     0.026 A 
ATOM    123  C   UNL A   1      35.092  34.503  28.059  1.00  0.00     0.001 A 
ATOM    124  C   UNL A   1      33.835  34.919  28.478  1.00  0.00     0.002 A 
ENDBRANCH 114 115
ENDBRANCH  88 114
ENDBRANCH  85  88
ENDBRANCH  83  84
BRANCH  83 125
ATOM    125  C   UNL A   1      39.917  28.875  27.412  1.00  0.00     0.191 C 
BRANCH 125 126
ATOM    126  O   UNL A   1      39.862  27.489  27.095  1.00  0.00    -0.394 OA
ATOM    127  H   UNL A   1      40.759  27.121  27.100  1.00  0.00     0.210 HD
ENDBRANCH 125 126
ENDBRANCH  83 125
ENDBRANCH  80  83
ENDBRANCH  78  79
ENDBRANCH   1  78
TORSDOF 29
ENDMDL
MODEL 3
REMARK VINA RESULT:      -7.3      5.819     11.806
REMARK SMILES O=C(NCCCCCCNC(=O)[C@H](CO)NC(=O)[C@H](Cc1c[nH]c2ccccc12)NC(=O)[C@H](Cc1ccc(O)cc1)NC(=O)c1ccc(F)cc1)c1ccc(-c2c3nc(c(-c4c(F)cc(S(=O)(=O)[O-])cc4F)c4ccc([nH]4)c(-c4c(F)cc(S(=O)(=O)[O-])cc4F)c4nc(c(-c5c(F)cc(S(=O)(=O)[O-])cc5F)c5ccc2[nH]5)C=C4)C=C3)cc1
REMARK SMILES IDX 8 1 7 2 6 3 5 4 4 5 3 6 1 7 2 8 52 10 53 11 117 12 54 13
REMARK SMILES IDX 116 14 55 15 56 16 57 17 110 18 58 19 115 20 109 21 111 22
REMARK SMILES IDX 59 23 114 24 108 25 107 26 60 28 94 29 73 30 93 31 74 32
REMARK SMILES IDX 77 33 92 34 112 35 75 36 76 37 91 39 113 40 78 41 61 42
REMARK SMILES IDX 62 43 71 44 63 45 64 46 70 47 72 48 65 49 66 50 67 51 68 52
REMARK SMILES IDX 69 53 95 54 96 55 105 56 97 57 98 58 104 59 106 60 99 61
REMARK SMILES IDX 100 62 101 63 102 64 103 65 79 66 80 67 89 68 81 69 82 70
REMARK SMILES IDX 88 71 90 72 83 73 84 74 85 75 86 76 87 77 9 78 10 79 11 80
REMARK SMILES IDX 12 82 13 83 16 84 17 85 18 87 19 88 30 89 31 90 32 92 33 93
REMARK SMILES IDX 42 94 43 95 44 97 45 98 46 99 51 100 47 101 50 102 48 103
REMARK SMILES IDX 49 104 34 105 35 106 36 107 41 108 37 109 40 110 38 111
REMARK SMILES IDX 39 112 20 114 21 115 22 116 29 117 23 118 24 119 28 120
REMARK SMILES IDX 25 122 27 123 26 124 14 125 15 126
REMARK H PARENT 3 9 111 27 77 38 10 81 16 86 30 91 42 96 39 113 23 121 15 127
REMARK Flexibility Score: inf
ROOT
ATOM      1  C   UNL A   1      42.966  34.495  30.129  1.00  0.00     0.021 C 
ENDROOT
BRANCH   1   2
ATOM      2  C   UNL A   1      41.725  35.088  30.800  1.00  0.00     0.002 C 
BRANCH   2   3
ATOM      3  C   UNL A   1      41.292  34.430  32.116  1.00  0.00     0.002 C 
BRANCH   3   4
ATOM      4  C   UNL A   1      39.823  34.599  32.497  1.00  0.00     0.021 C 
BRANCH   4   5
ATOM      5  C   UNL A   1      39.366  33.800  33.710  1.00  0.00     0.116 C 
BRANCH   5   6
ATOM      6  N   UNL A   1      38.324  32.843  33.403  1.00  0.00    -0.352 N 
ATOM      7  O   UNL A   1      37.409  31.026  32.423  1.00  0.00    -0.269 OA
ATOM      8  C   UNL A   1      38.414  31.671  32.679  1.00  0.00     0.251 C 
ATOM      9  H   UNL A   1      37.432  33.055  33.760  1.00  0.00     0.163 HD
BRANCH   8  10
ATOM     10  C   UNL A   1      39.738  31.235  32.185  1.00  0.00     0.039 A 
ATOM     11  C   UNL A   1      40.104  31.437  30.853  1.00  0.00     0.014 A 
ATOM     12  C   UNL A   1      40.604  30.576  33.062  1.00  0.00     0.014 A 
ATOM     13  C   UNL A   1      41.259  30.842  30.360  1.00  0.00     0.010 A 
ATOM     14  C   UNL A   1      41.811  30.058  32.584  1.00  0.00     0.010 A 
ATOM     15  C   UNL A   1      42.130  30.150  31.221  1.00  0.00    -0.014 A 
BRANCH  15  16
ATOM     16  C   UNL A   1      43.380  29.566  30.670  1.00  0.00     0.031 A 
ATOM     17  C   UNL A   1      43.372  28.243  29.953  1.00  0.00     0.074 A 
ATOM     18  C   UNL A   1      44.524  30.269  30.779  1.00  0.00     0.049 A 
ATOM     19  N   UNL A   1      44.368  27.609  29.386  1.00  0.00    -0.248 NA
ATOM     20  C   UNL A   1      42.086  27.534  29.865  1.00  0.00     0.031 C 
ATOM     21  C   UNL A   1      44.653  31.562  31.459  1.00  0.00     0.029 A 
ATOM     22  N   UNL A   1      45.785  30.020  30.302  1.00  0.00    -0.354 N 
ATOM     23  C   UNL A   1      43.835  26.426  28.889  1.00  0.00     0.074 A 
ATOM     24  C   UNL A   1      42.433  26.413  29.248  1.00  0.00     0.031 C 
ATOM     25  C   UNL A   1      45.902  32.019  31.300  1.00  0.00     0.029 A 
ATOM     26  C   UNL A   1      46.680  31.028  30.566  1.00  0.00     0.049 A 
ATOM     27  H   UNL A   1      46.025  29.198  29.817  1.00  0.00     0.167 HD
ATOM     28  C   UNL A   1      44.458  25.447  28.187  1.00  0.00     0.037 A 
ATOM     29  C   UNL A   1      47.987  31.144  30.261  1.00  0.00     0.037 A 
ATOM     30  C   UNL A   1      45.853  25.476  27.824  1.00  0.00     0.049 A 
ATOM     31  C   UNL A   1      48.655  30.043  29.491  1.00  0.00     0.074 A 
ATOM     32  C   UNL A   1      46.577  24.534  27.114  1.00  0.00     0.029 A 
ATOM     33  N   UNL A   1      46.734  26.501  28.136  1.00  0.00    -0.354 N 
ATOM     34  N   UNL A   1      48.137  28.929  29.035  1.00  0.00    -0.248 NA
ATOM     35  C   UNL A   1      50.084  30.210  29.198  1.00  0.00     0.031 C 
ATOM     36  C   UNL A   1      47.902  24.973  27.026  1.00  0.00     0.029 A 
ATOM     37  C   UNL A   1      47.995  26.211  27.641  1.00  0.00     0.049 A 
ATOM     38  H   UNL A   1      46.498  27.315  28.638  1.00  0.00     0.167 HD
ATOM     39  C   UNL A   1      49.171  28.266  28.387  1.00  0.00     0.074 A 
ATOM     40  C   UNL A   1      50.342  29.114  28.499  1.00  0.00     0.031 C 
ATOM     41  C   UNL A   1      49.152  27.065  27.760  1.00  0.00     0.037 A 
BRANCH  28  42
ATOM     42  C   UNL A   1      43.641  24.253  27.771  1.00  0.00     0.058 A 
ATOM     43  C   UNL A   1      42.860  24.292  26.605  1.00  0.00     0.135 A 
ATOM     44  C   UNL A   1      43.591  23.086  28.551  1.00  0.00     0.135 A 
ATOM     45  F   UNL A   1      42.871  25.380  25.819  1.00  0.00    -0.206 F 
ATOM     46  C   UNL A   1      42.054  23.220  26.230  1.00  0.00     0.059 A 
ATOM     47  C   UNL A   1      42.810  21.994  28.183  1.00  0.00     0.059 A 
ATOM     48  F   UNL A   1      44.335  22.986  29.664  1.00  0.00    -0.206 F 
ATOM     49  C   UNL A   1      42.037  22.075  27.026  1.00  0.00     0.060 A 
BRANCH  49  50
ATOM     50  S   UNL A   1      41.028  20.672  26.499  1.00  0.00     0.124 S 
ATOM     51  O   UNL A   1      41.937  19.967  25.601  1.00  0.00    -0.237 OA
ATOM     52  O   UNL A   1      40.741  20.007  27.767  1.00  0.00    -0.237 OA
ATOM     53  O   UNL A   1      39.877  21.306  25.862  1.00  0.00    -0.744 OA
ENDBRANCH  49  50
ENDBRANCH  28  42
BRANCH  29  54
ATOM     54  C   UNL A   1      48.723  32.367  30.672  1.00  0.00     0.058 A 
ATOM     55  C   UNL A   1      48.885  33.446  29.789  1.00  0.00     0.135 A 
ATOM     56  C   UNL A   1      49.345  32.447  31.926  1.00  0.00     0.135 A 
ATOM     57  F   UNL A   1      48.321  33.411  28.572  1.00  0.00    -0.206 F 
ATOM     58  C   UNL A   1      49.668  34.545  30.120  1.00  0.00     0.059 A 
ATOM     59  C   UNL A   1      50.112  33.550  32.291  1.00  0.00     0.059 A 
ATOM     60  F   UNL A   1      49.210  31.443  32.806  1.00  0.00    -0.206 F 
ATOM     61  C   UNL A   1      50.286  34.583  31.371  1.00  0.00     0.060 A 
BRANCH  61  62
ATOM     62  S   UNL A   1      51.329  36.002  31.767  1.00  0.00     0.124 S 
ATOM     63  O   UNL A   1      50.534  36.668  32.794  1.00  0.00    -0.237 OA
ATOM     64  O   UNL A   1      52.556  35.362  32.230  1.00  0.00    -0.237 OA
ATOM     65  O   UNL A   1      51.434  36.709  30.494  1.00  0.00    -0.744 OA
ENDBRANCH  61  62
ENDBRANCH  29  54
BRANCH  41  66
ATOM     66  C   UNL A   1      50.430  26.599  27.122  1.00  0.00     0.058 A 
ATOM     67  C   UNL A   1      50.612  26.709  25.735  1.00  0.00     0.135 A 
ATOM     68  C   UNL A   1      51.450  25.995  27.873  1.00  0.00     0.135 A 
ATOM     69  F   UNL A   1      49.665  27.276  24.971  1.00  0.00    -0.206 F 
ATOM     70  C   UNL A   1      51.757  26.225  25.112  1.00  0.00     0.059 A 
ATOM     71  C   UNL A   1      52.615  25.526  27.274  1.00  0.00     0.059 A 
ATOM     72  F   UNL A   1      51.329  25.878  29.206  1.00  0.00    -0.206 F 
ATOM     73  C   UNL A   1      52.753  25.633  25.890  1.00  0.00     0.060 A 
BRANCH  73  74
ATOM     74  S   UNL A   1      54.244  25.033  25.069  1.00  0.00     0.124 S 
ATOM     75  O   UNL A   1      54.235  25.805  23.832  1.00  0.00    -0.237 OA
ATOM     76  O   UNL A   1      55.288  25.383  26.029  1.00  0.00    -0.237 OA
ATOM     77  O   UNL A   1      53.996  23.602  24.920  1.00  0.00    -0.744 OA
ENDBRANCH  73  74
ENDBRANCH  41  66
ENDBRANCH  15  16
ENDBRANCH   8  10
ENDBRANCH   5   6
ENDBRANCH   4   5
ENDBRANCH   3   4
ENDBRANCH   2   3
ENDBRANCH   1   2
BRANCH   1  78
ATOM     78  C   UNL A   1      42.708  33.862  28.772  1.00  0.00     0.116 C 
BRANCH  78  79
ATOM     79  N   UNL A   1      43.766  32.951  28.390  1.00  0.00    -0.354 N 
ATOM     80  C   UNL A   1      44.676  33.057  27.382  1.00  0.00     0.244 C 
ATOM     81  H   UNL A   1      43.838  32.136  28.937  1.00  0.00     0.163 HD
ATOM     82  O   UNL A   1      45.555  32.196  27.316  1.00  0.00    -0.273 OA
BRANCH  80  83
ATOM     83  C   UNL A   1      44.652  34.241  26.409  1.00  0.00     0.197 C 
BRANCH  83  84
ATOM     84  N   UNL A   1      45.987  34.713  26.017  1.00  0.00    -0.340 N 
ATOM     85  C   UNL A   1      46.785  35.709  26.492  1.00  0.00     0.243 C 
ATOM     86  H   UNL A   1      46.380  34.213  25.266  1.00  0.00     0.164 HD
ATOM     87  O   UNL A   1      47.768  35.973  25.791  1.00  0.00    -0.273 OA
BRANCH  85  88
ATOM     88  C   UNL A   1      46.391  36.642  27.682  1.00  0.00     0.175 C 
BRANCH  88  89
ATOM     89  N   UNL A   1      47.285  36.758  28.838  1.00  0.00    -0.342 N 
ATOM     90  C   UNL A   1      47.242  37.577  29.933  1.00  0.00     0.243 C 
ATOM     91  H   UNL A   1      48.050  36.140  28.823  1.00  0.00     0.164 HD
ATOM     92  O   UNL A   1      48.136  37.439  30.773  1.00  0.00    -0.273 OA
BRANCH  90  93
ATOM     93  C   UNL A   1      46.077  38.577  30.179  1.00  0.00     0.176 C 
BRANCH  93  94
ATOM     94  N   UNL A   1      44.976  37.899  30.903  1.00  0.00    -0.340 N 
ATOM     95  C   UNL A   1      44.015  38.356  31.775  1.00  0.00     0.251 C 
ATOM     96  H   UNL A   1      44.923  36.932  30.726  1.00  0.00     0.164 HD
ATOM     97  O   UNL A   1      43.449  37.541  32.502  1.00  0.00    -0.269 OA
BRANCH  95  98
ATOM     98  C   UNL A   1      43.579  39.777  31.831  1.00  0.00     0.040 A 
ATOM     99  C   UNL A   1      42.821  40.324  30.800  1.00  0.00     0.017 A 
ATOM    100  C   UNL A   1      43.711  40.512  33.013  1.00  0.00     0.017 A 
ATOM    101  C   UNL A   1      42.276  41.604  30.872  1.00  0.00     0.040 A 
ATOM    102  C   UNL A   1      43.146  41.792  33.112  1.00  0.00     0.040 A 
ATOM    103  C   UNL A   1      42.449  42.332  32.035  1.00  0.00     0.123 A 
ATOM    104  F   UNL A   1      41.896  43.547  32.138  1.00  0.00    -0.207 F 
ENDBRANCH  95  98
ENDBRANCH  93  94
BRANCH  93 105
ATOM    105  C   UNL A   1      46.643  39.702  31.085  1.00  0.00     0.070 C 
BRANCH 105 106
ATOM    106  C   UNL A   1      46.486  41.067  30.464  1.00  0.00    -0.045 A 
ATOM    107  C   UNL A   1      46.963  42.197  31.140  1.00  0.00     0.007 A 
ATOM    108  C   UNL A   1      45.903  41.217  29.199  1.00  0.00     0.007 A 
ATOM    109  C   UNL A   1      46.889  43.456  30.549  1.00  0.00     0.046 A 
ATOM    110  C   UNL A   1      45.844  42.474  28.601  1.00  0.00     0.046 A 
ATOM    111  C   UNL A   1      46.341  43.581  29.276  1.00  0.00     0.115 A 
BRANCH 111 112
ATOM    112  O   UNL A   1      46.273  44.791  28.651  1.00  0.00    -0.508 OA
ATOM    113  H   UNL A   1      45.448  45.227  28.561  1.00  0.00     0.293 HD
ENDBRANCH 111 112
ENDBRANCH 105 106
ENDBRANCH  93 105
ENDBRANCH  90  93
ENDBRANCH  88  89
BRANCH  88 114
ATOM    114  C   UNL A   1      45.852  37.996  27.193  1.00  0.00     0.072 C 
BRANCH 114 115
ATOM    115  C   UNL A   1      44.377  38.272  27.128  1.00  0.00    -0.020 A 
ATOM    116  C   UNL A   1      43.454  37.363  27.623  1.00  0.00     0.087 A 
ATOM    117  C   UNL A   1      43.617  39.369  26.593  1.00  0.00     0.003 A 
ATOM    118  N   UNL A   1      42.198  37.854  27.423  1.00  0.00    -0.361 N 
ATOM    119  C   UNL A   1      42.266  39.083  26.818  1.00  0.00     0.046 A 
ATOM    120  C   UNL A   1      43.916  40.579  25.928  1.00  0.00     0.010 A 
ATOM    121  H   UNL A   1      41.365  37.394  27.675  1.00  0.00     0.166 HD
ATOM    122  C   UNL A   1      41.224  39.942  26.445  1.00  0.00     0.026 A 
ATOM    123  C   UNL A   1      42.888  41.451  25.549  1.00  0.00     0.001 A 
ATOM    124  C   UNL A   1      41.560  41.137  25.810  1.00  0.00     0.002 A 
ENDBRANCH 114 115
ENDBRANCH  88 114
ENDBRANCH  85  88
ENDBRANCH  83  84
BRANCH  83 125
ATOM    125  C   UNL A   1      43.727  33.919  25.216  1.00  0.00     0.191 C 
BRANCH 125 126
ATOM    126  O   UNL A   1      44.212  32.808  24.470  1.00  0.00    -0.394 OA
ATOM    127  H   UNL A   1      44.713  33.128  23.703  1.00  0.00     0.210 HD
ENDBRANCH 125 126
ENDBRANCH  83 125
ENDBRANCH  80  83
ENDBRANCH  78  79
ENDBRANCH   1  78
TORSDOF 29
ENDMDL
