MODEL 1
REMARK VINA RESULT:     -11.6      0.000      0.000
REMARK SMILES O=C(NCCCCCCNC(=O)[C@]12COc3ccccc3[C@H]1C[N@H+](CCO)C2)c1ccc(-c2c3nc(c(-c4c(F)cc(S(=O)(=O)[O-])cc4F)c4ccc([nH]4)c(-c4c(F)cc(S(=O)(=O)[O-])cc4F)c4nc(c(-c5c(F)cc(S(=O)(=O)[O-])cc5F)c5ccc2[nH]5)C=C4)C=C3)cc1
REMARK SMILES IDX 6 1 5 2 4 3 3 4 1 5 2 6 29 8 30 9 94 10 31 11 93 12 32 13
REMARK SMILES IDX 33 14 34 15 87 16 35 17 92 18 86 19 88 20 36 21 91 22 85 23
REMARK SMILES IDX 84 24 37 26 71 27 50 28 70 29 51 30 54 31 69 32 89 33 52 34
REMARK SMILES IDX 53 35 68 37 90 38 55 39 38 40 39 41 48 42 40 43 41 44 47 45
REMARK SMILES IDX 49 46 42 47 43 48 44 49 45 50 46 51 72 52 73 53 82 54 74 55
REMARK SMILES IDX 75 56 81 57 83 58 76 59 77 60 78 61 79 62 80 63 56 64 57 65
REMARK SMILES IDX 66 66 58 67 59 68 65 69 67 70 60 71 61 72 62 73 63 74 64 75
REMARK SMILES IDX 7 76 8 77 9 78 10 79 11 80 12 82 13 83 14 84 22 85 28 86
REMARK SMILES IDX 15 87 21 88 23 89 24 90 16 91 20 92 17 94 19 95 18 96 25 97
REMARK SMILES IDX 26 98 27 99
REMARK H PARENT 3 7 88 25 54 36 10 81 24 93 27 100
REMARK Flexibility Score: inf
ROOT
ATOM      1  C   UNL A   1      33.235  27.161  25.053  1.00  0.00     0.002 C 
ENDROOT
BRANCH   1   2
ATOM      2  C   UNL A   1      33.725  28.500  25.604  1.00  0.00     0.021 C 
BRANCH   2   3
ATOM      3  C   UNL A   1      33.665  28.623  27.120  1.00  0.00     0.116 C 
BRANCH   3   4
ATOM      4  N   UNL A   1      33.579  30.005  27.553  1.00  0.00    -0.352 N 
ATOM      5  O   UNL A   1      34.196  31.837  28.708  1.00  0.00    -0.269 OA
ATOM      6  C   UNL A   1      34.507  30.746  28.239  1.00  0.00     0.251 C 
ATOM      7  H   UNL A   1      32.743  30.472  27.326  1.00  0.00     0.163 HD
BRANCH   6   8
ATOM      8  C   UNL A   1      35.878  30.221  28.414  1.00  0.00     0.039 A 
ATOM      9  C   UNL A   1      36.245  29.691  29.652  1.00  0.00     0.014 A 
ATOM     10  C   UNL A   1      36.810  30.294  27.373  1.00  0.00     0.014 A 
ATOM     11  C   UNL A   1      37.548  29.230  29.847  1.00  0.00     0.010 A 
ATOM     12  C   UNL A   1      38.085  29.767  27.545  1.00  0.00     0.010 A 
ATOM     13  C   UNL A   1      38.477  29.267  28.795  1.00  0.00    -0.014 A 
BRANCH  13  14
ATOM     14  C   UNL A   1      39.896  28.899  29.017  1.00  0.00     0.031 A 
ATOM     15  C   UNL A   1      40.818  29.894  29.672  1.00  0.00     0.074 A 
ATOM     16  C   UNL A   1      40.356  27.694  28.633  1.00  0.00     0.049 A 
ATOM     17  N   UNL A   1      42.100  29.804  29.910  1.00  0.00    -0.248 NA
ATOM     18  C   UNL A   1      40.218  31.171  30.096  1.00  0.00     0.031 C 
ATOM     19  C   UNL A   1      39.558  26.649  27.991  1.00  0.00     0.029 A 
ATOM     20  N   UNL A   1      41.607  27.142  28.737  1.00  0.00    -0.354 N 
ATOM     21  C   UNL A   1      42.457  31.006  30.508  1.00  0.00     0.074 A 
ATOM     22  C   UNL A   1      41.276  31.839  30.529  1.00  0.00     0.031 C 
ATOM     23  C   UNL A   1      40.329  25.567  27.795  1.00  0.00     0.029 A 
ATOM     24  C   UNL A   1      41.683  25.855  28.261  1.00  0.00     0.049 A 
ATOM     25  H   UNL A   1      42.378  27.622  29.118  1.00  0.00     0.167 HD
ATOM     26  C   UNL A   1      43.653  31.374  31.027  1.00  0.00     0.037 A 
ATOM     27  C   UNL A   1      42.729  25.006  28.211  1.00  0.00     0.037 A 
ATOM     28  C   UNL A   1      44.820  30.533  31.024  1.00  0.00     0.049 A 
ATOM     29  C   UNL A   1      44.063  25.454  28.742  1.00  0.00     0.074 A 
ATOM     30  C   UNL A   1      46.078  30.803  31.529  1.00  0.00     0.029 A 
ATOM     31  N   UNL A   1      44.867  29.250  30.495  1.00  0.00    -0.354 N 
ATOM     32  N   UNL A   1      44.386  26.596  29.304  1.00  0.00    -0.248 NA
ATOM     33  C   UNL A   1      45.176  24.502  28.630  1.00  0.00     0.031 C 
ATOM     34  C   UNL A   1      46.897  29.697  31.273  1.00  0.00     0.029 A 
ATOM     35  C   UNL A   1      46.136  28.721  30.649  1.00  0.00     0.049 A 
ATOM     36  H   UNL A   1      44.109  28.785  30.073  1.00  0.00     0.167 HD
ATOM     37  C   UNL A   1      45.732  26.490  29.633  1.00  0.00     0.074 A 
ATOM     38  C   UNL A   1      46.161  25.170  29.217  1.00  0.00     0.031 C 
ATOM     39  C   UNL A   1      46.543  27.404  30.225  1.00  0.00     0.037 A 
BRANCH  26  40
ATOM     40  C   UNL A   1      43.745  32.739  31.651  1.00  0.00     0.058 A 
ATOM     41  C   UNL A   1      43.628  32.920  33.040  1.00  0.00     0.135 A 
ATOM     42  C   UNL A   1      43.958  33.879  30.860  1.00  0.00     0.135 A 
ATOM     43  F   UNL A   1      43.403  31.867  33.842  1.00  0.00    -0.206 F 
ATOM     44  C   UNL A   1      43.685  34.183  33.618  1.00  0.00     0.059 A 
ATOM     45  C   UNL A   1      44.048  35.151  31.420  1.00  0.00     0.059 A 
ATOM     46  F   UNL A   1      44.074  33.766  29.528  1.00  0.00    -0.206 F 
ATOM     47  C   UNL A   1      43.893  35.294  32.798  1.00  0.00     0.060 A 
BRANCH  47  48
ATOM     48  S   UNL A   1      43.952  36.926  33.566  1.00  0.00     0.124 S 
ATOM     49  O   UNL A   1      44.963  36.726  34.600  1.00  0.00    -0.237 OA
ATOM     50  O   UNL A   1      44.347  37.780  32.450  1.00  0.00    -0.237 OA
ATOM     51  O   UNL A   1      42.590  37.123  34.053  1.00  0.00    -0.744 OA
ENDBRANCH  47  48
ENDBRANCH  26  40
BRANCH  27  52
ATOM     52  C   UNL A   1      42.537  23.633  27.675  1.00  0.00     0.058 A 
ATOM     53  C   UNL A   1      42.581  23.393  26.293  1.00  0.00     0.135 A 
ATOM     54  C   UNL A   1      42.350  22.531  28.524  1.00  0.00     0.135 A 
ATOM     55  F   UNL A   1      42.748  24.416  25.440  1.00  0.00    -0.206 F 
ATOM     56  C   UNL A   1      42.446  22.111  25.770  1.00  0.00     0.059 A 
ATOM     57  C   UNL A   1      42.236  21.236  28.025  1.00  0.00     0.059 A 
ATOM     58  F   UNL A   1      42.313  22.705  29.853  1.00  0.00    -0.206 F 
ATOM     59  C   UNL A   1      42.284  21.037  26.647  1.00  0.00     0.060 A 
BRANCH  59  60
ATOM     60  S   UNL A   1      42.187  19.370  25.957  1.00  0.00     0.124 S 
ATOM     61  O   UNL A   1      43.033  19.490  24.776  1.00  0.00    -0.237 OA
ATOM     62  O   UNL A   1      42.721  18.559  27.047  1.00  0.00    -0.237 OA
ATOM     63  O   UNL A   1      40.761  19.197  25.697  1.00  0.00    -0.744 OA
ENDBRANCH  59  60
ENDBRANCH  27  52
BRANCH  39  64
ATOM     64  C   UNL A   1      47.971  27.007  30.473  1.00  0.00     0.058 A 
ATOM     65  C   UNL A   1      48.968  27.213  29.507  1.00  0.00     0.135 A 
ATOM     66  C   UNL A   1      48.359  26.479  31.715  1.00  0.00     0.135 A 
ATOM     67  F   UNL A   1      48.648  27.711  28.302  1.00  0.00    -0.206 F 
ATOM     68  C   UNL A   1      50.298  26.895  29.758  1.00  0.00     0.059 A 
ATOM     69  C   UNL A   1      49.687  26.178  31.998  1.00  0.00     0.059 A 
ATOM     70  F   UNL A   1      47.445  26.273  32.677  1.00  0.00    -0.206 F 
ATOM     71  C   UNL A   1      50.649  26.382  31.010  1.00  0.00     0.060 A 
BRANCH  71  72
ATOM     72  S   UNL A   1      52.386  26.014  31.332  1.00  0.00     0.124 S 
ATOM     73  O   UNL A   1      52.728  27.040  32.311  1.00  0.00    -0.237 OA
ATOM     74  O   UNL A   1      52.325  24.647  31.840  1.00  0.00    -0.237 OA
ATOM     75  O   UNL A   1      53.015  26.163  30.022  1.00  0.00    -0.744 OA
ENDBRANCH  71  72
ENDBRANCH  39  64
ENDBRANCH  13  14
ENDBRANCH   6   8
ENDBRANCH   3   4
ENDBRANCH   2   3
ENDBRANCH   1   2
BRANCH   1  76
ATOM     76  C   UNL A   1      33.448  26.960  23.550  1.00  0.00     0.002 C 
BRANCH  76  77
ATOM     77  C   UNL A   1      32.241  26.404  22.776  1.00  0.00     0.021 C 
BRANCH  77  78
ATOM     78  C   UNL A   1      31.650  25.090  23.314  1.00  0.00     0.116 C 
BRANCH  78  79
ATOM     79  N   UNL A   1      32.272  23.939  22.696  1.00  0.00    -0.355 N 
ATOM     80  C   UNL A   1      33.514  23.471  22.967  1.00  0.00     0.236 C 
ATOM     81  H   UNL A   1      31.747  23.454  22.020  1.00  0.00     0.163 HD
ATOM     82  O   UNL A   1      34.312  23.470  22.021  1.00  0.00    -0.274 OA
BRANCH  80  83
ATOM     83  C   UNL A   1      33.833  22.703  24.254  1.00  0.00     0.144 C 
ATOM     84  C   UNL A   1      34.086  23.794  25.313  1.00  0.00     0.253 C 
ATOM     85  C   UNL A   1      34.934  21.647  24.359  1.00  0.00     0.103 C 
ATOM     86  C   UNL A   1      32.552  21.882  24.556  1.00  0.00     0.283 C 
ATOM     87  O   UNL A   1      35.406  24.364  25.246  1.00  0.00    -0.492 OA
ATOM     88  C   UNL A   1      36.265  22.133  24.869  1.00  0.00     0.004 A 
ATOM     89  C   UNL A   1      34.379  20.682  25.426  1.00  0.00     0.272 C 
ATOM     90  N   UNL A   1      32.936  20.647  25.252  1.00  0.00    -0.331 N 
ATOM     91  C   UNL A   1      36.410  23.441  25.327  1.00  0.00     0.123 A 
ATOM     92  C   UNL A   1      37.335  21.233  25.021  1.00  0.00     0.008 A 
ATOM     93  H   UNL A   1      32.479  20.617  26.163  1.00  0.00     0.348 HD
ATOM     94  C   UNL A   1      37.610  23.855  25.907  1.00  0.00     0.047 A 
ATOM     95  C   UNL A   1      38.518  21.633  25.642  1.00  0.00     0.001 A 
ATOM     96  C   UNL A   1      38.657  22.947  26.084  1.00  0.00     0.004 A 
BRANCH  90  97
ATOM     97  C   UNL A   1      32.430  19.409  24.631  1.00  0.00     0.290 C 
BRANCH  97  98
ATOM     98  C   UNL A   1      32.869  18.051  25.217  1.00  0.00     0.217 C 
BRANCH  98  99
ATOM     99  O   UNL A   1      32.517  17.934  26.593  1.00  0.00    -0.391 OA
ATOM    100  H   UNL A   1      32.131  17.058  26.754  1.00  0.00     0.210 HD
ENDBRANCH  98  99
ENDBRANCH  97  98
ENDBRANCH  90  97
ENDBRANCH  80  83
ENDBRANCH  78  79
ENDBRANCH  77  78
ENDBRANCH  76  77
ENDBRANCH   1  76
TORSDOF 19
ENDMDL
MODEL 2
REMARK VINA RESULT:     -11.1      1.016      2.177
REMARK SMILES O=C(NCCCCCCNC(=O)[C@]12COc3ccccc3[C@H]1C[N@H+](CCO)C2)c1ccc(-c2c3nc(c(-c4c(F)cc(S(=O)(=O)[O-])cc4F)c4ccc([nH]4)c(-c4c(F)cc(S(=O)(=O)[O-])cc4F)c4nc(c(-c5c(F)cc(S(=O)(=O)[O-])cc5F)c5ccc2[nH]5)C=C4)C=C3)cc1
REMARK SMILES IDX 6 1 5 2 4 3 3 4 1 5 2 6 29 8 30 9 94 10 31 11 93 12 32 13
REMARK SMILES IDX 33 14 34 15 87 16 35 17 92 18 86 19 88 20 36 21 91 22 85 23
REMARK SMILES IDX 84 24 37 26 71 27 50 28 70 29 51 30 54 31 69 32 89 33 52 34
REMARK SMILES IDX 53 35 68 37 90 38 55 39 38 40 39 41 48 42 40 43 41 44 47 45
REMARK SMILES IDX 49 46 42 47 43 48 44 49 45 50 46 51 72 52 73 53 82 54 74 55
REMARK SMILES IDX 75 56 81 57 83 58 76 59 77 60 78 61 79 62 80 63 56 64 57 65
REMARK SMILES IDX 66 66 58 67 59 68 65 69 67 70 60 71 61 72 62 73 63 74 64 75
REMARK SMILES IDX 7 76 8 77 9 78 10 79 11 80 12 82 13 83 14 84 22 85 28 86
REMARK SMILES IDX 15 87 21 88 23 89 24 90 16 91 20 92 17 94 19 95 18 96 25 97
REMARK SMILES IDX 26 98 27 99
REMARK H PARENT 3 7 88 25 54 36 10 81 24 93 27 100
REMARK Flexibility Score: inf
ROOT
ATOM      1  C   UNL A   1      31.657  27.881  26.377  1.00  0.00     0.002 C 
ENDROOT
BRANCH   1   2
ATOM      2  C   UNL A   1      33.133  27.685  26.722  1.00  0.00     0.021 C 
BRANCH   2   3
ATOM      3  C   UNL A   1      34.052  28.795  26.232  1.00  0.00     0.116 C 
BRANCH   3   4
ATOM      4  N   UNL A   1      33.849  30.033  26.960  1.00  0.00    -0.352 N 
ATOM      5  O   UNL A   1      34.239  31.552  28.576  1.00  0.00    -0.269 OA
ATOM      6  C   UNL A   1      34.654  30.610  27.909  1.00  0.00     0.251 C 
ATOM      7  H   UNL A   1      33.023  30.524  26.746  1.00  0.00     0.163 HD
BRANCH   6   8
ATOM      8  C   UNL A   1      36.020  30.087  28.125  1.00  0.00     0.039 A 
ATOM      9  C   UNL A   1      36.336  29.513  29.358  1.00  0.00     0.014 A 
ATOM     10  C   UNL A   1      36.997  30.204  27.131  1.00  0.00     0.014 A 
ATOM     11  C   UNL A   1      37.632  29.052  29.594  1.00  0.00     0.010 A 
ATOM     12  C   UNL A   1      38.267  29.679  27.339  1.00  0.00     0.010 A 
ATOM     13  C   UNL A   1      38.607  29.135  28.586  1.00  0.00    -0.014 A 
BRANCH  13  14
ATOM     14  C   UNL A   1      40.018  28.767  28.858  1.00  0.00     0.031 A 
ATOM     15  C   UNL A   1      40.910  29.754  29.564  1.00  0.00     0.074 A 
ATOM     16  C   UNL A   1      40.496  27.569  28.473  1.00  0.00     0.049 A 
ATOM     17  N   UNL A   1      42.183  29.664  29.850  1.00  0.00    -0.248 NA
ATOM     18  C   UNL A   1      40.290  31.022  29.984  1.00  0.00     0.031 C 
ATOM     19  C   UNL A   1      39.727  26.533  27.785  1.00  0.00     0.029 A 
ATOM     20  N   UNL A   1      41.744  27.019  28.618  1.00  0.00    -0.354 N 
ATOM     21  C   UNL A   1      42.512  30.858  30.480  1.00  0.00     0.074 A 
ATOM     22  C   UNL A   1      41.328  31.687  30.467  1.00  0.00     0.031 C 
ATOM     23  C   UNL A   1      40.509  25.456  27.602  1.00  0.00     0.029 A 
ATOM     24  C   UNL A   1      41.842  25.740  28.125  1.00  0.00     0.049 A 
ATOM     25  H   UNL A   1      42.498  27.495  29.036  1.00  0.00     0.167 HD
ATOM     26  C   UNL A   1      43.686  31.220  31.051  1.00  0.00     0.037 A 
ATOM     27  C   UNL A   1      42.892  24.895  28.102  1.00  0.00     0.037 A 
ATOM     28  C   UNL A   1      44.854  30.382  31.080  1.00  0.00     0.049 A 
ATOM     29  C   UNL A   1      44.203  25.338  28.691  1.00  0.00     0.074 A 
ATOM     30  C   UNL A   1      46.091  30.647  31.638  1.00  0.00     0.029 A 
ATOM     31  N   UNL A   1      44.926  29.108  30.533  1.00  0.00    -0.354 N 
ATOM     32  N   UNL A   1      44.501  26.471  29.283  1.00  0.00    -0.248 NA
ATOM     33  C   UNL A   1      45.322  24.390  28.608  1.00  0.00     0.031 C 
ATOM     34  C   UNL A   1      46.923  29.548  31.397  1.00  0.00     0.029 A 
ATOM     35  C   UNL A   1      46.190  28.580  30.728  1.00  0.00     0.049 A 
ATOM     36  H   UNL A   1      44.186  28.648  30.075  1.00  0.00     0.167 HD
ATOM     37  C   UNL A   1      45.833  26.364  29.663  1.00  0.00     0.074 A 
ATOM     38  C   UNL A   1      46.282  25.051  29.243  1.00  0.00     0.031 C 
ATOM     39  C   UNL A   1      46.617  27.270  30.300  1.00  0.00     0.037 A 
BRANCH  26  40
ATOM     40  C   UNL A   1      43.749  32.576  31.699  1.00  0.00     0.058 A 
ATOM     41  C   UNL A   1      43.436  32.754  33.057  1.00  0.00     0.135 A 
ATOM     42  C   UNL A   1      44.131  33.708  30.962  1.00  0.00     0.135 A 
ATOM     43  F   UNL A   1      43.045  31.709  33.804  1.00  0.00    -0.206 F 
ATOM     44  C   UNL A   1      43.467  34.010  33.653  1.00  0.00     0.059 A 
ATOM     45  C   UNL A   1      44.197  34.970  31.546  1.00  0.00     0.059 A 
ATOM     46  F   UNL A   1      44.437  33.597  29.660  1.00  0.00    -0.206 F 
ATOM     47  C   UNL A   1      43.847  35.113  32.888  1.00  0.00     0.060 A 
BRANCH  47  48
ATOM     48  S   UNL A   1      43.869  36.737  33.676  1.00  0.00     0.124 S 
ATOM     49  O   UNL A   1      43.994  37.620  32.520  1.00  0.00    -0.237 OA
ATOM     50  O   UNL A   1      42.582  36.767  34.362  1.00  0.00    -0.237 OA
ATOM     51  O   UNL A   1      45.040  36.677  34.547  1.00  0.00    -0.744 OA
ENDBRANCH  47  48
ENDBRANCH  26  40
BRANCH  27  52
ATOM     52  C   UNL A   1      42.726  23.529  27.538  1.00  0.00     0.058 A 
ATOM     53  C   UNL A   1      43.014  23.275  26.188  1.00  0.00     0.135 A 
ATOM     54  C   UNL A   1      42.320  22.448  28.335  1.00  0.00     0.135 A 
ATOM     55  F   UNL A   1      43.396  24.278  25.384  1.00  0.00    -0.206 F 
ATOM     56  C   UNL A   1      42.906  21.997  25.648  1.00  0.00     0.059 A 
ATOM     57  C   UNL A   1      42.228  21.157  27.823  1.00  0.00     0.059 A 
ATOM     58  F   UNL A   1      42.045  22.636  29.634  1.00  0.00    -0.206 F 
ATOM     59  C   UNL A   1      42.521  20.942  26.477  1.00  0.00     0.060 A 
BRANCH  59  60
ATOM     60  S   UNL A   1      42.460  19.277  25.779  1.00  0.00     0.124 S 
ATOM     61  O   UNL A   1      43.233  19.442  24.554  1.00  0.00    -0.237 OA
ATOM     62  O   UNL A   1      43.089  18.484  26.831  1.00  0.00    -0.237 OA
ATOM     63  O   UNL A   1      41.031  19.042  25.597  1.00  0.00    -0.744 OA
ENDBRANCH  59  60
ENDBRANCH  27  52
BRANCH  39  64
ATOM     64  C   UNL A   1      48.036  26.873  30.597  1.00  0.00     0.058 A 
ATOM     65  C   UNL A   1      49.100  27.287  29.782  1.00  0.00     0.135 A 
ATOM     66  C   UNL A   1      48.342  26.129  31.749  1.00  0.00     0.135 A 
ATOM     67  F   UNL A   1      48.860  27.996  28.667  1.00  0.00    -0.206 F 
ATOM     68  C   UNL A   1      50.417  26.964  30.088  1.00  0.00     0.059 A 
ATOM     69  C   UNL A   1      49.654  25.817  32.089  1.00  0.00     0.059 A 
ATOM     70  F   UNL A   1      47.361  25.718  32.568  1.00  0.00    -0.206 F 
ATOM     71  C   UNL A   1      50.685  26.232  31.247  1.00  0.00     0.060 A 
BRANCH  71  72
ATOM     72  S   UNL A   1      52.403  25.858  31.650  1.00  0.00     0.124 S 
ATOM     73  O   UNL A   1      52.703  26.882  32.645  1.00  0.00    -0.237 OA
ATOM     74  O   UNL A   1      52.314  24.491  32.155  1.00  0.00    -0.237 OA
ATOM     75  O   UNL A   1      53.093  26.005  30.371  1.00  0.00    -0.744 OA
ENDBRANCH  71  72
ENDBRANCH  39  64
ENDBRANCH  13  14
ENDBRANCH   6   8
ENDBRANCH   3   4
ENDBRANCH   2   3
ENDBRANCH   1   2
BRANCH   1  76
ATOM     76  C   UNL A   1      30.859  26.588  26.185  1.00  0.00     0.002 C 
BRANCH  76  77
ATOM     77  C   UNL A   1      31.640  25.283  26.415  1.00  0.00     0.021 C 
BRANCH  77  78
ATOM     78  C   UNL A   1      30.811  23.989  26.356  1.00  0.00     0.116 C 
BRANCH  78  79
ATOM     79  N   UNL A   1      31.655  22.817  26.449  1.00  0.00    -0.355 N 
ATOM     80  C   UNL A   1      32.045  22.040  25.410  1.00  0.00     0.236 C 
ATOM     81  H   UNL A   1      31.972  22.562  27.345  1.00  0.00     0.163 HD
ATOM     82  O   UNL A   1      31.681  20.859  25.450  1.00  0.00    -0.274 OA
BRANCH  80  83
ATOM     83  C   UNL A   1      33.120  22.490  24.414  1.00  0.00     0.144 C 
ATOM     84  C   UNL A   1      33.845  21.195  24.002  1.00  0.00     0.253 C 
ATOM     85  C   UNL A   1      34.163  23.564  24.724  1.00  0.00     0.103 C 
ATOM     86  C   UNL A   1      32.331  23.119  23.236  1.00  0.00     0.283 C 
ATOM     87  O   UNL A   1      34.822  20.754  24.961  1.00  0.00    -0.492 OA
ATOM     88  C   UNL A   1      35.493  23.064  25.221  1.00  0.00     0.004 A 
ATOM     89  C   UNL A   1      34.420  24.197  23.341  1.00  0.00     0.272 C 
ATOM     90  N   UNL A   1      33.155  24.171  22.625  1.00  0.00    -0.331 N 
ATOM     91  C   UNL A   1      35.763  21.698  25.264  1.00  0.00     0.123 A 
ATOM     92  C   UNL A   1      36.527  23.974  25.513  1.00  0.00     0.008 A 
ATOM     93  H   UNL A   1      33.318  23.945  21.644  1.00  0.00     0.348 HD
ATOM     94  C   UNL A   1      37.034  21.241  25.615  1.00  0.00     0.047 A 
ATOM     95  C   UNL A   1      37.809  23.518  25.818  1.00  0.00     0.001 A 
ATOM     96  C   UNL A   1      38.063  22.150  25.871  1.00  0.00     0.004 A 
BRANCH  90  97
ATOM     97  C   UNL A   1      32.493  25.484  22.515  1.00  0.00     0.290 C 
BRANCH  97  98
ATOM     98  C   UNL A   1      31.991  25.949  21.133  1.00  0.00     0.217 C 
BRANCH  98  99
ATOM     99  O   UNL A   1      33.040  25.961  20.169  1.00  0.00    -0.391 OA
ATOM    100  H   UNL A   1      32.662  25.896  19.278  1.00  0.00     0.210 HD
ENDBRANCH  98  99
ENDBRANCH  97  98
ENDBRANCH  90  97
ENDBRANCH  80  83
ENDBRANCH  78  79
ENDBRANCH  77  78
ENDBRANCH  76  77
ENDBRANCH   1  76
TORSDOF 19
ENDMDL
MODEL 3
REMARK VINA RESULT:     -11.0      2.750      4.033
REMARK SMILES O=C(NCCCCCCNC(=O)[C@]12COc3ccccc3[C@H]1C[N@H+](CCO)C2)c1ccc(-c2c3nc(c(-c4c(F)cc(S(=O)(=O)[O-])cc4F)c4ccc([nH]4)c(-c4c(F)cc(S(=O)(=O)[O-])cc4F)c4nc(c(-c5c(F)cc(S(=O)(=O)[O-])cc5F)c5ccc2[nH]5)C=C4)C=C3)cc1
REMARK SMILES IDX 6 1 5 2 4 3 3 4 1 5 2 6 29 8 30 9 94 10 31 11 93 12 32 13
REMARK SMILES IDX 33 14 34 15 87 16 35 17 92 18 86 19 88 20 36 21 91 22 85 23
REMARK SMILES IDX 84 24 37 26 71 27 50 28 70 29 51 30 54 31 69 32 89 33 52 34
REMARK SMILES IDX 53 35 68 37 90 38 55 39 38 40 39 41 48 42 40 43 41 44 47 45
REMARK SMILES IDX 49 46 42 47 43 48 44 49 45 50 46 51 72 52 73 53 82 54 74 55
REMARK SMILES IDX 75 56 81 57 83 58 76 59 77 60 78 61 79 62 80 63 56 64 57 65
REMARK SMILES IDX 66 66 58 67 59 68 65 69 67 70 60 71 61 72 62 73 63 74 64 75
REMARK SMILES IDX 7 76 8 77 9 78 10 79 11 80 12 82 13 83 14 84 22 85 28 86
REMARK SMILES IDX 15 87 21 88 23 89 24 90 16 91 20 92 17 94 19 95 18 96 25 97
REMARK SMILES IDX 26 98 27 99
REMARK H PARENT 3 7 88 25 54 36 10 81 24 93 27 100
REMARK Flexibility Score: inf
ROOT
ATOM      1  C   UNL A   1      33.388  29.567  26.559  1.00  0.00     0.002 C 
ENDROOT
BRANCH   1   2
ATOM      2  C   UNL A   1      34.523  29.333  27.555  1.00  0.00     0.021 C 
BRANCH   2   3
ATOM      3  C   UNL A   1      35.356  30.568  27.869  1.00  0.00     0.116 C 
BRANCH   3   4
ATOM      4  N   UNL A   1      35.359  30.879  29.287  1.00  0.00    -0.352 N 
ATOM      5  O   UNL A   1      36.053  30.714  31.422  1.00  0.00    -0.269 OA
ATOM      6  C   UNL A   1      36.300  30.555  30.231  1.00  0.00     0.251 C 
ATOM      7  H   UNL A   1      34.583  31.387  29.614  1.00  0.00     0.163 HD
BRANCH   6   8
ATOM      8  C   UNL A   1      37.607  30.010  29.805  1.00  0.00     0.039 A 
ATOM      9  C   UNL A   1      38.477  29.506  30.773  1.00  0.00     0.014 A 
ATOM     10  C   UNL A   1      37.990  30.040  28.459  1.00  0.00     0.014 A 
ATOM     11  C   UNL A   1      39.731  29.027  30.394  1.00  0.00     0.010 A 
ATOM     12  C   UNL A   1      39.209  29.495  28.073  1.00  0.00     0.010 A 
ATOM     13  C   UNL A   1      40.106  29.021  29.040  1.00  0.00    -0.014 A 
BRANCH  13  14
ATOM     14  C   UNL A   1      41.478  28.634  28.631  1.00  0.00     0.031 A 
ATOM     15  C   UNL A   1      42.575  29.665  28.673  1.00  0.00     0.074 A 
ATOM     16  C   UNL A   1      41.738  27.379  28.221  1.00  0.00     0.049 A 
ATOM     17  N   UNL A   1      43.826  29.561  28.308  1.00  0.00    -0.248 NA
ATOM     18  C   UNL A   1      42.206  31.001  29.173  1.00  0.00     0.031 C 
ATOM     19  C   UNL A   1      40.759  26.295  28.140  1.00  0.00     0.029 A 
ATOM     20  N   UNL A   1      42.911  26.801  27.806  1.00  0.00    -0.354 N 
ATOM     21  C   UNL A   1      44.389  30.811  28.533  1.00  0.00     0.074 A 
ATOM     22  C   UNL A   1      43.330  31.679  28.994  1.00  0.00     0.031 C 
ATOM     23  C   UNL A   1      41.379  25.173  27.741  1.00  0.00     0.029 A 
ATOM     24  C   UNL A   1      42.789  25.467  27.500  1.00  0.00     0.049 A 
ATOM     25  H   UNL A   1      43.759  27.295  27.734  1.00  0.00     0.167 HD
ATOM     26  C   UNL A   1      45.682  31.194  28.402  1.00  0.00     0.037 A 
ATOM     27  C   UNL A   1      43.715  24.583  27.076  1.00  0.00     0.037 A 
ATOM     28  C   UNL A   1      46.736  30.321  27.965  1.00  0.00     0.049 A 
ATOM     29  C   UNL A   1      45.134  25.044  26.884  1.00  0.00     0.074 A 
ATOM     30  C   UNL A   1      48.080  30.604  27.804  1.00  0.00     0.029 A 
ATOM     31  N   UNL A   1      46.565  28.985  27.624  1.00  0.00    -0.354 N 
ATOM     32  N   UNL A   1      45.653  26.231  27.100  1.00  0.00    -0.248 NA
ATOM     33  C   UNL A   1      46.093  24.049  26.387  1.00  0.00     0.031 C 
ATOM     34  C   UNL A   1      48.716  29.450  27.332  1.00  0.00     0.029 A 
ATOM     35  C   UNL A   1      47.776  28.436  27.242  1.00  0.00     0.049 A 
ATOM     36  H   UNL A   1      45.708  28.501  27.652  1.00  0.00     0.167 HD
ATOM     37  C   UNL A   1      47.002  26.118  26.788  1.00  0.00     0.074 A 
ATOM     38  C   UNL A   1      47.223  24.746  26.378  1.00  0.00     0.031 C 
ATOM     39  C   UNL A   1      47.973  27.066  26.835  1.00  0.00     0.037 A 
BRANCH  26  40
ATOM     40  C   UNL A   1      46.018  32.618  28.753  1.00  0.00     0.058 A 
ATOM     41  C   UNL A   1      45.991  33.637  27.787  1.00  0.00     0.135 A 
ATOM     42  C   UNL A   1      46.364  32.972  30.067  1.00  0.00     0.135 A 
ATOM     43  F   UNL A   1      45.686  33.351  26.511  1.00  0.00    -0.206 F 
ATOM     44  C   UNL A   1      46.328  34.949  28.102  1.00  0.00     0.059 A 
ATOM     45  C   UNL A   1      46.677  34.285  30.411  1.00  0.00     0.059 A 
ATOM     46  F   UNL A   1      46.410  32.039  31.030  1.00  0.00    -0.206 F 
ATOM     47  C   UNL A   1      46.672  35.263  29.417  1.00  0.00     0.060 A 
BRANCH  47  48
ATOM     48  S   UNL A   1      47.117  36.969  29.804  1.00  0.00     0.124 S 
ATOM     49  O   UNL A   1      48.575  36.897  29.799  1.00  0.00    -0.237 OA
ATOM     50  O   UNL A   1      46.515  37.705  28.698  1.00  0.00    -0.237 OA
ATOM     51  O   UNL A   1      46.506  37.192  31.111  1.00  0.00    -0.744 OA
ENDBRANCH  47  48
ENDBRANCH  26  40
BRANCH  27  52
ATOM     52  C   UNL A   1      43.330  23.165  26.850  1.00  0.00     0.058 A 
ATOM     53  C   UNL A   1      43.254  22.646  25.549  1.00  0.00     0.135 A 
ATOM     54  C   UNL A   1      43.075  22.292  27.919  1.00  0.00     0.135 A 
ATOM     55  F   UNL A   1      43.480  23.444  24.494  1.00  0.00    -0.206 F 
ATOM     56  C   UNL A   1      42.937  21.311  25.314  1.00  0.00     0.059 A 
ATOM     57  C   UNL A   1      42.779  20.948  27.709  1.00  0.00     0.059 A 
ATOM     58  F   UNL A   1      43.147  22.737  29.182  1.00  0.00    -0.206 F 
ATOM     59  C   UNL A   1      42.711  20.468  26.402  1.00  0.00     0.060 A 
BRANCH  59  60
ATOM     60  S   UNL A   1      42.376  18.722  26.084  1.00  0.00     0.124 S 
ATOM     61  O   UNL A   1      40.972  18.757  25.692  1.00  0.00    -0.237 OA
ATOM     62  O   UNL A   1      43.330  18.419  25.021  1.00  0.00    -0.237 OA
ATOM     63  O   UNL A   1      42.658  18.087  27.368  1.00  0.00    -0.744 OA
ENDBRANCH  59  60
ENDBRANCH  27  52
BRANCH  39  64
ATOM     64  C   UNL A   1      49.365  26.652  26.447  1.00  0.00     0.058 A 
ATOM     65  C   UNL A   1      50.178  25.909  27.315  1.00  0.00     0.135 A 
ATOM     66  C   UNL A   1      49.864  26.942  25.166  1.00  0.00     0.135 A 
ATOM     67  F   UNL A   1      49.750  25.610  28.552  1.00  0.00    -0.206 F 
ATOM     68  C   UNL A   1      51.445  25.481  26.934  1.00  0.00     0.059 A 
ATOM     69  C   UNL A   1      51.117  26.501  24.754  1.00  0.00     0.059 A 
ATOM     70  F   UNL A   1      49.121  27.641  24.293  1.00  0.00    -0.206 F 
ATOM     71  C   UNL A   1      51.904  25.778  25.649  1.00  0.00     0.060 A 
BRANCH  71  72
ATOM     72  S   UNL A   1      53.534  25.179  25.158  1.00  0.00     0.124 S 
ATOM     73  O   UNL A   1      53.578  25.565  23.751  1.00  0.00    -0.237 OA
ATOM     74  O   UNL A   1      54.420  25.922  26.048  1.00  0.00    -0.237 OA
ATOM     75  O   UNL A   1      53.460  23.742  25.411  1.00  0.00    -0.744 OA
ENDBRANCH  71  72
ENDBRANCH  39  64
ENDBRANCH  13  14
ENDBRANCH   6   8
ENDBRANCH   3   4
ENDBRANCH   2   3
ENDBRANCH   1   2
BRANCH   1  76
ATOM     76  C   UNL A   1      31.978  29.400  27.131  1.00  0.00     0.002 C 
BRANCH  76  77
ATOM     77  C   UNL A   1      31.543  27.953  27.420  1.00  0.00     0.021 C 
BRANCH  77  78
ATOM     78  C   UNL A   1      31.788  26.943  26.287  1.00  0.00     0.116 C 
BRANCH  78  79
ATOM     79  N   UNL A   1      31.953  25.601  26.802  1.00  0.00    -0.355 N 
ATOM     80  C   UNL A   1      31.342  24.490  26.325  1.00  0.00     0.236 C 
ATOM     81  H   UNL A   1      32.563  25.485  27.566  1.00  0.00     0.163 HD
ATOM     82  O   UNL A   1      30.599  23.898  27.118  1.00  0.00    -0.274 OA
BRANCH  80  83
ATOM     83  C   UNL A   1      31.768  23.824  25.013  1.00  0.00     0.144 C 
ATOM     84  C   UNL A   1      31.529  22.319  25.236  1.00  0.00     0.253 C 
ATOM     85  C   UNL A   1      33.144  24.017  24.374  1.00  0.00     0.103 C 
ATOM     86  C   UNL A   1      30.815  24.414  23.940  1.00  0.00     0.283 C 
ATOM     87  O   UNL A   1      32.578  21.675  25.982  1.00  0.00    -0.492 OA
ATOM     88  C   UNL A   1      34.173  22.967  24.701  1.00  0.00     0.004 A 
ATOM     89  C   UNL A   1      32.841  23.883  22.868  1.00  0.00     0.272 C 
ATOM     90  N   UNL A   1      31.521  24.452  22.652  1.00  0.00    -0.331 N 
ATOM     91  C   UNL A   1      33.821  21.839  25.439  1.00  0.00     0.123 A 
ATOM     92  C   UNL A   1      35.463  23.045  24.145  1.00  0.00     0.008 A 
ATOM     93  H   UNL A   1      31.010  23.890  21.971  1.00  0.00     0.348 HD
ATOM     94  C   UNL A   1      34.745  20.814  25.641  1.00  0.00     0.047 A 
ATOM     95  C   UNL A   1      36.371  21.999  24.308  1.00  0.00     0.001 A 
ATOM     96  C   UNL A   1      36.012  20.882  25.058  1.00  0.00     0.004 A 
BRANCH  90  97
ATOM     97  C   UNL A   1      31.529  25.771  21.994  1.00  0.00     0.290 C 
BRANCH  97  98
ATOM     98  C   UNL A   1      32.867  26.332  21.471  1.00  0.00     0.217 C 
BRANCH  98  99
ATOM     99  O   UNL A   1      33.069  26.016  20.097  1.00  0.00    -0.391 OA
ATOM    100  H   UNL A   1      33.290  26.824  19.608  1.00  0.00     0.210 HD
ENDBRANCH  98  99
ENDBRANCH  97  98
ENDBRANCH  90  97
ENDBRANCH  80  83
ENDBRANCH  78  79
ENDBRANCH  77  78
ENDBRANCH  76  77
ENDBRANCH   1  76
TORSDOF 19
ENDMDL
