MODEL 1
REMARK VINA RESULT:     -12.1      0.000      0.000
REMARK SMILES Cc1cc(Cl)ccc1Oc1cc(C)c(N)c(C(=O)NCCCCCCNC(=O)c2ccc(-c3c4nc(c(-c5c(F)cc(S(=O)(=O)[O-])cc5F)c5ccc([nH]5)c(-c5c(F)cc(S(=O)(=O)[O-])cc5F)c5nc(c(-c6c(F)cc(S(=O)(=O)[O-])cc6F)c6ccc3[nH]6)C=C5)C=C4)cc2)c1
REMARK SMILES IDX 23 1 22 2 21 3 20 4 19 5 17 6 18 7 16 9 10 10 11 11 95 12
REMARK SMILES IDX 12 13 13 14 14 15 9 16 8 17 1 18 2 19 3 20 4 21 7 22 5 23
REMARK SMILES IDX 6 24 15 25 24 28 25 29 26 30 27 31 28 33 29 34 30 35 94 36
REMARK SMILES IDX 31 37 93 38 32 39 33 40 34 41 87 42 35 43 92 44 86 45 88 46
REMARK SMILES IDX 36 47 91 48 85 49 84 50 37 52 71 53 50 54 70 55 51 56 54 57
REMARK SMILES IDX 69 58 89 59 52 60 53 61 68 63 90 64 55 65 38 66 39 67 48 68
REMARK SMILES IDX 40 69 41 70 47 71 49 72 42 73 43 74 44 75 45 76 46 77 72 78
REMARK SMILES IDX 73 79 82 80 74 81 75 82 81 83 83 84 76 85 77 86 78 87 79 88
REMARK SMILES IDX 80 89 56 90 57 91 66 92 58 93 59 94 65 95 67 96 60 97 61 98
REMARK SMILES IDX 62 99 63 100 64 101
REMARK H PARENT 19 8 15 26 15 27 26 32 88 51 54 62
REMARK Flexibility Score: inf
ROOT
ATOM      1  C   UNL A   1      34.373  32.484  28.376  1.00  0.00     0.002 C 
ENDROOT
BRANCH   1   2
ATOM      2  C   UNL A   1      33.872  31.251  27.613  1.00  0.00     0.002 C 
BRANCH   2   3
ATOM      3  C   UNL A   1      34.945  30.185  27.339  1.00  0.00     0.021 C 
BRANCH   3   4
ATOM      4  C   UNL A   1      34.355  28.858  26.857  1.00  0.00     0.116 C 
BRANCH   4   5
ATOM      5  N   UNL A   1      33.124  28.583  27.576  1.00  0.00    -0.352 N 
ATOM      6  C   UNL A   1      31.865  28.167  27.230  1.00  0.00     0.253 C 
ATOM      7  O   UNL A   1      31.062  28.113  28.170  1.00  0.00    -0.269 OA
ATOM      8  H   UNL A   1      33.217  28.733  28.544  1.00  0.00     0.163 HD
BRANCH   6   9
ATOM      9  C   UNL A   1      31.442  27.727  25.855  1.00  0.00     0.066 A 
ATOM     10  C   UNL A   1      30.733  26.021  24.283  1.00  0.00     0.128 A 
ATOM     11  C   UNL A   1      30.422  26.980  23.329  1.00  0.00     0.052 A 
ATOM     12  C   UNL A   1      31.249  26.383  25.525  1.00  0.00     0.063 A 
ATOM     13  C   UNL A   1      30.741  28.320  23.569  1.00  0.00    -0.024 A 
ATOM     14  C   UNL A   1      30.607  29.307  22.442  1.00  0.00     0.047 C 
ATOM     15  C   UNL A   1      31.225  28.710  24.843  1.00  0.00     0.048 A 
BRANCH  10  16
ATOM     16  O   UNL A   1      30.453  24.705  24.059  1.00  0.00    -0.457 OA
BRANCH  16  17
ATOM     17  C   UNL A   1      31.440  23.742  24.106  1.00  0.00     0.130 A 
ATOM     18  C   UNL A   1      32.954  24.422  22.113  1.00  0.00     0.048 C 
ATOM     19  C   UNL A   1      32.562  23.556  23.276  1.00  0.00    -0.007 A 
ATOM     20  C   UNL A   1      33.395  22.442  23.523  1.00  0.00     0.027 A 
ATOM     21  C   UNL A   1      33.152  21.568  24.582  1.00  0.00     0.041 A 
ATOM     22  C   UNL A   1      31.220  22.855  25.179  1.00  0.00     0.049 A 
ATOM     23  Cl  UNL A   1      34.196  20.227  24.837  1.00  0.00    -0.084 Cl
ATOM     24  C   UNL A   1      32.071  21.778  25.422  1.00  0.00     0.024 A 
ENDBRANCH  16  17
ENDBRANCH  10  16
BRANCH  15  25
ATOM     25  N   UNL A   1      31.607  30.042  25.034  1.00  0.00    -0.398 N 
ATOM     26  H   UNL A   1      30.959  30.766  24.883  1.00  0.00     0.156 HD
ATOM     27  H   UNL A   1      32.525  30.254  25.320  1.00  0.00     0.156 HD
ENDBRANCH  15  25
ENDBRANCH   6   9
ENDBRANCH   4   5
ENDBRANCH   3   4
ENDBRANCH   2   3
ENDBRANCH   1   2
BRANCH   1  28
ATOM     28  C   UNL A   1      35.820  32.880  28.074  1.00  0.00     0.021 C 
BRANCH  28  29
ATOM     29  C   UNL A   1      36.729  32.897  29.299  1.00  0.00     0.116 C 
BRANCH  29  30
ATOM     30  N   UNL A   1      36.206  32.048  30.359  1.00  0.00    -0.352 N 
ATOM     31  C   UNL A   1      36.628  30.806  30.760  1.00  0.00     0.251 C 
ATOM     32  H   UNL A   1      35.441  32.418  30.858  1.00  0.00     0.163 HD
ATOM     33  O   UNL A   1      35.918  30.124  31.493  1.00  0.00    -0.269 OA
BRANCH  31  34
ATOM     34  C   UNL A   1      37.935  30.295  30.300  1.00  0.00     0.039 A 
ATOM     35  C   UNL A   1      38.151  30.117  28.932  1.00  0.00     0.014 A 
ATOM     36  C   UNL A   1      38.940  29.981  31.220  1.00  0.00     0.014 A 
ATOM     37  C   UNL A   1      39.396  29.672  28.482  1.00  0.00     0.010 A 
ATOM     38  C   UNL A   1      40.201  29.608  30.766  1.00  0.00     0.010 A 
ATOM     39  C   UNL A   1      40.440  29.442  29.395  1.00  0.00    -0.014 A 
BRANCH  39  40
ATOM     40  C   UNL A   1      41.789  29.034  28.929  1.00  0.00     0.031 A 
ATOM     41  C   UNL A   1      42.891  30.051  28.817  1.00  0.00     0.074 A 
ATOM     42  C   UNL A   1      41.998  27.762  28.537  1.00  0.00     0.049 A 
ATOM     43  N   UNL A   1      44.115  29.897  28.379  1.00  0.00    -0.248 NA
ATOM     44  C   UNL A   1      42.569  31.428  29.223  1.00  0.00     0.031 C 
ATOM     45  C   UNL A   1      40.988  26.702  28.542  1.00  0.00     0.029 A 
ATOM     46  N   UNL A   1      43.121  27.148  28.046  1.00  0.00    -0.354 N 
ATOM     47  C   UNL A   1      44.700  31.156  28.439  1.00  0.00     0.074 A 
ATOM     48  C   UNL A   1      43.682  32.072  28.906  1.00  0.00     0.031 C 
ATOM     49  C   UNL A   1      41.542  25.566  28.092  1.00  0.00     0.029 A 
ATOM     50  C   UNL A   1      42.932  25.823  27.731  1.00  0.00     0.049 A 
ATOM     51  H   UNL A   1      43.982  27.612  27.930  1.00  0.00     0.167 HD
ATOM     52  C   UNL A   1      45.974  31.513  28.148  1.00  0.00     0.037 A 
ATOM     53  C   UNL A   1      43.780  24.919  27.202  1.00  0.00     0.037 A 
ATOM     54  C   UNL A   1      46.985  30.587  27.703  1.00  0.00     0.049 A 
ATOM     55  C   UNL A   1      45.194  25.330  26.901  1.00  0.00     0.074 A 
ATOM     56  C   UNL A   1      48.325  30.829  27.459  1.00  0.00     0.029 A 
ATOM     57  N   UNL A   1      46.764  29.246  27.423  1.00  0.00    -0.354 N 
ATOM     58  N   UNL A   1      45.757  26.507  27.046  1.00  0.00    -0.248 NA
ATOM     59  C   UNL A   1      46.091  24.292  26.378  1.00  0.00     0.031 C 
ATOM     60  C   UNL A   1      48.902  29.648  26.979  1.00  0.00     0.029 A 
ATOM     61  C   UNL A   1      47.935  28.654  26.979  1.00  0.00     0.049 A 
ATOM     62  H   UNL A   1      45.901  28.782  27.526  1.00  0.00     0.167 HD
ATOM     63  C   UNL A   1      47.080  26.347  26.648  1.00  0.00     0.074 A 
ATOM     64  C   UNL A   1      47.235  24.956  26.272  1.00  0.00     0.031 C 
ATOM     65  C   UNL A   1      48.075  27.268  26.600  1.00  0.00     0.037 A 
BRANCH  52  66
ATOM     66  C   UNL A   1      46.341  32.966  28.292  1.00  0.00     0.058 A 
ATOM     67  C   UNL A   1      46.210  33.874  27.228  1.00  0.00     0.135 A 
ATOM     68  C   UNL A   1      46.821  33.461  29.515  1.00  0.00     0.135 A 
ATOM     69  F   UNL A   1      45.768  33.455  26.032  1.00  0.00    -0.206 F 
ATOM     70  C   UNL A   1      46.583  35.208  27.359  1.00  0.00     0.059 A 
ATOM     71  C   UNL A   1      47.169  34.799  29.678  1.00  0.00     0.059 A 
ATOM     72  F   UNL A   1      46.964  32.640  30.568  1.00  0.00    -0.206 F 
ATOM     73  C   UNL A   1      47.066  35.660  28.587  1.00  0.00     0.060 A 
BRANCH  73  74
ATOM     74  S   UNL A   1      47.564  37.389  28.735  1.00  0.00     0.124 S 
ATOM     75  O   UNL A   1      47.566  37.812  27.338  1.00  0.00    -0.237 OA
ATOM     76  O   UNL A   1      46.501  37.950  29.564  1.00  0.00    -0.237 OA
ATOM     77  O   UNL A   1      48.876  37.312  29.369  1.00  0.00    -0.744 OA
ENDBRANCH  73  74
ENDBRANCH  52  66
BRANCH  53  78
ATOM     78  C   UNL A   1      43.303  23.534  26.947  1.00  0.00     0.058 A 
ATOM     79  C   UNL A   1      43.060  23.081  25.643  1.00  0.00     0.135 A 
ATOM     80  C   UNL A   1      43.135  22.620  28.000  1.00  0.00     0.135 A 
ATOM     81  F   UNL A   1      43.202  23.919  24.604  1.00  0.00    -0.206 F 
ATOM     82  C   UNL A   1      42.669  21.770  25.388  1.00  0.00     0.059 A 
ATOM     83  C   UNL A   1      42.768  21.298  27.768  1.00  0.00     0.059 A 
ATOM     84  F   UNL A   1      43.371  23.000  29.265  1.00  0.00    -0.206 F 
ATOM     85  C   UNL A   1      42.535  20.883  26.459  1.00  0.00     0.060 A 
BRANCH  85  86
ATOM     86  S   UNL A   1      42.110  19.163  26.109  1.00  0.00     0.124 S 
ATOM     87  O   UNL A   1      42.435  18.516  27.376  1.00  0.00    -0.237 OA
ATOM     88  O   UNL A   1      40.689  19.259  25.787  1.00  0.00    -0.237 OA
ATOM     89  O   UNL A   1      42.978  18.824  24.986  1.00  0.00    -0.744 OA
ENDBRANCH  85  86
ENDBRANCH  53  78
BRANCH  65  90
ATOM     90  C   UNL A   1      49.429  26.801  26.142  1.00  0.00     0.058 A 
ATOM     91  C   UNL A   1      49.863  26.976  24.819  1.00  0.00     0.135 A 
ATOM     92  C   UNL A   1      50.326  26.219  27.054  1.00  0.00     0.135 A 
ATOM     93  F   UNL A   1      49.043  27.520  23.905  1.00  0.00    -0.206 F 
ATOM     94  C   UNL A   1      51.128  26.570  24.409  1.00  0.00     0.059 A 
ATOM     95  C   UNL A   1      51.607  25.833  26.673  1.00  0.00     0.059 A 
ATOM     96  F   UNL A   1      49.965  26.038  28.335  1.00  0.00    -0.206 F 
ATOM     97  C   UNL A   1      51.995  26.002  25.345  1.00  0.00     0.060 A 
BRANCH  97  98
ATOM     98  S   UNL A   1      53.647  25.511  24.808  1.00  0.00     0.124 S 
ATOM     99  O   UNL A   1      53.668  26.002  23.434  1.00  0.00    -0.237 OA
ATOM    100  O   UNL A   1      54.505  26.223  25.750  1.00  0.00    -0.237 OA
ATOM    101  O   UNL A   1      53.635  24.059  24.955  1.00  0.00    -0.744 OA
ENDBRANCH  97  98
ENDBRANCH  65  90
ENDBRANCH  39  40
ENDBRANCH  31  34
ENDBRANCH  29  30
ENDBRANCH  28  29
ENDBRANCH   1  28
TORSDOF 19
ENDMDL
MODEL 2
REMARK VINA RESULT:     -12.0      0.375      1.343
REMARK SMILES Cc1cc(Cl)ccc1Oc1cc(C)c(N)c(C(=O)NCCCCCCNC(=O)c2ccc(-c3c4nc(c(-c5c(F)cc(S(=O)(=O)[O-])cc5F)c5ccc([nH]5)c(-c5c(F)cc(S(=O)(=O)[O-])cc5F)c5nc(c(-c6c(F)cc(S(=O)(=O)[O-])cc6F)c6ccc3[nH]6)C=C5)C=C4)cc2)c1
REMARK SMILES IDX 23 1 22 2 21 3 20 4 19 5 17 6 18 7 16 9 10 10 11 11 95 12
REMARK SMILES IDX 12 13 13 14 14 15 9 16 8 17 1 18 2 19 3 20 4 21 7 22 5 23
REMARK SMILES IDX 6 24 15 25 24 28 25 29 26 30 27 31 28 33 29 34 30 35 94 36
REMARK SMILES IDX 31 37 93 38 32 39 33 40 34 41 87 42 35 43 92 44 86 45 88 46
REMARK SMILES IDX 36 47 91 48 85 49 84 50 37 52 71 53 50 54 70 55 51 56 54 57
REMARK SMILES IDX 69 58 89 59 52 60 53 61 68 63 90 64 55 65 38 66 39 67 48 68
REMARK SMILES IDX 40 69 41 70 47 71 49 72 42 73 43 74 44 75 45 76 46 77 72 78
REMARK SMILES IDX 73 79 82 80 74 81 75 82 81 83 83 84 76 85 77 86 78 87 79 88
REMARK SMILES IDX 80 89 56 90 57 91 66 92 58 93 59 94 65 95 67 96 60 97 61 98
REMARK SMILES IDX 62 99 63 100 64 101
REMARK H PARENT 19 8 15 26 15 27 26 32 88 51 54 62
REMARK Flexibility Score: inf
ROOT
ATOM      1  C   UNL A   1      34.420  32.605  28.350  1.00  0.00     0.002 C 
ENDROOT
BRANCH   1   2
ATOM      2  C   UNL A   1      33.923  31.379  27.572  1.00  0.00     0.002 C 
BRANCH   2   3
ATOM      3  C   UNL A   1      34.941  30.233  27.460  1.00  0.00     0.021 C 
BRANCH   3   4
ATOM      4  C   UNL A   1      34.326  28.942  26.916  1.00  0.00     0.116 C 
BRANCH   4   5
ATOM      5  N   UNL A   1      33.086  28.662  27.617  1.00  0.00    -0.352 N 
ATOM      6  C   UNL A   1      31.841  28.218  27.256  1.00  0.00     0.253 C 
ATOM      7  O   UNL A   1      31.021  28.171  28.181  1.00  0.00    -0.269 OA
ATOM      8  H   UNL A   1      33.156  28.834  28.584  1.00  0.00     0.163 HD
BRANCH   6   9
ATOM      9  C   UNL A   1      31.452  27.741  25.882  1.00  0.00     0.066 A 
ATOM     10  C   UNL A   1      30.830  25.985  24.329  1.00  0.00     0.128 A 
ATOM     11  C   UNL A   1      30.494  26.917  23.357  1.00  0.00     0.052 A 
ATOM     12  C   UNL A   1      31.315  26.386  25.572  1.00  0.00     0.063 A 
ATOM     13  C   UNL A   1      30.758  28.272  23.580  1.00  0.00    -0.024 A 
ATOM     14  C   UNL A   1      30.600  29.236  22.436  1.00  0.00     0.047 C 
ATOM     15  C   UNL A   1      31.210  28.700  24.853  1.00  0.00     0.048 A 
BRANCH  10  16
ATOM     16  O   UNL A   1      30.603  24.656  24.122  1.00  0.00    -0.457 OA
BRANCH  16  17
ATOM     17  C   UNL A   1      31.628  23.735  24.178  1.00  0.00     0.130 A 
ATOM     18  C   UNL A   1      33.334  24.721  22.491  1.00  0.00     0.048 C 
ATOM     19  C   UNL A   1      32.852  23.700  23.483  1.00  0.00    -0.007 A 
ATOM     20  C   UNL A   1      33.709  22.598  23.698  1.00  0.00     0.027 A 
ATOM     21  C   UNL A   1      33.387  21.588  24.604  1.00  0.00     0.041 A 
ATOM     22  C   UNL A   1      31.329  22.712  25.100  1.00  0.00     0.049 A 
ATOM     23  Cl  UNL A   1      34.466  20.268  24.827  1.00  0.00    -0.084 Cl
ATOM     24  C   UNL A   1      32.202  21.647  25.319  1.00  0.00     0.024 A 
ENDBRANCH  16  17
ENDBRANCH  10  16
BRANCH  15  25
ATOM     25  N   UNL A   1      31.538  30.048  25.029  1.00  0.00    -0.398 N 
ATOM     26  H   UNL A   1      32.272  30.447  24.509  1.00  0.00     0.156 HD
ATOM     27  H   UNL A   1      31.035  30.596  25.673  1.00  0.00     0.156 HD
ENDBRANCH  15  25
ENDBRANCH   6   9
ENDBRANCH   4   5
ENDBRANCH   3   4
ENDBRANCH   2   3
ENDBRANCH   1   2
BRANCH   1  28
ATOM     28  C   UNL A   1      35.855  33.030  28.028  1.00  0.00     0.021 C 
BRANCH  28  29
ATOM     29  C   UNL A   1      36.760  33.139  29.250  1.00  0.00     0.116 C 
BRANCH  29  30
ATOM     30  N   UNL A   1      36.240  32.364  30.366  1.00  0.00    -0.352 N 
ATOM     31  C   UNL A   1      36.661  31.151  30.849  1.00  0.00     0.251 C 
ATOM     32  H   UNL A   1      35.477  32.767  30.842  1.00  0.00     0.163 HD
ATOM     33  O   UNL A   1      35.954  30.520  31.628  1.00  0.00    -0.269 OA
BRANCH  31  34
ATOM     34  C   UNL A   1      37.967  30.608  30.419  1.00  0.00     0.039 A 
ATOM     35  C   UNL A   1      38.178  30.340  29.065  1.00  0.00     0.014 A 
ATOM     36  C   UNL A   1      38.973  30.354  31.355  1.00  0.00     0.014 A 
ATOM     37  C   UNL A   1      39.421  29.864  28.643  1.00  0.00     0.010 A 
ATOM     38  C   UNL A   1      40.233  29.950  30.924  1.00  0.00     0.010 A 
ATOM     39  C   UNL A   1      40.468  29.693  29.566  1.00  0.00    -0.014 A 
BRANCH  39  40
ATOM     40  C   UNL A   1      41.815  29.253  29.124  1.00  0.00     0.031 A 
ATOM     41  C   UNL A   1      42.945  30.241  29.042  1.00  0.00     0.074 A 
ATOM     42  C   UNL A   1      41.998  27.979  28.727  1.00  0.00     0.049 A 
ATOM     43  N   UNL A   1      44.173  30.059  28.628  1.00  0.00    -0.248 NA
ATOM     44  C   UNL A   1      42.651  31.623  29.452  1.00  0.00     0.031 C 
ATOM     45  C   UNL A   1      40.961  26.945  28.703  1.00  0.00     0.029 A 
ATOM     46  N   UNL A   1      43.115  27.339  28.254  1.00  0.00    -0.354 N 
ATOM     47  C   UNL A   1      44.790  31.301  28.709  1.00  0.00     0.074 A 
ATOM     48  C   UNL A   1      43.787  32.240  29.162  1.00  0.00     0.031 C 
ATOM     49  C   UNL A   1      41.493  25.798  28.256  1.00  0.00     0.029 A 
ATOM     50  C   UNL A   1      42.898  26.022  27.925  1.00  0.00     0.049 A 
ATOM     51  H   UNL A   1      43.990  27.780  28.159  1.00  0.00     0.167 HD
ATOM     52  C   UNL A   1      46.078  31.626  28.446  1.00  0.00     0.037 A 
ATOM     53  C   UNL A   1      43.732  25.100  27.406  1.00  0.00     0.037 A 
ATOM     54  C   UNL A   1      47.073  30.677  28.015  1.00  0.00     0.049 A 
ATOM     55  C   UNL A   1      45.162  25.475  27.137  1.00  0.00     0.074 A 
ATOM     56  C   UNL A   1      48.424  30.886  27.799  1.00  0.00     0.029 A 
ATOM     57  N   UNL A   1      46.823  29.344  27.720  1.00  0.00    -0.354 N 
ATOM     58  N   UNL A   1      45.752  26.635  27.302  1.00  0.00    -0.248 NA
ATOM     59  C   UNL A   1      46.042  24.417  26.624  1.00  0.00     0.031 C 
ATOM     60  C   UNL A   1      48.980  29.693  27.322  1.00  0.00     0.029 A 
ATOM     61  C   UNL A   1      47.987  28.725  27.295  1.00  0.00     0.049 A 
ATOM     62  H   UNL A   1      45.947  28.903  27.802  1.00  0.00     0.167 HD
ATOM     63  C   UNL A   1      47.078  26.443  26.929  1.00  0.00     0.074 A 
ATOM     64  C   UNL A   1      47.204  25.052  26.546  1.00  0.00     0.031 C 
ATOM     65  C   UNL A   1      48.098  27.339  26.908  1.00  0.00     0.037 A 
BRANCH  52  66
ATOM     66  C   UNL A   1      46.481  33.068  28.608  1.00  0.00     0.058 A 
ATOM     67  C   UNL A   1      47.003  33.562  29.816  1.00  0.00     0.135 A 
ATOM     68  C   UNL A   1      46.355  33.967  27.538  1.00  0.00     0.135 A 
ATOM     69  F   UNL A   1      47.135  32.751  30.878  1.00  0.00    -0.206 F 
ATOM     70  C   UNL A   1      47.341  34.903  29.969  1.00  0.00     0.059 A 
ATOM     71  C   UNL A   1      46.717  35.306  27.658  1.00  0.00     0.059 A 
ATOM     72  F   UNL A   1      45.865  33.551  26.359  1.00  0.00    -0.206 F 
ATOM     73  C   UNL A   1      47.190  35.768  28.885  1.00  0.00     0.060 A 
BRANCH  73  74
ATOM     74  S   UNL A   1      47.615  37.509  29.106  1.00  0.00     0.124 S 
ATOM     75  O   UNL A   1      46.494  38.168  28.441  1.00  0.00    -0.237 OA
ATOM     76  O   UNL A   1      47.653  37.639  30.560  1.00  0.00    -0.237 OA
ATOM     77  O   UNL A   1      48.903  37.633  28.434  1.00  0.00    -0.744 OA
ENDBRANCH  73  74
ENDBRANCH  52  66
BRANCH  53  78
ATOM     78  C   UNL A   1      43.224  23.729  27.131  1.00  0.00     0.058 A 
ATOM     79  C   UNL A   1      42.966  23.302  25.821  1.00  0.00     0.135 A 
ATOM     80  C   UNL A   1      43.040  22.802  28.170  1.00  0.00     0.135 A 
ATOM     81  F   UNL A   1      43.120  24.154  24.796  1.00  0.00    -0.206 F 
ATOM     82  C   UNL A   1      42.545  22.005  25.547  1.00  0.00     0.059 A 
ATOM     83  C   UNL A   1      42.644  21.492  27.919  1.00  0.00     0.059 A 
ATOM     84  F   UNL A   1      43.291  23.157  29.440  1.00  0.00    -0.206 F 
ATOM     85  C   UNL A   1      42.397  21.103  26.604  1.00  0.00     0.060 A 
BRANCH  85  86
ATOM     86  S   UNL A   1      41.933  19.399  26.229  1.00  0.00     0.124 S 
ATOM     87  O   UNL A   1      42.669  19.159  24.993  1.00  0.00    -0.237 OA
ATOM     88  O   UNL A   1      42.413  18.685  27.408  1.00  0.00    -0.237 OA
ATOM     89  O   UNL A   1      40.481  19.467  26.096  1.00  0.00    -0.744 OA
ENDBRANCH  85  86
ENDBRANCH  53  78
BRANCH  65  90
ATOM     90  C   UNL A   1      49.448  26.839  26.474  1.00  0.00     0.058 A 
ATOM     91  C   UNL A   1      50.315  26.185  27.364  1.00  0.00     0.135 A 
ATOM     92  C   UNL A   1      49.857  26.967  25.136  1.00  0.00     0.135 A 
ATOM     93  F   UNL A   1      49.977  26.043  28.655  1.00  0.00    -0.206 F 
ATOM     94  C   UNL A   1      51.550  25.697  26.948  1.00  0.00     0.059 A 
ATOM     95  C   UNL A   1      51.074  26.459  24.692  1.00  0.00     0.059 A 
ATOM     96  F   UNL A   1      49.061  27.574  24.241  1.00  0.00    -0.206 F 
ATOM     97  C   UNL A   1      51.919  25.836  25.609  1.00  0.00     0.060 A 
BRANCH  97  98
ATOM     98  S   UNL A   1      53.508  25.168  25.076  1.00  0.00     0.124 S 
ATOM     99  O   UNL A   1      53.560  25.608  23.685  1.00  0.00    -0.237 OA
ATOM    100  O   UNL A   1      54.444  25.825  25.983  1.00  0.00    -0.237 OA
ATOM    101  O   UNL A   1      53.358  23.730  25.273  1.00  0.00    -0.744 OA
ENDBRANCH  97  98
ENDBRANCH  65  90
ENDBRANCH  39  40
ENDBRANCH  31  34
ENDBRANCH  29  30
ENDBRANCH  28  29
ENDBRANCH   1  28
TORSDOF 19
ENDMDL
MODEL 3
REMARK VINA RESULT:     -11.9      4.975      6.738
REMARK SMILES Cc1cc(Cl)ccc1Oc1cc(C)c(N)c(C(=O)NCCCCCCNC(=O)c2ccc(-c3c4nc(c(-c5c(F)cc(S(=O)(=O)[O-])cc5F)c5ccc([nH]5)c(-c5c(F)cc(S(=O)(=O)[O-])cc5F)c5nc(c(-c6c(F)cc(S(=O)(=O)[O-])cc6F)c6ccc3[nH]6)C=C5)C=C4)cc2)c1
REMARK SMILES IDX 23 1 22 2 21 3 20 4 19 5 17 6 18 7 16 9 10 10 11 11 95 12
REMARK SMILES IDX 12 13 13 14 14 15 9 16 8 17 1 18 2 19 3 20 4 21 7 22 5 23
REMARK SMILES IDX 6 24 15 25 24 28 25 29 26 30 27 31 28 33 29 34 30 35 94 36
REMARK SMILES IDX 31 37 93 38 32 39 33 40 34 41 87 42 35 43 92 44 86 45 88 46
REMARK SMILES IDX 36 47 91 48 85 49 84 50 37 52 71 53 50 54 70 55 51 56 54 57
REMARK SMILES IDX 69 58 89 59 52 60 53 61 68 63 90 64 55 65 38 66 39 67 48 68
REMARK SMILES IDX 40 69 41 70 47 71 49 72 42 73 43 74 44 75 45 76 46 77 72 78
REMARK SMILES IDX 73 79 82 80 74 81 75 82 81 83 83 84 76 85 77 86 78 87 79 88
REMARK SMILES IDX 80 89 56 90 57 91 66 92 58 93 59 94 65 95 67 96 60 97 61 98
REMARK SMILES IDX 62 99 63 100 64 101
REMARK H PARENT 19 8 15 26 15 27 26 32 88 51 54 62
REMARK Flexibility Score: inf
ROOT
ATOM      1  C   UNL A   1      31.676  28.017  26.254  1.00  0.00     0.002 C 
ENDROOT
BRANCH   1   2
ATOM      2  C   UNL A   1      31.005  27.403  25.018  1.00  0.00     0.002 C 
BRANCH   2   3
ATOM      3  C   UNL A   1      31.554  27.907  23.673  1.00  0.00     0.021 C 
BRANCH   3   4
ATOM      4  C   UNL A   1      30.788  27.348  22.472  1.00  0.00     0.116 C 
BRANCH   4   5
ATOM      5  N   UNL A   1      31.699  26.611  21.615  1.00  0.00    -0.352 N 
ATOM      6  C   UNL A   1      32.642  25.634  21.805  1.00  0.00     0.253 C 
ATOM      7  O   UNL A   1      33.262  25.310  20.785  1.00  0.00    -0.269 OA
ATOM      8  H   UNL A   1      31.622  26.878  20.671  1.00  0.00     0.163 HD
BRANCH   6   9
ATOM      9  C   UNL A   1      32.904  24.920  23.104  1.00  0.00     0.066 A 
ATOM     10  C   UNL A   1      34.299  24.431  25.027  1.00  0.00     0.128 A 
ATOM     11  C   UNL A   1      33.262  23.752  25.650  1.00  0.00     0.052 A 
ATOM     12  C   UNL A   1      34.132  24.998  23.765  1.00  0.00     0.063 A 
ATOM     13  C   UNL A   1      32.069  23.528  24.955  1.00  0.00    -0.024 A 
ATOM     14  C   UNL A   1      31.047  22.601  25.556  1.00  0.00     0.047 C 
ATOM     15  C   UNL A   1      31.867  24.134  23.690  1.00  0.00     0.048 A 
BRANCH  10  16
ATOM     16  O   UNL A   1      35.480  24.640  25.677  1.00  0.00    -0.457 OA
BRANCH  16  17
ATOM     17  C   UNL A   1      36.480  23.690  25.673  1.00  0.00     0.130 A 
ATOM     18  C   UNL A   1      35.366  21.737  24.380  1.00  0.00     0.048 C 
ATOM     19  C   UNL A   1      36.493  22.392  25.128  1.00  0.00    -0.007 A 
ATOM     20  C   UNL A   1      37.650  21.603  25.314  1.00  0.00     0.027 A 
ATOM     21  C   UNL A   1      38.772  22.097  25.978  1.00  0.00     0.041 A 
ATOM     22  C   UNL A   1      37.630  24.174  26.328  1.00  0.00     0.049 A 
ATOM     23  Cl  UNL A   1      40.154  21.094  26.178  1.00  0.00    -0.084 Cl
ATOM     24  C   UNL A   1      38.772  23.389  26.476  1.00  0.00     0.024 A 
ENDBRANCH  16  17
ENDBRANCH  10  16
BRANCH  15  25
ATOM     25  N   UNL A   1      30.699  23.835  22.983  1.00  0.00    -0.398 N 
ATOM     26  H   UNL A   1      30.717  23.163  22.265  1.00  0.00     0.156 HD
ATOM     27  H   UNL A   1      29.858  24.297  23.205  1.00  0.00     0.156 HD
ENDBRANCH  15  25
ENDBRANCH   6   9
ENDBRANCH   4   5
ENDBRANCH   3   4
ENDBRANCH   2   3
ENDBRANCH   1   2
BRANCH   1  28
ATOM     28  C   UNL A   1      33.129  27.589  26.474  1.00  0.00     0.021 C 
BRANCH  28  29
ATOM     29  C   UNL A   1      34.156  28.557  25.896  1.00  0.00     0.116 C 
BRANCH  29  30
ATOM     30  N   UNL A   1      33.876  29.928  26.294  1.00  0.00    -0.352 N 
ATOM     31  C   UNL A   1      34.436  30.667  27.305  1.00  0.00     0.251 C 
ATOM     32  H   UNL A   1      33.186  30.390  25.764  1.00  0.00     0.163 HD
ATOM     33  O   UNL A   1      33.906  31.713  27.667  1.00  0.00    -0.269 OA
BRANCH  31  34
ATOM     34  C   UNL A   1      35.674  30.193  27.957  1.00  0.00     0.039 A 
ATOM     35  C   UNL A   1      36.895  30.365  27.301  1.00  0.00     0.014 A 
ATOM     36  C   UNL A   1      35.625  29.571  29.208  1.00  0.00     0.014 A 
ATOM     37  C   UNL A   1      38.076  29.957  27.925  1.00  0.00     0.010 A 
ATOM     38  C   UNL A   1      36.808  29.232  29.858  1.00  0.00     0.010 A 
ATOM     39  C   UNL A   1      38.044  29.414  29.221  1.00  0.00    -0.014 A 
BRANCH  39  40
ATOM     40  C   UNL A   1      39.295  29.038  29.927  1.00  0.00     0.031 A 
ATOM     41  C   UNL A   1      39.729  29.792  31.153  1.00  0.00     0.074 A 
ATOM     42  C   UNL A   1      40.076  28.066  29.416  1.00  0.00     0.049 A 
ATOM     43  N   UNL A   1      40.814  29.647  31.870  1.00  0.00    -0.248 NA
ATOM     44  C   UNL A   1      38.841  30.869  31.620  1.00  0.00     0.031 C 
ATOM     45  C   UNL A   1      39.789  27.307  28.197  1.00  0.00     0.029 A 
ATOM     46  N   UNL A   1      41.274  27.560  29.849  1.00  0.00    -0.354 N 
ATOM     47  C   UNL A   1      40.749  30.623  32.857  1.00  0.00     0.074 A 
ATOM     48  C   UNL A   1      39.545  31.387  32.616  1.00  0.00     0.031 C 
ATOM     49  C   UNL A   1      40.775  26.422  27.989  1.00  0.00     0.029 A 
ATOM     50  C   UNL A   1      41.781  26.574  29.036  1.00  0.00     0.049 A 
ATOM     51  H   UNL A   1      41.728  27.871  30.665  1.00  0.00     0.167 HD
ATOM     52  C   UNL A   1      41.607  30.850  33.881  1.00  0.00     0.037 A 
ATOM     53  C   UNL A   1      42.932  25.878  29.117  1.00  0.00     0.037 A 
ATOM     54  C   UNL A   1      42.793  30.069  34.123  1.00  0.00     0.049 A 
ATOM     55  C   UNL A   1      43.862  26.133  30.269  1.00  0.00     0.074 A 
ATOM     56  C   UNL A   1      43.685  30.164  35.176  1.00  0.00     0.029 A 
ATOM     57  N   UNL A   1      43.260  29.059  33.293  1.00  0.00    -0.354 N 
ATOM     58  N   UNL A   1      43.743  27.002  31.245  1.00  0.00    -0.248 NA
ATOM     59  C   UNL A   1      45.076  25.308  30.340  1.00  0.00     0.031 C 
ATOM     60  C   UNL A   1      44.720  29.248  34.955  1.00  0.00     0.029 A 
ATOM     61  C   UNL A   1      44.444  28.542  33.794  1.00  0.00     0.049 A 
ATOM     62  H   UNL A   1      42.815  28.753  32.470  1.00  0.00     0.167 HD
ATOM     63  C   UNL A   1      44.857  26.817  32.057  1.00  0.00     0.074 A 
ATOM     64  C   UNL A   1      45.629  25.743  31.465  1.00  0.00     0.031 C 
ATOM     65  C   UNL A   1      45.207  27.477  33.190  1.00  0.00     0.037 A 
BRANCH  52  66
ATOM     66  C   UNL A   1      41.297  31.995  34.809  1.00  0.00     0.058 A 
ATOM     67  C   UNL A   1      40.446  31.844  35.917  1.00  0.00     0.135 A 
ATOM     68  C   UNL A   1      41.868  33.260  34.595  1.00  0.00     0.135 A 
ATOM     69  F   UNL A   1      39.861  30.661  36.164  1.00  0.00    -0.206 F 
ATOM     70  C   UNL A   1      40.137  32.914  36.750  1.00  0.00     0.059 A 
ATOM     71  C   UNL A   1      41.599  34.337  35.434  1.00  0.00     0.059 A 
ATOM     72  F   UNL A   1      42.692  33.463  33.554  1.00  0.00    -0.206 F 
ATOM     73  C   UNL A   1      40.716  34.158  36.498  1.00  0.00     0.060 A 
BRANCH  73  74
ATOM     74  S   UNL A   1      40.291  35.543  37.577  1.00  0.00     0.124 S 
ATOM     75  O   UNL A   1      39.129  35.013  38.284  1.00  0.00    -0.237 OA
ATOM     76  O   UNL A   1      41.502  35.698  38.377  1.00  0.00    -0.237 OA
ATOM     77  O   UNL A   1      40.015  36.629  36.644  1.00  0.00    -0.744 OA
ENDBRANCH  73  74
ENDBRANCH  52  66
BRANCH  53  78
ATOM     78  C   UNL A   1      43.245  24.861  28.078  1.00  0.00     0.058 A 
ATOM     79  C   UNL A   1      43.916  25.214  26.898  1.00  0.00     0.135 A 
ATOM     80  C   UNL A   1      42.926  23.507  28.269  1.00  0.00     0.135 A 
ATOM     81  F   UNL A   1      44.236  26.496  26.667  1.00  0.00    -0.206 F 
ATOM     82  C   UNL A   1      44.264  24.262  25.946  1.00  0.00     0.059 A 
ATOM     83  C   UNL A   1      43.285  22.533  27.343  1.00  0.00     0.059 A 
ATOM     84  F   UNL A   1      42.299  23.115  29.390  1.00  0.00    -0.206 F 
ATOM     85  C   UNL A   1      43.952  22.921  26.182  1.00  0.00     0.060 A 
BRANCH  85  86
ATOM     86  S   UNL A   1      44.484  21.683  24.979  1.00  0.00     0.124 S 
ATOM     87  O   UNL A   1      45.847  21.410  25.420  1.00  0.00    -0.237 OA
ATOM     88  O   UNL A   1      43.515  20.612  25.195  1.00  0.00    -0.237 OA
ATOM     89  O   UNL A   1      44.361  22.381  23.703  1.00  0.00    -0.744 OA
ENDBRANCH  85  86
ENDBRANCH  53  78
BRANCH  65  90
ATOM     90  C   UNL A   1      46.472  27.044  33.879  1.00  0.00     0.058 A 
ATOM     91  C   UNL A   1      46.479  26.015  34.834  1.00  0.00     0.135 A 
ATOM     92  C   UNL A   1      47.703  27.630  33.539  1.00  0.00     0.135 A 
ATOM     93  F   UNL A   1      45.330  25.426  35.201  1.00  0.00    -0.206 F 
ATOM     94  C   UNL A   1      47.657  25.598  35.444  1.00  0.00     0.059 A 
ATOM     95  C   UNL A   1      48.897  27.208  34.115  1.00  0.00     0.059 A 
ATOM     96  F   UNL A   1      47.755  28.612  32.624  1.00  0.00    -0.206 F 
ATOM     97  C   UNL A   1      48.862  26.199  35.076  1.00  0.00     0.060 A 
BRANCH  97  98
ATOM     98  S   UNL A   1      50.388  25.625  35.850  1.00  0.00     0.124 S 
ATOM     99  O   UNL A   1      51.108  25.073  34.707  1.00  0.00    -0.237 OA
ATOM    100  O   UNL A   1      50.936  26.856  36.411  1.00  0.00    -0.237 OA
ATOM    101  O   UNL A   1      49.927  24.648  36.831  1.00  0.00    -0.744 OA
ENDBRANCH  97  98
ENDBRANCH  65  90
ENDBRANCH  39  40
ENDBRANCH  31  34
ENDBRANCH  29  30
ENDBRANCH  28  29
ENDBRANCH   1  28
TORSDOF 19
ENDMDL
