MODEL 1
REMARK VINA RESULT:     -14.4      0.000      0.000
REMARK SMILES Cc1ccc(NC(=O)c2ccccc2NC(=O)[C@H]2CCCC[C@H]2C(=O)NCCCCCCNC(=O)c2ccc(-c3c4nc(c(-c5c(F)cc(S(=O)(=O)[O-])cc5F)c5ccc([nH]5)c(-c5c(F)cc(S(=O)(=O)[O-])cc5F)c5nc(c(-c6c(F)cc(S(=O)(=O)[O-])cc6F)c6ccc3[nH]6)C=C5)C=C4)cc2)cc1
REMARK SMILES IDX 29 1 28 2 27 3 26 4 24 5 25 6 23 8 18 9 19 10 20 11 22 12
REMARK SMILES IDX 21 13 16 14 15 15 17 17 14 18 9 19 10 20 11 21 13 22 12 23
REMARK SMILES IDX 7 24 6 25 8 27 5 28 1 29 2 30 3 31 103 32 4 33 102 34 30 35
REMARK SMILES IDX 31 36 32 37 33 38 34 39 35 41 36 42 37 43 101 44 38 45
REMARK SMILES IDX 100 46 39 47 40 48 41 49 94 50 42 51 99 52 93 53 95 54 43 55
REMARK SMILES IDX 98 56 92 57 91 58 44 60 78 61 57 62 77 63 58 64 61 65 76 66
REMARK SMILES IDX 96 67 59 68 60 69 75 71 97 72 62 73 45 74 46 75 55 76 47 77
REMARK SMILES IDX 48 78 54 79 56 80 49 81 50 82 51 83 52 84 53 85 79 86 80 87
REMARK SMILES IDX 89 88 81 89 82 90 88 91 90 92 83 93 84 94 85 95 86 96 87 97
REMARK SMILES IDX 63 98 64 99 73 100 65 101 66 102 72 103 74 104 67 105 68 106
REMARK SMILES IDX 69 107 70 108 71 109
REMARK H PARENT 26 7 15 16 6 26 33 40 95 59 61 70
REMARK Flexibility Score: inf
ROOT
ATOM      1  C   UNL A   1      36.027  23.262  23.312  1.00  0.00     0.002 C 
ENDROOT
BRANCH   1   2
ATOM      2  C   UNL A   1      34.692  23.984  23.094  1.00  0.00     0.021 C 
BRANCH   2   3
ATOM      3  C   UNL A   1      33.740  23.340  22.078  1.00  0.00     0.116 C 
BRANCH   3   4
ATOM      4  N   UNL A   1      32.388  23.217  22.599  1.00  0.00    -0.356 N 
ATOM      5  C   UNL A   1      31.873  22.972  23.826  1.00  0.00     0.223 C 
ATOM      6  O   UNL A   1      30.637  22.957  23.903  1.00  0.00    -0.275 OA
ATOM      7  H   UNL A   1      31.697  23.338  21.910  1.00  0.00     0.163 HD
BRANCH   5   8
ATOM      8  C   UNL A   1      32.678  22.660  25.092  1.00  0.00     0.091 C 
ATOM      9  C   UNL A   1      32.814  23.879  26.026  1.00  0.00     0.091 C 
ATOM     10  C   UNL A   1      33.774  23.591  27.196  1.00  0.00     0.014 C 
ATOM     11  C   UNL A   1      33.523  22.243  27.883  1.00  0.00     0.001 C 
ATOM     12  C   UNL A   1      32.432  21.323  25.790  1.00  0.00     0.014 C 
ATOM     13  C   UNL A   1      33.471  21.086  26.888  1.00  0.00     0.001 C 
BRANCH   9  14
ATOM     14  C   UNL A   1      31.483  24.315  26.587  1.00  0.00     0.228 C 
ATOM     15  N   UNL A   1      30.970  25.559  26.454  1.00  0.00    -0.325 N 
ATOM     16  H   UNL A   1      30.003  25.557  26.644  1.00  0.00     0.169 HD
ATOM     17  O   UNL A   1      30.778  23.496  27.189  1.00  0.00    -0.274 OA
BRANCH  15  18
ATOM     18  C   UNL A   1      31.407  26.855  26.124  1.00  0.00     0.054 A 
ATOM     19  C   UNL A   1      30.839  27.506  24.999  1.00  0.00     0.063 A 
ATOM     20  C   UNL A   1      31.326  28.764  24.590  1.00  0.00     0.016 A 
ATOM     21  C   UNL A   1      32.329  29.407  25.304  1.00  0.00     0.001 A 
ATOM     22  C   UNL A   1      32.358  27.560  26.871  1.00  0.00     0.027 A 
ATOM     23  C   UNL A   1      32.830  28.812  26.453  1.00  0.00     0.002 A 
BRANCH  19  24
ATOM     24  C   UNL A   1      29.844  26.915  24.064  1.00  0.00     0.257 C 
ATOM     25  N   UNL A   1      28.988  27.629  23.258  1.00  0.00    -0.322 N 
ATOM     26  H   UNL A   1      28.344  27.056  22.782  1.00  0.00     0.170 HD
ATOM     27  O   UNL A   1      29.728  25.687  24.084  1.00  0.00    -0.269 OA
BRANCH  25  28
ATOM     28  C   UNL A   1      28.831  28.990  22.964  1.00  0.00     0.041 A 
ATOM     29  C   UNL A   1      27.950  32.771  21.116  1.00  0.00     0.044 C 
ATOM     30  C   UNL A   1      28.334  31.509  21.829  1.00  0.00    -0.051 A 
ATOM     31  C   UNL A   1      27.593  31.063  22.933  1.00  0.00     0.005 A 
ATOM     32  C   UNL A   1      29.390  30.725  21.361  1.00  0.00     0.005 A 
ATOM     33  C   UNL A   1      27.846  29.810  23.506  1.00  0.00     0.026 A 
ATOM     34  C   UNL A   1      29.645  29.481  21.937  1.00  0.00     0.026 A 
ENDBRANCH  25  28
ENDBRANCH  19  24
ENDBRANCH  15  18
ENDBRANCH   9  14
ENDBRANCH   5   8
ENDBRANCH   3   4
ENDBRANCH   2   3
ENDBRANCH   1   2
BRANCH   1  35
ATOM     35  C   UNL A   1      36.148  22.404  24.580  1.00  0.00     0.002 C 
BRANCH  35  36
ATOM     36  C   UNL A   1      37.568  22.165  25.094  1.00  0.00     0.021 C 
BRANCH  36  37
ATOM     37  C   UNL A   1      38.118  23.304  25.945  1.00  0.00     0.116 C 
BRANCH  37  38
ATOM     38  N   UNL A   1      39.463  23.027  26.428  1.00  0.00    -0.352 N 
ATOM     39  C   UNL A   1      40.423  23.929  26.847  1.00  0.00     0.251 C 
ATOM     40  H   UNL A   1      39.721  22.078  26.461  1.00  0.00     0.163 HD
ATOM     41  O   UNL A   1      41.598  23.633  26.974  1.00  0.00    -0.269 OA
BRANCH  39  42
ATOM     42  C   UNL A   1      39.937  25.255  27.267  1.00  0.00     0.039 A 
ATOM     43  C   UNL A   1      40.329  26.353  26.491  1.00  0.00     0.014 A 
ATOM     44  C   UNL A   1      39.334  25.424  28.509  1.00  0.00     0.014 A 
ATOM     45  C   UNL A   1      40.271  27.630  27.038  1.00  0.00     0.010 A 
ATOM     46  C   UNL A   1      39.331  26.687  29.068  1.00  0.00     0.010 A 
ATOM     47  C   UNL A   1      39.850  27.778  28.358  1.00  0.00    -0.014 A 
BRANCH  47  48
ATOM     48  C   UNL A   1      40.002  29.018  29.113  1.00  0.00     0.031 A 
ATOM     49  C   UNL A   1      38.953  30.060  29.056  1.00  0.00     0.074 A 
ATOM     50  C   UNL A   1      41.066  29.178  29.931  1.00  0.00     0.049 A 
ATOM     51  N   UNL A   1      39.156  31.307  29.320  1.00  0.00    -0.248 NA
ATOM     52  C   UNL A   1      37.576  29.775  28.659  1.00  0.00     0.031 C 
ATOM     53  C   UNL A   1      41.232  30.196  30.964  1.00  0.00     0.029 A 
ATOM     54  N   UNL A   1      42.319  28.563  29.843  1.00  0.00    -0.354 N 
ATOM     55  C   UNL A   1      37.929  31.923  29.392  1.00  0.00     0.074 A 
ATOM     56  C   UNL A   1      36.978  30.941  28.924  1.00  0.00     0.031 C 
ATOM     57  C   UNL A   1      42.538  30.334  31.232  1.00  0.00     0.029 A 
ATOM     58  C   UNL A   1      43.265  29.513  30.281  1.00  0.00     0.049 A 
ATOM     59  H   UNL A   1      42.505  27.646  29.536  1.00  0.00     0.167 HD
ATOM     60  C   UNL A   1      37.813  33.155  29.962  1.00  0.00     0.037 A 
ATOM     61  C   UNL A   1      44.254  29.966  29.457  1.00  0.00     0.037 A 
ATOM     62  C   UNL A   1      39.106  33.676  30.386  1.00  0.00     0.049 A 
ATOM     63  C   UNL A   1      44.200  31.457  29.221  1.00  0.00     0.074 A 
ATOM     64  C   UNL A   1      39.769  33.642  31.603  1.00  0.00     0.029 A 
ATOM     65  N   UNL A   1      40.053  34.034  29.432  1.00  0.00    -0.354 N 
ATOM     66  N   UNL A   1      43.140  32.190  29.425  1.00  0.00    -0.248 NA
ATOM     67  C   UNL A   1      45.334  32.242  28.740  1.00  0.00     0.031 C 
ATOM     68  C   UNL A   1      41.138  33.909  31.366  1.00  0.00     0.029 A 
ATOM     69  C   UNL A   1      41.305  34.134  30.011  1.00  0.00     0.049 A 
ATOM     70  H   UNL A   1      39.861  34.193  28.480  1.00  0.00     0.167 HD
ATOM     71  C   UNL A   1      43.416  33.497  29.112  1.00  0.00     0.074 A 
ATOM     72  C   UNL A   1      44.808  33.480  28.701  1.00  0.00     0.031 C 
ATOM     73  C   UNL A   1      42.479  34.485  29.225  1.00  0.00     0.037 A 
BRANCH  60  74
ATOM     74  C   UNL A   1      36.475  33.699  30.393  1.00  0.00     0.058 A 
ATOM     75  C   UNL A   1      35.525  34.135  29.445  1.00  0.00     0.135 A 
ATOM     76  C   UNL A   1      36.108  33.879  31.741  1.00  0.00     0.135 A 
ATOM     77  F   UNL A   1      35.724  33.981  28.130  1.00  0.00    -0.206 F 
ATOM     78  C   UNL A   1      34.344  34.786  29.805  1.00  0.00     0.059 A 
ATOM     79  C   UNL A   1      34.954  34.570  32.125  1.00  0.00     0.059 A 
ATOM     80  F   UNL A   1      36.873  33.387  32.729  1.00  0.00    -0.206 F 
ATOM     81  C   UNL A   1      34.080  35.029  31.146  1.00  0.00     0.060 A 
BRANCH  81  82
ATOM     82  S   UNL A   1      32.611  35.984  31.576  1.00  0.00     0.124 S 
ATOM     83  O   UNL A   1      32.021  36.254  30.268  1.00  0.00    -0.237 OA
ATOM     84  O   UNL A   1      31.879  35.048  32.421  1.00  0.00    -0.237 OA
ATOM     85  O   UNL A   1      33.155  37.155  32.259  1.00  0.00    -0.744 OA
ENDBRANCH  81  82
ENDBRANCH  60  74
BRANCH  61  86
ATOM     86  C   UNL A   1      44.736  28.939  28.494  1.00  0.00     0.058 A 
ATOM     87  C   UNL A   1      44.169  28.936  27.204  1.00  0.00     0.135 A 
ATOM     88  C   UNL A   1      45.973  28.303  28.656  1.00  0.00     0.135 A 
ATOM     89  F   UNL A   1      42.973  29.511  26.996  1.00  0.00    -0.206 F 
ATOM     90  C   UNL A   1      44.869  28.472  26.095  1.00  0.00     0.059 A 
ATOM     91  C   UNL A   1      46.689  27.818  27.556  1.00  0.00     0.059 A 
ATOM     92  F   UNL A   1      46.563  28.268  29.860  1.00  0.00    -0.206 F 
ATOM     93  C   UNL A   1      46.157  27.973  26.275  1.00  0.00     0.060 A 
BRANCH  93  94
ATOM     94  S   UNL A   1      47.169  27.690  24.802  1.00  0.00     0.124 S 
ATOM     95  O   UNL A   1      48.522  27.782  25.341  1.00  0.00    -0.237 OA
ATOM     96  O   UNL A   1      46.745  26.352  24.394  1.00  0.00    -0.237 OA
ATOM     97  O   UNL A   1      46.772  28.771  23.909  1.00  0.00    -0.744 OA
ENDBRANCH  93  94
ENDBRANCH  61  86
BRANCH  73  98
ATOM     98  C   UNL A   1      42.620  35.903  28.723  1.00  0.00     0.058 A 
ATOM     99  C   UNL A   1      43.157  36.955  29.485  1.00  0.00     0.135 A 
ATOM    100  C   UNL A   1      42.337  36.216  27.370  1.00  0.00     0.135 A 
ATOM    101  F   UNL A   1      43.572  36.760  30.746  1.00  0.00    -0.206 F 
ATOM    102  C   UNL A   1      43.333  38.240  28.969  1.00  0.00     0.059 A 
ATOM    103  C   UNL A   1      42.556  37.475  26.820  1.00  0.00     0.059 A 
ATOM    104  F   UNL A   1      41.845  35.296  26.526  1.00  0.00    -0.206 F 
ATOM    105  C   UNL A   1      43.030  38.491  27.634  1.00  0.00     0.060 A 
BRANCH 105 106
ATOM    106  S   UNL A   1      43.315  40.129  26.938  1.00  0.00     0.124 S 
ATOM    107  O   UNL A   1      43.865  40.841  28.086  1.00  0.00    -0.237 OA
ATOM    108  O   UNL A   1      44.256  39.864  25.853  1.00  0.00    -0.237 OA
ATOM    109  O   UNL A   1      41.983  40.545  26.512  1.00  0.00    -0.744 OA
ENDBRANCH 105 106
ENDBRANCH  73  98
ENDBRANCH  47  48
ENDBRANCH  39  42
ENDBRANCH  37  38
ENDBRANCH  36  37
ENDBRANCH  35  36
ENDBRANCH   1  35
TORSDOF 20
ENDMDL
MODEL 2
REMARK VINA RESULT:     -14.3      4.863     11.369
REMARK SMILES Cc1ccc(NC(=O)c2ccccc2NC(=O)[C@H]2CCCC[C@H]2C(=O)NCCCCCCNC(=O)c2ccc(-c3c4nc(c(-c5c(F)cc(S(=O)(=O)[O-])cc5F)c5ccc([nH]5)c(-c5c(F)cc(S(=O)(=O)[O-])cc5F)c5nc(c(-c6c(F)cc(S(=O)(=O)[O-])cc6F)c6ccc3[nH]6)C=C5)C=C4)cc2)cc1
REMARK SMILES IDX 29 1 28 2 27 3 26 4 24 5 25 6 23 8 18 9 19 10 20 11 22 12
REMARK SMILES IDX 21 13 16 14 15 15 17 17 14 18 9 19 10 20 11 21 13 22 12 23
REMARK SMILES IDX 7 24 6 25 8 27 5 28 1 29 2 30 3 31 103 32 4 33 102 34 30 35
REMARK SMILES IDX 31 36 32 37 33 38 34 39 35 41 36 42 37 43 101 44 38 45
REMARK SMILES IDX 100 46 39 47 40 48 41 49 94 50 42 51 99 52 93 53 95 54 43 55
REMARK SMILES IDX 98 56 92 57 91 58 44 60 78 61 57 62 77 63 58 64 61 65 76 66
REMARK SMILES IDX 96 67 59 68 60 69 75 71 97 72 62 73 45 74 46 75 55 76 47 77
REMARK SMILES IDX 48 78 54 79 56 80 49 81 50 82 51 83 52 84 53 85 79 86 80 87
REMARK SMILES IDX 89 88 81 89 82 90 88 91 90 92 83 93 84 94 85 95 86 96 87 97
REMARK SMILES IDX 63 98 64 99 73 100 65 101 66 102 72 103 74 104 67 105 68 106
REMARK SMILES IDX 69 107 70 108 71 109
REMARK H PARENT 26 7 15 16 6 26 33 40 95 59 61 70
REMARK Flexibility Score: inf
ROOT
ATOM      1  C   UNL A   1      33.509  27.781  25.448  1.00  0.00     0.002 C 
ENDROOT
BRANCH   1   2
ATOM      2  C   UNL A   1      33.241  26.680  26.481  1.00  0.00     0.021 C 
BRANCH   2   3
ATOM      3  C   UNL A   1      31.767  26.417  26.813  1.00  0.00     0.116 C 
BRANCH   3   4
ATOM      4  N   UNL A   1      31.292  25.167  26.239  1.00  0.00    -0.356 N 
ATOM      5  C   UNL A   1      31.276  24.657  24.986  1.00  0.00     0.223 C 
ATOM      6  O   UNL A   1      30.795  23.521  24.869  1.00  0.00    -0.275 OA
ATOM      7  H   UNL A   1      30.898  24.562  26.906  1.00  0.00     0.163 HD
BRANCH   5   8
ATOM      8  C   UNL A   1      31.738  25.378  23.716  1.00  0.00     0.091 C 
ATOM      9  C   UNL A   1      33.150  24.948  23.268  1.00  0.00     0.091 C 
ATOM     10  C   UNL A   1      33.661  25.813  22.102  1.00  0.00     0.014 C 
ATOM     11  C   UNL A   1      32.632  26.010  20.981  1.00  0.00     0.001 C 
ATOM     12  C   UNL A   1      30.724  25.574  22.589  1.00  0.00     0.014 C 
ATOM     13  C   UNL A   1      31.287  26.501  21.509  1.00  0.00     0.001 C 
BRANCH   9  14
ATOM     14  C   UNL A   1      33.196  23.497  22.853  1.00  0.00     0.228 C 
ATOM     15  N   UNL A   1      33.985  22.564  23.431  1.00  0.00    -0.325 N 
ATOM     16  H   UNL A   1      33.671  21.657  23.207  1.00  0.00     0.169 HD
ATOM     17  O   UNL A   1      32.454  23.099  21.948  1.00  0.00    -0.274 OA
BRANCH  15  18
ATOM     18  C   UNL A   1      35.122  22.503  24.257  1.00  0.00     0.054 A 
ATOM     19  C   UNL A   1      34.949  22.297  25.651  1.00  0.00     0.063 A 
ATOM     20  C   UNL A   1      36.062  22.327  26.513  1.00  0.00     0.016 A 
ATOM     21  C   UNL A   1      37.346  22.509  26.015  1.00  0.00     0.001 A 
ATOM     22  C   UNL A   1      36.432  22.603  23.774  1.00  0.00     0.027 A 
ATOM     23  C   UNL A   1      37.530  22.628  24.645  1.00  0.00     0.002 A 
BRANCH  19  24
ATOM     24  C   UNL A   1      33.644  22.200  26.358  1.00  0.00     0.257 C 
ATOM     25  N   UNL A   1      32.728  21.185  26.203  1.00  0.00    -0.322 N 
ATOM     26  H   UNL A   1      31.887  21.350  26.689  1.00  0.00     0.170 HD
ATOM     27  O   UNL A   1      33.331  23.154  27.075  1.00  0.00    -0.269 OA
BRANCH  25  28
ATOM     28  C   UNL A   1      32.728  19.968  25.507  1.00  0.00     0.041 A 
ATOM     29  C   UNL A   1      33.560  16.709  22.829  1.00  0.00     0.044 C 
ATOM     30  C   UNL A   1      33.162  17.801  23.777  1.00  0.00    -0.051 A 
ATOM     31  C   UNL A   1      33.433  17.687  25.148  1.00  0.00     0.005 A 
ATOM     32  C   UNL A   1      32.580  18.977  23.297  1.00  0.00     0.005 A 
ATOM     33  C   UNL A   1      33.209  18.765  26.014  1.00  0.00     0.026 A 
ATOM     34  C   UNL A   1      32.350  20.046  24.162  1.00  0.00     0.026 A 
ENDBRANCH  25  28
ENDBRANCH  19  24
ENDBRANCH  15  18
ENDBRANCH   9  14
ENDBRANCH   5   8
ENDBRANCH   3   4
ENDBRANCH   2   3
ENDBRANCH   1   2
BRANCH   1  35
ATOM     35  C   UNL A   1      32.689  29.072  25.589  1.00  0.00     0.002 C 
BRANCH  35  36
ATOM     36  C   UNL A   1      33.165  30.054  26.659  1.00  0.00     0.021 C 
BRANCH  36  37
ATOM     37  C   UNL A   1      34.574  29.774  27.172  1.00  0.00     0.116 C 
BRANCH  37  38
ATOM     38  N   UNL A   1      35.165  30.940  27.812  1.00  0.00    -0.352 N 
ATOM     39  C   UNL A   1      36.294  30.997  28.608  1.00  0.00     0.251 C 
ATOM     40  H   UNL A   1      34.703  31.796  27.659  1.00  0.00     0.163 HD
ATOM     41  O   UNL A   1      36.557  31.954  29.316  1.00  0.00    -0.269 OA
BRANCH  39  42
ATOM     42  C   UNL A   1      37.252  29.887  28.467  1.00  0.00     0.039 A 
ATOM     43  C   UNL A   1      37.367  29.003  29.546  1.00  0.00     0.014 A 
ATOM     44  C   UNL A   1      38.168  29.876  27.420  1.00  0.00     0.014 A 
ATOM     45  C   UNL A   1      38.506  28.213  29.662  1.00  0.00     0.010 A 
ATOM     46  C   UNL A   1      39.322  29.132  27.568  1.00  0.00     0.010 A 
ATOM     47  C   UNL A   1      39.517  28.346  28.712  1.00  0.00    -0.014 A 
BRANCH  47  48
ATOM     48  C   UNL A   1      40.851  27.777  28.877  1.00  0.00     0.031 A 
ATOM     49  C   UNL A   1      41.130  26.391  28.439  1.00  0.00     0.074 A 
ATOM     50  C   UNL A   1      41.853  28.547  29.355  1.00  0.00     0.049 A 
ATOM     51  N   UNL A   1      42.097  25.669  28.896  1.00  0.00    -0.248 NA
ATOM     52  C   UNL A   1      40.306  25.692  27.456  1.00  0.00     0.031 C 
ATOM     53  C   UNL A   1      43.283  28.251  29.312  1.00  0.00     0.029 A 
ATOM     54  N   UNL A   1      41.756  29.676  30.175  1.00  0.00    -0.354 N 
ATOM     55  C   UNL A   1      42.189  24.549  28.105  1.00  0.00     0.074 A 
ATOM     56  C   UNL A   1      41.023  24.581  27.254  1.00  0.00     0.031 C 
ATOM     57  C   UNL A   1      43.904  28.975  30.254  1.00  0.00     0.029 A 
ATOM     58  C   UNL A   1      42.879  29.653  31.027  1.00  0.00     0.049 A 
ATOM     59  H   UNL A   1      41.042  30.354  30.161  1.00  0.00     0.167 HD
ATOM     60  C   UNL A   1      43.306  23.768  28.150  1.00  0.00     0.037 A 
ATOM     61  C   UNL A   1      42.745  29.572  32.382  1.00  0.00     0.037 A 
ATOM     62  C   UNL A   1      44.264  24.255  29.133  1.00  0.00     0.049 A 
ATOM     63  C   UNL A   1      43.394  28.343  32.976  1.00  0.00     0.074 A 
ATOM     64  C   UNL A   1      45.366  25.090  29.026  1.00  0.00     0.029 A 
ATOM     65  N   UNL A   1      43.963  24.175  30.490  1.00  0.00    -0.354 N 
ATOM     66  N   UNL A   1      43.699  27.276  32.289  1.00  0.00    -0.248 NA
ATOM     67  C   UNL A   1      43.753  28.218  34.385  1.00  0.00     0.031 C 
ATOM     68  C   UNL A   1      45.682  25.571  30.317  1.00  0.00     0.029 A 
ATOM     69  C   UNL A   1      44.793  25.009  31.216  1.00  0.00     0.049 A 
ATOM     70  H   UNL A   1      43.260  23.606  30.877  1.00  0.00     0.167 HD
ATOM     71  C   UNL A   1      44.267  26.342  33.118  1.00  0.00     0.074 A 
ATOM     72  C   UNL A   1      44.291  26.986  34.418  1.00  0.00     0.031 C 
ATOM     73  C   UNL A   1      44.678  25.120  32.663  1.00  0.00     0.037 A 
BRANCH  60  74
ATOM     74  C   UNL A   1      43.610  22.768  27.064  1.00  0.00     0.058 A 
ATOM     75  C   UNL A   1      42.895  21.556  26.967  1.00  0.00     0.135 A 
ATOM     76  C   UNL A   1      44.653  22.929  26.131  1.00  0.00     0.135 A 
ATOM     77  F   UNL A   1      41.848  21.293  27.759  1.00  0.00    -0.206 F 
ATOM     78  C   UNL A   1      43.248  20.541  26.077  1.00  0.00     0.059 A 
ATOM     79  C   UNL A   1      45.056  21.908  25.263  1.00  0.00     0.059 A 
ATOM     80  F   UNL A   1      45.318  24.092  26.043  1.00  0.00    -0.206 F 
ATOM     81  C   UNL A   1      44.350  20.711  25.250  1.00  0.00     0.060 A 
BRANCH  81  82
ATOM     82  S   UNL A   1      44.862  19.334  24.201  1.00  0.00     0.124 S 
ATOM     83  O   UNL A   1      46.313  19.341  24.364  1.00  0.00    -0.237 OA
ATOM     84  O   UNL A   1      44.161  18.212  24.814  1.00  0.00    -0.237 OA
ATOM     85  O   UNL A   1      44.389  19.724  22.876  1.00  0.00    -0.744 OA
ENDBRANCH  81  82
ENDBRANCH  60  74
BRANCH  61  86
ATOM     86  C   UNL A   1      41.532  30.262  32.897  1.00  0.00     0.058 A 
ATOM     87  C   UNL A   1      40.402  29.470  33.183  1.00  0.00     0.135 A 
ATOM     88  C   UNL A   1      41.604  31.524  33.501  1.00  0.00     0.135 A 
ATOM     89  F   UNL A   1      40.269  28.261  32.612  1.00  0.00    -0.206 F 
ATOM     90  C   UNL A   1      39.470  29.840  34.148  1.00  0.00     0.059 A 
ATOM     91  C   UNL A   1      40.672  31.921  34.466  1.00  0.00     0.059 A 
ATOM     92  F   UNL A   1      42.653  32.326  33.266  1.00  0.00    -0.206 F 
ATOM     93  C   UNL A   1      39.652  31.041  34.830  1.00  0.00     0.060 A 
BRANCH  93  94
ATOM     94  S   UNL A   1      38.636  31.344  36.297  1.00  0.00     0.124 S 
ATOM     95  O   UNL A   1      37.540  32.136  35.749  1.00  0.00    -0.237 OA
ATOM     96  O   UNL A   1      38.285  29.986  36.709  1.00  0.00    -0.237 OA
ATOM     97  O   UNL A   1      39.542  32.054  37.192  1.00  0.00    -0.744 OA
ENDBRANCH  93  94
ENDBRANCH  61  86
BRANCH  73  98
ATOM     98  C   UNL A   1      45.126  23.961  33.520  1.00  0.00     0.058 A 
ATOM     99  C   UNL A   1      46.384  23.886  34.143  1.00  0.00     0.135 A 
ATOM    100  C   UNL A   1      44.219  22.925  33.858  1.00  0.00     0.135 A 
ATOM    101  F   UNL A   1      47.293  24.861  33.995  1.00  0.00    -0.206 F 
ATOM    102  C   UNL A   1      46.744  22.828  34.981  1.00  0.00     0.059 A 
ATOM    103  C   UNL A   1      44.537  21.892  34.735  1.00  0.00     0.059 A 
ATOM    104  F   UNL A   1      42.975  22.891  33.355  1.00  0.00    -0.206 F 
ATOM    105  C   UNL A   1      45.813  21.836  35.272  1.00  0.00     0.060 A 
BRANCH 105 106
ATOM    106  S   UNL A   1      46.242  20.502  36.405  1.00  0.00     0.124 S 
ATOM    107  O   UNL A   1      47.690  20.434  36.239  1.00  0.00    -0.237 OA
ATOM    108  O   UNL A   1      45.779  21.006  37.695  1.00  0.00    -0.237 OA
ATOM    109  O   UNL A   1      45.490  19.366  35.880  1.00  0.00    -0.744 OA
ENDBRANCH 105 106
ENDBRANCH  73  98
ENDBRANCH  47  48
ENDBRANCH  39  42
ENDBRANCH  37  38
ENDBRANCH  36  37
ENDBRANCH  35  36
ENDBRANCH   1  35
TORSDOF 20
ENDMDL
MODEL 3
REMARK VINA RESULT:     -14.1      4.750     10.701
REMARK SMILES Cc1ccc(NC(=O)c2ccccc2NC(=O)[C@H]2CCCC[C@H]2C(=O)NCCCCCCNC(=O)c2ccc(-c3c4nc(c(-c5c(F)cc(S(=O)(=O)[O-])cc5F)c5ccc([nH]5)c(-c5c(F)cc(S(=O)(=O)[O-])cc5F)c5nc(c(-c6c(F)cc(S(=O)(=O)[O-])cc6F)c6ccc3[nH]6)C=C5)C=C4)cc2)cc1
REMARK SMILES IDX 29 1 28 2 27 3 26 4 24 5 25 6 23 8 18 9 19 10 20 11 22 12
REMARK SMILES IDX 21 13 16 14 15 15 17 17 14 18 9 19 10 20 11 21 13 22 12 23
REMARK SMILES IDX 7 24 6 25 8 27 5 28 1 29 2 30 3 31 103 32 4 33 102 34 30 35
REMARK SMILES IDX 31 36 32 37 33 38 34 39 35 41 36 42 37 43 101 44 38 45
REMARK SMILES IDX 100 46 39 47 40 48 41 49 94 50 42 51 99 52 93 53 95 54 43 55
REMARK SMILES IDX 98 56 92 57 91 58 44 60 78 61 57 62 77 63 58 64 61 65 76 66
REMARK SMILES IDX 96 67 59 68 60 69 75 71 97 72 62 73 45 74 46 75 55 76 47 77
REMARK SMILES IDX 48 78 54 79 56 80 49 81 50 82 51 83 52 84 53 85 79 86 80 87
REMARK SMILES IDX 89 88 81 89 82 90 88 91 90 92 83 93 84 94 85 95 86 96 87 97
REMARK SMILES IDX 63 98 64 99 73 100 65 101 66 102 72 103 74 104 67 105 68 106
REMARK SMILES IDX 69 107 70 108 71 109
REMARK H PARENT 26 7 15 16 6 26 33 40 95 59 61 70
REMARK Flexibility Score: inf
ROOT
ATOM      1  C   UNL A   1      32.334  27.439  26.702  1.00  0.00     0.002 C 
ENDROOT
BRANCH   1   2
ATOM      2  C   UNL A   1      31.101  26.729  26.131  1.00  0.00     0.021 C 
BRANCH   2   3
ATOM      3  C   UNL A   1      30.909  25.269  26.559  1.00  0.00     0.116 C 
BRANCH   3   4
ATOM      4  N   UNL A   1      30.699  24.388  25.421  1.00  0.00    -0.356 N 
ATOM      5  C   UNL A   1      31.291  23.249  24.994  1.00  0.00     0.223 C 
ATOM      6  O   UNL A   1      30.823  22.748  23.961  1.00  0.00    -0.275 OA
ATOM      7  H   UNL A   1      29.967  24.685  24.834  1.00  0.00     0.163 HD
BRANCH   5   8
ATOM      8  C   UNL A   1      32.507  22.573  25.635  1.00  0.00     0.091 C 
ATOM      9  C   UNL A   1      33.822  22.887  24.893  1.00  0.00     0.091 C 
ATOM     10  C   UNL A   1      34.995  22.057  25.446  1.00  0.00     0.014 C 
ATOM     11  C   UNL A   1      35.074  22.042  26.977  1.00  0.00     0.001 C 
ATOM     12  C   UNL A   1      32.601  22.558  27.160  1.00  0.00     0.014 C 
ATOM     13  C   UNL A   1      33.747  21.655  27.623  1.00  0.00     0.001 C 
BRANCH   9  14
ATOM     14  C   UNL A   1      34.183  24.351  24.974  1.00  0.00     0.228 C 
ATOM     15  N   UNL A   1      33.872  25.266  24.028  1.00  0.00    -0.325 N 
ATOM     16  H   UNL A   1      33.950  26.178  24.391  1.00  0.00     0.169 HD
ATOM     17  O   UNL A   1      34.776  24.777  25.972  1.00  0.00    -0.274 OA
BRANCH  15  18
ATOM     18  C   UNL A   1      33.472  25.300  22.680  1.00  0.00     0.054 A 
ATOM     19  C   UNL A   1      33.270  26.559  22.056  1.00  0.00     0.063 A 
ATOM     20  C   UNL A   1      32.779  26.622  20.737  1.00  0.00     0.016 A 
ATOM     21  C   UNL A   1      32.530  25.464  20.012  1.00  0.00     0.001 A 
ATOM     22  C   UNL A   1      33.292  24.153  21.900  1.00  0.00     0.027 A 
ATOM     23  C   UNL A   1      32.805  24.232  20.588  1.00  0.00     0.002 A 
BRANCH  19  24
ATOM     24  C   UNL A   1      33.379  27.885  22.720  1.00  0.00     0.257 C 
ATOM     25  N   UNL A   1      32.335  28.756  22.934  1.00  0.00    -0.322 N 
ATOM     26  H   UNL A   1      32.627  29.620  23.305  1.00  0.00     0.170 HD
ATOM     27  O   UNL A   1      34.514  28.261  23.023  1.00  0.00    -0.269 OA
BRANCH  25  28
ATOM     28  C   UNL A   1      30.948  28.684  22.741  1.00  0.00     0.041 A 
ATOM     29  C   UNL A   1      26.681  28.551  23.248  1.00  0.00     0.044 C 
ATOM     30  C   UNL A   1      28.154  28.544  22.967  1.00  0.00    -0.051 A 
ATOM     31  C   UNL A   1      28.768  29.651  22.364  1.00  0.00     0.005 A 
ATOM     32  C   UNL A   1      28.945  27.465  23.369  1.00  0.00     0.005 A 
ATOM     33  C   UNL A   1      30.162  29.717  22.242  1.00  0.00     0.026 A 
ATOM     34  C   UNL A   1      30.332  27.531  23.240  1.00  0.00     0.026 A 
ENDBRANCH  25  28
ENDBRANCH  19  24
ENDBRANCH  15  18
ENDBRANCH   9  14
ENDBRANCH   5   8
ENDBRANCH   3   4
ENDBRANCH   2   3
ENDBRANCH   1   2
BRANCH   1  35
ATOM     35  C   UNL A   1      32.124  28.864  27.235  1.00  0.00     0.002 C 
BRANCH  35  36
ATOM     36  C   UNL A   1      33.103  29.920  26.724  1.00  0.00     0.021 C 
BRANCH  36  37
ATOM     37  C   UNL A   1      34.547  29.685  27.155  1.00  0.00     0.116 C 
BRANCH  37  38
ATOM     38  N   UNL A   1      35.175  30.901  27.652  1.00  0.00    -0.352 N 
ATOM     39  C   UNL A   1      36.338  31.022  28.388  1.00  0.00     0.251 C 
ATOM     40  H   UNL A   1      34.713  31.743  27.437  1.00  0.00     0.163 HD
ATOM     41  O   UNL A   1      36.640  32.039  28.987  1.00  0.00    -0.269 OA
BRANCH  39  42
ATOM     42  C   UNL A   1      37.282  29.892  28.313  1.00  0.00     0.039 A 
ATOM     43  C   UNL A   1      37.389  29.075  29.444  1.00  0.00     0.014 A 
ATOM     44  C   UNL A   1      38.193  29.805  27.266  1.00  0.00     0.014 A 
ATOM     45  C   UNL A   1      38.518  28.279  29.606  1.00  0.00     0.010 A 
ATOM     46  C   UNL A   1      39.339  29.055  27.457  1.00  0.00     0.010 A 
ATOM     47  C   UNL A   1      39.527  28.340  28.647  1.00  0.00    -0.014 A 
BRANCH  47  48
ATOM     48  C   UNL A   1      40.854  27.764  28.843  1.00  0.00     0.031 A 
ATOM     49  C   UNL A   1      41.135  26.374  28.417  1.00  0.00     0.074 A 
ATOM     50  C   UNL A   1      41.850  28.531  29.339  1.00  0.00     0.049 A 
ATOM     51  N   UNL A   1      42.087  25.649  28.898  1.00  0.00    -0.248 NA
ATOM     52  C   UNL A   1      40.328  25.675  27.420  1.00  0.00     0.031 C 
ATOM     53  C   UNL A   1      43.278  28.226  29.328  1.00  0.00     0.029 A 
ATOM     54  N   UNL A   1      41.741  29.664  30.152  1.00  0.00    -0.354 N 
ATOM     55  C   UNL A   1      42.190  24.524  28.115  1.00  0.00     0.074 A 
ATOM     56  C   UNL A   1      41.043  24.560  27.239  1.00  0.00     0.031 C 
ATOM     57  C   UNL A   1      43.884  28.951  30.280  1.00  0.00     0.029 A 
ATOM     58  C   UNL A   1      42.846  29.639  31.027  1.00  0.00     0.049 A 
ATOM     59  H   UNL A   1      41.031  30.346  30.119  1.00  0.00     0.167 HD
ATOM     60  C   UNL A   1      43.301  23.738  28.187  1.00  0.00     0.037 A 
ATOM     61  C   UNL A   1      42.683  29.565  32.380  1.00  0.00     0.037 A 
ATOM     62  C   UNL A   1      44.241  24.224  29.189  1.00  0.00     0.049 A 
ATOM     63  C   UNL A   1      43.311  28.336  32.993  1.00  0.00     0.074 A 
ATOM     64  C   UNL A   1      45.349  25.052  29.101  1.00  0.00     0.029 A 
ATOM     65  N   UNL A   1      43.910  24.152  30.539  1.00  0.00    -0.354 N 
ATOM     66  N   UNL A   1      43.625  27.263  32.318  1.00  0.00    -0.248 NA
ATOM     67  C   UNL A   1      43.640  28.215  34.410  1.00  0.00     0.031 C 
ATOM     68  C   UNL A   1      45.641  25.538  30.397  1.00  0.00     0.029 A 
ATOM     69  C   UNL A   1      44.729  24.985  31.279  1.00  0.00     0.049 A 
ATOM     70  H   UNL A   1      43.196  23.589  30.913  1.00  0.00     0.167 HD
ATOM     71  C   UNL A   1      44.170  26.330  33.163  1.00  0.00     0.074 A 
ATOM     72  C   UNL A   1      44.170  26.980  34.460  1.00  0.00     0.031 C 
ATOM     73  C   UNL A   1      44.584  25.104  32.723  1.00  0.00     0.037 A 
BRANCH  60  74
ATOM     74  C   UNL A   1      43.623  22.731  27.112  1.00  0.00     0.058 A 
ATOM     75  C   UNL A   1      42.887  21.535  26.990  1.00  0.00     0.135 A 
ATOM     76  C   UNL A   1      44.702  22.870  26.217  1.00  0.00     0.135 A 
ATOM     77  F   UNL A   1      41.807  21.294  27.744  1.00  0.00    -0.206 F 
ATOM     78  C   UNL A   1      43.250  20.512  26.112  1.00  0.00     0.059 A 
ATOM     79  C   UNL A   1      45.114  21.840  25.364  1.00  0.00     0.059 A 
ATOM     80  F   UNL A   1      45.394  24.018  26.154  1.00  0.00    -0.206 F 
ATOM     81  C   UNL A   1      44.385  20.658  25.326  1.00  0.00     0.060 A 
BRANCH  81  82
ATOM     82  S   UNL A   1      44.904  19.270  24.296  1.00  0.00     0.124 S 
ATOM     83  O   UNL A   1      44.105  18.170  24.829  1.00  0.00    -0.237 OA
ATOM     84  O   UNL A   1      44.539  19.731  22.962  1.00  0.00    -0.237 OA
ATOM     85  O   UNL A   1      46.338  19.172  24.557  1.00  0.00    -0.744 OA
ENDBRANCH  81  82
ENDBRANCH  60  74
BRANCH  61  86
ATOM     86  C   UNL A   1      41.462  30.264  32.865  1.00  0.00     0.058 A 
ATOM     87  C   UNL A   1      40.336  29.475  33.173  1.00  0.00     0.135 A 
ATOM     88  C   UNL A   1      41.523  31.546  33.426  1.00  0.00     0.135 A 
ATOM     89  F   UNL A   1      40.213  28.246  32.643  1.00  0.00    -0.206 F 
ATOM     90  C   UNL A   1      39.397  29.871  34.121  1.00  0.00     0.059 A 
ATOM     91  C   UNL A   1      40.584  31.970  34.373  1.00  0.00     0.059 A 
ATOM     92  F   UNL A   1      42.568  32.347  33.169  1.00  0.00    -0.206 F 
ATOM     93  C   UNL A   1      39.568  31.096  34.762  1.00  0.00     0.060 A 
BRANCH  93  94
ATOM     94  S   UNL A   1      38.543  31.442  36.213  1.00  0.00     0.124 S 
ATOM     95  O   UNL A   1      38.122  30.104  36.614  1.00  0.00    -0.237 OA
ATOM     96  O   UNL A   1      39.496  32.096  37.109  1.00  0.00    -0.237 OA
ATOM     97  O   UNL A   1      37.492  32.302  35.684  1.00  0.00    -0.744 OA
ENDBRANCH  93  94
ENDBRANCH  61  86
BRANCH  73  98
ATOM     98  C   UNL A   1      45.007  23.946  33.594  1.00  0.00     0.058 A 
ATOM     99  C   UNL A   1      44.152  22.900  33.980  1.00  0.00     0.135 A 
ATOM    100  C   UNL A   1      46.368  23.784  33.960  1.00  0.00     0.135 A 
ATOM    101  F   UNL A   1      42.866  22.877  33.600  1.00  0.00    -0.206 F 
ATOM    102  C   UNL A   1      44.592  21.810  34.733  1.00  0.00     0.059 A 
ATOM    103  C   UNL A   1      46.839  22.679  34.663  1.00  0.00     0.059 A 
ATOM    104  F   UNL A   1      47.295  24.696  33.632  1.00  0.00    -0.206 F 
ATOM    105  C   UNL A   1      45.938  21.707  35.070  1.00  0.00     0.060 A 
BRANCH 105 106
ATOM    106  S   UNL A   1      46.532  20.273  35.985  1.00  0.00     0.124 S 
ATOM    107  O   UNL A   1      47.937  20.615  36.182  1.00  0.00    -0.237 OA
ATOM    108  O   UNL A   1      45.706  20.288  37.190  1.00  0.00    -0.237 OA
ATOM    109  O   UNL A   1      46.271  19.165  35.071  1.00  0.00    -0.744 OA
ENDBRANCH 105 106
ENDBRANCH  73  98
ENDBRANCH  47  48
ENDBRANCH  39  42
ENDBRANCH  37  38
ENDBRANCH  36  37
ENDBRANCH  35  36
ENDBRANCH   1  35
TORSDOF 20
ENDMDL
