MODEL 1
REMARK VINA RESULT:     -13.7      0.000      0.000
REMARK SMILES Cc1ccc([C@@]23C[C@@H]4C[C@@H](C[C@@](C(=O)N5CCC(C(=O)NCCCCCCNC(=O)c6ccc(-c7c8nc(c(-c9c(F)cc(S(=O)(=O)[O-])cc9F)c9ccc([nH]9)c(-c9c(F)cc(S(=O)(=O)[O-])cc9F)c9nc(c(-c%10c(F)cc(S(=O)(=O)[O-])cc%10F)c%10ccc7[nH]%10)C=C9)C=C8)cc6)CC5)(C4)C2)C3)cc1
REMARK SMILES IDX 25 1 24 2 23 3 22 4 21 5 19 6 20 7 18 9 13 10 14 11 15 12
REMARK SMILES IDX 16 13 98 14 17 15 97 16 12 17 6 18 7 19 100 20 101 21 8 22
REMARK SMILES IDX 10 23 9 24 99 25 11 26 5 27 1 28 2 29 3 30 103 31 4 32
REMARK SMILES IDX 102 33 26 34 27 35 28 36 29 37 30 39 31 40 32 41 96 42 33 43
REMARK SMILES IDX 95 44 34 45 35 46 36 47 89 48 37 49 94 50 88 51 90 52 38 53
REMARK SMILES IDX 93 54 87 55 86 56 39 58 73 59 52 60 72 61 53 62 56 63 71 64
REMARK SMILES IDX 91 65 54 66 55 67 70 69 92 70 57 71 40 72 41 73 50 74 42 75
REMARK SMILES IDX 43 76 49 77 51 78 44 79 45 80 46 81 47 82 48 83 74 84 75 85
REMARK SMILES IDX 84 86 76 87 77 88 83 89 85 90 78 91 79 92 80 93 81 94 82 95
REMARK SMILES IDX 58 96 59 97 68 98 60 99 61 100 67 101 69 102 62 103 63 104
REMARK SMILES IDX 64 105 65 106 66 107
REMARK H PARENT 21 8 28 38 90 57 56 68
REMARK Flexibility Score: inf
ROOT
ATOM      1  C   UNL A   1      34.230  29.875  27.217  1.00  0.00     0.002 C 
ENDROOT
BRANCH   1   2
ATOM      2  C   UNL A   1      33.073  28.863  27.216  1.00  0.00     0.002 C 
BRANCH   2   3
ATOM      3  C   UNL A   1      31.733  29.351  26.656  1.00  0.00     0.021 C 
BRANCH   3   4
ATOM      4  C   UNL A   1      31.737  29.729  25.178  1.00  0.00     0.116 C 
BRANCH   4   5
ATOM      5  N   UNL A   1      30.634  29.131  24.440  1.00  0.00    -0.356 N 
ATOM      6  C   UNL A   1      30.627  28.155  23.490  1.00  0.00     0.223 C 
ATOM      7  O   UNL A   1      29.538  27.736  23.089  1.00  0.00    -0.275 OA
ATOM      8  H   UNL A   1      29.746  29.491  24.666  1.00  0.00     0.163 HD
BRANCH   6   9
ATOM      9  C   UNL A   1      31.916  27.594  22.910  1.00  0.00     0.082 C 
ATOM     10  C   UNL A   1      33.333  23.847  22.798  1.00  0.00     0.228 C 
ATOM     11  O   UNL A   1      32.548  23.178  22.120  1.00  0.00    -0.274 OA
ATOM     12  N   UNL A   1      33.465  25.216  22.567  1.00  0.00    -0.342 N 
ATOM     13  C   UNL A   1      32.855  25.787  21.373  1.00  0.00     0.120 C 
ATOM     14  C   UNL A   1      33.985  26.241  23.470  1.00  0.00     0.120 C 
ATOM     15  C   UNL A   1      31.645  26.633  21.737  1.00  0.00     0.035 C 
ATOM     16  C   UNL A   1      32.829  27.059  24.026  1.00  0.00     0.035 C 
BRANCH  10  17
ATOM     17  C   UNL A   1      34.229  23.144  23.846  1.00  0.00     0.051 C 
ATOM     18  C   UNL A   1      34.594  20.857  24.983  1.00  0.00    -0.003 C 
ATOM     19  C   UNL A   1      36.088  20.994  24.558  1.00  0.00     0.015 C 
ATOM     20  C   UNL A   1      33.761  21.682  23.975  1.00  0.00     0.028 C 
ATOM     21  C   UNL A   1      34.408  21.523  26.370  1.00  0.00     0.015 C 
ATOM     22  C   UNL A   1      36.549  22.466  24.565  1.00  0.00    -0.009 C 
ATOM     23  C   UNL A   1      34.844  23.001  26.325  1.00  0.00    -0.009 C 
ATOM     24  C   UNL A   1      36.333  23.066  25.960  1.00  0.00     0.007 C 
ATOM     25  C   UNL A   1      35.735  23.270  23.542  1.00  0.00     0.020 C 
ATOM     26  C   UNL A   1      34.024  23.768  25.263  1.00  0.00     0.020 C 
BRANCH  18  27
ATOM     27  C   UNL A   1      34.148  19.383  25.003  1.00  0.00    -0.042 A 
ATOM     28  C   UNL A   1      32.961  15.214  25.287  1.00  0.00     0.044 C 
ATOM     29  C   UNL A   1      33.344  16.657  25.167  1.00  0.00    -0.051 A 
ATOM     30  C   UNL A   1      34.596  16.996  24.660  1.00  0.00     0.004 A 
ATOM     31  C   UNL A   1      32.485  17.681  25.569  1.00  0.00     0.004 A 
ATOM     32  C   UNL A   1      34.985  18.335  24.573  1.00  0.00     0.004 A 
ATOM     33  C   UNL A   1      32.879  19.024  25.483  1.00  0.00     0.004 A 
ENDBRANCH  18  27
ENDBRANCH  10  17
ENDBRANCH   6   9
ENDBRANCH   4   5
ENDBRANCH   3   4
ENDBRANCH   2   3
ENDBRANCH   1   2
BRANCH   1  34
ATOM     34  C   UNL A   1      35.637  29.304  27.411  1.00  0.00     0.021 C 
BRANCH  34  35
ATOM     35  C   UNL A   1      36.437  29.989  28.513  1.00  0.00     0.116 C 
BRANCH  35  36
ATOM     36  N   UNL A   1      35.657  30.926  29.305  1.00  0.00    -0.352 N 
ATOM     37  C   UNL A   1      35.949  31.409  30.572  1.00  0.00     0.251 C 
ATOM     38  H   UNL A   1      34.826  31.256  28.895  1.00  0.00     0.163 HD
ATOM     39  O   UNL A   1      35.134  32.019  31.237  1.00  0.00    -0.269 OA
BRANCH  37  40
ATOM     40  C   UNL A   1      37.345  31.252  31.040  1.00  0.00     0.039 A 
ATOM     41  C   UNL A   1      38.351  31.851  30.274  1.00  0.00     0.014 A 
ATOM     42  C   UNL A   1      37.656  30.337  32.042  1.00  0.00     0.014 A 
ATOM     43  C   UNL A   1      39.666  31.404  30.397  1.00  0.00     0.010 A 
ATOM     44  C   UNL A   1      38.946  29.840  32.107  1.00  0.00     0.010 A 
ATOM     45  C   UNL A   1      39.944  30.339  31.256  1.00  0.00    -0.014 A 
BRANCH  45  46
ATOM     46  C   UNL A   1      41.213  29.614  31.256  1.00  0.00     0.031 A 
ATOM     47  C   UNL A   1      41.401  28.406  30.403  1.00  0.00     0.074 A 
ATOM     48  C   UNL A   1      42.267  30.065  31.977  1.00  0.00     0.049 A 
ATOM     49  N   UNL A   1      42.267  27.476  30.643  1.00  0.00    -0.248 NA
ATOM     50  C   UNL A   1      40.605  28.143  29.206  1.00  0.00     0.031 C 
ATOM     51  C   UNL A   1      43.659  29.636  31.823  1.00  0.00     0.029 A 
ATOM     52  N   UNL A   1      42.342  30.923  33.069  1.00  0.00    -0.354 N 
ATOM     53  C   UNL A   1      42.356  26.681  29.523  1.00  0.00     0.074 A 
ATOM     54  C   UNL A   1      41.253  27.096  28.683  1.00  0.00     0.031 C 
ATOM     55  C   UNL A   1      44.340  29.962  32.930  1.00  0.00     0.029 A 
ATOM     56  C   UNL A   1      43.376  30.461  33.891  1.00  0.00     0.049 A 
ATOM     57  H   UNL A   1      41.772  31.709  33.233  1.00  0.00     0.167 HD
ATOM     58  C   UNL A   1      43.431  25.859  29.346  1.00  0.00     0.037 A 
ATOM     59  C   UNL A   1      43.244  29.990  35.167  1.00  0.00     0.037 A 
ATOM     60  C   UNL A   1      44.373  25.949  30.456  1.00  0.00     0.049 A 
ATOM     61  C   UNL A   1      43.803  28.592  35.369  1.00  0.00     0.074 A 
ATOM     62  C   UNL A   1      45.546  26.668  30.624  1.00  0.00     0.029 A 
ATOM     63  N   UNL A   1      44.030  25.460  31.711  1.00  0.00    -0.354 N 
ATOM     64  N   UNL A   1      44.101  27.784  34.390  1.00  0.00    -0.248 NA
ATOM     65  C   UNL A   1      44.034  27.974  36.675  1.00  0.00     0.031 C 
ATOM     66  C   UNL A   1      45.899  26.631  31.992  1.00  0.00     0.029 A 
ATOM     67  C   UNL A   1      44.940  25.891  32.659  1.00  0.00     0.049 A 
ATOM     68  H   UNL A   1      43.250  24.889  31.898  1.00  0.00     0.167 HD
ATOM     69  C   UNL A   1      44.501  26.569  34.888  1.00  0.00     0.074 A 
ATOM     70  C   UNL A   1      44.475  26.752  36.326  1.00  0.00     0.031 C 
ATOM     71  C   UNL A   1      44.800  25.523  34.060  1.00  0.00     0.037 A 
BRANCH  58  72
ATOM     72  C   UNL A   1      43.767  25.225  28.011  1.00  0.00     0.058 A 
ATOM     73  C   UNL A   1      43.373  23.904  27.708  1.00  0.00     0.135 A 
ATOM     74  C   UNL A   1      44.528  25.858  27.010  1.00  0.00     0.135 A 
ATOM     75  F   UNL A   1      42.558  23.207  28.511  1.00  0.00    -0.206 F 
ATOM     76  C   UNL A   1      43.813  23.219  26.575  1.00  0.00     0.059 A 
ATOM     77  C   UNL A   1      45.025  25.179  25.890  1.00  0.00     0.059 A 
ATOM     78  F   UNL A   1      44.802  27.170  27.079  1.00  0.00    -0.206 F 
ATOM     79  C   UNL A   1      44.676  23.850  25.692  1.00  0.00     0.060 A 
BRANCH  79  80
ATOM     80  S   UNL A   1      45.347  22.897  24.317  1.00  0.00     0.124 S 
ATOM     81  O   UNL A   1      46.328  23.819  23.752  1.00  0.00    -0.237 OA
ATOM     82  O   UNL A   1      45.892  21.727  24.995  1.00  0.00    -0.237 OA
ATOM     83  O   UNL A   1      44.180  22.649  23.475  1.00  0.00    -0.744 OA
ENDBRANCH  79  80
ENDBRANCH  58  72
BRANCH  59  84
ATOM     84  C   UNL A   1      42.092  30.554  35.912  1.00  0.00     0.058 A 
ATOM     85  C   UNL A   1      42.265  31.804  36.531  1.00  0.00     0.135 A 
ATOM     86  C   UNL A   1      40.783  30.124  35.655  1.00  0.00     0.135 A 
ATOM     87  F   UNL A   1      43.500  32.244  36.824  1.00  0.00    -0.206 F 
ATOM     88  C   UNL A   1      41.199  32.674  36.717  1.00  0.00     0.059 A 
ATOM     89  C   UNL A   1      39.697  30.978  35.840  1.00  0.00     0.059 A 
ATOM     90  F   UNL A   1      40.562  28.931  35.081  1.00  0.00    -0.206 F 
ATOM     91  C   UNL A   1      39.929  32.275  36.301  1.00  0.00     0.060 A 
BRANCH  91  92
ATOM     92  S   UNL A   1      38.648  33.545  36.189  1.00  0.00     0.124 S 
ATOM     93  O   UNL A   1      38.831  34.042  34.831  1.00  0.00    -0.237 OA
ATOM     94  O   UNL A   1      37.441  32.752  36.417  1.00  0.00    -0.237 OA
ATOM     95  O   UNL A   1      39.003  34.470  37.258  1.00  0.00    -0.744 OA
ENDBRANCH  91  92
ENDBRANCH  59  84
BRANCH  71  96
ATOM     96  C   UNL A   1      45.086  24.093  34.466  1.00  0.00     0.058 A 
ATOM     97  C   UNL A   1      44.111  23.086  34.563  1.00  0.00     0.135 A 
ATOM     98  C   UNL A   1      46.425  23.656  34.644  1.00  0.00     0.135 A 
ATOM     99  F   UNL A   1      42.819  23.340  34.312  1.00  0.00    -0.206 F 
ATOM    100  C   UNL A   1      44.429  21.760  34.877  1.00  0.00     0.059 A 
ATOM    101  C   UNL A   1      46.768  22.332  34.903  1.00  0.00     0.059 A 
ATOM    102  F   UNL A   1      47.457  24.509  34.557  1.00  0.00    -0.206 F 
ATOM    103  C   UNL A   1      45.760  21.391  35.044  1.00  0.00     0.060 A 
BRANCH 103 104
ATOM    104  S   UNL A   1      46.191  19.673  35.378  1.00  0.00     0.124 S 
ATOM    105  O   UNL A   1      44.915  19.002  35.149  1.00  0.00    -0.237 OA
ATOM    106  O   UNL A   1      47.233  19.398  34.391  1.00  0.00    -0.237 OA
ATOM    107  O   UNL A   1      46.647  19.710  36.763  1.00  0.00    -0.744 OA
ENDBRANCH 103 104
ENDBRANCH  71  96
ENDBRANCH  45  46
ENDBRANCH  37  40
ENDBRANCH  35  36
ENDBRANCH  34  35
ENDBRANCH   1  34
TORSDOF 18
ENDMDL
MODEL 2
REMARK VINA RESULT:     -13.3      4.634      9.079
REMARK SMILES Cc1ccc([C@@]23C[C@@H]4C[C@@H](C[C@@](C(=O)N5CCC(C(=O)NCCCCCCNC(=O)c6ccc(-c7c8nc(c(-c9c(F)cc(S(=O)(=O)[O-])cc9F)c9ccc([nH]9)c(-c9c(F)cc(S(=O)(=O)[O-])cc9F)c9nc(c(-c%10c(F)cc(S(=O)(=O)[O-])cc%10F)c%10ccc7[nH]%10)C=C9)C=C8)cc6)CC5)(C4)C2)C3)cc1
REMARK SMILES IDX 25 1 24 2 23 3 22 4 21 5 19 6 20 7 18 9 13 10 14 11 15 12
REMARK SMILES IDX 16 13 98 14 17 15 97 16 12 17 6 18 7 19 100 20 101 21 8 22
REMARK SMILES IDX 10 23 9 24 99 25 11 26 5 27 1 28 2 29 3 30 103 31 4 32
REMARK SMILES IDX 102 33 26 34 27 35 28 36 29 37 30 39 31 40 32 41 96 42 33 43
REMARK SMILES IDX 95 44 34 45 35 46 36 47 89 48 37 49 94 50 88 51 90 52 38 53
REMARK SMILES IDX 93 54 87 55 86 56 39 58 73 59 52 60 72 61 53 62 56 63 71 64
REMARK SMILES IDX 91 65 54 66 55 67 70 69 92 70 57 71 40 72 41 73 50 74 42 75
REMARK SMILES IDX 43 76 49 77 51 78 44 79 45 80 46 81 47 82 48 83 74 84 75 85
REMARK SMILES IDX 84 86 76 87 77 88 83 89 85 90 78 91 79 92 80 93 81 94 82 95
REMARK SMILES IDX 58 96 59 97 68 98 60 99 61 100 67 101 69 102 62 103 63 104
REMARK SMILES IDX 64 105 65 106 66 107
REMARK H PARENT 21 8 28 38 90 57 56 68
REMARK Flexibility Score: inf
ROOT
ATOM      1  C   UNL A   1      39.502  32.811  31.016  1.00  0.00     0.002 C 
ENDROOT
BRANCH   1   2
ATOM      2  C   UNL A   1      40.439  33.958  30.609  1.00  0.00     0.002 C 
BRANCH   2   3
ATOM      3  C   UNL A   1      41.654  33.583  29.752  1.00  0.00     0.021 C 
BRANCH   3   4
ATOM      4  C   UNL A   1      42.818  34.568  29.796  1.00  0.00     0.116 C 
BRANCH   4   5
ATOM      5  N   UNL A   1      42.470  35.878  29.265  1.00  0.00    -0.356 N 
ATOM      6  C   UNL A   1      42.797  36.473  28.085  1.00  0.00     0.223 C 
ATOM      7  O   UNL A   1      42.280  37.560  27.814  1.00  0.00    -0.275 OA
ATOM      8  H   UNL A   1      41.902  36.423  29.856  1.00  0.00     0.163 HD
BRANCH   6   9
ATOM      9  C   UNL A   1      43.788  35.843  27.118  1.00  0.00     0.082 C 
ATOM     10  C   UNL A   1      44.780  32.009  26.505  1.00  0.00     0.228 C 
ATOM     11  O   UNL A   1      43.768  31.428  26.099  1.00  0.00    -0.274 OA
ATOM     12  N   UNL A   1      44.946  33.373  26.265  1.00  0.00    -0.342 N 
ATOM     13  C   UNL A   1      44.043  34.036  25.335  1.00  0.00     0.120 C 
ATOM     14  C   UNL A   1      45.807  34.317  26.975  1.00  0.00     0.120 C 
ATOM     15  C   UNL A   1      43.084  34.954  26.076  1.00  0.00     0.035 C 
ATOM     16  C   UNL A   1      44.957  35.196  27.880  1.00  0.00     0.035 C 
BRANCH  10  17
ATOM     17  C   UNL A   1      45.897  31.198  27.205  1.00  0.00     0.051 C 
ATOM     18  C   UNL A   1      46.785  30.589  29.549  1.00  0.00    -0.003 C 
ATOM     19  C   UNL A   1      46.710  29.103  29.085  1.00  0.00     0.015 C 
ATOM     20  C   UNL A   1      45.735  31.372  28.727  1.00  0.00     0.028 C 
ATOM     21  C   UNL A   1      48.173  31.161  29.166  1.00  0.00     0.015 C 
ATOM     22  C   UNL A   1      47.002  28.962  27.577  1.00  0.00    -0.009 C 
ATOM     23  C   UNL A   1      48.411  31.036  27.648  1.00  0.00    -0.009 C 
ATOM     24  C   UNL A   1      48.383  29.550  27.264  1.00  0.00     0.007 C 
ATOM     25  C   UNL A   1      45.940  29.720  26.769  1.00  0.00     0.020 C 
ATOM     26  C   UNL A   1      47.305  31.785  26.871  1.00  0.00     0.020 C 
BRANCH  18  27
ATOM     27  C   UNL A   1      46.521  30.720  31.062  1.00  0.00    -0.042 A 
ATOM     28  C   UNL A   1      45.579  30.963  35.295  1.00  0.00     0.044 C 
ATOM     29  C   UNL A   1      45.938  30.878  33.843  1.00  0.00    -0.051 A 
ATOM     30  C   UNL A   1      45.575  31.912  32.984  1.00  0.00     0.004 A 
ATOM     31  C   UNL A   1      46.614  29.776  33.316  1.00  0.00     0.004 A 
ATOM     32  C   UNL A   1      45.870  31.836  31.621  1.00  0.00     0.004 A 
ATOM     33  C   UNL A   1      46.906  29.701  31.947  1.00  0.00     0.004 A 
ENDBRANCH  18  27
ENDBRANCH  10  17
ENDBRANCH   6   9
ENDBRANCH   4   5
ENDBRANCH   3   4
ENDBRANCH   2   3
ENDBRANCH   1   2
BRANCH   1  34
ATOM     34  C   UNL A   1      38.029  32.962  30.630  1.00  0.00     0.021 C 
BRANCH  34  35
ATOM     35  C   UNL A   1      37.755  32.767  29.143  1.00  0.00     0.116 C 
BRANCH  35  36
ATOM     36  N   UNL A   1      36.374  32.426  28.842  1.00  0.00    -0.352 N 
ATOM     37  C   UNL A   1      35.897  31.257  28.268  1.00  0.00     0.251 C 
ATOM     38  H   UNL A   1      35.699  33.104  29.073  1.00  0.00     0.163 HD
ATOM     39  O   UNL A   1      34.756  31.153  27.861  1.00  0.00    -0.269 OA
BRANCH  37  40
ATOM     40  C   UNL A   1      36.809  30.091  28.274  1.00  0.00     0.039 A 
ATOM     41  C   UNL A   1      36.959  29.400  29.483  1.00  0.00     0.014 A 
ATOM     42  C   UNL A   1      37.669  29.859  27.204  1.00  0.00     0.014 A 
ATOM     43  C   UNL A   1      38.080  28.594  29.678  1.00  0.00     0.010 A 
ATOM     44  C   UNL A   1      38.819  29.123  27.428  1.00  0.00     0.010 A 
ATOM     45  C   UNL A   1      39.051  28.526  28.676  1.00  0.00    -0.014 A 
BRANCH  45  46
ATOM     46  C   UNL A   1      40.378  27.948  28.880  1.00  0.00     0.031 A 
ATOM     47  C   UNL A   1      40.670  26.546  28.468  1.00  0.00     0.074 A 
ATOM     48  C   UNL A   1      41.388  28.697  29.383  1.00  0.00     0.049 A 
ATOM     49  N   UNL A   1      41.613  25.822  28.978  1.00  0.00    -0.248 NA
ATOM     50  C   UNL A   1      39.901  25.838  27.447  1.00  0.00     0.031 C 
ATOM     51  C   UNL A   1      42.811  28.357  29.341  1.00  0.00     0.029 A 
ATOM     52  N   UNL A   1      41.388  29.871  30.129  1.00  0.00    -0.354 N 
ATOM     53  C   UNL A   1      41.771  24.711  28.180  1.00  0.00     0.074 A 
ATOM     54  C   UNL A   1      40.638  24.733  27.281  1.00  0.00     0.031 C 
ATOM     55  C   UNL A   1      43.461  29.085  30.260  1.00  0.00     0.029 A 
ATOM     56  C   UNL A   1      42.457  29.793  31.028  1.00  0.00     0.049 A 
ATOM     57  H   UNL A   1      40.752  30.617  30.040  1.00  0.00     0.167 HD
ATOM     58  C   UNL A   1      42.914  23.967  28.255  1.00  0.00     0.037 A 
ATOM     59  C   UNL A   1      42.364  29.762  32.391  1.00  0.00     0.037 A 
ATOM     60  C   UNL A   1      43.843  24.496  29.247  1.00  0.00     0.049 A 
ATOM     61  C   UNL A   1      43.042  28.560  33.027  1.00  0.00     0.074 A 
ATOM     62  C   UNL A   1      44.949  25.324  29.136  1.00  0.00     0.029 A 
ATOM     63  N   UNL A   1      43.542  24.424  30.602  1.00  0.00    -0.354 N 
ATOM     64  N   UNL A   1      43.409  27.501  32.362  1.00  0.00    -0.248 NA
ATOM     65  C   UNL A   1      43.323  28.430  34.457  1.00  0.00     0.031 C 
ATOM     66  C   UNL A   1      45.303  25.770  30.429  1.00  0.00     0.029 A 
ATOM     67  C   UNL A   1      44.410  25.217  31.329  1.00  0.00     0.049 A 
ATOM     68  H   UNL A   1      42.813  23.885  30.988  1.00  0.00     0.167 HD
ATOM     69  C   UNL A   1      43.912  26.556  33.221  1.00  0.00     0.074 A 
ATOM     70  C   UNL A   1      43.869  27.201  34.519  1.00  0.00     0.031 C 
ATOM     71  C   UNL A   1      44.301  25.323  32.777  1.00  0.00     0.037 A 
BRANCH  58  72
ATOM     72  C   UNL A   1      43.304  22.958  27.195  1.00  0.00     0.058 A 
ATOM     73  C   UNL A   1      42.662  21.703  27.106  1.00  0.00     0.135 A 
ATOM     74  C   UNL A   1      44.350  23.152  26.271  1.00  0.00     0.135 A 
ATOM     75  F   UNL A   1      41.583  21.407  27.842  1.00  0.00    -0.206 F 
ATOM     76  C   UNL A   1      43.107  20.678  26.271  1.00  0.00     0.059 A 
ATOM     77  C   UNL A   1      44.848  22.124  25.461  1.00  0.00     0.059 A 
ATOM     78  F   UNL A   1      44.913  24.359  26.113  1.00  0.00    -0.206 F 
ATOM     79  C   UNL A   1      44.229  20.881  25.483  1.00  0.00     0.060 A 
BRANCH  79  80
ATOM     80  S   UNL A   1      44.871  19.494  24.528  1.00  0.00     0.124 S 
ATOM     81  O   UNL A   1      44.524  19.874  23.161  1.00  0.00    -0.237 OA
ATOM     82  O   UNL A   1      46.291  19.530  24.855  1.00  0.00    -0.237 OA
ATOM     83  O   UNL A   1      44.133  18.349  25.054  1.00  0.00    -0.744 OA
ENDBRANCH  79  80
ENDBRANCH  58  72
BRANCH  59  84
ATOM     84  C   UNL A   1      41.167  30.444  32.940  1.00  0.00     0.058 A 
ATOM     85  C   UNL A   1      40.045  29.652  33.240  1.00  0.00     0.135 A 
ATOM     86  C   UNL A   1      41.268  31.700  33.555  1.00  0.00     0.135 A 
ATOM     87  F   UNL A   1      39.892  28.454  32.652  1.00  0.00    -0.206 F 
ATOM     88  C   UNL A   1      39.157  30.006  34.246  1.00  0.00     0.059 A 
ATOM     89  C   UNL A   1      40.383  32.078  34.564  1.00  0.00     0.059 A 
ATOM     90  F   UNL A   1      42.310  32.502  33.290  1.00  0.00    -0.206 F 
ATOM     91  C   UNL A   1      39.379  31.189  34.950  1.00  0.00     0.060 A 
BRANCH  91  92
ATOM     92  S   UNL A   1      38.462  31.434  36.488  1.00  0.00     0.124 S 
ATOM     93  O   UNL A   1      38.034  30.076  36.806  1.00  0.00    -0.237 OA
ATOM     94  O   UNL A   1      39.500  31.991  37.353  1.00  0.00    -0.237 OA
ATOM     95  O   UNL A   1      37.403  32.358  36.100  1.00  0.00    -0.744 OA
ENDBRANCH  91  92
ENDBRANCH  59  84
BRANCH  71  96
ATOM     96  C   UNL A   1      44.708  24.136  33.623  1.00  0.00     0.058 A 
ATOM     97  C   UNL A   1      43.807  23.227  34.202  1.00  0.00     0.135 A 
ATOM     98  C   UNL A   1      46.080  23.799  33.765  1.00  0.00     0.135 A 
ATOM     99  F   UNL A   1      42.482  23.368  34.050  1.00  0.00    -0.206 F 
ATOM    100  C   UNL A   1      44.229  22.104  34.921  1.00  0.00     0.059 A 
ATOM    101  C   UNL A   1      46.521  22.659  34.431  1.00  0.00     0.059 A 
ATOM    102  F   UNL A   1      47.048  24.569  33.244  1.00  0.00    -0.206 F 
ATOM    103  C   UNL A   1      45.588  21.827  35.030  1.00  0.00     0.060 A 
BRANCH 103 104
ATOM    104  S   UNL A   1      46.146  20.346  35.894  1.00  0.00     0.124 S 
ATOM    105  O   UNL A   1      45.465  19.296  35.143  1.00  0.00    -0.237 OA
ATOM    106  O   UNL A   1      47.597  20.397  35.730  1.00  0.00    -0.237 OA
ATOM    107  O   UNL A   1      45.671  20.559  37.257  1.00  0.00    -0.744 OA
ENDBRANCH 103 104
ENDBRANCH  71  96
ENDBRANCH  45  46
ENDBRANCH  37  40
ENDBRANCH  35  36
ENDBRANCH  34  35
ENDBRANCH   1  34
TORSDOF 18
ENDMDL
MODEL 3
REMARK VINA RESULT:     -13.3      4.356     11.259
REMARK SMILES Cc1ccc([C@@]23C[C@@H]4C[C@@H](C[C@@](C(=O)N5CCC(C(=O)NCCCCCCNC(=O)c6ccc(-c7c8nc(c(-c9c(F)cc(S(=O)(=O)[O-])cc9F)c9ccc([nH]9)c(-c9c(F)cc(S(=O)(=O)[O-])cc9F)c9nc(c(-c%10c(F)cc(S(=O)(=O)[O-])cc%10F)c%10ccc7[nH]%10)C=C9)C=C8)cc6)CC5)(C4)C2)C3)cc1
REMARK SMILES IDX 25 1 24 2 23 3 22 4 21 5 19 6 20 7 18 9 13 10 14 11 15 12
REMARK SMILES IDX 16 13 98 14 17 15 97 16 12 17 6 18 7 19 100 20 101 21 8 22
REMARK SMILES IDX 10 23 9 24 99 25 11 26 5 27 1 28 2 29 3 30 103 31 4 32
REMARK SMILES IDX 102 33 26 34 27 35 28 36 29 37 30 39 31 40 32 41 96 42 33 43
REMARK SMILES IDX 95 44 34 45 35 46 36 47 89 48 37 49 94 50 88 51 90 52 38 53
REMARK SMILES IDX 93 54 87 55 86 56 39 58 73 59 52 60 72 61 53 62 56 63 71 64
REMARK SMILES IDX 91 65 54 66 55 67 70 69 92 70 57 71 40 72 41 73 50 74 42 75
REMARK SMILES IDX 43 76 49 77 51 78 44 79 45 80 46 81 47 82 48 83 74 84 75 85
REMARK SMILES IDX 84 86 76 87 77 88 83 89 85 90 78 91 79 92 80 93 81 94 82 95
REMARK SMILES IDX 58 96 59 97 68 98 60 99 61 100 67 101 69 102 62 103 63 104
REMARK SMILES IDX 64 105 65 106 66 107
REMARK H PARENT 21 8 28 38 90 57 56 68
REMARK Flexibility Score: inf
ROOT
ATOM      1  C   UNL A   1      40.872  20.249  26.158  1.00  0.00     0.002 C 
ENDROOT
BRANCH   1   2
ATOM      2  C   UNL A   1      39.755  19.274  25.758  1.00  0.00     0.002 C 
BRANCH   2   3
ATOM      3  C   UNL A   1      38.711  19.795  24.765  1.00  0.00     0.021 C 
BRANCH   3   4
ATOM      4  C   UNL A   1      37.494  20.474  25.386  1.00  0.00     0.116 C 
BRANCH   4   5
ATOM      5  N   UNL A   1      37.682  21.904  25.578  1.00  0.00    -0.356 N 
ATOM      6  C   UNL A   1      36.784  22.928  25.561  1.00  0.00     0.223 C 
ATOM      7  O   UNL A   1      37.177  24.056  25.866  1.00  0.00    -0.275 OA
ATOM      8  H   UNL A   1      38.612  22.176  25.750  1.00  0.00     0.163 HD
BRANCH   6   9
ATOM      9  C   UNL A   1      35.333  22.713  25.160  1.00  0.00     0.082 C 
ATOM     10  C   UNL A   1      32.916  24.863  22.795  1.00  0.00     0.228 C 
ATOM     11  O   UNL A   1      33.400  24.842  21.659  1.00  0.00    -0.274 OA
ATOM     12  N   UNL A   1      33.149  23.805  23.673  1.00  0.00    -0.342 N 
ATOM     13  C   UNL A   1      33.758  22.586  23.156  1.00  0.00     0.120 C 
ATOM     14  C   UNL A   1      33.043  23.799  25.131  1.00  0.00     0.120 C 
ATOM     15  C   UNL A   1      35.190  22.447  23.650  1.00  0.00     0.035 C 
ATOM     16  C   UNL A   1      34.437  23.820  25.740  1.00  0.00     0.035 C 
BRANCH  10  17
ATOM     17  C   UNL A   1      31.981  26.026  23.206  1.00  0.00     0.051 C 
ATOM     18  C   UNL A   1      31.898  28.111  24.721  1.00  0.00    -0.003 C 
ATOM     19  C   UNL A   1      31.467  28.900  23.448  1.00  0.00     0.015 C 
ATOM     20  C   UNL A   1      32.721  26.894  24.241  1.00  0.00     0.028 C 
ATOM     21  C   UNL A   1      30.629  27.552  25.413  1.00  0.00     0.015 C 
ATOM     22  C   UNL A   1      30.622  28.028  22.497  1.00  0.00    -0.009 C 
ATOM     23  C   UNL A   1      29.833  26.656  24.444  1.00  0.00    -0.009 C 
ATOM     24  C   UNL A   1      29.389  27.502  23.242  1.00  0.00     0.007 C 
ATOM     25  C   UNL A   1      31.456  26.837  22.005  1.00  0.00     0.020 C 
ATOM     26  C   UNL A   1      30.716  25.489  23.947  1.00  0.00     0.020 C 
BRANCH  18  27
ATOM     27  C   UNL A   1      32.717  28.997  25.681  1.00  0.00    -0.042 A 
ATOM     28  C   UNL A   1      34.950  31.355  28.565  1.00  0.00     0.044 C 
ATOM     29  C   UNL A   1      34.205  30.548  27.547  1.00  0.00    -0.051 A 
ATOM     30  C   UNL A   1      32.930  30.946  27.153  1.00  0.00     0.004 A 
ATOM     31  C   UNL A   1      34.746  29.388  26.989  1.00  0.00     0.004 A 
ATOM     32  C   UNL A   1      32.205  30.188  26.231  1.00  0.00     0.004 A 
ATOM     33  C   UNL A   1      34.015  28.627  26.065  1.00  0.00     0.004 A 
ENDBRANCH  18  27
ENDBRANCH  10  17
ENDBRANCH   6   9
ENDBRANCH   4   5
ENDBRANCH   3   4
ENDBRANCH   2   3
ENDBRANCH   1   2
BRANCH   1  34
ATOM     34  C   UNL A   1      40.783  20.852  27.563  1.00  0.00     0.021 C 
BRANCH  34  35
ATOM     35  C   UNL A   1      41.837  21.915  27.848  1.00  0.00     0.116 C 
BRANCH  35  36
ATOM     36  N   UNL A   1      42.592  22.321  26.674  1.00  0.00    -0.352 N 
ATOM     37  C   UNL A   1      42.499  23.519  25.982  1.00  0.00     0.251 C 
ATOM     38  H   UNL A   1      43.244  21.670  26.330  1.00  0.00     0.163 HD
ATOM     39  O   UNL A   1      43.014  23.680  24.893  1.00  0.00    -0.269 OA
BRANCH  37  40
ATOM     40  C   UNL A   1      41.839  24.644  26.682  1.00  0.00     0.039 A 
ATOM     41  C   UNL A   1      41.610  25.813  25.947  1.00  0.00     0.014 A 
ATOM     42  C   UNL A   1      41.694  24.629  28.067  1.00  0.00     0.014 A 
ATOM     43  C   UNL A   1      41.400  27.017  26.619  1.00  0.00     0.010 A 
ATOM     44  C   UNL A   1      41.565  25.835  28.732  1.00  0.00     0.010 A 
ATOM     45  C   UNL A   1      41.462  27.036  28.014  1.00  0.00    -0.014 A 
BRANCH  45  46
ATOM     46  C   UNL A   1      41.536  28.266  28.799  1.00  0.00     0.031 A 
ATOM     47  C   UNL A   1      40.369  29.191  28.879  1.00  0.00     0.074 A 
ATOM     48  C   UNL A   1      42.641  28.558  29.525  1.00  0.00     0.049 A 
ATOM     49  N   UNL A   1      40.461  30.452  29.153  1.00  0.00    -0.248 NA
ATOM     50  C   UNL A   1      38.993  28.762  28.638  1.00  0.00     0.031 C 
ATOM     51  C   UNL A   1      42.731  29.564  30.585  1.00  0.00     0.029 A 
ATOM     52  N   UNL A   1      43.954  28.110  29.432  1.00  0.00    -0.354 N 
ATOM     53  C   UNL A   1      39.193  30.920  29.416  1.00  0.00     0.074 A 
ATOM     54  C   UNL A   1      38.309  29.848  29.016  1.00  0.00     0.031 C 
ATOM     55  C   UNL A   1      44.021  29.864  30.793  1.00  0.00     0.029 A 
ATOM     56  C   UNL A   1      44.785  29.185  29.766  1.00  0.00     0.049 A 
ATOM     57  H   UNL A   1      44.244  27.204  29.178  1.00  0.00     0.167 HD
ATOM     58  C   UNL A   1      39.020  32.100  30.081  1.00  0.00     0.037 A 
ATOM     59  C   UNL A   1      45.683  29.799  28.938  1.00  0.00     0.037 A 
ATOM     60  C   UNL A   1      40.294  32.727  30.416  1.00  0.00     0.049 A 
ATOM     61  C   UNL A   1      45.471  31.298  28.804  1.00  0.00     0.074 A 
ATOM     62  C   UNL A   1      41.053  32.728  31.577  1.00  0.00     0.029 A 
ATOM     63  N   UNL A   1      41.106  33.250  29.417  1.00  0.00    -0.354 N 
ATOM     64  N   UNL A   1      44.382  31.910  29.175  1.00  0.00    -0.248 NA
ATOM     65  C   UNL A   1      46.439  32.220  28.210  1.00  0.00     0.031 C 
ATOM     66  C   UNL A   1      42.336  33.232  31.269  1.00  0.00     0.029 A 
ATOM     67  C   UNL A   1      42.361  33.537  29.920  1.00  0.00     0.049 A 
ATOM     68  H   UNL A   1      40.826  33.393  28.484  1.00  0.00     0.167 HD
ATOM     69  C   UNL A   1      44.456  33.242  28.849  1.00  0.00     0.074 A 
ATOM     70  C   UNL A   1      45.780  33.391  28.278  1.00  0.00     0.031 C 
ATOM     71  C   UNL A   1      43.406  34.089  29.069  1.00  0.00     0.037 A 
BRANCH  58  72
ATOM     72  C   UNL A   1      37.698  32.506  30.699  1.00  0.00     0.058 A 
ATOM     73  C   UNL A   1      36.997  33.645  30.248  1.00  0.00     0.135 A 
ATOM     74  C   UNL A   1      37.099  31.836  31.785  1.00  0.00     0.135 A 
ATOM     75  F   UNL A   1      37.380  34.326  29.160  1.00  0.00    -0.206 F 
ATOM     76  C   UNL A   1      35.876  34.158  30.902  1.00  0.00     0.059 A 
ATOM     77  C   UNL A   1      36.007  32.357  32.490  1.00  0.00     0.059 A 
ATOM     78  F   UNL A   1      37.549  30.638  32.187  1.00  0.00    -0.206 F 
ATOM     79  C   UNL A   1      35.414  33.534  32.050  1.00  0.00     0.060 A 
BRANCH  79  80
ATOM     80  S   UNL A   1      34.059  34.300  32.959  1.00  0.00     0.124 S 
ATOM     81  O   UNL A   1      33.479  35.191  31.957  1.00  0.00    -0.237 OA
ATOM     82  O   UNL A   1      33.248  33.146  33.328  1.00  0.00    -0.237 OA
ATOM     83  O   UNL A   1      34.733  34.974  34.066  1.00  0.00    -0.744 OA
ENDBRANCH  79  80
ENDBRANCH  58  72
BRANCH  59  84
ATOM     84  C   UNL A   1      46.231  28.926  27.872  1.00  0.00     0.058 A 
ATOM     85  C   UNL A   1      47.362  28.150  28.182  1.00  0.00     0.135 A 
ATOM     86  C   UNL A   1      45.442  28.531  26.783  1.00  0.00     0.135 A 
ATOM     87  F   UNL A   1      48.163  28.507  29.199  1.00  0.00    -0.206 F 
ATOM     88  C   UNL A   1      47.597  26.932  27.560  1.00  0.00     0.059 A 
ATOM     89  C   UNL A   1      45.665  27.314  26.139  1.00  0.00     0.059 A 
ATOM     90  F   UNL A   1      44.362  29.246  26.434  1.00  0.00    -0.206 F 
ATOM     91  C   UNL A   1      46.700  26.492  26.588  1.00  0.00     0.060 A 
BRANCH  91  92
ATOM     92  S   UNL A   1      46.798  24.760  26.080  1.00  0.00     0.124 S 
ATOM     93  O   UNL A   1      46.536  24.849  24.647  1.00  0.00    -0.237 OA
ATOM     94  O   UNL A   1      48.172  24.431  26.454  1.00  0.00    -0.237 OA
ATOM     95  O   UNL A   1      45.759  24.121  26.877  1.00  0.00    -0.744 OA
ENDBRANCH  91  92
ENDBRANCH  59  84
BRANCH  71  96
ATOM     96  C   UNL A   1      43.283  35.526  28.610  1.00  0.00     0.058 A 
ATOM     97  C   UNL A   1      42.908  35.916  27.314  1.00  0.00     0.135 A 
ATOM     98  C   UNL A   1      43.417  36.587  29.544  1.00  0.00     0.135 A 
ATOM     99  F   UNL A   1      42.644  35.008  26.363  1.00  0.00    -0.206 F 
ATOM    100  C   UNL A   1      42.741  37.256  26.950  1.00  0.00     0.059 A 
ATOM    101  C   UNL A   1      43.204  37.923  29.217  1.00  0.00     0.059 A 
ATOM    102  F   UNL A   1      43.752  36.356  30.823  1.00  0.00    -0.206 F 
ATOM    103  C   UNL A   1      42.890  38.254  27.908  1.00  0.00     0.060 A 
BRANCH 103 104
ATOM    104  S   UNL A   1      42.610  39.980  27.472  1.00  0.00     0.124 S 
ATOM    105  O   UNL A   1      41.163  40.000  27.275  1.00  0.00    -0.237 OA
ATOM    106  O   UNL A   1      43.094  40.699  28.648  1.00  0.00    -0.237 OA
ATOM    107  O   UNL A   1      43.415  40.152  26.268  1.00  0.00    -0.744 OA
ENDBRANCH 103 104
ENDBRANCH  71  96
ENDBRANCH  45  46
ENDBRANCH  37  40
ENDBRANCH  35  36
ENDBRANCH  34  35
ENDBRANCH   1  34
TORSDOF 18
ENDMDL
