MODEL 1
REMARK VINA RESULT:     -10.7      0.000      0.000
REMARK SMILES CC(C)[C@H]([NH2+]Cc1ccncc1)C(=O)NCCCCCCNC(=O)c1ccc(-c2c3nc(c(-c4c(F)cc(S(=O)(=O)[O-])cc4F)c4ccc([nH]4)c(-c4c(F)cc(S(=O)(=O)[O-])cc4F)c4nc(c(-c5c(F)cc(S(=O)(=O)[O-])cc5F)c5ccc2[nH]5)C=C4)C=C3)cc1
REMARK SMILES IDX 18 1 17 2 16 3 15 4 13 5 14 6 4 8 2 9 1 10 3 11 5 12 6 15
REMARK SMILES IDX 7 16 8 17 12 18 9 19 11 20 10 21 19 22 20 23 21 24 22 25
REMARK SMILES IDX 23 26 24 28 25 29 26 30 90 31 27 32 89 33 28 34 29 35 30 36
REMARK SMILES IDX 83 37 31 38 88 39 82 40 84 41 32 42 87 43 81 44 80 45 33 47
REMARK SMILES IDX 67 48 46 49 66 50 47 51 50 52 65 53 85 54 48 55 49 56 64 58
REMARK SMILES IDX 86 59 51 60 34 61 35 62 44 63 36 64 37 65 43 66 45 67 38 68
REMARK SMILES IDX 39 69 40 70 41 71 42 72 68 73 69 74 78 75 70 76 71 77 77 78
REMARK SMILES IDX 79 79 72 80 73 81 74 82 75 83 76 84 52 85 53 86 62 87 54 88
REMARK SMILES IDX 55 89 61 90 63 91 56 92 57 93 58 94 59 95 60 96
REMARK H PARENT 15 7 5 13 5 14 22 27 84 46 50 57
REMARK Flexibility Score: inf
ROOT
ATOM      1  C   UNL A   1      35.013  30.174  27.300  1.00  0.00     0.002 C 
ENDROOT
BRANCH   1   2
ATOM      2  C   UNL A   1      34.021  29.046  27.005  1.00  0.00     0.021 C 
BRANCH   2   3
ATOM      3  C   UNL A   1      32.701  29.521  26.406  1.00  0.00     0.116 C 
BRANCH   3   4
ATOM      4  N   UNL A   1      31.755  28.432  26.309  1.00  0.00    -0.351 N 
ATOM      5  C   UNL A   1      31.308  27.759  25.211  1.00  0.00     0.278 C 
ATOM      6  O   UNL A   1      30.535  26.815  25.396  1.00  0.00    -0.268 OA
ATOM      7  H   UNL A   1      31.374  28.131  27.166  1.00  0.00     0.163 HD
BRANCH   5   8
ATOM      8  C   UNL A   1      31.774  28.151  23.784  1.00  0.00     0.275 C 
BRANCH   8   9
ATOM      9  C   UNL A   1      33.309  27.985  23.556  1.00  0.00     0.051 C 
ATOM     10  C   UNL A   1      33.895  26.679  24.113  1.00  0.00     0.014 C 
ATOM     11  C   UNL A   1      33.635  28.041  22.055  1.00  0.00     0.014 C 
ENDBRANCH   8   9
BRANCH   8  12
ATOM     12  N   UNL A   1      31.090  29.409  23.365  1.00  0.00    -0.332 N 
ATOM     13  H   UNL A   1      31.311  29.560  22.381  1.00  0.00     0.347 HD
ATOM     14  H   UNL A   1      31.440  30.116  24.011  1.00  0.00     0.347 HD
BRANCH  12  15
ATOM     15  C   UNL A   1      29.643  29.475  23.500  1.00  0.00     0.298 C 
BRANCH  15  16
ATOM     16  C   UNL A   1      29.071  30.707  22.838  1.00  0.00     0.009 A 
ATOM     17  C   UNL A   1      28.671  30.685  21.499  1.00  0.00     0.029 A 
ATOM     18  C   UNL A   1      28.961  31.913  23.540  1.00  0.00     0.029 A 
ATOM     19  C   UNL A   1      28.206  31.857  20.925  1.00  0.00     0.111 A 
ATOM     20  C   UNL A   1      28.477  33.032  22.879  1.00  0.00     0.111 A 
ATOM     21  N   UNL A   1      28.097  33.030  21.585  1.00  0.00    -0.265 NA
ENDBRANCH  15  16
ENDBRANCH  12  15
ENDBRANCH   8  12
ENDBRANCH   5   8
ENDBRANCH   3   4
ENDBRANCH   2   3
ENDBRANCH   1   2
BRANCH   1  22
ATOM     22  C   UNL A   1      34.410  31.402  27.991  1.00  0.00     0.002 C 
BRANCH  22  23
ATOM     23  C   UNL A   1      35.310  32.641  28.027  1.00  0.00     0.021 C 
BRANCH  23  24
ATOM     24  C   UNL A   1      36.464  32.575  29.026  1.00  0.00     0.116 C 
BRANCH  24  25
ATOM     25  N   UNL A   1      36.098  31.862  30.237  1.00  0.00    -0.352 N 
ATOM     26  C   UNL A   1      36.694  30.780  30.828  1.00  0.00     0.251 C 
ATOM     27  H   UNL A   1      35.303  32.209  30.703  1.00  0.00     0.163 HD
ATOM     28  O   UNL A   1      36.119  30.202  31.751  1.00  0.00    -0.269 OA
BRANCH  26  29
ATOM     29  C   UNL A   1      38.007  30.292  30.356  1.00  0.00     0.039 A 
ATOM     30  C   UNL A   1      38.201  30.115  28.984  1.00  0.00     0.014 A 
ATOM     31  C   UNL A   1      39.035  29.981  31.253  1.00  0.00     0.014 A 
ATOM     32  C   UNL A   1      39.438  29.676  28.509  1.00  0.00     0.010 A 
ATOM     33  C   UNL A   1      40.289  29.604  30.774  1.00  0.00     0.010 A 
ATOM     34  C   UNL A   1      40.501  29.443  29.397  1.00  0.00    -0.014 A 
BRANCH  34  35
ATOM     35  C   UNL A   1      41.840  29.054  28.883  1.00  0.00     0.031 A 
ATOM     36  C   UNL A   1      42.948  30.066  28.780  1.00  0.00     0.074 A 
ATOM     37  C   UNL A   1      42.043  27.785  28.478  1.00  0.00     0.049 A 
ATOM     38  N   UNL A   1      44.181  29.899  28.371  1.00  0.00    -0.248 NA
ATOM     39  C   UNL A   1      42.627  31.450  29.161  1.00  0.00     0.031 C 
ATOM     40  C   UNL A   1      41.029  26.728  28.468  1.00  0.00     0.029 A 
ATOM     41  N   UNL A   1      43.169  27.166  27.996  1.00  0.00    -0.354 N 
ATOM     42  C   UNL A   1      44.779  31.151  28.440  1.00  0.00     0.074 A 
ATOM     43  C   UNL A   1      43.759  32.080  28.881  1.00  0.00     0.031 C 
ATOM     44  C   UNL A   1      41.584  25.587  28.033  1.00  0.00     0.029 A 
ATOM     45  C   UNL A   1      42.985  25.834  27.707  1.00  0.00     0.049 A 
ATOM     46  H   UNL A   1      44.027  27.631  27.870  1.00  0.00     0.167 HD
ATOM     47  C   UNL A   1      46.065  31.493  28.183  1.00  0.00     0.037 A 
ATOM     48  C   UNL A   1      43.849  24.914  27.237  1.00  0.00     0.037 A 
ATOM     49  C   UNL A   1      47.080  30.560  27.764  1.00  0.00     0.049 A 
ATOM     50  C   UNL A   1      45.277  25.311  26.986  1.00  0.00     0.074 A 
ATOM     51  C   UNL A   1      48.427  30.794  27.541  1.00  0.00     0.029 A 
ATOM     52  N   UNL A   1      46.861  29.215  27.499  1.00  0.00    -0.354 N 
ATOM     53  N   UNL A   1      45.843  26.485  27.132  1.00  0.00    -0.248 NA
ATOM     54  C   UNL A   1      46.185  24.256  26.519  1.00  0.00     0.031 C 
ATOM     55  C   UNL A   1      49.013  29.601  27.103  1.00  0.00     0.029 A 
ATOM     56  C   UNL A   1      48.042  28.612  27.097  1.00  0.00     0.049 A 
ATOM     57  H   UNL A   1      45.994  28.757  27.586  1.00  0.00     0.167 HD
ATOM     58  C   UNL A   1      47.179  26.306  26.790  1.00  0.00     0.074 A 
ATOM     59  C   UNL A   1      47.339  24.906  26.454  1.00  0.00     0.031 C 
ATOM     60  C   UNL A   1      48.182  27.219  26.753  1.00  0.00     0.037 A 
BRANCH  47  61
ATOM     61  C   UNL A   1      46.451  32.936  28.356  1.00  0.00     0.058 A 
ATOM     62  C   UNL A   1      46.905  33.436  29.587  1.00  0.00     0.135 A 
ATOM     63  C   UNL A   1      46.404  33.825  27.269  1.00  0.00     0.135 A 
ATOM     64  F   UNL A   1      46.957  32.634  30.663  1.00  0.00    -0.206 F 
ATOM     65  C   UNL A   1      47.273  34.768  29.744  1.00  0.00     0.059 A 
ATOM     66  C   UNL A   1      46.793  35.157  27.396  1.00  0.00     0.059 A 
ATOM     67  F   UNL A   1      45.979  33.403  26.068  1.00  0.00    -0.206 F 
ATOM     68  C   UNL A   1      47.212  35.622  28.641  1.00  0.00     0.060 A 
BRANCH  68  69
ATOM     69  S   UNL A   1      47.700  37.347  28.858  1.00  0.00     0.124 S 
ATOM     70  O   UNL A   1      47.219  37.944  27.615  1.00  0.00    -0.237 OA
ATOM     71  O   UNL A   1      46.974  37.728  30.065  1.00  0.00    -0.237 OA
ATOM     72  O   UNL A   1      49.150  37.275  29.000  1.00  0.00    -0.744 OA
ENDBRANCH  68  69
ENDBRANCH  47  61
BRANCH  48  73
ATOM     73  C   UNL A   1      43.390  23.520  27.004  1.00  0.00     0.058 A 
ATOM     74  C   UNL A   1      43.143  23.046  25.707  1.00  0.00     0.135 A 
ATOM     75  C   UNL A   1      43.207  22.627  28.072  1.00  0.00     0.135 A 
ATOM     76  F   UNL A   1      43.299  23.863  24.655  1.00  0.00    -0.206 F 
ATOM     77  C   UNL A   1      42.715  21.743  25.477  1.00  0.00     0.059 A 
ATOM     78  C   UNL A   1      42.804  21.312  27.865  1.00  0.00     0.059 A 
ATOM     79  F   UNL A   1      43.450  23.026  29.331  1.00  0.00    -0.206 F 
ATOM     80  C   UNL A   1      42.550  20.882  26.564  1.00  0.00     0.060 A 
BRANCH  80  81
ATOM     81  S   UNL A   1      42.048  19.175  26.252  1.00  0.00     0.124 S 
ATOM     82  O   UNL A   1      42.295  18.556  27.548  1.00  0.00    -0.237 OA
ATOM     83  O   UNL A   1      40.646  19.331  25.872  1.00  0.00    -0.237 OA
ATOM     84  O   UNL A   1      42.937  18.759  25.172  1.00  0.00    -0.744 OA
ENDBRANCH  80  81
ENDBRANCH  48  73
BRANCH  60  85
ATOM     85  C   UNL A   1      49.541  26.720  26.347  1.00  0.00     0.058 A 
ATOM     86  C   UNL A   1      50.411  26.121  27.272  1.00  0.00     0.135 A 
ATOM     87  C   UNL A   1      49.978  26.836  25.018  1.00  0.00     0.135 A 
ATOM     88  F   UNL A   1      50.044  25.990  28.558  1.00  0.00    -0.206 F 
ATOM     89  C   UNL A   1      51.683  25.696  26.904  1.00  0.00     0.059 A 
ATOM     90  C   UNL A   1      51.235  26.392  24.622  1.00  0.00     0.059 A 
ATOM     91  F   UNL A   1      49.181  27.389  24.090  1.00  0.00    -0.206 F 
ATOM     92  C   UNL A   1      52.089  25.842  25.577  1.00  0.00     0.060 A 
BRANCH  92  93
ATOM     93  S   UNL A   1      53.746  25.297  25.111  1.00  0.00     0.124 S 
ATOM     94  O   UNL A   1      53.608  23.846  25.186  1.00  0.00    -0.237 OA
ATOM     95  O   UNL A   1      53.893  25.851  23.769  1.00  0.00    -0.237 OA
ATOM     96  O   UNL A   1      54.600  25.901  26.128  1.00  0.00    -0.744 OA
ENDBRANCH  92  93
ENDBRANCH  60  85
ENDBRANCH  34  35
ENDBRANCH  26  29
ENDBRANCH  24  25
ENDBRANCH  23  24
ENDBRANCH  22  23
ENDBRANCH   1  22
TORSDOF 20
ENDMDL
MODEL 2
REMARK VINA RESULT:     -10.5      3.889      9.874
REMARK SMILES CC(C)[C@H]([NH2+]Cc1ccncc1)C(=O)NCCCCCCNC(=O)c1ccc(-c2c3nc(c(-c4c(F)cc(S(=O)(=O)[O-])cc4F)c4ccc([nH]4)c(-c4c(F)cc(S(=O)(=O)[O-])cc4F)c4nc(c(-c5c(F)cc(S(=O)(=O)[O-])cc5F)c5ccc2[nH]5)C=C4)C=C3)cc1
REMARK SMILES IDX 18 1 17 2 16 3 15 4 13 5 14 6 4 8 2 9 1 10 3 11 5 12 6 15
REMARK SMILES IDX 7 16 8 17 12 18 9 19 11 20 10 21 19 22 20 23 21 24 22 25
REMARK SMILES IDX 23 26 24 28 25 29 26 30 90 31 27 32 89 33 28 34 29 35 30 36
REMARK SMILES IDX 83 37 31 38 88 39 82 40 84 41 32 42 87 43 81 44 80 45 33 47
REMARK SMILES IDX 67 48 46 49 66 50 47 51 50 52 65 53 85 54 48 55 49 56 64 58
REMARK SMILES IDX 86 59 51 60 34 61 35 62 44 63 36 64 37 65 43 66 45 67 38 68
REMARK SMILES IDX 39 69 40 70 41 71 42 72 68 73 69 74 78 75 70 76 71 77 77 78
REMARK SMILES IDX 79 79 72 80 73 81 74 82 75 83 76 84 52 85 53 86 62 87 54 88
REMARK SMILES IDX 55 89 61 90 63 91 56 92 57 93 58 94 59 95 60 96
REMARK H PARENT 15 7 5 13 5 14 22 27 84 46 50 57
REMARK Flexibility Score: inf
ROOT
ATOM      1  C   UNL A   1      37.486  22.012  25.356  1.00  0.00     0.002 C 
ENDROOT
BRANCH   1   2
ATOM      2  C   UNL A   1      36.765  23.125  24.591  1.00  0.00     0.021 C 
BRANCH   2   3
ATOM      3  C   UNL A   1      35.866  22.622  23.466  1.00  0.00     0.116 C 
BRANCH   3   4
ATOM      4  N   UNL A   1      34.694  23.458  23.326  1.00  0.00    -0.351 N 
ATOM      5  C   UNL A   1      33.485  23.378  23.952  1.00  0.00     0.278 C 
ATOM      6  O   UNL A   1      32.656  24.257  23.704  1.00  0.00    -0.268 OA
ATOM      7  H   UNL A   1      34.781  24.196  22.682  1.00  0.00     0.163 HD
BRANCH   5   8
ATOM      8  C   UNL A   1      33.175  22.238  24.957  1.00  0.00     0.275 C 
BRANCH   8   9
ATOM      9  C   UNL A   1      33.519  22.593  26.438  1.00  0.00     0.051 C 
ATOM     10  C   UNL A   1      32.300  22.938  27.306  1.00  0.00     0.014 C 
ATOM     11  C   UNL A   1      34.255  21.423  27.110  1.00  0.00     0.014 C 
ENDBRANCH   8   9
BRANCH   8  12
ATOM     12  N   UNL A   1      33.616  20.934  24.382  1.00  0.00    -0.332 N 
ATOM     13  H   UNL A   1      34.119  20.434  25.116  1.00  0.00     0.347 HD
ATOM     14  H   UNL A   1      34.168  21.190  23.564  1.00  0.00     0.347 HD
BRANCH  12  15
ATOM     15  C   UNL A   1      32.594  20.036  23.868  1.00  0.00     0.298 C 
BRANCH  15  16
ATOM     16  C   UNL A   1      32.917  18.588  24.160  1.00  0.00     0.009 A 
ATOM     17  C   UNL A   1      32.746  18.058  25.441  1.00  0.00     0.029 A 
ATOM     18  C   UNL A   1      33.429  17.751  23.162  1.00  0.00     0.029 A 
ATOM     19  C   UNL A   1      33.110  16.740  25.669  1.00  0.00     0.111 A 
ATOM     20  C   UNL A   1      33.757  16.444  23.486  1.00  0.00     0.111 A 
ATOM     21  N   UNL A   1      33.609  15.920  24.720  1.00  0.00    -0.265 NA
ENDBRANCH  15  16
ENDBRANCH  12  15
ENDBRANCH   8  12
ENDBRANCH   5   8
ENDBRANCH   3   4
ENDBRANCH   2   3
ENDBRANCH   1   2
BRANCH   1  22
ATOM     22  C   UNL A   1      37.345  20.612  24.749  1.00  0.00     0.002 C 
BRANCH  22  23
ATOM     23  C   UNL A   1      38.471  19.631  25.094  1.00  0.00     0.021 C 
BRANCH  23  24
ATOM     24  C   UNL A   1      39.517  20.164  26.070  1.00  0.00     0.116 C 
BRANCH  24  25
ATOM     25  N   UNL A   1      40.676  19.295  26.158  1.00  0.00    -0.352 N 
ATOM     26  C   UNL A   1      42.003  19.616  26.265  1.00  0.00     0.251 C 
ATOM     27  H   UNL A   1      40.480  18.330  26.137  1.00  0.00     0.163 HD
ATOM     28  O   UNL A   1      42.852  18.734  26.134  1.00  0.00    -0.269 OA
BRANCH  26  29
ATOM     29  C   UNL A   1      42.423  21.012  26.518  1.00  0.00     0.039 A 
ATOM     30  C   UNL A   1      42.633  21.418  27.838  1.00  0.00     0.014 A 
ATOM     31  C   UNL A   1      42.583  21.926  25.470  1.00  0.00     0.014 A 
ATOM     32  C   UNL A   1      43.050  22.723  28.104  1.00  0.00     0.010 A 
ATOM     33  C   UNL A   1      43.061  23.209  25.733  1.00  0.00     0.010 A 
ATOM     34  C   UNL A   1      43.294  23.622  27.052  1.00  0.00    -0.014 A 
BRANCH  34  35
ATOM     35  C   UNL A   1      43.817  24.985  27.333  1.00  0.00     0.031 A 
ATOM     36  C   UNL A   1      45.265  25.316  27.100  1.00  0.00     0.074 A 
ATOM     37  C   UNL A   1      42.981  25.917  27.830  1.00  0.00     0.049 A 
ATOM     38  N   UNL A   1      45.888  26.455  27.274  1.00  0.00    -0.248 NA
ATOM     39  C   UNL A   1      46.135  24.224  26.636  1.00  0.00     0.031 C 
ATOM     40  C   UNL A   1      41.570  25.698  28.160  1.00  0.00     0.029 A 
ATOM     41  N   UNL A   1      43.193  27.235  28.147  1.00  0.00    -0.354 N 
ATOM     42  C   UNL A   1      47.218  26.217  26.947  1.00  0.00     0.074 A 
ATOM     43  C   UNL A   1      47.323  24.812  26.613  1.00  0.00     0.031 C 
ATOM     44  C   UNL A   1      41.037  26.847  28.603  1.00  0.00     0.029 A 
ATOM     45  C   UNL A   1      42.071  27.877  28.616  1.00  0.00     0.049 A 
ATOM     46  H   UNL A   1      44.066  27.679  28.048  1.00  0.00     0.167 HD
ATOM     47  C   UNL A   1      48.251  27.093  26.905  1.00  0.00     0.037 A 
ATOM     48  C   UNL A   1      41.893  29.153  29.007  1.00  0.00     0.037 A 
ATOM     49  C   UNL A   1      48.135  28.494  27.218  1.00  0.00     0.049 A 
ATOM     50  C   UNL A   1      43.048  30.112  28.925  1.00  0.00     0.074 A 
ATOM     51  C   UNL A   1      49.107  29.478  27.144  1.00  0.00     0.029 A 
ATOM     52  N   UNL A   1      46.978  29.113  27.671  1.00  0.00    -0.354 N 
ATOM     53  N   UNL A   1      44.281  29.886  28.539  1.00  0.00    -0.248 NA
ATOM     54  C   UNL A   1      42.784  31.501  29.320  1.00  0.00     0.031 C 
ATOM     55  C   UNL A   1      48.549  30.681  27.589  1.00  0.00     0.029 A 
ATOM     56  C   UNL A   1      47.217  30.459  27.898  1.00  0.00     0.049 A 
ATOM     57  H   UNL A   1      46.114  28.662  27.810  1.00  0.00     0.167 HD
ATOM     58  C   UNL A   1      44.937  31.109  28.628  1.00  0.00     0.074 A 
ATOM     59  C   UNL A   1      43.956  32.074  29.083  1.00  0.00     0.031 C 
ATOM     60  C   UNL A   1      46.233  31.405  28.363  1.00  0.00     0.037 A 
BRANCH  47  61
ATOM     61  C   UNL A   1      49.598  26.563  26.498  1.00  0.00     0.058 A 
ATOM     62  C   UNL A   1      50.440  25.908  27.412  1.00  0.00     0.135 A 
ATOM     63  C   UNL A   1      50.042  26.675  25.170  1.00  0.00     0.135 A 
ATOM     64  F   UNL A   1      50.073  25.785  28.698  1.00  0.00    -0.206 F 
ATOM     65  C   UNL A   1      51.681  25.407  27.034  1.00  0.00     0.059 A 
ATOM     66  C   UNL A   1      51.269  26.158  24.762  1.00  0.00     0.059 A 
ATOM     67  F   UNL A   1      49.279  27.291  24.252  1.00  0.00    -0.206 F 
ATOM     68  C   UNL A   1      52.087  25.538  25.704  1.00  0.00     0.060 A 
BRANCH  68  69
ATOM     69  S   UNL A   1      53.698  24.877  25.226  1.00  0.00     0.124 S 
ATOM     70  O   UNL A   1      53.387  23.464  25.035  1.00  0.00    -0.237 OA
ATOM     71  O   UNL A   1      53.997  25.630  24.012  1.00  0.00    -0.237 OA
ATOM     72  O   UNL A   1      54.546  25.184  26.373  1.00  0.00    -0.744 OA
ENDBRANCH  68  69
ENDBRANCH  47  61
BRANCH  48  73
ATOM     73  C   UNL A   1      40.558  29.602  29.482  1.00  0.00     0.058 A 
ATOM     74  C   UNL A   1      40.326  29.872  30.839  1.00  0.00     0.135 A 
ATOM     75  C   UNL A   1      39.494  29.788  28.586  1.00  0.00     0.135 A 
ATOM     76  F   UNL A   1      41.311  29.704  31.733  1.00  0.00    -0.206 F 
ATOM     77  C   UNL A   1      39.081  30.294  31.295  1.00  0.00     0.059 A 
ATOM     78  C   UNL A   1      38.247  30.233  29.015  1.00  0.00     0.059 A 
ATOM     79  F   UNL A   1      39.671  29.563  27.274  1.00  0.00    -0.206 F 
ATOM     80  C   UNL A   1      38.048  30.474  30.373  1.00  0.00     0.060 A 
BRANCH  80  81
ATOM     81  S   UNL A   1      36.451  31.076  30.965  1.00  0.00     0.124 S 
ATOM     82  O   UNL A   1      36.833  32.316  31.630  1.00  0.00    -0.237 OA
ATOM     83  O   UNL A   1      35.697  31.220  29.723  1.00  0.00    -0.237 OA
ATOM     84  O   UNL A   1      35.995  30.002  31.843  1.00  0.00    -0.744 OA
ENDBRANCH  80  81
ENDBRANCH  48  73
BRANCH  60  85
ATOM     85  C   UNL A   1      46.655  32.837  28.547  1.00  0.00     0.058 A 
ATOM     86  C   UNL A   1      47.182  33.298  29.764  1.00  0.00     0.135 A 
ATOM     87  C   UNL A   1      46.537  33.758  27.494  1.00  0.00     0.135 A 
ATOM     88  F   UNL A   1      47.312  32.459  30.805  1.00  0.00    -0.206 F 
ATOM     89  C   UNL A   1      47.535  34.631  29.945  1.00  0.00     0.059 A 
ATOM     90  C   UNL A   1      46.909  35.089  27.643  1.00  0.00     0.059 A 
ATOM     91  F   UNL A   1      46.051  33.366  26.305  1.00  0.00    -0.206 F 
ATOM     92  C   UNL A   1      47.388  35.521  28.880  1.00  0.00     0.060 A 
BRANCH  92  93
ATOM     93  S   UNL A   1      47.839  37.252  29.126  1.00  0.00     0.124 S 
ATOM     94  O   UNL A   1      49.247  37.138  29.489  1.00  0.00    -0.237 OA
ATOM     95  O   UNL A   1      47.567  37.838  27.817  1.00  0.00    -0.237 OA
ATOM     96  O   UNL A   1      46.946  37.685  30.197  1.00  0.00    -0.744 OA
ENDBRANCH  92  93
ENDBRANCH  60  85
ENDBRANCH  34  35
ENDBRANCH  26  29
ENDBRANCH  24  25
ENDBRANCH  23  24
ENDBRANCH  22  23
ENDBRANCH   1  22
TORSDOF 20
ENDMDL
MODEL 3
REMARK VINA RESULT:     -10.4      1.540      3.338
REMARK SMILES CC(C)[C@H]([NH2+]Cc1ccncc1)C(=O)NCCCCCCNC(=O)c1ccc(-c2c3nc(c(-c4c(F)cc(S(=O)(=O)[O-])cc4F)c4ccc([nH]4)c(-c4c(F)cc(S(=O)(=O)[O-])cc4F)c4nc(c(-c5c(F)cc(S(=O)(=O)[O-])cc5F)c5ccc2[nH]5)C=C4)C=C3)cc1
REMARK SMILES IDX 18 1 17 2 16 3 15 4 13 5 14 6 4 8 2 9 1 10 3 11 5 12 6 15
REMARK SMILES IDX 7 16 8 17 12 18 9 19 11 20 10 21 19 22 20 23 21 24 22 25
REMARK SMILES IDX 23 26 24 28 25 29 26 30 90 31 27 32 89 33 28 34 29 35 30 36
REMARK SMILES IDX 83 37 31 38 88 39 82 40 84 41 32 42 87 43 81 44 80 45 33 47
REMARK SMILES IDX 67 48 46 49 66 50 47 51 50 52 65 53 85 54 48 55 49 56 64 58
REMARK SMILES IDX 86 59 51 60 34 61 35 62 44 63 36 64 37 65 43 66 45 67 38 68
REMARK SMILES IDX 39 69 40 70 41 71 42 72 68 73 69 74 78 75 70 76 71 77 77 78
REMARK SMILES IDX 79 79 72 80 73 81 74 82 75 83 76 84 52 85 53 86 62 87 54 88
REMARK SMILES IDX 55 89 61 90 63 91 56 92 57 93 58 94 59 95 60 96
REMARK H PARENT 15 7 5 13 5 14 22 27 84 46 50 57
REMARK Flexibility Score: inf
ROOT
ATOM      1  C   UNL A   1      34.751  30.353  27.280  1.00  0.00     0.002 C 
ENDROOT
BRANCH   1   2
ATOM      2  C   UNL A   1      33.866  29.146  27.602  1.00  0.00     0.021 C 
BRANCH   2   3
ATOM      3  C   UNL A   1      32.406  29.322  27.195  1.00  0.00     0.116 C 
BRANCH   3   4
ATOM      4  N   UNL A   1      31.667  28.092  27.375  1.00  0.00    -0.351 N 
ATOM      5  C   UNL A   1      31.313  27.145  26.460  1.00  0.00     0.278 C 
ATOM      6  O   UNL A   1      30.727  26.141  26.876  1.00  0.00    -0.268 OA
ATOM      7  H   UNL A   1      31.375  27.910  28.297  1.00  0.00     0.163 HD
BRANCH   5   8
ATOM      8  C   UNL A   1      31.655  27.314  24.956  1.00  0.00     0.275 C 
BRANCH   8   9
ATOM      9  C   UNL A   1      30.489  26.915  23.998  1.00  0.00     0.051 C 
ATOM     10  C   UNL A   1      30.269  27.888  22.830  1.00  0.00     0.014 C 
ATOM     11  C   UNL A   1      30.741  25.521  23.402  1.00  0.00     0.014 C 
ENDBRANCH   8   9
BRANCH   8  12
ATOM     12  N   UNL A   1      33.035  26.810  24.700  1.00  0.00    -0.332 N 
ATOM     13  H   UNL A   1      33.631  27.624  24.549  1.00  0.00     0.347 HD
ATOM     14  H   UNL A   1      32.934  26.182  23.903  1.00  0.00     0.347 HD
BRANCH  12  15
ATOM     15  C   UNL A   1      33.665  25.997  25.729  1.00  0.00     0.298 C 
BRANCH  15  16
ATOM     16  C   UNL A   1      34.245  24.721  25.162  1.00  0.00     0.009 A 
ATOM     17  C   UNL A   1      34.727  23.715  26.003  1.00  0.00     0.029 A 
ATOM     18  C   UNL A   1      34.344  24.530  23.779  1.00  0.00     0.029 A 
ATOM     19  C   UNL A   1      35.300  22.589  25.432  1.00  0.00     0.111 A 
ATOM     20  C   UNL A   1      34.928  23.366  23.304  1.00  0.00     0.111 A 
ATOM     21  N   UNL A   1      35.408  22.391  24.101  1.00  0.00    -0.265 NA
ENDBRANCH  15  16
ENDBRANCH  12  15
ENDBRANCH   8  12
ENDBRANCH   5   8
ENDBRANCH   3   4
ENDBRANCH   2   3
ENDBRANCH   1   2
BRANCH   1  22
ATOM     22  C   UNL A   1      34.410  31.632  28.052  1.00  0.00     0.002 C 
BRANCH  22  23
ATOM     23  C   UNL A   1      35.456  32.748  27.969  1.00  0.00     0.021 C 
BRANCH  23  24
ATOM     24  C   UNL A   1      36.495  32.746  29.088  1.00  0.00     0.116 C 
BRANCH  24  25
ATOM     25  N   UNL A   1      36.065  31.963  30.232  1.00  0.00    -0.352 N 
ATOM     26  C   UNL A   1      36.611  30.827  30.769  1.00  0.00     0.251 C 
ATOM     27  H   UNL A   1      35.261  32.298  30.691  1.00  0.00     0.163 HD
ATOM     28  O   UNL A   1      35.987  30.203  31.628  1.00  0.00    -0.269 OA
BRANCH  26  29
ATOM     29  C   UNL A   1      37.930  30.337  30.313  1.00  0.00     0.039 A 
ATOM     30  C   UNL A   1      38.143  30.165  28.944  1.00  0.00     0.014 A 
ATOM     31  C   UNL A   1      38.944  30.021  31.224  1.00  0.00     0.014 A 
ATOM     32  C   UNL A   1      39.385  29.724  28.485  1.00  0.00     0.010 A 
ATOM     33  C   UNL A   1      40.204  29.641  30.761  1.00  0.00     0.010 A 
ATOM     34  C   UNL A   1      40.435  29.485  29.387  1.00  0.00    -0.014 A 
BRANCH  34  35
ATOM     35  C   UNL A   1      41.780  29.095  28.890  1.00  0.00     0.031 A 
ATOM     36  C   UNL A   1      42.893  30.103  28.811  1.00  0.00     0.074 A 
ATOM     37  C   UNL A   1      41.984  27.828  28.479  1.00  0.00     0.049 A 
ATOM     38  N   UNL A   1      44.131  29.934  28.420  1.00  0.00    -0.248 NA
ATOM     39  C   UNL A   1      42.572  31.485  29.197  1.00  0.00     0.031 C 
ATOM     40  C   UNL A   1      40.966  26.775  28.446  1.00  0.00     0.029 A 
ATOM     41  N   UNL A   1      43.115  27.208  28.010  1.00  0.00    -0.354 N 
ATOM     42  C   UNL A   1      44.734  31.183  28.507  1.00  0.00     0.074 A 
ATOM     43  C   UNL A   1      43.711  32.113  28.940  1.00  0.00     0.031 C 
ATOM     44  C   UNL A   1      41.523  25.635  28.011  1.00  0.00     0.029 A 
ATOM     45  C   UNL A   1      42.930  25.879  27.709  1.00  0.00     0.049 A 
ATOM     46  H   UNL A   1      43.977  27.671  27.900  1.00  0.00     0.167 HD
ATOM     47  C   UNL A   1      46.025  31.522  28.273  1.00  0.00     0.037 A 
ATOM     48  C   UNL A   1      43.797  24.958  27.245  1.00  0.00     0.037 A 
ATOM     49  C   UNL A   1      47.042  30.587  27.862  1.00  0.00     0.049 A 
ATOM     50  C   UNL A   1      45.231  25.352  27.019  1.00  0.00     0.074 A 
ATOM     51  C   UNL A   1      48.393  30.818  27.661  1.00  0.00     0.029 A 
ATOM     52  N   UNL A   1      46.822  29.245  27.584  1.00  0.00    -0.354 N 
ATOM     53  N   UNL A   1      45.799  26.522  27.181  1.00  0.00    -0.248 NA
ATOM     54  C   UNL A   1      46.141  24.296  26.558  1.00  0.00     0.031 C 
ATOM     55  C   UNL A   1      48.981  29.625  27.224  1.00  0.00     0.029 A 
ATOM     56  C   UNL A   1      48.007  28.641  27.195  1.00  0.00     0.049 A 
ATOM     57  H   UNL A   1      45.952  28.790  27.654  1.00  0.00     0.167 HD
ATOM     58  C   UNL A   1      47.139  26.341  26.858  1.00  0.00     0.074 A 
ATOM     59  C   UNL A   1      47.299  24.942  26.515  1.00  0.00     0.031 C 
ATOM     60  C   UNL A   1      48.147  27.249  26.843  1.00  0.00     0.037 A 
BRANCH  47  61
ATOM     61  C   UNL A   1      46.414  32.962  28.461  1.00  0.00     0.058 A 
ATOM     62  C   UNL A   1      46.336  33.890  27.409  1.00  0.00     0.135 A 
ATOM     63  C   UNL A   1      46.834  33.433  29.716  1.00  0.00     0.135 A 
ATOM     64  F   UNL A   1      45.955  33.492  26.185  1.00  0.00    -0.206 F 
ATOM     65  C   UNL A   1      46.685  35.225  27.586  1.00  0.00     0.059 A 
ATOM     66  C   UNL A   1      47.162  34.771  29.923  1.00  0.00     0.059 A 
ATOM     67  F   UNL A   1      46.926  32.591  30.757  1.00  0.00    -0.206 F 
ATOM     68  C   UNL A   1      47.098  35.656  28.848  1.00  0.00     0.060 A 
BRANCH  68  69
ATOM     69  S   UNL A   1      47.541  37.393  29.064  1.00  0.00     0.124 S 
ATOM     70  O   UNL A   1      48.605  37.547  28.077  1.00  0.00    -0.237 OA
ATOM     71  O   UNL A   1      46.288  38.075  28.757  1.00  0.00    -0.237 OA
ATOM     72  O   UNL A   1      47.964  37.465  30.459  1.00  0.00    -0.744 OA
ENDBRANCH  68  69
ENDBRANCH  47  61
BRANCH  48  73
ATOM     73  C   UNL A   1      43.337  23.568  26.995  1.00  0.00     0.058 A 
ATOM     74  C   UNL A   1      43.103  23.106  25.691  1.00  0.00     0.135 A 
ATOM     75  C   UNL A   1      43.140  22.667  28.054  1.00  0.00     0.135 A 
ATOM     76  F   UNL A   1      43.273  23.932  24.648  1.00  0.00    -0.206 F 
ATOM     77  C   UNL A   1      42.673  21.806  25.445  1.00  0.00     0.059 A 
ATOM     78  C   UNL A   1      42.734  21.355  27.831  1.00  0.00     0.059 A 
ATOM     79  F   UNL A   1      43.370  23.054  29.318  1.00  0.00    -0.206 F 
ATOM     80  C   UNL A   1      42.493  20.937  26.523  1.00  0.00     0.060 A 
BRANCH  80  81
ATOM     81  S   UNL A   1      41.989  19.234  26.191  1.00  0.00     0.124 S 
ATOM     82  O   UNL A   1      42.883  18.872  25.097  1.00  0.00    -0.237 OA
ATOM     83  O   UNL A   1      42.247  18.582  27.471  1.00  0.00    -0.237 OA
ATOM     84  O   UNL A   1      40.579  19.368  25.838  1.00  0.00    -0.744 OA
ENDBRANCH  80  81
ENDBRANCH  48  73
BRANCH  60  85
ATOM     85  C   UNL A   1      49.510  26.748  26.455  1.00  0.00     0.058 A 
ATOM     86  C   UNL A   1      49.975  26.832  25.133  1.00  0.00     0.135 A 
ATOM     87  C   UNL A   1      50.363  26.181  27.414  1.00  0.00     0.135 A 
ATOM     88  F   UNL A   1      49.196  27.362  24.175  1.00  0.00    -0.206 F 
ATOM     89  C   UNL A   1      51.220  26.333  24.767  1.00  0.00     0.059 A 
ATOM     90  C   UNL A   1      51.624  25.700  27.076  1.00  0.00     0.059 A 
ATOM     91  F   UNL A   1      49.973  26.087  28.695  1.00  0.00    -0.206 F 
ATOM     92  C   UNL A   1      52.035  25.761  25.745  1.00  0.00     0.060 A 
BRANCH  92  93
ATOM     93  S   UNL A   1      53.646  25.106  25.259  1.00  0.00     0.124 S 
ATOM     94  O   UNL A   1      53.806  25.680  23.928  1.00  0.00    -0.237 OA
ATOM     95  O   UNL A   1      54.528  25.641  26.292  1.00  0.00    -0.237 OA
ATOM     96  O   UNL A   1      53.449  23.660  25.302  1.00  0.00    -0.744 OA
ENDBRANCH  92  93
ENDBRANCH  60  85
ENDBRANCH  34  35
ENDBRANCH  26  29
ENDBRANCH  24  25
ENDBRANCH  23  24
ENDBRANCH  22  23
ENDBRANCH   1  22
TORSDOF 20
ENDMDL
