MODEL 1
REMARK VINA RESULT:      -9.8      0.000      0.000
REMARK SMILES C=CCN(CC(=O)NCCCCCCNC(=O)c1ccc(-c2c3nc(c(-c4c(F)cc(S(=O)(=O)[O-])cc4F)c4ccc([nH]4)c(-c4c(F)cc(S(=O)(=O)[O-])cc4F)c4nc(c(-c5c(F)cc(S(=O)(=O)[O-])cc5F)c5ccc2[nH]5)C=C4)C=C3)cc1)C(=O)N1CCC[C@@H]1C(=O)OCC
REMARK SMILES IDX 10 1 9 2 8 3 6 4 7 5 5 7 4 8 3 9 2 10 1 11 84 12 85 13 86 14
REMARK SMILES IDX 87 15 90 16 88 17 89 18 91 19 92 20 93 21 94 22 95 23 11 24
REMARK SMILES IDX 12 25 13 26 14 27 15 28 16 29 17 31 18 32 19 33 83 34 20 35
REMARK SMILES IDX 82 36 21 37 22 38 23 39 76 40 24 41 81 42 75 43 77 44 25 45
REMARK SMILES IDX 80 46 74 47 73 48 26 50 60 51 39 52 59 53 40 54 43 55 58 56
REMARK SMILES IDX 78 57 41 58 42 59 57 61 79 62 44 63 27 64 28 65 37 66 29 67
REMARK SMILES IDX 30 68 36 69 38 70 31 71 32 72 33 73 34 74 35 75 61 76 62 77
REMARK SMILES IDX 71 78 63 79 64 80 70 81 72 82 65 83 66 84 67 85 68 86 69 87
REMARK SMILES IDX 45 88 46 89 55 90 47 91 48 92 54 93 56 94 49 95 50 96 51 97
REMARK SMILES IDX 52 98 53 99
REMARK H PARENT 8 6 15 30 77 49 43 60
REMARK Flexibility Score: inf
ROOT
ATOM      1  C   UNL A   1      40.146  20.771  26.124  1.00  0.00     0.021 C 
ENDROOT
BRANCH   1   2
ATOM      2  C   UNL A   1      38.768  21.323  25.765  1.00  0.00     0.116 C 
BRANCH   2   3
ATOM      3  N   UNL A   1      38.695  22.765  25.784  1.00  0.00    -0.355 N 
ATOM      4  C   UNL A   1      37.658  23.586  26.109  1.00  0.00     0.239 C 
ATOM      5  O   UNL A   1      37.949  24.751  26.404  1.00  0.00    -0.273 OA
ATOM      6  H   UNL A   1      39.523  23.227  25.519  1.00  0.00     0.163 HD
BRANCH   4   7
ATOM      7  C   UNL A   1      36.199  23.101  26.238  1.00  0.00     0.221 C 
BRANCH   7   8
ATOM      8  N   UNL A   1      35.319  23.260  25.075  1.00  0.00    -0.312 N 
BRANCH   8   9
ATOM      9  C   UNL A   1      35.214  22.131  24.153  1.00  0.00     0.149 C 
BRANCH   9  10
ATOM     10  C   UNL A   1      34.815  20.879  24.878  1.00  0.00    -0.013 C 
ATOM     11  C   UNL A   1      35.576  19.776  24.897  1.00  0.00     0.006 C 
ENDBRANCH   9  10
ENDBRANCH   8   9
BRANCH   8  12
ATOM     12  C   UNL A   1      34.435  24.314  24.888  1.00  0.00     0.321 C 
ATOM     13  O   UNL A   1      34.792  25.490  24.957  1.00  0.00    -0.248 OA
BRANCH  12  14
ATOM     14  N   UNL A   1      33.166  24.000  24.455  1.00  0.00    -0.311 N 
ATOM     15  C   UNL A   1      32.101  23.603  25.351  1.00  0.00     0.122 C 
ATOM     16  C   UNL A   1      32.574  24.847  23.414  1.00  0.00     0.197 C 
ATOM     17  C   UNL A   1      30.967  23.301  24.398  1.00  0.00     0.024 C 
ATOM     18  C   UNL A   1      31.098  24.409  23.351  1.00  0.00     0.039 C 
BRANCH  16  19
ATOM     19  C   UNL A   1      33.217  24.744  22.031  1.00  0.00     0.328 C 
ATOM     20  O   UNL A   1      33.551  23.674  21.531  1.00  0.00    -0.250 OA
BRANCH  19  21
ATOM     21  O   UNL A   1      33.529  25.968  21.517  1.00  0.00    -0.464 OA
BRANCH  21  22
ATOM     22  C   UNL A   1      33.072  27.106  22.265  1.00  0.00     0.229 C 
ATOM     23  C   UNL A   1      34.168  28.123  22.553  1.00  0.00     0.049 C 
ENDBRANCH  21  22
ENDBRANCH  19  21
ENDBRANCH  16  19
ENDBRANCH  12  14
ENDBRANCH   8  12
ENDBRANCH   7   8
ENDBRANCH   4   7
ENDBRANCH   2   3
ENDBRANCH   1   2
BRANCH   1  24
ATOM     24  C   UNL A   1      41.151  21.817  26.619  1.00  0.00     0.002 C 
BRANCH  24  25
ATOM     25  C   UNL A   1      41.154  22.074  28.130  1.00  0.00     0.002 C 
BRANCH  25  26
ATOM     26  C   UNL A   1      42.013  23.251  28.600  1.00  0.00     0.021 C 
BRANCH  26  27
ATOM     27  C   UNL A   1      43.085  23.699  27.614  1.00  0.00     0.116 C 
BRANCH  27  28
ATOM     28  N   UNL A   1      42.509  24.274  26.410  1.00  0.00    -0.352 N 
ATOM     29  C   UNL A   1      41.709  25.381  26.266  1.00  0.00     0.251 C 
ATOM     30  H   UNL A   1      42.726  23.800  25.574  1.00  0.00     0.163 HD
ATOM     31  O   UNL A   1      41.151  25.589  25.192  1.00  0.00    -0.269 OA
BRANCH  29  32
ATOM     32  C   UNL A   1      41.507  26.312  27.400  1.00  0.00     0.039 A 
ATOM     33  C   UNL A   1      40.387  26.146  28.219  1.00  0.00     0.014 A 
ATOM     34  C   UNL A   1      42.389  27.371  27.632  1.00  0.00     0.014 A 
ATOM     35  C   UNL A   1      40.172  27.018  29.290  1.00  0.00     0.010 A 
ATOM     36  C   UNL A   1      42.214  28.194  28.743  1.00  0.00     0.010 A 
ATOM     37  C   UNL A   1      41.094  28.039  29.574  1.00  0.00    -0.014 A 
BRANCH  37  38
ATOM     38  C   UNL A   1      40.880  28.981  30.703  1.00  0.00     0.031 A 
ATOM     39  C   UNL A   1      41.723  28.864  31.947  1.00  0.00     0.074 A 
ATOM     40  C   UNL A   1      39.901  29.905  30.634  1.00  0.00     0.049 A 
ATOM     41  N   UNL A   1      41.641  29.534  33.068  1.00  0.00    -0.248 NA
ATOM     42  C   UNL A   1      42.778  27.836  31.941  1.00  0.00     0.031 C 
ATOM     43  C   UNL A   1      38.991  30.091  29.501  1.00  0.00     0.029 A 
ATOM     44  N   UNL A   1      39.499  30.854  31.541  1.00  0.00    -0.354 N 
ATOM     45  C   UNL A   1      42.616  28.999  33.902  1.00  0.00     0.074 A 
ATOM     46  C   UNL A   1      43.244  27.914  33.179  1.00  0.00     0.031 C 
ATOM     47  C   UNL A   1      38.149  31.102  29.775  1.00  0.00     0.029 A 
ATOM     48  C   UNL A   1      38.434  31.612  31.113  1.00  0.00     0.049 A 
ATOM     49  H   UNL A   1      39.931  30.979  32.416  1.00  0.00     0.167 HD
ATOM     50  C   UNL A   1      42.975  29.390  35.148  1.00  0.00     0.037 A 
ATOM     51  C   UNL A   1      37.760  32.601  31.731  1.00  0.00     0.037 A 
ATOM     52  C   UNL A   1      42.374  30.496  35.848  1.00  0.00     0.049 A 
ATOM     53  C   UNL A   1      38.188  33.030  33.111  1.00  0.00     0.074 A 
ATOM     54  C   UNL A   1      42.703  31.009  37.090  1.00  0.00     0.029 A 
ATOM     55  N   UNL A   1      41.326  31.265  35.363  1.00  0.00    -0.354 N 
ATOM     56  N   UNL A   1      39.149  32.548  33.863  1.00  0.00    -0.248 NA
ATOM     57  C   UNL A   1      37.449  34.143  33.722  1.00  0.00     0.031 C 
ATOM     58  C   UNL A   1      41.829  32.062  37.375  1.00  0.00     0.029 A 
ATOM     59  C   UNL A   1      40.988  32.239  36.287  1.00  0.00     0.049 A 
ATOM     60  H   UNL A   1      40.886  31.136  34.492  1.00  0.00     0.167 HD
ATOM     61  C   UNL A   1      39.153  33.322  35.018  1.00  0.00     0.074 A 
ATOM     62  C   UNL A   1      38.104  34.308  34.862  1.00  0.00     0.031 C 
ATOM     63  C   UNL A   1      39.955  33.228  36.107  1.00  0.00     0.037 A 
BRANCH  50  64
ATOM     64  C   UNL A   1      44.075  28.629  35.836  1.00  0.00     0.058 A 
ATOM     65  C   UNL A   1      45.426  28.972  35.667  1.00  0.00     0.135 A 
ATOM     66  C   UNL A   1      43.773  27.577  36.715  1.00  0.00     0.135 A 
ATOM     67  F   UNL A   1      45.773  29.959  34.825  1.00  0.00    -0.206 F 
ATOM     68  C   UNL A   1      46.439  28.286  36.328  1.00  0.00     0.059 A 
ATOM     69  C   UNL A   1      44.769  26.895  37.409  1.00  0.00     0.059 A 
ATOM     70  F   UNL A   1      42.498  27.204  36.912  1.00  0.00    -0.206 F 
ATOM     71  C   UNL A   1      46.101  27.251  37.200  1.00  0.00     0.060 A 
BRANCH  71  72
ATOM     72  S   UNL A   1      47.427  26.388  38.069  1.00  0.00     0.124 S 
ATOM     73  O   UNL A   1      47.653  25.243  37.192  1.00  0.00    -0.237 OA
ATOM     74  O   UNL A   1      48.490  27.389  38.089  1.00  0.00    -0.237 OA
ATOM     75  O   UNL A   1      46.838  26.077  39.367  1.00  0.00    -0.744 OA
ENDBRANCH  71  72
ENDBRANCH  50  64
BRANCH  51  76
ATOM     76  C   UNL A   1      36.622  33.274  31.048  1.00  0.00     0.058 A 
ATOM     77  C   UNL A   1      36.834  34.103  29.936  1.00  0.00     0.135 A 
ATOM     78  C   UNL A   1      35.303  33.111  31.498  1.00  0.00     0.135 A 
ATOM     79  F   UNL A   1      38.077  34.295  29.471  1.00  0.00    -0.206 F 
ATOM     80  C   UNL A   1      35.784  34.770  29.311  1.00  0.00     0.059 A 
ATOM     81  C   UNL A   1      34.233  33.744  30.872  1.00  0.00     0.059 A 
ATOM     82  F   UNL A   1      35.042  32.313  32.545  1.00  0.00    -0.206 F 
ATOM     83  C   UNL A   1      34.486  34.585  29.789  1.00  0.00     0.060 A 
BRANCH  83  84
ATOM     84  S   UNL A   1      33.126  35.432  28.955  1.00  0.00     0.124 S 
ATOM     85  O   UNL A   1      32.637  34.390  28.060  1.00  0.00    -0.237 OA
ATOM     86  O   UNL A   1      32.253  35.781  30.070  1.00  0.00    -0.237 OA
ATOM     87  O   UNL A   1      33.785  36.564  28.308  1.00  0.00    -0.744 OA
ENDBRANCH  83  84
ENDBRANCH  51  76
BRANCH  63  88
ATOM     88  C   UNL A   1      39.772  34.250  37.196  1.00  0.00     0.058 A 
ATOM     89  C   UNL A   1      38.930  34.023  38.295  1.00  0.00     0.135 A 
ATOM     90  C   UNL A   1      40.494  35.455  37.160  1.00  0.00     0.135 A 
ATOM     91  F   UNL A   1      38.215  32.890  38.374  1.00  0.00    -0.206 F 
ATOM     92  C   UNL A   1      38.789  34.965  39.307  1.00  0.00     0.059 A 
ATOM     93  C   UNL A   1      40.390  36.399  38.176  1.00  0.00     0.059 A 
ATOM     94  F   UNL A   1      41.323  35.717  36.137  1.00  0.00    -0.206 F 
ATOM     95  C   UNL A   1      39.525  36.150  39.240  1.00  0.00     0.060 A 
BRANCH  95  96
ATOM     96  S   UNL A   1      39.356  37.353  40.575  1.00  0.00     0.124 S 
ATOM     97  O   UNL A   1      38.306  38.223  40.056  1.00  0.00    -0.237 OA
ATOM     98  O   UNL A   1      38.981  36.512  41.708  1.00  0.00    -0.237 OA
ATOM     99  O   UNL A   1      40.684  37.954  40.662  1.00  0.00    -0.744 OA
ENDBRANCH  95  96
ENDBRANCH  63  88
ENDBRANCH  37  38
ENDBRANCH  29  32
ENDBRANCH  27  28
ENDBRANCH  26  27
ENDBRANCH  25  26
ENDBRANCH  24  25
ENDBRANCH   1  24
TORSDOF 24
ENDMDL
MODEL 2
REMARK VINA RESULT:      -9.4      6.304     11.983
REMARK SMILES C=CCN(CC(=O)NCCCCCCNC(=O)c1ccc(-c2c3nc(c(-c4c(F)cc(S(=O)(=O)[O-])cc4F)c4ccc([nH]4)c(-c4c(F)cc(S(=O)(=O)[O-])cc4F)c4nc(c(-c5c(F)cc(S(=O)(=O)[O-])cc5F)c5ccc2[nH]5)C=C4)C=C3)cc1)C(=O)N1CCC[C@@H]1C(=O)OCC
REMARK SMILES IDX 10 1 9 2 8 3 6 4 7 5 5 7 4 8 3 9 2 10 1 11 84 12 85 13 86 14
REMARK SMILES IDX 87 15 90 16 88 17 89 18 91 19 92 20 93 21 94 22 95 23 11 24
REMARK SMILES IDX 12 25 13 26 14 27 15 28 16 29 17 31 18 32 19 33 83 34 20 35
REMARK SMILES IDX 82 36 21 37 22 38 23 39 76 40 24 41 81 42 75 43 77 44 25 45
REMARK SMILES IDX 80 46 74 47 73 48 26 50 60 51 39 52 59 53 40 54 43 55 58 56
REMARK SMILES IDX 78 57 41 58 42 59 57 61 79 62 44 63 27 64 28 65 37 66 29 67
REMARK SMILES IDX 30 68 36 69 38 70 31 71 32 72 33 73 34 74 35 75 61 76 62 77
REMARK SMILES IDX 71 78 63 79 64 80 70 81 72 82 65 83 66 84 67 85 68 86 69 87
REMARK SMILES IDX 45 88 46 89 55 90 47 91 48 92 54 93 56 94 49 95 50 96 51 97
REMARK SMILES IDX 52 98 53 99
REMARK H PARENT 8 6 15 30 77 49 43 60
REMARK Flexibility Score: inf
ROOT
ATOM      1  C   UNL A   1      34.545  29.735  27.316  1.00  0.00     0.021 C 
ENDROOT
BRANCH   1   2
ATOM      2  C   UNL A   1      33.451  28.687  27.117  1.00  0.00     0.116 C 
BRANCH   2   3
ATOM      3  N   UNL A   1      32.638  28.909  25.944  1.00  0.00    -0.355 N 
ATOM      4  C   UNL A   1      31.947  28.022  25.176  1.00  0.00     0.239 C 
ATOM      5  O   UNL A   1      31.046  28.490  24.469  1.00  0.00    -0.273 OA
ATOM      6  H   UNL A   1      32.575  29.848  25.654  1.00  0.00     0.163 HD
BRANCH   4   7
ATOM      7  C   UNL A   1      32.156  26.496  25.244  1.00  0.00     0.221 C 
BRANCH   7   8
ATOM      8  N   UNL A   1      31.460  25.663  24.257  1.00  0.00    -0.312 N 
BRANCH   8   9
ATOM      9  C   UNL A   1      31.073  26.296  22.998  1.00  0.00     0.149 C 
BRANCH   9  10
ATOM     10  C   UNL A   1      32.075  26.007  21.919  1.00  0.00    -0.013 C 
ATOM     11  C   UNL A   1      33.357  26.391  21.995  1.00  0.00     0.006 C 
ENDBRANCH   9  10
ENDBRANCH   8   9
BRANCH   8  12
ATOM     12  C   UNL A   1      31.315  24.285  24.343  1.00  0.00     0.321 C 
ATOM     13  O   UNL A   1      30.775  23.625  23.455  1.00  0.00    -0.248 OA
BRANCH  12  14
ATOM     14  N   UNL A   1      31.947  23.651  25.390  1.00  0.00    -0.311 N 
ATOM     15  C   UNL A   1      31.282  23.325  26.633  1.00  0.00     0.122 C 
ATOM     16  C   UNL A   1      32.848  22.540  25.066  1.00  0.00     0.197 C 
ATOM     17  C   UNL A   1      32.401  22.727  27.456  1.00  0.00     0.024 C 
ATOM     18  C   UNL A   1      33.171  21.895  26.429  1.00  0.00     0.039 C 
BRANCH  16  19
ATOM     19  C   UNL A   1      34.139  22.924  24.343  1.00  0.00     0.328 C 
ATOM     20  O   UNL A   1      34.357  22.631  23.172  1.00  0.00    -0.250 OA
BRANCH  19  21
ATOM     21  O   UNL A   1      35.064  23.457  25.192  1.00  0.00    -0.464 OA
BRANCH  21  22
ATOM     22  C   UNL A   1      36.381  22.887  25.136  1.00  0.00     0.229 C 
ATOM     23  C   UNL A   1      37.419  23.675  25.923  1.00  0.00     0.049 C 
ENDBRANCH  21  22
ENDBRANCH  19  21
ENDBRANCH  16  19
ENDBRANCH  12  14
ENDBRANCH   8  12
ENDBRANCH   7   8
ENDBRANCH   4   7
ENDBRANCH   2   3
ENDBRANCH   1   2
BRANCH   1  24
ATOM     24  C   UNL A   1      34.056  31.187  27.304  1.00  0.00     0.002 C 
BRANCH  24  25
ATOM     25  C   UNL A   1      34.437  32.027  28.529  1.00  0.00     0.002 C 
BRANCH  25  26
ATOM     26  C   UNL A   1      35.637  32.961  28.345  1.00  0.00     0.021 C 
BRANCH  26  27
ATOM     27  C   UNL A   1      36.519  33.125  29.576  1.00  0.00     0.116 C 
BRANCH  27  28
ATOM     28  N   UNL A   1      36.095  32.262  30.666  1.00  0.00    -0.352 N 
ATOM     29  C   UNL A   1      36.646  31.087  31.114  1.00  0.00     0.251 C 
ATOM     30  H   UNL A   1      35.297  32.566  31.156  1.00  0.00     0.163 HD
ATOM     31  O   UNL A   1      36.024  30.394  31.916  1.00  0.00    -0.269 OA
BRANCH  29  32
ATOM     32  C   UNL A   1      37.973  30.647  30.627  1.00  0.00     0.039 A 
ATOM     33  C   UNL A   1      38.160  30.452  29.255  1.00  0.00     0.014 A 
ATOM     34  C   UNL A   1      39.019  30.383  31.517  1.00  0.00     0.014 A 
ATOM     35  C   UNL A   1      39.402  30.030  28.774  1.00  0.00     0.010 A 
ATOM     36  C   UNL A   1      40.277  30.034  31.029  1.00  0.00     0.010 A 
ATOM     37  C   UNL A   1      40.478  29.835  29.655  1.00  0.00    -0.014 A 
BRANCH  37  38
ATOM     38  C   UNL A   1      41.805  29.379  29.164  1.00  0.00     0.031 A 
ATOM     39  C   UNL A   1      42.945  30.360  29.064  1.00  0.00     0.074 A 
ATOM     40  C   UNL A   1      41.972  28.103  28.763  1.00  0.00     0.049 A 
ATOM     41  N   UNL A   1      44.150  30.181  28.590  1.00  0.00    -0.248 NA
ATOM     42  C   UNL A   1      42.684  31.732  29.532  1.00  0.00     0.031 C 
ATOM     43  C   UNL A   1      40.935  27.069  28.772  1.00  0.00     0.029 A 
ATOM     44  N   UNL A   1      43.076  27.461  28.256  1.00  0.00    -0.354 N 
ATOM     45  C   UNL A   1      44.783  31.416  28.684  1.00  0.00     0.074 A 
ATOM     46  C   UNL A   1      43.813  32.349  29.213  1.00  0.00     0.031 C 
ATOM     47  C   UNL A   1      41.456  25.920  28.309  1.00  0.00     0.029 A 
ATOM     48  C   UNL A   1      42.851  26.142  27.938  1.00  0.00     0.049 A 
ATOM     49  H   UNL A   1      43.946  27.903  28.132  1.00  0.00     0.167 HD
ATOM     50  C   UNL A   1      46.063  31.738  28.382  1.00  0.00     0.037 A 
ATOM     51  C   UNL A   1      43.672  25.219  27.402  1.00  0.00     0.037 A 
ATOM     52  C   UNL A   1      47.037  30.796  27.894  1.00  0.00     0.049 A 
ATOM     53  C   UNL A   1      45.097  25.598  27.089  1.00  0.00     0.074 A 
ATOM     54  C   UNL A   1      48.375  31.010  27.610  1.00  0.00     0.029 A 
ATOM     55  N   UNL A   1      46.779  29.460  27.622  1.00  0.00    -0.354 N 
ATOM     56  N   UNL A   1      45.693  26.758  27.237  1.00  0.00    -0.248 NA
ATOM     57  C   UNL A   1      45.963  24.542  26.548  1.00  0.00     0.031 C 
ATOM     58  C   UNL A   1      48.917  29.814  27.131  1.00  0.00     0.029 A 
ATOM     59  C   UNL A   1      47.930  28.841  27.164  1.00  0.00     0.049 A 
ATOM     60  H   UNL A   1      45.908  29.018  27.738  1.00  0.00     0.167 HD
ATOM     61  C   UNL A   1      47.011  26.561  26.842  1.00  0.00     0.074 A 
ATOM     62  C   UNL A   1      47.127  25.169  26.456  1.00  0.00     0.031 C 
ATOM     63  C   UNL A   1      48.035  27.449  26.806  1.00  0.00     0.037 A 
BRANCH  50  64
ATOM     64  C   UNL A   1      46.495  33.165  28.580  1.00  0.00     0.058 A 
ATOM     65  C   UNL A   1      47.032  33.611  29.798  1.00  0.00     0.135 A 
ATOM     66  C   UNL A   1      46.418  34.088  27.523  1.00  0.00     0.135 A 
ATOM     67  F   UNL A   1      47.113  32.777  30.847  1.00  0.00    -0.206 F 
ATOM     68  C   UNL A   1      47.459  34.924  29.968  1.00  0.00     0.059 A 
ATOM     69  C   UNL A   1      46.865  35.399  27.663  1.00  0.00     0.059 A 
ATOM     70  F   UNL A   1      45.910  33.717  26.337  1.00  0.00    -0.206 F 
ATOM     71  C   UNL A   1      47.374  35.810  28.894  1.00  0.00     0.060 A 
BRANCH  71  72
ATOM     72  S   UNL A   1      47.956  37.503  29.125  1.00  0.00     0.124 S 
ATOM     73  O   UNL A   1      47.700  37.707  30.548  1.00  0.00    -0.237 OA
ATOM     74  O   UNL A   1      49.362  37.405  28.743  1.00  0.00    -0.237 OA
ATOM     75  O   UNL A   1      47.116  38.279  28.219  1.00  0.00    -0.744 OA
ENDBRANCH  71  72
ENDBRANCH  50  64
BRANCH  51  76
ATOM     76  C   UNL A   1      43.182  23.838  27.144  1.00  0.00     0.058 A 
ATOM     77  C   UNL A   1      43.080  22.900  28.183  1.00  0.00     0.135 A 
ATOM     78  C   UNL A   1      42.814  23.424  25.854  1.00  0.00     0.135 A 
ATOM     79  F   UNL A   1      43.424  23.245  29.433  1.00  0.00    -0.206 F 
ATOM     80  C   UNL A   1      42.660  21.594  27.950  1.00  0.00     0.059 A 
ATOM     81  C   UNL A   1      42.364  22.132  25.601  1.00  0.00     0.059 A 
ATOM     82  F   UNL A   1      42.873  24.287  24.828  1.00  0.00    -0.206 F 
ATOM     83  C   UNL A   1      42.306  21.219  26.653  1.00  0.00     0.060 A 
BRANCH  83  84
ATOM     84  S   UNL A   1      41.737  19.530  26.364  1.00  0.00     0.124 S 
ATOM     85  O   UNL A   1      42.436  19.193  25.129  1.00  0.00    -0.237 OA
ATOM     86  O   UNL A   1      42.193  18.842  27.567  1.00  0.00    -0.237 OA
ATOM     87  O   UNL A   1      40.288  19.680  26.250  1.00  0.00    -0.744 OA
ENDBRANCH  83  84
ENDBRANCH  51  76
BRANCH  63  88
ATOM     88  C   UNL A   1      49.386  26.937  26.387  1.00  0.00     0.058 A 
ATOM     89  C   UNL A   1      50.235  26.265  27.280  1.00  0.00     0.135 A 
ATOM     90  C   UNL A   1      49.812  27.078  25.056  1.00  0.00     0.135 A 
ATOM     91  F   UNL A   1      49.876  26.108  28.564  1.00  0.00    -0.206 F 
ATOM     92  C   UNL A   1      51.471  25.773  26.874  1.00  0.00     0.059 A 
ATOM     93  C   UNL A   1      51.031  26.569  24.622  1.00  0.00     0.059 A 
ATOM     94  F   UNL A   1      49.033  27.702  24.159  1.00  0.00    -0.206 F 
ATOM     95  C   UNL A   1      51.860  25.929  25.543  1.00  0.00     0.060 A 
BRANCH  95  96
ATOM     96  S   UNL A   1      53.454  25.261  25.021  1.00  0.00     0.124 S 
ATOM     97  O   UNL A   1      54.373  25.976  25.899  1.00  0.00    -0.237 OA
ATOM     98  O   UNL A   1      53.298  23.835  25.291  1.00  0.00    -0.237 OA
ATOM     99  O   UNL A   1      53.527  25.620  23.607  1.00  0.00    -0.744 OA
ENDBRANCH  95  96
ENDBRANCH  63  88
ENDBRANCH  37  38
ENDBRANCH  29  32
ENDBRANCH  27  28
ENDBRANCH  26  27
ENDBRANCH  25  26
ENDBRANCH  24  25
ENDBRANCH   1  24
TORSDOF 24
ENDMDL
MODEL 3
REMARK VINA RESULT:      -8.7      1.976      8.271
REMARK SMILES C=CCN(CC(=O)NCCCCCCNC(=O)c1ccc(-c2c3nc(c(-c4c(F)cc(S(=O)(=O)[O-])cc4F)c4ccc([nH]4)c(-c4c(F)cc(S(=O)(=O)[O-])cc4F)c4nc(c(-c5c(F)cc(S(=O)(=O)[O-])cc5F)c5ccc2[nH]5)C=C4)C=C3)cc1)C(=O)N1CCC[C@@H]1C(=O)OCC
REMARK SMILES IDX 10 1 9 2 8 3 6 4 7 5 5 7 4 8 3 9 2 10 1 11 84 12 85 13 86 14
REMARK SMILES IDX 87 15 90 16 88 17 89 18 91 19 92 20 93 21 94 22 95 23 11 24
REMARK SMILES IDX 12 25 13 26 14 27 15 28 16 29 17 31 18 32 19 33 83 34 20 35
REMARK SMILES IDX 82 36 21 37 22 38 23 39 76 40 24 41 81 42 75 43 77 44 25 45
REMARK SMILES IDX 80 46 74 47 73 48 26 50 60 51 39 52 59 53 40 54 43 55 58 56
REMARK SMILES IDX 78 57 41 58 42 59 57 61 79 62 44 63 27 64 28 65 37 66 29 67
REMARK SMILES IDX 30 68 36 69 38 70 31 71 32 72 33 73 34 74 35 75 61 76 62 77
REMARK SMILES IDX 71 78 63 79 64 80 70 81 72 82 65 83 66 84 67 85 68 86 69 87
REMARK SMILES IDX 45 88 46 89 55 90 47 91 48 92 54 93 56 94 49 95 50 96 51 97
REMARK SMILES IDX 52 98 53 99
REMARK H PARENT 8 6 15 30 77 49 43 60
REMARK Flexibility Score: inf
ROOT
ATOM      1  C   UNL A   1      39.062  23.093  26.450  1.00  0.00     0.021 C 
ENDROOT
BRANCH   1   2
ATOM      2  C   UNL A   1      37.817  22.534  25.764  1.00  0.00     0.116 C 
BRANCH   2   3
ATOM      3  N   UNL A   1      36.579  22.908  26.406  1.00  0.00    -0.355 N 
ATOM      4  C   UNL A   1      35.292  22.645  26.047  1.00  0.00     0.239 C 
ATOM      5  O   UNL A   1      34.440  22.747  26.939  1.00  0.00    -0.273 OA
ATOM      6  H   UNL A   1      36.682  23.435  27.230  1.00  0.00     0.163 HD
BRANCH   4   7
ATOM      7  C   UNL A   1      34.887  22.126  24.653  1.00  0.00     0.221 C 
BRANCH   7   8
ATOM      8  N   UNL A   1      33.552  21.537  24.501  1.00  0.00    -0.312 N 
BRANCH   8   9
ATOM      9  C   UNL A   1      33.295  20.270  25.184  1.00  0.00     0.149 C 
BRANCH   9  10
ATOM     10  C   UNL A   1      33.255  19.131  24.208  1.00  0.00    -0.013 C 
ATOM     11  C   UNL A   1      33.048  17.860  24.581  1.00  0.00     0.006 C 
ENDBRANCH   9  10
ENDBRANCH   8   9
BRANCH   8  12
ATOM     12  C   UNL A   1      32.463  22.178  23.926  1.00  0.00     0.321 C 
ATOM     13  O   UNL A   1      32.060  21.900  22.796  1.00  0.00    -0.248 OA
BRANCH  12  14
ATOM     14  N   UNL A   1      31.738  23.029  24.730  1.00  0.00    -0.311 N 
ATOM     15  C   UNL A   1      31.189  22.630  26.008  1.00  0.00     0.122 C 
ATOM     16  C   UNL A   1      32.219  24.408  24.866  1.00  0.00     0.197 C 
ATOM     17  C   UNL A   1      30.438  23.869  26.442  1.00  0.00     0.024 C 
ATOM     18  C   UNL A   1      31.371  25.002  26.009  1.00  0.00     0.039 C 
BRANCH  16  19
ATOM     19  C   UNL A   1      32.102  25.276  23.615  1.00  0.00     0.328 C 
ATOM     20  O   UNL A   1      31.179  25.168  22.813  1.00  0.00    -0.250 OA
BRANCH  19  21
ATOM     21  O   UNL A   1      33.215  26.038  23.412  1.00  0.00    -0.464 OA
BRANCH  21  22
ATOM     22  C   UNL A   1      33.001  27.451  23.273  1.00  0.00     0.229 C 
ATOM     23  C   UNL A   1      33.906  28.104  22.237  1.00  0.00     0.049 C 
ENDBRANCH  21  22
ENDBRANCH  19  21
ENDBRANCH  16  19
ENDBRANCH  12  14
ENDBRANCH   8  12
ENDBRANCH   7   8
ENDBRANCH   4   7
ENDBRANCH   2   3
ENDBRANCH   1   2
BRANCH   1  24
ATOM     24  C   UNL A   1      38.888  24.487  27.063  1.00  0.00     0.002 C 
BRANCH  24  25
ATOM     25  C   UNL A   1      39.940  25.527  26.659  1.00  0.00     0.002 C 
BRANCH  25  26
ATOM     26  C   UNL A   1      41.377  25.008  26.552  1.00  0.00     0.021 C 
BRANCH  26  27
ATOM     27  C   UNL A   1      42.279  25.803  25.616  1.00  0.00     0.116 C 
BRANCH  27  28
ATOM     28  N   UNL A   1      43.680  25.455  25.786  1.00  0.00    -0.352 N 
ATOM     29  C   UNL A   1      44.605  25.961  26.665  1.00  0.00     0.251 C 
ATOM     30  H   UNL A   1      44.013  24.752  25.183  1.00  0.00     0.163 HD
ATOM     31  O   UNL A   1      45.793  25.687  26.518  1.00  0.00    -0.269 OA
BRANCH  29  32
ATOM     32  C   UNL A   1      44.179  26.843  27.776  1.00  0.00     0.039 A 
ATOM     33  C   UNL A   1      43.627  26.265  28.924  1.00  0.00     0.014 A 
ATOM     34  C   UNL A   1      44.281  28.233  27.677  1.00  0.00     0.014 A 
ATOM     35  C   UNL A   1      43.212  27.078  29.982  1.00  0.00     0.010 A 
ATOM     36  C   UNL A   1      43.935  29.037  28.761  1.00  0.00     0.010 A 
ATOM     37  C   UNL A   1      43.379  28.471  29.918  1.00  0.00    -0.014 A 
BRANCH  37  38
ATOM     38  C   UNL A   1      42.937  29.354  31.029  1.00  0.00     0.031 A 
ATOM     39  C   UNL A   1      41.629  30.095  30.922  1.00  0.00     0.074 A 
ATOM     40  C   UNL A   1      43.728  29.530  32.106  1.00  0.00     0.049 A 
ATOM     41  N   UNL A   1      41.104  30.969  31.741  1.00  0.00    -0.248 NA
ATOM     42  C   UNL A   1      40.818  29.841  29.719  1.00  0.00     0.031 C 
ATOM     43  C   UNL A   1      45.036  28.902  32.308  1.00  0.00     0.029 A 
ATOM     44  N   UNL A   1      43.554  30.300  33.229  1.00  0.00    -0.354 N 
ATOM     45  C   UNL A   1      39.916  31.381  31.147  1.00  0.00     0.074 A 
ATOM     46  C   UNL A   1      39.821  30.701  29.874  1.00  0.00     0.031 C 
ATOM     47  C   UNL A   1      45.536  29.300  33.490  1.00  0.00     0.029 A 
ATOM     48  C   UNL A   1      44.605  30.236  34.114  1.00  0.00     0.049 A 
ATOM     49  H   UNL A   1      42.751  30.849  33.387  1.00  0.00     0.167 HD
ATOM     50  C   UNL A   1      38.976  32.230  31.628  1.00  0.00     0.037 A 
ATOM     51  C   UNL A   1      44.800  30.864  35.289  1.00  0.00     0.037 A 
ATOM     52  C   UNL A   1      39.056  32.873  32.914  1.00  0.00     0.049 A 
ATOM     53  C   UNL A   1      43.732  31.792  35.810  1.00  0.00     0.074 A 
ATOM     54  C   UNL A   1      38.130  33.706  33.518  1.00  0.00     0.029 A 
ATOM     55  N   UNL A   1      40.119  32.750  33.797  1.00  0.00    -0.354 N 
ATOM     56  N   UNL A   1      42.590  32.127  35.259  1.00  0.00    -0.248 NA
ATOM     57  C   UNL A   1      43.974  32.417  37.118  1.00  0.00     0.031 C 
ATOM     58  C   UNL A   1      38.650  34.118  34.748  1.00  0.00     0.029 A 
ATOM     59  C   UNL A   1      39.877  33.501  34.935  1.00  0.00     0.049 A 
ATOM     60  H   UNL A   1      40.926  32.209  33.637  1.00  0.00     0.167 HD
ATOM     61  C   UNL A   1      41.962  32.971  36.168  1.00  0.00     0.074 A 
ATOM     62  C   UNL A   1      42.849  33.090  37.307  1.00  0.00     0.031 C 
ATOM     63  C   UNL A   1      40.760  33.590  36.070  1.00  0.00     0.037 A 
BRANCH  50  64
ATOM     64  C   UNL A   1      37.772  32.506  30.770  1.00  0.00     0.058 A 
ATOM     65  C   UNL A   1      36.569  31.802  30.938  1.00  0.00     0.135 A 
ATOM     66  C   UNL A   1      37.805  33.523  29.801  1.00  0.00     0.135 A 
ATOM     67  F   UNL A   1      36.487  30.809  31.838  1.00  0.00    -0.206 F 
ATOM     68  C   UNL A   1      35.448  32.081  30.164  1.00  0.00     0.059 A 
ATOM     69  C   UNL A   1      36.686  33.839  29.034  1.00  0.00     0.059 A 
ATOM     70  F   UNL A   1      38.930  34.226  29.596  1.00  0.00    -0.206 F 
ATOM     71  C   UNL A   1      35.515  33.103  29.216  1.00  0.00     0.060 A 
BRANCH  71  72
ATOM     72  S   UNL A   1      34.042  33.469  28.238  1.00  0.00     0.124 S 
ATOM     73  O   UNL A   1      34.578  34.391  27.240  1.00  0.00    -0.237 OA
ATOM     74  O   UNL A   1      33.663  32.150  27.741  1.00  0.00    -0.237 OA
ATOM     75  O   UNL A   1      33.126  34.058  29.208  1.00  0.00    -0.744 OA
ENDBRANCH  71  72
ENDBRANCH  50  64
BRANCH  51  76
ATOM     76  C   UNL A   1      46.045  30.627  36.069  1.00  0.00     0.058 A 
ATOM     77  C   UNL A   1      47.191  31.407  35.858  1.00  0.00     0.135 A 
ATOM     78  C   UNL A   1      46.117  29.609  37.033  1.00  0.00     0.135 A 
ATOM     79  F   UNL A   1      47.174  32.389  34.943  1.00  0.00    -0.206 F 
ATOM     80  C   UNL A   1      48.374  31.171  36.552  1.00  0.00     0.059 A 
ATOM     81  C   UNL A   1      47.279  29.372  37.761  1.00  0.00     0.059 A 
ATOM     82  F   UNL A   1      45.043  28.846  37.289  1.00  0.00    -0.206 F 
ATOM     83  C   UNL A   1      48.408  30.148  37.501  1.00  0.00     0.060 A 
BRANCH  83  84
ATOM     84  S   UNL A   1      49.939  29.866  38.416  1.00  0.00     0.124 S 
ATOM     85  O   UNL A   1      50.683  31.085  38.124  1.00  0.00    -0.237 OA
ATOM     86  O   UNL A   1      49.456  29.722  39.785  1.00  0.00    -0.237 OA
ATOM     87  O   UNL A   1      50.467  28.644  37.815  1.00  0.00    -0.744 OA
ENDBRANCH  83  84
ENDBRANCH  51  76
BRANCH  63  88
ATOM     88  C   UNL A   1      40.301  34.407  37.247  1.00  0.00     0.058 A 
ATOM     89  C   UNL A   1      39.529  33.853  38.280  1.00  0.00     0.135 A 
ATOM     90  C   UNL A   1      40.686  35.753  37.364  1.00  0.00     0.135 A 
ATOM     91  F   UNL A   1      39.132  32.573  38.214  1.00  0.00    -0.206 F 
ATOM     92  C   UNL A   1      39.133  34.613  39.376  1.00  0.00     0.059 A 
ATOM     93  C   UNL A   1      40.325  36.522  38.465  1.00  0.00     0.059 A 
ATOM     94  F   UNL A   1      41.434  36.328  36.410  1.00  0.00    -0.206 F 
ATOM     95  C   UNL A   1      39.536  35.946  39.460  1.00  0.00     0.060 A 
BRANCH  95  96
ATOM     96  S   UNL A   1      39.040  36.914  40.901  1.00  0.00     0.124 S 
ATOM     97  O   UNL A   1      38.117  35.999  41.564  1.00  0.00    -0.237 OA
ATOM     98  O   UNL A   1      40.312  37.135  41.582  1.00  0.00    -0.237 OA
ATOM     99  O   UNL A   1      38.433  38.106  40.317  1.00  0.00    -0.744 OA
ENDBRANCH  95  96
ENDBRANCH  63  88
ENDBRANCH  37  38
ENDBRANCH  29  32
ENDBRANCH  27  28
ENDBRANCH  26  27
ENDBRANCH  25  26
ENDBRANCH  24  25
ENDBRANCH   1  24
TORSDOF 24
ENDMDL
