MODEL 1
REMARK VINA RESULT:     -10.9      0.000      0.000
REMARK SMILES CC[C@@](C)(C(=O)NCCCCCCNC(=O)c1ccc(-c2c3nc(c(-c4c(F)cc(S(=O)(=O)[O-])cc4F)c4ccc([nH]4)c(-c4c(F)cc(S(=O)(=O)[O-])cc4F)c4nc(c(-c5c(F)cc(S(=O)(=O)[O-])cc5F)c5ccc2[nH]5)C=C4)C=C3)cc1)n1nnnc1Cc1cccs1
REMARK SMILES IDX 10 1 9 2 8 3 7 4 5 5 6 6 3 8 4 9 2 10 1 11 83 12 84 13 87 14
REMARK SMILES IDX 85 15 86 16 88 17 89 18 90 19 93 20 91 21 92 22 11 23 12 24
REMARK SMILES IDX 13 25 14 26 15 27 16 29 17 30 18 31 82 32 19 33 81 34 20 35
REMARK SMILES IDX 21 36 22 37 75 38 23 39 80 40 74 41 76 42 24 43 79 44 73 45
REMARK SMILES IDX 72 46 25 48 59 49 38 50 58 51 39 52 42 53 57 54 77 55 40 56
REMARK SMILES IDX 41 57 56 59 78 60 43 61 26 62 27 63 36 64 28 65 29 66 35 67
REMARK SMILES IDX 37 68 30 69 31 70 32 71 33 72 34 73 60 74 61 75 70 76 62 77
REMARK SMILES IDX 63 78 69 79 71 80 64 81 65 82 66 83 67 84 68 85 44 86 45 87
REMARK SMILES IDX 54 88 46 89 47 90 53 91 55 92 48 93 49 94 50 95 51 96 52 97
REMARK H PARENT 7 7 14 28 76 47 42 58
REMARK Flexibility Score: inf
ROOT
ATOM      1  C   UNL A   1      38.313  21.878  25.793  1.00  0.00     0.002 C 
ENDROOT
BRANCH   1   2
ATOM      2  C   UNL A   1      37.723  23.289  25.728  1.00  0.00     0.021 C 
BRANCH   2   3
ATOM      3  C   UNL A   1      36.302  23.412  26.265  1.00  0.00     0.116 C 
BRANCH   3   4
ATOM      4  N   UNL A   1      35.600  22.140  26.271  1.00  0.00    -0.354 N 
ATOM      5  C   UNL A   1      34.343  21.768  25.883  1.00  0.00     0.247 C 
ATOM      6  O   UNL A   1      34.177  20.546  25.783  1.00  0.00    -0.272 OA
ATOM      7  H   UNL A   1      36.139  21.395  26.625  1.00  0.00     0.163 HD
BRANCH   5   8
ATOM      8  C   UNL A   1      33.224  22.789  25.512  1.00  0.00     0.142 C 
ATOM      9  C   UNL A   1      33.170  23.812  26.657  1.00  0.00     0.048 C 
BRANCH   8  10
ATOM     10  C   UNL A   1      31.848  22.061  25.343  1.00  0.00     0.037 C 
ATOM     11  C   UNL A   1      30.719  22.613  26.211  1.00  0.00     0.007 C 
ENDBRANCH   8  10
BRANCH   8  12
ATOM     12  N   UNL A   1      33.573  23.389  24.198  1.00  0.00    -0.214 N 
ATOM     13  N   UNL A   1      34.545  22.767  23.477  1.00  0.00    -0.044 NA
ATOM     14  C   UNL A   1      33.043  24.396  23.409  1.00  0.00     0.157 A 
ATOM     15  N   UNL A   1      34.604  23.383  22.314  1.00  0.00    -0.024 NA
ATOM     16  N   UNL A   1      33.679  24.375  22.247  1.00  0.00    -0.113 NA
BRANCH  14  17
ATOM     17  C   UNL A   1      31.936  25.353  23.684  1.00  0.00     0.125 C 
BRANCH  17  18
ATOM     18  C   UNL A   1      32.407  26.609  24.363  1.00  0.00     0.012 A 
ATOM     19  C   UNL A   1      33.709  26.979  24.646  1.00  0.00     0.016 A 
ATOM     20  S   UNL A   1      31.295  27.814  24.860  1.00  0.00    -0.148 S 
ATOM     21  C   UNL A   1      33.786  28.251  25.281  1.00  0.00     0.012 A 
ATOM     22  C   UNL A   1      32.543  28.811  25.464  1.00  0.00     0.065 A 
ENDBRANCH  17  18
ENDBRANCH  14  17
ENDBRANCH   8  12
ENDBRANCH   5   8
ENDBRANCH   3   4
ENDBRANCH   2   3
ENDBRANCH   1   2
BRANCH   1  23
ATOM     23  C   UNL A   1      39.812  21.801  26.102  1.00  0.00     0.002 C 
BRANCH  23  24
ATOM     24  C   UNL A   1      40.235  22.294  27.488  1.00  0.00     0.021 C 
BRANCH  24  25
ATOM     25  C   UNL A   1      41.410  23.265  27.506  1.00  0.00     0.116 C 
BRANCH  25  26
ATOM     26  N   UNL A   1      41.509  24.037  26.281  1.00  0.00    -0.352 N 
ATOM     27  C   UNL A   1      41.331  25.381  26.084  1.00  0.00     0.251 C 
ATOM     28  H   UNL A   1      41.738  23.520  25.475  1.00  0.00     0.163 HD
ATOM     29  O   UNL A   1      41.296  25.825  24.935  1.00  0.00    -0.269 OA
BRANCH  27  30
ATOM     30  C   UNL A   1      41.161  26.295  27.235  1.00  0.00     0.039 A 
ATOM     31  C   UNL A   1      40.076  26.098  28.094  1.00  0.00     0.014 A 
ATOM     32  C   UNL A   1      42.037  27.363  27.451  1.00  0.00     0.014 A 
ATOM     33  C   UNL A   1      39.889  26.948  29.185  1.00  0.00     0.010 A 
ATOM     34  C   UNL A   1      41.888  28.169  28.579  1.00  0.00     0.010 A 
ATOM     35  C   UNL A   1      40.802  27.982  29.448  1.00  0.00    -0.014 A 
BRANCH  35  36
ATOM     36  C   UNL A   1      40.614  28.891  30.607  1.00  0.00     0.031 A 
ATOM     37  C   UNL A   1      41.483  28.745  31.829  1.00  0.00     0.074 A 
ATOM     38  C   UNL A   1      39.638  29.819  30.579  1.00  0.00     0.049 A 
ATOM     39  N   UNL A   1      41.456  29.421  32.948  1.00  0.00    -0.248 NA
ATOM     40  C   UNL A   1      42.498  27.680  31.798  1.00  0.00     0.031 C 
ATOM     41  C   UNL A   1      38.701  30.029  29.473  1.00  0.00     0.029 A 
ATOM     42  N   UNL A   1      39.270  30.759  31.507  1.00  0.00    -0.354 N 
ATOM     43  C   UNL A   1      42.431  28.853  33.759  1.00  0.00     0.074 A 
ATOM     44  C   UNL A   1      42.998  27.745  33.023  1.00  0.00     0.031 C 
ATOM     45  C   UNL A   1      37.888  31.054  29.774  1.00  0.00     0.029 A 
ATOM     46  C   UNL A   1      38.223  31.554  31.104  1.00  0.00     0.049 A 
ATOM     47  H   UNL A   1      39.712  30.856  32.382  1.00  0.00     0.167 HD
ATOM     48  C   UNL A   1      42.831  29.231  34.998  1.00  0.00     0.037 A 
ATOM     49  C   UNL A   1      37.608  32.575  31.733  1.00  0.00     0.037 A 
ATOM     50  C   UNL A   1      42.291  30.360  35.709  1.00  0.00     0.049 A 
ATOM     51  C   UNL A   1      38.087  32.993  33.096  1.00  0.00     0.074 A 
ATOM     52  C   UNL A   1      42.678  30.872  36.934  1.00  0.00     0.029 A 
ATOM     53  N   UNL A   1      41.247  31.153  35.257  1.00  0.00    -0.354 N 
ATOM     54  N   UNL A   1      39.055  32.486  33.821  1.00  0.00    -0.248 NA
ATOM     55  C   UNL A   1      37.396  34.129  33.722  1.00  0.00     0.031 C 
ATOM     56  C   UNL A   1      41.844  31.953  37.241  1.00  0.00     0.029 A 
ATOM     57  C   UNL A   1      40.964  32.140  36.187  1.00  0.00     0.049 A 
ATOM     58  H   UNL A   1      40.775  31.033  34.401  1.00  0.00     0.167 HD
ATOM     59  C   UNL A   1      39.112  33.261  34.974  1.00  0.00     0.074 A 
ATOM     60  C   UNL A   1      38.084  34.274  34.846  1.00  0.00     0.031 C 
ATOM     61  C   UNL A   1      39.943  33.147  36.040  1.00  0.00     0.037 A 
BRANCH  48  62
ATOM     62  C   UNL A   1      43.907  28.414  35.659  1.00  0.00     0.058 A 
ATOM     63  C   UNL A   1      45.263  28.773  35.582  1.00  0.00     0.135 A 
ATOM     64  C   UNL A   1      43.577  27.265  36.397  1.00  0.00     0.135 A 
ATOM     65  F   UNL A   1      45.636  29.855  34.879  1.00  0.00    -0.206 F 
ATOM     66  C   UNL A   1      46.255  28.002  36.177  1.00  0.00     0.059 A 
ATOM     67  C   UNL A   1      44.551  26.494  37.023  1.00  0.00     0.059 A 
ATOM     68  F   UNL A   1      42.297  26.876  36.506  1.00  0.00    -0.206 F 
ATOM     69  C   UNL A   1      45.890  26.860  36.891  1.00  0.00     0.060 A 
BRANCH  69  70
ATOM     70  S   UNL A   1      47.190  25.859  37.647  1.00  0.00     0.124 S 
ATOM     71  O   UNL A   1      48.336  26.192  36.807  1.00  0.00    -0.237 OA
ATOM     72  O   UNL A   1      47.233  26.379  39.011  1.00  0.00    -0.237 OA
ATOM     73  O   UNL A   1      46.688  24.496  37.515  1.00  0.00    -0.744 OA
ENDBRANCH  69  70
ENDBRANCH  48  62
BRANCH  49  74
ATOM     74  C   UNL A   1      36.502  33.304  31.057  1.00  0.00     0.058 A 
ATOM     75  C   UNL A   1      35.176  33.156  31.492  1.00  0.00     0.135 A 
ATOM     76  C   UNL A   1      36.744  34.170  29.981  1.00  0.00     0.135 A 
ATOM     77  F   UNL A   1      34.894  32.334  32.514  1.00  0.00    -0.206 F 
ATOM     78  C   UNL A   1      34.127  33.828  30.874  1.00  0.00     0.059 A 
ATOM     79  C   UNL A   1      35.715  34.871  29.361  1.00  0.00     0.059 A 
ATOM     80  F   UNL A   1      37.998  34.360  29.540  1.00  0.00    -0.206 F 
ATOM     81  C   UNL A   1      34.408  34.686  29.810  1.00  0.00     0.060 A 
BRANCH  81  82
ATOM     82  S   UNL A   1      33.045  35.595  29.047  1.00  0.00     0.124 S 
ATOM     83  O   UNL A   1      32.301  36.044  30.218  1.00  0.00    -0.237 OA
ATOM     84  O   UNL A   1      33.748  36.632  28.299  1.00  0.00    -0.237 OA
ATOM     85  O   UNL A   1      32.385  34.581  28.230  1.00  0.00    -0.744 OA
ENDBRANCH  81  82
ENDBRANCH  49  74
BRANCH  61  86
ATOM     86  C   UNL A   1      39.803  34.169  37.134  1.00  0.00     0.058 A 
ATOM     87  C   UNL A   1      40.479  35.397  37.089  1.00  0.00     0.135 A 
ATOM     88  C   UNL A   1      38.951  33.927  38.223  1.00  0.00     0.135 A 
ATOM     89  F   UNL A   1      41.310  35.674  36.072  1.00  0.00    -0.206 F 
ATOM     90  C   UNL A   1      40.337  36.341  38.101  1.00  0.00     0.059 A 
ATOM     91  C   UNL A   1      38.774  34.866  39.234  1.00  0.00     0.059 A 
ATOM     92  F   UNL A   1      38.272  32.772  38.309  1.00  0.00    -0.206 F 
ATOM     93  C   UNL A   1      39.483  36.065  39.171  1.00  0.00     0.060 A 
BRANCH  93  94
ATOM     94  S   UNL A   1      39.289  37.306  40.468  1.00  0.00     0.124 S 
ATOM     95  O   UNL A   1      40.612  37.920  40.487  1.00  0.00    -0.237 OA
ATOM     96  O   UNL A   1      38.210  38.140  39.946  1.00  0.00    -0.237 OA
ATOM     97  O   UNL A   1      38.946  36.514  41.646  1.00  0.00    -0.744 OA
ENDBRANCH  93  94
ENDBRANCH  61  86
ENDBRANCH  35  36
ENDBRANCH  27  30
ENDBRANCH  25  26
ENDBRANCH  24  25
ENDBRANCH  23  24
ENDBRANCH   1  23
TORSDOF 20
ENDMDL
MODEL 2
REMARK VINA RESULT:     -10.7      6.720     12.288
REMARK SMILES CC[C@@](C)(C(=O)NCCCCCCNC(=O)c1ccc(-c2c3nc(c(-c4c(F)cc(S(=O)(=O)[O-])cc4F)c4ccc([nH]4)c(-c4c(F)cc(S(=O)(=O)[O-])cc4F)c4nc(c(-c5c(F)cc(S(=O)(=O)[O-])cc5F)c5ccc2[nH]5)C=C4)C=C3)cc1)n1nnnc1Cc1cccs1
REMARK SMILES IDX 10 1 9 2 8 3 7 4 5 5 6 6 3 8 4 9 2 10 1 11 83 12 84 13 87 14
REMARK SMILES IDX 85 15 86 16 88 17 89 18 90 19 93 20 91 21 92 22 11 23 12 24
REMARK SMILES IDX 13 25 14 26 15 27 16 29 17 30 18 31 82 32 19 33 81 34 20 35
REMARK SMILES IDX 21 36 22 37 75 38 23 39 80 40 74 41 76 42 24 43 79 44 73 45
REMARK SMILES IDX 72 46 25 48 59 49 38 50 58 51 39 52 42 53 57 54 77 55 40 56
REMARK SMILES IDX 41 57 56 59 78 60 43 61 26 62 27 63 36 64 28 65 29 66 35 67
REMARK SMILES IDX 37 68 30 69 31 70 32 71 33 72 34 73 60 74 61 75 70 76 62 77
REMARK SMILES IDX 63 78 69 79 71 80 64 81 65 82 66 83 67 84 68 85 44 86 45 87
REMARK SMILES IDX 54 88 46 89 47 90 53 91 55 92 48 93 49 94 50 95 51 96 52 97
REMARK H PARENT 7 7 14 28 76 47 42 58
REMARK Flexibility Score: inf
ROOT
ATOM      1  C   UNL A   1      31.803  30.526  26.599  1.00  0.00     0.002 C 
ENDROOT
BRANCH   1   2
ATOM      2  C   UNL A   1      31.342  29.197  25.996  1.00  0.00     0.021 C 
BRANCH   2   3
ATOM      3  C   UNL A   1      31.131  29.219  24.487  1.00  0.00     0.116 C 
BRANCH   3   4
ATOM      4  N   UNL A   1      30.584  27.969  23.986  1.00  0.00    -0.354 N 
ATOM      5  C   UNL A   1      31.159  26.832  23.492  1.00  0.00     0.247 C 
ATOM      6  O   UNL A   1      30.394  25.864  23.409  1.00  0.00    -0.272 OA
ATOM      7  H   UNL A   1      29.600  27.935  24.007  1.00  0.00     0.163 HD
BRANCH   5   8
ATOM      8  C   UNL A   1      32.674  26.723  23.138  1.00  0.00     0.142 C 
ATOM      9  C   UNL A   1      33.422  26.554  24.471  1.00  0.00     0.048 C 
BRANCH   8  10
ATOM     10  C   UNL A   1      33.158  28.006  22.382  1.00  0.00     0.037 C 
ATOM     11  C   UNL A   1      34.324  28.739  23.041  1.00  0.00     0.007 C 
ENDBRANCH   8  10
BRANCH   8  12
ATOM     12  N   UNL A   1      32.845  25.572  22.214  1.00  0.00    -0.214 N 
ATOM     13  N   UNL A   1      32.972  25.860  20.890  1.00  0.00    -0.044 NA
ATOM     14  C   UNL A   1      33.056  24.213  22.370  1.00  0.00     0.157 A 
ATOM     15  N   UNL A   1      33.234  24.723  20.280  1.00  0.00    -0.024 NA
ATOM     16  N   UNL A   1      33.305  23.703  21.174  1.00  0.00    -0.113 NA
BRANCH  14  17
ATOM     17  C   UNL A   1      33.074  23.376  23.603  1.00  0.00     0.125 C 
BRANCH  17  18
ATOM     18  C   UNL A   1      34.451  22.888  23.956  1.00  0.00     0.012 A 
ATOM     19  C   UNL A   1      35.650  23.560  23.807  1.00  0.00     0.016 A 
ATOM     20  S   UNL A   1      34.685  21.347  24.667  1.00  0.00    -0.148 S 
ATOM     21  C   UNL A   1      36.761  22.799  24.268  1.00  0.00     0.012 A 
ATOM     22  C   UNL A   1      36.377  21.571  24.755  1.00  0.00     0.065 A 
ENDBRANCH  17  18
ENDBRANCH  14  17
ENDBRANCH   8  12
ENDBRANCH   5   8
ENDBRANCH   3   4
ENDBRANCH   2   3
ENDBRANCH   1   2
BRANCH   1  23
ATOM     23  C   UNL A   1      33.235  30.543  27.144  1.00  0.00     0.002 C 
BRANCH  23  24
ATOM     24  C   UNL A   1      33.924  29.180  27.256  1.00  0.00     0.021 C 
BRANCH  24  25
ATOM     25  C   UNL A   1      35.315  29.200  27.881  1.00  0.00     0.116 C 
BRANCH  25  26
ATOM     26  N   UNL A   1      35.376  30.029  29.070  1.00  0.00    -0.352 N 
ATOM     27  C   UNL A   1      36.450  30.331  29.864  1.00  0.00     0.251 C 
ATOM     28  H   UNL A   1      34.521  30.433  29.346  1.00  0.00     0.163 HD
ATOM     29  O   UNL A   1      36.268  30.922  30.931  1.00  0.00    -0.269 OA
BRANCH  27  30
ATOM     30  C   UNL A   1      37.819  29.936  29.463  1.00  0.00     0.039 A 
ATOM     31  C   UNL A   1      38.742  29.608  30.460  1.00  0.00     0.014 A 
ATOM     32  C   UNL A   1      38.208  29.924  28.120  1.00  0.00     0.014 A 
ATOM     33  C   UNL A   1      40.041  29.237  30.110  1.00  0.00     0.010 A 
ATOM     34  C   UNL A   1      39.485  29.488  27.769  1.00  0.00     0.010 A 
ATOM     35  C   UNL A   1      40.420  29.157  28.760  1.00  0.00    -0.014 A 
BRANCH  35  36
ATOM     36  C   UNL A   1      41.799  28.761  28.376  1.00  0.00     0.031 A 
ATOM     37  C   UNL A   1      42.900  29.790  28.351  1.00  0.00     0.074 A 
ATOM     38  C   UNL A   1      42.055  27.490  28.011  1.00  0.00     0.049 A 
ATOM     39  N   UNL A   1      44.157  29.648  28.018  1.00  0.00    -0.248 NA
ATOM     40  C   UNL A   1      42.531  31.165  28.722  1.00  0.00     0.031 C 
ATOM     41  C   UNL A   1      41.065  26.412  27.950  1.00  0.00     0.029 A 
ATOM     42  N   UNL A   1      43.224  26.888  27.620  1.00  0.00    -0.354 N 
ATOM     43  C   UNL A   1      44.722  30.914  28.119  1.00  0.00     0.074 A 
ATOM     44  C   UNL A   1      43.660  31.821  28.497  1.00  0.00     0.031 C 
ATOM     45  C   UNL A   1      41.675  25.276  27.577  1.00  0.00     0.029 A 
ATOM     46  C   UNL A   1      43.090  25.548  27.342  1.00  0.00     0.049 A 
ATOM     47  H   UNL A   1      44.079  27.370  27.544  1.00  0.00     0.167 HD
ATOM     48  C   UNL A   1      46.012  31.284  27.934  1.00  0.00     0.037 A 
ATOM     49  C   UNL A   1      44.006  24.641  26.950  1.00  0.00     0.037 A 
ATOM     50  C   UNL A   1      47.073  30.370  27.599  1.00  0.00     0.049 A 
ATOM     51  C   UNL A   1      45.437  25.071  26.776  1.00  0.00     0.074 A 
ATOM     52  C   UNL A   1      48.425  30.631  27.464  1.00  0.00     0.029 A 
ATOM     53  N   UNL A   1      46.900  29.017  27.347  1.00  0.00    -0.354 N 
ATOM     54  N   UNL A   1      45.967  26.259  26.941  1.00  0.00    -0.248 NA
ATOM     55  C   UNL A   1      46.396  24.034  26.373  1.00  0.00     0.031 C 
ATOM     56  C   UNL A   1      49.065  29.443  27.093  1.00  0.00     0.029 A 
ATOM     57  C   UNL A   1      48.118  28.433  27.040  1.00  0.00     0.049 A 
ATOM     58  H   UNL A   1      46.039  28.541  27.383  1.00  0.00     0.167 HD
ATOM     59  C   UNL A   1      47.327  26.106  26.694  1.00  0.00     0.074 A 
ATOM     60  C   UNL A   1      47.537  24.710  26.374  1.00  0.00     0.031 C 
ATOM     61  C   UNL A   1      48.312  27.038  26.733  1.00  0.00     0.037 A 
BRANCH  48  62
ATOM     62  C   UNL A   1      46.346  32.743  28.093  1.00  0.00     0.058 A 
ATOM     63  C   UNL A   1      46.755  33.280  29.325  1.00  0.00     0.135 A 
ATOM     64  C   UNL A   1      46.272  33.614  26.993  1.00  0.00     0.135 A 
ATOM     65  F   UNL A   1      46.829  32.495  30.412  1.00  0.00    -0.206 F 
ATOM     66  C   UNL A   1      47.039  34.633  29.470  1.00  0.00     0.059 A 
ATOM     67  C   UNL A   1      46.580  34.965  27.109  1.00  0.00     0.059 A 
ATOM     68  F   UNL A   1      45.889  33.154  25.791  1.00  0.00    -0.206 F 
ATOM     69  C   UNL A   1      46.944  35.470  28.357  1.00  0.00     0.060 A 
BRANCH  69  70
ATOM     70  S   UNL A   1      47.303  37.228  28.562  1.00  0.00     0.124 S 
ATOM     71  O   UNL A   1      46.525  37.544  29.756  1.00  0.00    -0.237 OA
ATOM     72  O   UNL A   1      48.753  37.234  28.733  1.00  0.00    -0.237 OA
ATOM     73  O   UNL A   1      46.818  37.821  27.321  1.00  0.00    -0.744 OA
ENDBRANCH  69  70
ENDBRANCH  48  62
BRANCH  49  74
ATOM     74  C   UNL A   1      43.605  23.225  26.741  1.00  0.00     0.058 A 
ATOM     75  C   UNL A   1      43.530  22.684  25.449  1.00  0.00     0.135 A 
ATOM     76  C   UNL A   1      43.306  22.381  27.821  1.00  0.00     0.135 A 
ATOM     77  F   UNL A   1      43.803  23.454  24.384  1.00  0.00    -0.206 F 
ATOM     78  C   UNL A   1      43.157  21.362  25.232  1.00  0.00     0.059 A 
ATOM     79  C   UNL A   1      42.953  21.049  27.631  1.00  0.00     0.059 A 
ATOM     80  F   UNL A   1      43.381  22.846  29.078  1.00  0.00    -0.206 F 
ATOM     81  C   UNL A   1      42.873  20.551  26.332  1.00  0.00     0.060 A 
BRANCH  81  82
ATOM     82  S   UNL A   1      42.440  18.821  26.042  1.00  0.00     0.124 S 
ATOM     83  O   UNL A   1      43.371  18.460  24.980  1.00  0.00    -0.237 OA
ATOM     84  O   UNL A   1      42.693  18.219  27.348  1.00  0.00    -0.237 OA
ATOM     85  O   UNL A   1      41.034  18.890  25.655  1.00  0.00    -0.744 OA
ENDBRANCH  81  82
ENDBRANCH  49  74
BRANCH  61  86
ATOM     86  C   UNL A   1      49.714  26.568  26.463  1.00  0.00     0.058 A 
ATOM     87  C   UNL A   1      50.489  25.950  27.455  1.00  0.00     0.135 A 
ATOM     88  C   UNL A   1      50.273  26.706  25.182  1.00  0.00     0.135 A 
ATOM     89  F   UNL A   1      50.003  25.798  28.697  1.00  0.00    -0.206 F 
ATOM     90  C   UNL A   1      51.784  25.509  27.194  1.00  0.00     0.059 A 
ATOM     91  C   UNL A   1      51.555  26.251  24.893  1.00  0.00     0.059 A 
ATOM     92  F   UNL A   1      49.568  27.282  24.194  1.00  0.00    -0.206 F 
ATOM     93  C   UNL A   1      52.308  25.666  25.910  1.00  0.00     0.060 A 
BRANCH  93  94
ATOM     94  S   UNL A   1      53.980  25.071  25.576  1.00  0.00     0.124 S 
ATOM     95  O   UNL A   1      53.711  23.822  24.872  1.00  0.00    -0.237 OA
ATOM     96  O   UNL A   1      54.540  26.148  24.764  1.00  0.00    -0.237 OA
ATOM     97  O   UNL A   1      54.562  24.931  26.907  1.00  0.00    -0.744 OA
ENDBRANCH  93  94
ENDBRANCH  61  86
ENDBRANCH  35  36
ENDBRANCH  27  30
ENDBRANCH  25  26
ENDBRANCH  24  25
ENDBRANCH  23  24
ENDBRANCH   1  23
TORSDOF 20
ENDMDL
MODEL 3
REMARK VINA RESULT:     -10.7      6.559     12.115
REMARK SMILES CC[C@@](C)(C(=O)NCCCCCCNC(=O)c1ccc(-c2c3nc(c(-c4c(F)cc(S(=O)(=O)[O-])cc4F)c4ccc([nH]4)c(-c4c(F)cc(S(=O)(=O)[O-])cc4F)c4nc(c(-c5c(F)cc(S(=O)(=O)[O-])cc5F)c5ccc2[nH]5)C=C4)C=C3)cc1)n1nnnc1Cc1cccs1
REMARK SMILES IDX 10 1 9 2 8 3 7 4 5 5 6 6 3 8 4 9 2 10 1 11 83 12 84 13 87 14
REMARK SMILES IDX 85 15 86 16 88 17 89 18 90 19 93 20 91 21 92 22 11 23 12 24
REMARK SMILES IDX 13 25 14 26 15 27 16 29 17 30 18 31 82 32 19 33 81 34 20 35
REMARK SMILES IDX 21 36 22 37 75 38 23 39 80 40 74 41 76 42 24 43 79 44 73 45
REMARK SMILES IDX 72 46 25 48 59 49 38 50 58 51 39 52 42 53 57 54 77 55 40 56
REMARK SMILES IDX 41 57 56 59 78 60 43 61 26 62 27 63 36 64 28 65 29 66 35 67
REMARK SMILES IDX 37 68 30 69 31 70 32 71 33 72 34 73 60 74 61 75 70 76 62 77
REMARK SMILES IDX 63 78 69 79 71 80 64 81 65 82 66 83 67 84 68 85 44 86 45 87
REMARK SMILES IDX 54 88 46 89 47 90 53 91 55 92 48 93 49 94 50 95 51 96 52 97
REMARK H PARENT 7 7 14 28 76 47 42 58
REMARK Flexibility Score: inf
ROOT
ATOM      1  C   UNL A   1      34.849  30.738  27.493  1.00  0.00     0.002 C 
ENDROOT
BRANCH   1   2
ATOM      2  C   UNL A   1      33.599  29.865  27.361  1.00  0.00     0.021 C 
BRANCH   2   3
ATOM      3  C   UNL A   1      32.798  30.085  26.082  1.00  0.00     0.116 C 
BRANCH   3   4
ATOM      4  N   UNL A   1      33.488  29.585  24.905  1.00  0.00    -0.354 N 
ATOM      5  C   UNL A   1      33.093  28.801  23.857  1.00  0.00     0.247 C 
ATOM      6  O   UNL A   1      33.873  28.797  22.897  1.00  0.00    -0.272 OA
ATOM      7  H   UNL A   1      34.430  29.868  24.851  1.00  0.00     0.163 HD
BRANCH   5   8
ATOM      8  C   UNL A   1      31.734  28.037  23.823  1.00  0.00     0.142 C 
ATOM      9  C   UNL A   1      31.658  27.341  22.455  1.00  0.00     0.048 C 
BRANCH   8  10
ATOM     10  C   UNL A   1      30.538  29.030  24.015  1.00  0.00     0.037 C 
ATOM     11  C   UNL A   1      29.532  29.054  22.866  1.00  0.00     0.007 C 
ENDBRANCH   8  10
BRANCH   8  12
ATOM     12  N   UNL A   1      31.714  27.092  24.970  1.00  0.00    -0.214 N 
ATOM     13  N   UNL A   1      30.495  26.779  25.488  1.00  0.00    -0.044 NA
ATOM     14  C   UNL A   1      32.655  26.295  25.599  1.00  0.00     0.157 A 
ATOM     15  N   UNL A   1      30.699  25.847  26.396  1.00  0.00    -0.024 NA
ATOM     16  N   UNL A   1      32.017  25.525  26.467  1.00  0.00    -0.113 NA
BRANCH  14  17
ATOM     17  C   UNL A   1      34.127  26.196  25.391  1.00  0.00     0.125 C 
BRANCH  17  18
ATOM     18  C   UNL A   1      34.533  24.933  24.685  1.00  0.00     0.012 A 
ATOM     19  C   UNL A   1      35.616  24.120  24.962  1.00  0.00     0.016 A 
ATOM     20  S   UNL A   1      33.601  24.309  23.391  1.00  0.00    -0.148 S 
ATOM     21  C   UNL A   1      35.682  22.989  24.099  1.00  0.00     0.012 A 
ATOM     22  C   UNL A   1      34.648  22.974  23.191  1.00  0.00     0.065 A 
ENDBRANCH  17  18
ENDBRANCH  14  17
ENDBRANCH   8  12
ENDBRANCH   5   8
ENDBRANCH   3   4
ENDBRANCH   2   3
ENDBRANCH   1   2
BRANCH   1  23
ATOM     23  C   UNL A   1      34.654  32.065  28.233  1.00  0.00     0.002 C 
BRANCH  23  24
ATOM     24  C   UNL A   1      35.853  33.018  28.222  1.00  0.00     0.021 C 
BRANCH  24  25
ATOM     25  C   UNL A   1      36.571  33.179  29.558  1.00  0.00     0.116 C 
BRANCH  25  26
ATOM     26  N   UNL A   1      36.091  32.248  30.561  1.00  0.00    -0.352 N 
ATOM     27  C   UNL A   1      36.618  31.046  30.954  1.00  0.00     0.251 C 
ATOM     28  H   UNL A   1      35.266  32.519  31.027  1.00  0.00     0.163 HD
ATOM     29  O   UNL A   1      35.970  30.319  31.710  1.00  0.00    -0.269 OA
BRANCH  27  30
ATOM     30  C   UNL A   1      37.944  30.609  30.465  1.00  0.00     0.039 A 
ATOM     31  C   UNL A   1      38.090  30.302  29.109  1.00  0.00     0.014 A 
ATOM     32  C   UNL A   1      39.029  30.462  31.335  1.00  0.00     0.014 A 
ATOM     33  C   UNL A   1      39.329  29.883  28.620  1.00  0.00     0.010 A 
ATOM     34  C   UNL A   1      40.280  30.109  30.833  1.00  0.00     0.010 A 
ATOM     35  C   UNL A   1      40.440  29.798  29.475  1.00  0.00    -0.014 A 
BRANCH  35  36
ATOM     36  C   UNL A   1      41.763  29.354  28.966  1.00  0.00     0.031 A 
ATOM     37  C   UNL A   1      42.903  30.335  28.874  1.00  0.00     0.074 A 
ATOM     38  C   UNL A   1      41.929  28.085  28.548  1.00  0.00     0.049 A 
ATOM     39  N   UNL A   1      44.120  30.149  28.433  1.00  0.00    -0.248 NA
ATOM     40  C   UNL A   1      42.629  31.714  29.309  1.00  0.00     0.031 C 
ATOM     41  C   UNL A   1      40.890  27.053  28.543  1.00  0.00     0.029 A 
ATOM     42  N   UNL A   1      43.033  27.445  28.045  1.00  0.00    -0.354 N 
ATOM     43  C   UNL A   1      44.749  31.385  28.518  1.00  0.00     0.074 A 
ATOM     44  C   UNL A   1      43.765  32.326  29.007  1.00  0.00     0.031 C 
ATOM     45  C   UNL A   1      41.414  25.902  28.092  1.00  0.00     0.029 A 
ATOM     46  C   UNL A   1      42.816  26.120  27.745  1.00  0.00     0.049 A 
ATOM     47  H   UNL A   1      43.900  27.891  27.909  1.00  0.00     0.167 HD
ATOM     48  C   UNL A   1      46.035  31.705  28.234  1.00  0.00     0.037 A 
ATOM     49  C   UNL A   1      43.654  25.187  27.254  1.00  0.00     0.037 A 
ATOM     50  C   UNL A   1      47.021  30.756  27.787  1.00  0.00     0.049 A 
ATOM     51  C   UNL A   1      45.083  25.559  26.971  1.00  0.00     0.074 A 
ATOM     52  C   UNL A   1      48.367  30.963  27.545  1.00  0.00     0.029 A 
ATOM     53  N   UNL A   1      46.767  29.420  27.517  1.00  0.00    -0.354 N 
ATOM     54  N   UNL A   1      45.679  26.718  27.121  1.00  0.00    -0.248 NA
ATOM     55  C   UNL A   1      45.958  24.494  26.462  1.00  0.00     0.031 C 
ATOM     56  C   UNL A   1      48.920  29.760  27.092  1.00  0.00     0.029 A 
ATOM     57  C   UNL A   1      47.927  28.793  27.093  1.00  0.00     0.049 A 
ATOM     58  H   UNL A   1      45.891  28.981  27.613  1.00  0.00     0.167 HD
ATOM     59  C   UNL A   1      47.005  26.514  26.756  1.00  0.00     0.074 A 
ATOM     60  C   UNL A   1      47.124  25.120  26.385  1.00  0.00     0.031 C 
ATOM     61  C   UNL A   1      48.031  27.400  26.736  1.00  0.00     0.037 A 
BRANCH  48  62
ATOM     62  C   UNL A   1      46.446  33.143  28.401  1.00  0.00     0.058 A 
ATOM     63  C   UNL A   1      46.964  33.630  29.613  1.00  0.00     0.135 A 
ATOM     64  C   UNL A   1      46.338  34.044  27.328  1.00  0.00     0.135 A 
ATOM     65  F   UNL A   1      47.076  32.815  30.675  1.00  0.00    -0.206 F 
ATOM     66  C   UNL A   1      47.320  34.965  29.768  1.00  0.00     0.059 A 
ATOM     67  C   UNL A   1      46.715  35.377  27.453  1.00  0.00     0.059 A 
ATOM     68  F   UNL A   1      45.852  33.632  26.147  1.00  0.00    -0.206 F 
ATOM     69  C   UNL A   1      47.188  35.833  28.683  1.00  0.00     0.060 A 
BRANCH  69  70
ATOM     70  S   UNL A   1      47.642  37.567  28.901  1.00  0.00     0.124 S 
ATOM     71  O   UNL A   1      47.139  38.155  27.664  1.00  0.00    -0.237 OA
ATOM     72  O   UNL A   1      46.916  37.931  30.116  1.00  0.00    -0.237 OA
ATOM     73  O   UNL A   1      49.094  37.524  29.032  1.00  0.00    -0.744 OA
ENDBRANCH  69  70
ENDBRANCH  48  62
BRANCH  49  74
ATOM     74  C   UNL A   1      43.173  23.796  27.044  1.00  0.00     0.058 A 
ATOM     75  C   UNL A   1      42.797  23.353  25.767  1.00  0.00     0.135 A 
ATOM     76  C   UNL A   1      43.096  22.879  28.103  1.00  0.00     0.135 A 
ATOM     77  F   UNL A   1      42.850  24.194  24.724  1.00  0.00    -0.206 F 
ATOM     78  C   UNL A   1      42.344  22.055  25.550  1.00  0.00     0.059 A 
ATOM     79  C   UNL A   1      42.668  21.570  27.907  1.00  0.00     0.059 A 
ATOM     80  F   UNL A   1      43.462  23.249  29.341  1.00  0.00    -0.206 F 
ATOM     81  C   UNL A   1      42.286  21.170  26.627  1.00  0.00     0.060 A 
BRANCH  81  82
ATOM     82  S   UNL A   1      41.747  19.472  26.324  1.00  0.00     0.124 S 
ATOM     83  O   UNL A   1      42.524  19.125  25.140  1.00  0.00    -0.237 OA
ATOM     84  O   UNL A   1      42.132  18.803  27.563  1.00  0.00    -0.237 OA
ATOM     85  O   UNL A   1      40.309  19.613  26.118  1.00  0.00    -0.744 OA
ENDBRANCH  81  82
ENDBRANCH  49  74
BRANCH  61  86
ATOM     86  C   UNL A   1      49.384  26.879  26.336  1.00  0.00     0.058 A 
ATOM     87  C   UNL A   1      49.887  27.049  25.038  1.00  0.00     0.135 A 
ATOM     88  C   UNL A   1      50.200  26.234  27.279  1.00  0.00     0.135 A 
ATOM     89  F   UNL A   1      49.143  27.654  24.099  1.00  0.00    -0.206 F 
ATOM     90  C   UNL A   1      51.144  26.571  24.679  1.00  0.00     0.059 A 
ATOM     91  C   UNL A   1      51.470  25.771  26.949  1.00  0.00     0.059 A 
ATOM     92  F   UNL A   1      49.770  26.055  28.538  1.00  0.00    -0.206 F 
ATOM     93  C   UNL A   1      51.927  25.932  25.642  1.00  0.00     0.060 A 
BRANCH  93  94
ATOM     94  S   UNL A   1      53.565  25.335  25.172  1.00  0.00     0.124 S 
ATOM     95  O   UNL A   1      53.528  23.962  25.661  1.00  0.00    -0.237 OA
ATOM     96  O   UNL A   1      53.552  25.493  23.721  1.00  0.00    -0.237 OA
ATOM     97  O   UNL A   1      54.470  26.233  25.885  1.00  0.00    -0.744 OA
ENDBRANCH  93  94
ENDBRANCH  61  86
ENDBRANCH  35  36
ENDBRANCH  27  30
ENDBRANCH  25  26
ENDBRANCH  24  25
ENDBRANCH  23  24
ENDBRANCH   1  23
TORSDOF 20
ENDMDL
