MODEL 1
REMARK VINA RESULT:     -12.2      0.000      0.000
REMARK SMILES O=C(NCCCCCCNC(=O)c1cc(N2Cc3ccccc3CC2=O)ccn1)c1ccc(-c2c3nc(c(-c4c(F)cc(S(=O)(=O)[O-])cc4F)c4ccc([nH]4)c(-c4c(F)cc(S(=O)(=O)[O-])cc4F)c4nc(c(-c5c(F)cc(S(=O)(=O)[O-])cc5F)c5ccc2[nH]5)C=C4)C=C3)cc1
REMARK SMILES IDX 5 1 4 2 3 3 1 4 2 5 30 7 31 8 95 9 32 10 94 11 33 12 34 13
REMARK SMILES IDX 35 14 88 15 36 16 93 17 87 18 89 19 37 20 92 21 86 22 85 23
REMARK SMILES IDX 38 25 72 26 51 27 71 28 52 29 55 30 70 31 90 32 53 33 54 34
REMARK SMILES IDX 69 36 91 37 56 38 39 39 40 40 49 41 41 42 42 43 48 44 50 45
REMARK SMILES IDX 43 46 44 47 45 48 46 49 47 50 73 51 74 52 83 53 75 54 76 55
REMARK SMILES IDX 82 56 84 57 77 58 78 59 79 60 80 61 81 62 57 63 58 64 67 65
REMARK SMILES IDX 59 66 60 67 66 68 68 69 61 70 62 71 63 72 64 73 65 74 6 75
REMARK SMILES IDX 7 76 8 77 9 78 10 79 11 80 12 82 13 83 14 84 29 85 15 86
REMARK SMILES IDX 28 87 27 88 16 89 17 90 25 91 18 92 24 93 26 94 19 95 23 96
REMARK SMILES IDX 20 97 22 98 21 99
REMARK H PARENT 3 6 89 24 55 35 10 81
REMARK Flexibility Score: inf
ROOT
ATOM      1  C   UNL A   1      45.762  25.186  26.350  1.00  0.00     0.021 C 
ENDROOT
BRANCH   1   2
ATOM      2  C   UNL A   1      44.851  26.361  26.021  1.00  0.00     0.116 C 
BRANCH   2   3
ATOM      3  N   UNL A   1      43.664  25.975  25.277  1.00  0.00    -0.352 N 
ATOM      4  O   UNL A   1      41.462  25.637  24.917  1.00  0.00    -0.269 OA
ATOM      5  C   UNL A   1      42.340  26.137  25.614  1.00  0.00     0.251 C 
ATOM      6  H   UNL A   1      43.830  25.535  24.412  1.00  0.00     0.163 HD
BRANCH   5   7
ATOM      7  C   UNL A   1      41.976  26.892  26.838  1.00  0.00     0.039 A 
ATOM      8  C   UNL A   1      42.330  28.235  26.979  1.00  0.00     0.014 A 
ATOM      9  C   UNL A   1      41.274  26.244  27.860  1.00  0.00     0.014 A 
ATOM     10  C   UNL A   1      42.117  28.881  28.192  1.00  0.00     0.010 A 
ATOM     11  C   UNL A   1      40.982  26.925  29.048  1.00  0.00     0.010 A 
ATOM     12  C   UNL A   1      41.431  28.240  29.237  1.00  0.00    -0.014 A 
BRANCH  12  13
ATOM     13  C   UNL A   1      41.149  29.003  30.481  1.00  0.00     0.031 A 
ATOM     14  C   UNL A   1      42.040  28.901  31.690  1.00  0.00     0.074 A 
ATOM     15  C   UNL A   1      40.103  29.854  30.485  1.00  0.00     0.049 A 
ATOM     16  N   UNL A   1      41.976  29.567  32.815  1.00  0.00    -0.248 NA
ATOM     17  C   UNL A   1      43.139  27.924  31.636  1.00  0.00     0.031 C 
ATOM     18  C   UNL A   1      39.147  30.014  29.384  1.00  0.00     0.029 A 
ATOM     19  N   UNL A   1      39.682  30.762  31.421  1.00  0.00    -0.354 N 
ATOM     20  C   UNL A   1      43.016  29.090  33.605  1.00  0.00     0.074 A 
ATOM     21  C   UNL A   1      43.679  28.054  32.841  1.00  0.00     0.031 C 
ATOM     22  C   UNL A   1      38.291  31.001  29.684  1.00  0.00     0.029 A 
ATOM     23  C   UNL A   1      38.601  31.509  31.015  1.00  0.00     0.049 A 
ATOM     24  H   UNL A   1      40.114  30.870  32.300  1.00  0.00     0.167 HD
ATOM     25  C   UNL A   1      43.387  29.486  34.847  1.00  0.00     0.037 A 
ATOM     26  C   UNL A   1      37.929  32.491  31.641  1.00  0.00     0.037 A 
ATOM     27  C   UNL A   1      42.726  30.522  35.602  1.00  0.00     0.049 A 
ATOM     28  C   UNL A   1      38.378  32.927  33.006  1.00  0.00     0.074 A 
ATOM     29  C   UNL A   1      43.029  30.995  36.867  1.00  0.00     0.029 A 
ATOM     30  N   UNL A   1      41.630  31.249  35.159  1.00  0.00    -0.354 N 
ATOM     31  N   UNL A   1      39.374  32.471  33.727  1.00  0.00    -0.248 NA
ATOM     32  C   UNL A   1      37.614  34.007  33.641  1.00  0.00     0.031 C 
ATOM     33  C   UNL A   1      42.103  31.991  37.199  1.00  0.00     0.029 A 
ATOM     34  C   UNL A   1      41.244  32.163  36.126  1.00  0.00     0.049 A 
ATOM     35  H   UNL A   1      41.192  31.133  34.285  1.00  0.00     0.167 HD
ATOM     36  C   UNL A   1      39.355  33.207  34.904  1.00  0.00     0.074 A 
ATOM     37  C   UNL A   1      38.271  34.162  34.782  1.00  0.00     0.031 C 
ATOM     38  C   UNL A   1      40.155  33.097  35.993  1.00  0.00     0.037 A 
BRANCH  25  39
ATOM     39  C   UNL A   1      44.569  28.800  35.476  1.00  0.00     0.058 A 
ATOM     40  C   UNL A   1      45.860  29.346  35.397  1.00  0.00     0.135 A 
ATOM     41  C   UNL A   1      44.404  27.617  36.215  1.00  0.00     0.135 A 
ATOM     42  F   UNL A   1      46.077  30.467  34.691  1.00  0.00    -0.206 F 
ATOM     43  C   UNL A   1      46.948  28.736  36.014  1.00  0.00     0.059 A 
ATOM     44  C   UNL A   1      45.475  27.001  36.858  1.00  0.00     0.059 A 
ATOM     45  F   UNL A   1      43.191  27.052  36.324  1.00  0.00    -0.206 F 
ATOM     46  C   UNL A   1      46.745  27.563  36.742  1.00  0.00     0.060 A 
BRANCH  46  47
ATOM     47  S   UNL A   1      48.165  26.794  37.552  1.00  0.00     0.124 S 
ATOM     48  O   UNL A   1      48.492  25.727  36.610  1.00  0.00    -0.237 OA
ATOM     49  O   UNL A   1      49.122  27.893  37.619  1.00  0.00    -0.237 OA
ATOM     50  O   UNL A   1      47.627  26.354  38.836  1.00  0.00    -0.744 OA
ENDBRANCH  46  47
ENDBRANCH  25  39
BRANCH  26  51
ATOM     51  C   UNL A   1      36.759  33.121  30.978  1.00  0.00     0.058 A 
ATOM     52  C   UNL A   1      35.450  32.838  31.390  1.00  0.00     0.135 A 
ATOM     53  C   UNL A   1      36.935  34.044  29.935  1.00  0.00     0.135 A 
ATOM     54  F   UNL A   1      35.233  31.962  32.382  1.00  0.00    -0.206 F 
ATOM     55  C   UNL A   1      34.352  33.439  30.781  1.00  0.00     0.059 A 
ATOM     56  C   UNL A   1      35.856  34.675  29.330  1.00  0.00     0.059 A 
ATOM     57  F   UNL A   1      38.172  34.362  29.520  1.00  0.00    -0.206 F 
ATOM     58  C   UNL A   1      34.567  34.357  29.753  1.00  0.00     0.060 A 
BRANCH  58  59
ATOM     59  S   UNL A   1      33.144  35.178  29.003  1.00  0.00     0.124 S 
ATOM     60  O   UNL A   1      32.292  35.403  30.165  1.00  0.00    -0.237 OA
ATOM     61  O   UNL A   1      33.746  36.369  28.413  1.00  0.00    -0.237 OA
ATOM     62  O   UNL A   1      32.659  34.190  28.043  1.00  0.00    -0.744 OA
ENDBRANCH  58  59
ENDBRANCH  26  51
BRANCH  38  63
ATOM     63  C   UNL A   1      39.879  34.035  37.132  1.00  0.00     0.058 A 
ATOM     64  C   UNL A   1      40.466  35.310  37.186  1.00  0.00     0.135 A 
ATOM     65  C   UNL A   1      39.021  33.659  38.176  1.00  0.00     0.135 A 
ATOM     66  F   UNL A   1      41.299  35.712  36.213  1.00  0.00    -0.206 F 
ATOM     67  C   UNL A   1      40.240  36.167  38.257  1.00  0.00     0.059 A 
ATOM     68  C   UNL A   1      38.763  34.510  39.247  1.00  0.00     0.059 A 
ATOM     69  F   UNL A   1      38.429  32.455  38.166  1.00  0.00    -0.206 F 
ATOM     70  C   UNL A   1      39.392  35.755  39.287  1.00  0.00     0.060 A 
BRANCH  70  71
ATOM     71  S   UNL A   1      39.105  36.871  40.676  1.00  0.00     0.124 S 
ATOM     72  O   UNL A   1      38.428  35.992  41.623  1.00  0.00    -0.237 OA
ATOM     73  O   UNL A   1      40.459  37.276  41.042  1.00  0.00    -0.237 OA
ATOM     74  O   UNL A   1      38.279  37.926  40.095  1.00  0.00    -0.744 OA
ENDBRANCH  70  71
ENDBRANCH  38  63
ENDBRANCH  12  13
ENDBRANCH   5   7
ENDBRANCH   2   3
ENDBRANCH   1   2
BRANCH   1  75
ATOM     75  C   UNL A   1      46.910  24.945  25.370  1.00  0.00     0.002 C 
BRANCH  75  76
ATOM     76  C   UNL A   1      46.688  23.838  24.334  1.00  0.00     0.002 C 
BRANCH  76  77
ATOM     77  C   UNL A   1      45.602  22.810  24.665  1.00  0.00     0.021 C 
BRANCH  77  78
ATOM     78  C   UNL A   1      46.102  21.450  25.147  1.00  0.00     0.116 C 
BRANCH  78  79
ATOM     79  N   UNL A   1      46.109  20.447  24.096  1.00  0.00    -0.351 N 
ATOM     80  C   UNL A   1      45.324  19.319  23.971  1.00  0.00     0.269 C 
ATOM     81  H   UNL A   1      46.763  20.593  23.374  1.00  0.00     0.163 HD
ATOM     82  O   UNL A   1      45.514  18.543  23.038  1.00  0.00    -0.268 OA
BRANCH  80  83
ATOM     83  C   UNL A   1      44.257  19.061  24.977  1.00  0.00     0.130 A 
ATOM     84  C   UNL A   1      43.222  19.976  25.125  1.00  0.00     0.060 A 
ATOM     85  N   UNL A   1      44.433  17.974  25.770  1.00  0.00    -0.251 NA
ATOM     86  C   UNL A   1      42.358  19.826  26.208  1.00  0.00     0.048 A 
ATOM     87  C   UNL A   1      43.540  17.811  26.762  1.00  0.00     0.114 A 
ATOM     88  C   UNL A   1      42.518  18.709  27.033  1.00  0.00     0.046 A 
BRANCH  86  89
ATOM     89  N   UNL A   1      41.377  20.822  26.514  1.00  0.00    -0.308 N 
ATOM     90  C   UNL A   1      39.969  20.460  26.308  1.00  0.00     0.161 C 
ATOM     91  C   UNL A   1      41.704  21.977  27.234  1.00  0.00     0.231 C 
ATOM     92  C   UNL A   1      39.102  21.644  26.005  1.00  0.00    -0.024 A 
ATOM     93  C   UNL A   1      40.555  22.915  27.589  1.00  0.00     0.136 C 
ATOM     94  O   UNL A   1      42.848  22.265  27.594  1.00  0.00    -0.274 OA
ATOM     95  C   UNL A   1      37.969  21.533  25.190  1.00  0.00     0.006 A 
ATOM     96  C   UNL A   1      39.390  22.857  26.640  1.00  0.00    -0.034 A 
ATOM     97  C   UNL A   1      37.139  22.636  24.994  1.00  0.00     0.000 A 
ATOM     98  C   UNL A   1      38.548  23.958  26.448  1.00  0.00     0.004 A 
ATOM     99  C   UNL A   1      37.430  23.846  25.620  1.00  0.00     0.000 A 
ENDBRANCH  86  89
ENDBRANCH  80  83
ENDBRANCH  78  79
ENDBRANCH  77  78
ENDBRANCH  76  77
ENDBRANCH  75  76
ENDBRANCH   1  75
TORSDOF 17
ENDMDL
MODEL 2
REMARK VINA RESULT:     -12.1      3.256      6.131
REMARK SMILES O=C(NCCCCCCNC(=O)c1cc(N2Cc3ccccc3CC2=O)ccn1)c1ccc(-c2c3nc(c(-c4c(F)cc(S(=O)(=O)[O-])cc4F)c4ccc([nH]4)c(-c4c(F)cc(S(=O)(=O)[O-])cc4F)c4nc(c(-c5c(F)cc(S(=O)(=O)[O-])cc5F)c5ccc2[nH]5)C=C4)C=C3)cc1
REMARK SMILES IDX 5 1 4 2 3 3 1 4 2 5 30 7 31 8 95 9 32 10 94 11 33 12 34 13
REMARK SMILES IDX 35 14 88 15 36 16 93 17 87 18 89 19 37 20 92 21 86 22 85 23
REMARK SMILES IDX 38 25 72 26 51 27 71 28 52 29 55 30 70 31 90 32 53 33 54 34
REMARK SMILES IDX 69 36 91 37 56 38 39 39 40 40 49 41 41 42 42 43 48 44 50 45
REMARK SMILES IDX 43 46 44 47 45 48 46 49 47 50 73 51 74 52 83 53 75 54 76 55
REMARK SMILES IDX 82 56 84 57 77 58 78 59 79 60 80 61 81 62 57 63 58 64 67 65
REMARK SMILES IDX 59 66 60 67 66 68 68 69 61 70 62 71 63 72 64 73 65 74 6 75
REMARK SMILES IDX 7 76 8 77 9 78 10 79 11 80 12 82 13 83 14 84 29 85 15 86
REMARK SMILES IDX 28 87 27 88 16 89 17 90 25 91 18 92 24 93 26 94 19 95 23 96
REMARK SMILES IDX 20 97 22 98 21 99
REMARK H PARENT 3 6 89 24 55 35 10 81
REMARK Flexibility Score: inf
ROOT
ATOM      1  C   UNL A   1      37.394  23.609  25.467  1.00  0.00     0.021 C 
ENDROOT
BRANCH   1   2
ATOM      2  C   UNL A   1      38.364  24.169  26.500  1.00  0.00     0.116 C 
BRANCH   2   3
ATOM      3  N   UNL A   1      39.740  24.200  26.035  1.00  0.00    -0.352 N 
ATOM      4  O   UNL A   1      41.844  24.992  25.840  1.00  0.00    -0.269 OA
ATOM      5  C   UNL A   1      40.769  25.024  26.432  1.00  0.00     0.251 C 
ATOM      6  H   UNL A   1      39.968  23.543  25.339  1.00  0.00     0.163 HD
BRANCH   5   7
ATOM      7  C   UNL A   1      40.566  25.970  27.555  1.00  0.00     0.039 A 
ATOM      8  C   UNL A   1      41.349  27.120  27.668  1.00  0.00     0.014 A 
ATOM      9  C   UNL A   1      39.580  25.701  28.510  1.00  0.00     0.014 A 
ATOM     10  C   UNL A   1      41.250  27.914  28.806  1.00  0.00     0.010 A 
ATOM     11  C   UNL A   1      39.422  26.551  29.611  1.00  0.00     0.010 A 
ATOM     12  C   UNL A   1      40.278  27.647  29.786  1.00  0.00    -0.014 A 
BRANCH  12  13
ATOM     13  C   UNL A   1      40.153  28.577  30.939  1.00  0.00     0.031 A 
ATOM     14  C   UNL A   1      41.067  28.486  32.130  1.00  0.00     0.074 A 
ATOM     15  C   UNL A   1      39.234  29.561  30.868  1.00  0.00     0.049 A 
ATOM     16  N   UNL A   1      41.139  29.275  33.172  1.00  0.00    -0.248 NA
ATOM     17  C   UNL A   1      42.020  27.365  32.164  1.00  0.00     0.031 C 
ATOM     18  C   UNL A   1      38.266  29.729  29.779  1.00  0.00     0.029 A 
ATOM     19  N   UNL A   1      38.977  30.618  31.703  1.00  0.00    -0.354 N 
ATOM     20  C   UNL A   1      42.134  28.749  33.988  1.00  0.00     0.074 A 
ATOM     21  C   UNL A   1      42.620  27.551  33.333  1.00  0.00     0.031 C 
ATOM     22  C   UNL A   1      37.565  30.853  29.983  1.00  0.00     0.029 A 
ATOM     23  C   UNL A   1      37.994  31.458  31.238  1.00  0.00     0.049 A 
ATOM     24  H   UNL A   1      39.454  30.761  32.553  1.00  0.00     0.167 HD
ATOM     25  C   UNL A   1      42.605  29.225  35.166  1.00  0.00     0.037 A 
ATOM     26  C   UNL A   1      37.487  32.589  31.762  1.00  0.00     0.037 A 
ATOM     27  C   UNL A   1      42.121  30.421  35.811  1.00  0.00     0.049 A 
ATOM     28  C   UNL A   1      38.044  33.107  33.056  1.00  0.00     0.074 A 
ATOM     29  C   UNL A   1      42.536  30.985  37.005  1.00  0.00     0.029 A 
ATOM     30  N   UNL A   1      41.119  31.241  35.313  1.00  0.00    -0.354 N 
ATOM     31  N   UNL A   1      38.996  32.599  33.801  1.00  0.00    -0.248 NA
ATOM     32  C   UNL A   1      37.461  34.347  33.580  1.00  0.00     0.031 C 
ATOM     33  C   UNL A   1      41.768  32.131  37.242  1.00  0.00     0.029 A 
ATOM     34  C   UNL A   1      40.899  32.301  36.176  1.00  0.00     0.049 A 
ATOM     35  H   UNL A   1      40.635  31.090  34.469  1.00  0.00     0.167 HD
ATOM     36  C   UNL A   1      39.124  33.457  34.885  1.00  0.00     0.074 A 
ATOM     37  C   UNL A   1      38.176  34.535  34.679  1.00  0.00     0.031 C 
ATOM     38  C   UNL A   1      39.943  33.358  35.961  1.00  0.00     0.037 A 
BRANCH  25  39
ATOM     39  C   UNL A   1      43.706  28.454  35.843  1.00  0.00     0.058 A 
ATOM     40  C   UNL A   1      43.426  27.385  36.708  1.00  0.00     0.135 A 
ATOM     41  C   UNL A   1      45.054  28.746  35.579  1.00  0.00     0.135 A 
ATOM     42  F   UNL A   1      42.155  27.072  37.006  1.00  0.00    -0.206 F 
ATOM     43  C   UNL A   1      44.443  26.643  37.301  1.00  0.00     0.059 A 
ATOM     44  C   UNL A   1      46.087  28.005  36.145  1.00  0.00     0.059 A 
ATOM     45  F   UNL A   1      45.378  29.758  34.758  1.00  0.00    -0.206 F 
ATOM     46  C   UNL A   1      45.771  26.961  37.014  1.00  0.00     0.060 A 
BRANCH  46  47
ATOM     47  S   UNL A   1      47.079  25.977  37.778  1.00  0.00     0.124 S 
ATOM     48  O   UNL A   1      46.843  26.234  39.196  1.00  0.00    -0.237 OA
ATOM     49  O   UNL A   1      46.765  24.628  37.320  1.00  0.00    -0.237 OA
ATOM     50  O   UNL A   1      48.303  26.553  37.230  1.00  0.00    -0.744 OA
ENDBRANCH  46  47
ENDBRANCH  25  39
BRANCH  26  51
ATOM     51  C   UNL A   1      36.389  33.298  31.057  1.00  0.00     0.058 A 
ATOM     52  C   UNL A   1      35.077  33.280  31.551  1.00  0.00     0.135 A 
ATOM     53  C   UNL A   1      36.642  34.034  29.889  1.00  0.00     0.135 A 
ATOM     54  F   UNL A   1      34.787  32.590  32.663  1.00  0.00    -0.206 F 
ATOM     55  C   UNL A   1      34.049  33.958  30.902  1.00  0.00     0.059 A 
ATOM     56  C   UNL A   1      35.637  34.739  29.239  1.00  0.00     0.059 A 
ATOM     57  F   UNL A   1      37.887  34.097  29.391  1.00  0.00    -0.206 F 
ATOM     58  C   UNL A   1      34.340  34.685  29.747  1.00  0.00     0.060 A 
BRANCH  58  59
ATOM     59  S   UNL A   1      33.016  35.609  28.939  1.00  0.00     0.124 S 
ATOM     60  O   UNL A   1      32.406  34.577  28.109  1.00  0.00    -0.237 OA
ATOM     61  O   UNL A   1      32.220  36.069  30.073  1.00  0.00    -0.237 OA
ATOM     62  O   UNL A   1      33.734  36.659  28.223  1.00  0.00    -0.744 OA
ENDBRANCH  58  59
ENDBRANCH  26  51
BRANCH  38  63
ATOM     63  C   UNL A   1      39.843  34.447  36.990  1.00  0.00     0.058 A 
ATOM     64  C   UNL A   1      38.954  34.349  38.072  1.00  0.00     0.135 A 
ATOM     65  C   UNL A   1      40.642  35.596  36.894  1.00  0.00     0.135 A 
ATOM     66  F   UNL A   1      38.164  33.272  38.202  1.00  0.00    -0.206 F 
ATOM     67  C   UNL A   1      38.834  35.372  39.006  1.00  0.00     0.059 A 
ATOM     68  C   UNL A   1      40.555  36.622  37.829  1.00  0.00     0.059 A 
ATOM     69  F   UNL A   1      41.513  35.733  35.883  1.00  0.00    -0.206 F 
ATOM     70  C   UNL A   1      39.634  36.508  38.872  1.00  0.00     0.060 A 
BRANCH  70  71
ATOM     71  S   UNL A   1      39.472  37.834  40.087  1.00  0.00     0.124 S 
ATOM     72  O   UNL A   1      39.353  37.079  41.329  1.00  0.00    -0.237 OA
ATOM     73  O   UNL A   1      40.716  38.577  39.912  1.00  0.00    -0.237 OA
ATOM     74  O   UNL A   1      38.266  38.537  39.659  1.00  0.00    -0.744 OA
ENDBRANCH  70  71
ENDBRANCH  38  63
ENDBRANCH  12  13
ENDBRANCH   5   7
ENDBRANCH   2   3
ENDBRANCH   1   2
BRANCH   1  75
ATOM     75  C   UNL A   1      37.131  22.106  25.555  1.00  0.00     0.002 C 
BRANCH  75  76
ATOM     76  C   UNL A   1      35.962  21.577  24.717  1.00  0.00     0.002 C 
BRANCH  76  77
ATOM     77  C   UNL A   1      34.844  20.869  25.489  1.00  0.00     0.021 C 
BRANCH  77  78
ATOM     78  C   UNL A   1      34.200  21.676  26.613  1.00  0.00     0.116 C 
BRANCH  78  79
ATOM     79  N   UNL A   1      32.749  21.601  26.602  1.00  0.00    -0.351 N 
ATOM     80  C   UNL A   1      31.846  22.397  25.927  1.00  0.00     0.269 C 
ATOM     81  H   UNL A   1      32.357  20.883  27.152  1.00  0.00     0.163 HD
ATOM     82  O   UNL A   1      30.641  22.225  26.087  1.00  0.00    -0.268 OA
BRANCH  80  83
ATOM     83  C   UNL A   1      32.355  23.457  25.013  1.00  0.00     0.130 A 
ATOM     84  C   UNL A   1      32.443  24.767  25.468  1.00  0.00     0.060 A 
ATOM     85  N   UNL A   1      32.604  23.076  23.735  1.00  0.00    -0.251 NA
ATOM     86  C   UNL A   1      32.716  25.771  24.541  1.00  0.00     0.048 A 
ATOM     87  C   UNL A   1      32.939  24.055  22.877  1.00  0.00     0.114 A 
ATOM     88  C   UNL A   1      32.982  25.398  23.221  1.00  0.00     0.046 A 
BRANCH  86  89
ATOM     89  N   UNL A   1      32.657  27.152  24.909  1.00  0.00    -0.308 N 
ATOM     90  C   UNL A   1      33.935  27.844  25.121  1.00  0.00     0.161 C 
ATOM     91  C   UNL A   1      31.473  27.890  24.803  1.00  0.00     0.231 C 
ATOM     92  C   UNL A   1      33.827  28.984  26.088  1.00  0.00    -0.024 A 
ATOM     93  C   UNL A   1      31.557  29.378  25.125  1.00  0.00     0.136 C 
ATOM     94  O   UNL A   1      30.388  27.410  24.461  1.00  0.00    -0.274 OA
ATOM     95  C   UNL A   1      34.901  29.356  26.905  1.00  0.00     0.006 A 
ATOM     96  C   UNL A   1      32.652  29.744  26.088  1.00  0.00    -0.034 A 
ATOM     97  C   UNL A   1      34.794  30.472  27.734  1.00  0.00     0.000 A 
ATOM     98  C   UNL A   1      32.554  30.868  26.915  1.00  0.00     0.004 A 
ATOM     99  C   UNL A   1      33.621  31.224  27.741  1.00  0.00     0.000 A 
ENDBRANCH  86  89
ENDBRANCH  80  83
ENDBRANCH  78  79
ENDBRANCH  77  78
ENDBRANCH  76  77
ENDBRANCH  75  76
ENDBRANCH   1  75
TORSDOF 17
ENDMDL
MODEL 3
REMARK VINA RESULT:     -12.0      3.643      5.746
REMARK SMILES O=C(NCCCCCCNC(=O)c1cc(N2Cc3ccccc3CC2=O)ccn1)c1ccc(-c2c3nc(c(-c4c(F)cc(S(=O)(=O)[O-])cc4F)c4ccc([nH]4)c(-c4c(F)cc(S(=O)(=O)[O-])cc4F)c4nc(c(-c5c(F)cc(S(=O)(=O)[O-])cc5F)c5ccc2[nH]5)C=C4)C=C3)cc1
REMARK SMILES IDX 5 1 4 2 3 3 1 4 2 5 30 7 31 8 95 9 32 10 94 11 33 12 34 13
REMARK SMILES IDX 35 14 88 15 36 16 93 17 87 18 89 19 37 20 92 21 86 22 85 23
REMARK SMILES IDX 38 25 72 26 51 27 71 28 52 29 55 30 70 31 90 32 53 33 54 34
REMARK SMILES IDX 69 36 91 37 56 38 39 39 40 40 49 41 41 42 42 43 48 44 50 45
REMARK SMILES IDX 43 46 44 47 45 48 46 49 47 50 73 51 74 52 83 53 75 54 76 55
REMARK SMILES IDX 82 56 84 57 77 58 78 59 79 60 80 61 81 62 57 63 58 64 67 65
REMARK SMILES IDX 59 66 60 67 66 68 68 69 61 70 62 71 63 72 64 73 65 74 6 75
REMARK SMILES IDX 7 76 8 77 9 78 10 79 11 80 12 82 13 83 14 84 29 85 15 86
REMARK SMILES IDX 28 87 27 88 16 89 17 90 25 91 18 92 24 93 26 94 19 95 23 96
REMARK SMILES IDX 20 97 22 98 21 99
REMARK H PARENT 3 6 89 24 55 35 10 81
REMARK Flexibility Score: inf
ROOT
ATOM      1  C   UNL A   1      40.610  22.157  27.663  1.00  0.00     0.021 C 
ENDROOT
BRANCH   1   2
ATOM      2  C   UNL A   1      41.797  23.111  27.630  1.00  0.00     0.116 C 
BRANCH   2   3
ATOM      3  N   UNL A   1      41.895  23.861  26.389  1.00  0.00    -0.352 N 
ATOM      4  O   UNL A   1      41.686  25.645  25.023  1.00  0.00    -0.269 OA
ATOM      5  C   UNL A   1      41.677  25.202  26.168  1.00  0.00     0.251 C 
ATOM      6  H   UNL A   1      42.152  23.337  25.596  1.00  0.00     0.163 HD
BRANCH   5   7
ATOM      7  C   UNL A   1      41.400  26.103  27.312  1.00  0.00     0.039 A 
ATOM      8  C   UNL A   1      42.253  27.169  27.602  1.00  0.00     0.014 A 
ATOM      9  C   UNL A   1      40.271  25.876  28.107  1.00  0.00     0.014 A 
ATOM     10  C   UNL A   1      42.063  27.909  28.765  1.00  0.00     0.010 A 
ATOM     11  C   UNL A   1      40.033  26.679  29.229  1.00  0.00     0.010 A 
ATOM     12  C   UNL A   1      40.945  27.682  29.586  1.00  0.00    -0.014 A 
BRANCH  12  13
ATOM     13  C   UNL A   1      40.739  28.558  30.770  1.00  0.00     0.031 A 
ATOM     14  C   UNL A   1      41.632  28.477  31.978  1.00  0.00     0.074 A 
ATOM     15  C   UNL A   1      39.764  29.487  30.713  1.00  0.00     0.049 A 
ATOM     16  N   UNL A   1      41.633  29.230  33.049  1.00  0.00    -0.248 NA
ATOM     17  C   UNL A   1      42.650  27.415  31.993  1.00  0.00     0.031 C 
ATOM     18  C   UNL A   1      38.811  29.638  29.608  1.00  0.00     0.029 A 
ATOM     19  N   UNL A   1      39.426  30.494  31.579  1.00  0.00    -0.354 N 
ATOM     20  C   UNL A   1      42.641  28.733  33.868  1.00  0.00     0.074 A 
ATOM     21  C   UNL A   1      43.212  27.593  33.182  1.00  0.00     0.031 C 
ATOM     22  C   UNL A   1      38.039  30.710  29.836  1.00  0.00     0.029 A 
ATOM     23  C   UNL A   1      38.403  31.292  31.122  1.00  0.00     0.049 A 
ATOM     24  H   UNL A   1      39.874  30.634  32.445  1.00  0.00     0.167 HD
ATOM     25  C   UNL A   1      43.056  29.192  35.074  1.00  0.00     0.037 A 
ATOM     26  C   UNL A   1      37.818  32.369  31.675  1.00  0.00     0.037 A 
ATOM     27  C   UNL A   1      42.487  30.331  35.750  1.00  0.00     0.049 A 
ATOM     28  C   UNL A   1      38.314  32.870  32.999  1.00  0.00     0.074 A 
ATOM     29  C   UNL A   1      42.841  30.874  36.974  1.00  0.00     0.029 A 
ATOM     30  N   UNL A   1      41.448  31.108  35.259  1.00  0.00    -0.354 N 
ATOM     31  N   UNL A   1      39.279  32.393  33.748  1.00  0.00    -0.248 NA
ATOM     32  C   UNL A   1      37.645  34.053  33.554  1.00  0.00     0.031 C 
ATOM     33  C   UNL A   1      42.001  31.962  37.234  1.00  0.00     0.029 A 
ATOM     34  C   UNL A   1      41.146  32.120  36.155  1.00  0.00     0.049 A 
ATOM     35  H   UNL A   1      40.992  30.960  34.399  1.00  0.00     0.167 HD
ATOM     36  C   UNL A   1      39.332  33.216  34.866  1.00  0.00     0.074 A 
ATOM     37  C   UNL A   1      38.325  34.242  34.676  1.00  0.00     0.031 C 
ATOM     38  C   UNL A   1      40.132  33.125  35.956  1.00  0.00     0.037 A 
BRANCH  25  39
ATOM     39  C   UNL A   1      44.188  28.463  35.748  1.00  0.00     0.058 A 
ATOM     40  C   UNL A   1      43.949  27.406  36.640  1.00  0.00     0.135 A 
ATOM     41  C   UNL A   1      45.524  28.784  35.455  1.00  0.00     0.135 A 
ATOM     42  F   UNL A   1      42.692  27.068  36.965  1.00  0.00    -0.206 F 
ATOM     43  C   UNL A   1      44.994  26.702  37.231  1.00  0.00     0.059 A 
ATOM     44  C   UNL A   1      46.584  28.081  36.020  1.00  0.00     0.059 A 
ATOM     45  F   UNL A   1      45.808  29.786  34.608  1.00  0.00    -0.206 F 
ATOM     46  C   UNL A   1      46.309  27.048  36.915  1.00  0.00     0.060 A 
BRANCH  46  47
ATOM     47  S   UNL A   1      47.654  26.113  37.677  1.00  0.00     0.124 S 
ATOM     48  O   UNL A   1      48.445  25.739  36.508  1.00  0.00    -0.237 OA
ATOM     49  O   UNL A   1      48.262  27.103  38.560  1.00  0.00    -0.237 OA
ATOM     50  O   UNL A   1      46.967  25.015  38.349  1.00  0.00    -0.744 OA
ENDBRANCH  46  47
ENDBRANCH  25  39
BRANCH  26  51
ATOM     51  C   UNL A   1      36.694  33.037  30.971  1.00  0.00     0.058 A 
ATOM     52  C   UNL A   1      35.368  32.869  31.393  1.00  0.00     0.135 A 
ATOM     53  C   UNL A   1      36.933  33.883  29.876  1.00  0.00     0.135 A 
ATOM     54  F   UNL A   1      35.091  32.069  32.433  1.00  0.00    -0.206 F 
ATOM     55  C   UNL A   1      34.314  33.507  30.746  1.00  0.00     0.059 A 
ATOM     56  C   UNL A   1      35.900  34.551  29.232  1.00  0.00     0.059 A 
ATOM     57  F   UNL A   1      38.188  34.091  29.449  1.00  0.00    -0.206 F 
ATOM     58  C   UNL A   1      34.591  34.347  29.666  1.00  0.00     0.060 A 
BRANCH  58  59
ATOM     59  S   UNL A   1      33.228  35.218  28.864  1.00  0.00     0.124 S 
ATOM     60  O   UNL A   1      32.460  35.679  30.015  1.00  0.00    -0.237 OA
ATOM     61  O   UNL A   1      33.922  36.253  28.105  1.00  0.00    -0.237 OA
ATOM     62  O   UNL A   1      32.599  34.177  28.057  1.00  0.00    -0.744 OA
ENDBRANCH  58  59
ENDBRANCH  26  51
BRANCH  38  63
ATOM     63  C   UNL A   1      39.944  34.166  37.021  1.00  0.00     0.058 A 
ATOM     64  C   UNL A   1      39.176  33.907  38.167  1.00  0.00     0.135 A 
ATOM     65  C   UNL A   1      40.536  35.432  36.895  1.00  0.00     0.135 A 
ATOM     66  F   UNL A   1      38.584  32.713  38.329  1.00  0.00    -0.206 F 
ATOM     67  C   UNL A   1      38.971  34.882  39.138  1.00  0.00     0.059 A 
ATOM     68  C   UNL A   1      40.363  36.414  37.865  1.00  0.00     0.059 A 
ATOM     69  F   UNL A   1      41.286  35.725  35.822  1.00  0.00    -0.206 F 
ATOM     70  C   UNL A   1      39.564  36.135  38.974  1.00  0.00     0.060 A 
BRANCH  70  71
ATOM     71  S   UNL A   1      39.292  37.397  40.236  1.00  0.00     0.124 S 
ATOM     72  O   UNL A   1      38.609  36.631  41.273  1.00  0.00    -0.237 OA
ATOM     73  O   UNL A   1      40.651  37.825  40.554  1.00  0.00    -0.237 OA
ATOM     74  O   UNL A   1      38.475  38.392  39.548  1.00  0.00    -0.744 OA
ENDBRANCH  70  71
ENDBRANCH  38  63
ENDBRANCH  12  13
ENDBRANCH   5   7
ENDBRANCH   2   3
ENDBRANCH   1   2
BRANCH   1  75
ATOM     75  C   UNL A   1      40.186  21.583  26.311  1.00  0.00     0.002 C 
BRANCH  75  76
ATOM     76  C   UNL A   1      38.769  21.933  25.846  1.00  0.00     0.002 C 
BRANCH  76  77
ATOM     77  C   UNL A   1      38.288  23.355  26.153  1.00  0.00     0.021 C 
BRANCH  77  78
ATOM     78  C   UNL A   1      36.922  23.730  25.584  1.00  0.00     0.116 C 
BRANCH  78  79
ATOM     79  N   UNL A   1      35.820  23.232  26.388  1.00  0.00    -0.351 N 
ATOM     80  C   UNL A   1      34.474  23.195  26.084  1.00  0.00     0.269 C 
ATOM     81  H   UNL A   1      36.068  22.872  27.271  1.00  0.00     0.163 HD
ATOM     82  O   UNL A   1      33.670  22.791  26.920  1.00  0.00    -0.268 OA
BRANCH  80  83
ATOM     83  C   UNL A   1      34.021  23.648  24.740  1.00  0.00     0.130 A 
ATOM     84  C   UNL A   1      33.559  24.948  24.577  1.00  0.00     0.060 A 
ATOM     85  N   UNL A   1      33.994  22.702  23.767  1.00  0.00    -0.251 NA
ATOM     86  C   UNL A   1      32.945  25.285  23.372  1.00  0.00     0.048 A 
ATOM     87  C   UNL A   1      33.465  23.076  22.589  1.00  0.00     0.114 A 
ATOM     88  C   UNL A   1      32.913  24.327  22.355  1.00  0.00     0.046 A 
BRANCH  86  89
ATOM     89  N   UNL A   1      32.302  26.551  23.200  1.00  0.00    -0.308 N 
ATOM     90  C   UNL A   1      31.071  26.786  23.964  1.00  0.00     0.161 C 
ATOM     91  C   UNL A   1      32.944  27.619  22.563  1.00  0.00     0.231 C 
ATOM     92  C   UNL A   1      30.144  27.754  23.293  1.00  0.00    -0.024 A 
ATOM     93  C   UNL A   1      32.200  28.950  22.531  1.00  0.00     0.136 C 
ATOM     94  O   UNL A   1      34.061  27.543  22.044  1.00  0.00    -0.274 OA
ATOM     95  C   UNL A   1      28.756  27.663  23.443  1.00  0.00     0.006 A 
ATOM     96  C   UNL A   1      30.702  28.825  22.586  1.00  0.00    -0.034 A 
ATOM     97  C   UNL A   1      27.927  28.628  22.871  1.00  0.00     0.000 A 
ATOM     98  C   UNL A   1      29.866  29.795  22.023  1.00  0.00     0.004 A 
ATOM     99  C   UNL A   1      28.482  29.690  22.161  1.00  0.00     0.000 A 
ENDBRANCH  86  89
ENDBRANCH  80  83
ENDBRANCH  78  79
ENDBRANCH  77  78
ENDBRANCH  76  77
ENDBRANCH  75  76
ENDBRANCH   1  75
TORSDOF 17
ENDMDL
