MODEL 1
REMARK VINA RESULT:     -10.7      0.000      0.000
REMARK SMILES O=C(C[C@@H]1C(=O)NCCN1C(=O)OCC1c2ccccc2-c2ccccc21)NCCCCCCNC(=O)c1ccc(-c2c3nc(c(-c4c(F)cc(S(=O)(=O)[O-])cc4F)c4ccc([nH]4)c(-c4c(F)cc(S(=O)(=O)[O-])cc4F)c4nc(c(-c5c(F)cc(S(=O)(=O)[O-])cc5F)c5ccc2[nH]5)C=C4)C=C3)cc1
REMARK SMILES IDX 30 1 29 2 28 3 1 4 2 5 3 7 4 8 5 9 10 10 6 11 7 12 9 13 8 14
REMARK SMILES IDX 11 16 12 17 13 18 14 19 15 20 16 21 27 22 17 23 21 24 22 25
REMARK SMILES IDX 26 26 18 27 20 28 23 29 25 30 19 31 24 32 31 33 32 34 33 35
REMARK SMILES IDX 34 36 35 37 36 38 37 40 38 41 39 42 103 43 40 44 102 45
REMARK SMILES IDX 41 46 42 47 43 48 96 49 44 50 101 51 95 52 97 53 45 54
REMARK SMILES IDX 100 55 94 56 93 57 46 59 80 60 59 61 79 62 60 63 63 64 78 65
REMARK SMILES IDX 98 66 61 67 62 68 77 70 99 71 64 72 47 73 48 74 57 75 49 76
REMARK SMILES IDX 50 77 56 78 58 79 51 80 52 81 53 82 54 83 55 84 81 85 82 86
REMARK SMILES IDX 91 87 83 88 84 89 90 90 92 91 85 92 86 93 87 94 88 95 89 96
REMARK SMILES IDX 65 97 66 98 75 99 67 100 68 101 74 102 76 103 69 104 70 105
REMARK SMILES IDX 71 106 72 107 73 108
REMARK H PARENT 28 6 7 15 35 39 97 58 63 69
REMARK Flexibility Score: inf
ROOT
ATOM      1  C   UNL A   1      34.610  31.515  27.571  1.00  0.00     0.021 C 
ENDROOT
BRANCH   1   2
ATOM      2  C   UNL A   1      34.380  30.069  27.997  1.00  0.00     0.116 C 
BRANCH   2   3
ATOM      3  N   UNL A   1      33.084  29.560  27.602  1.00  0.00    -0.356 N 
ATOM      4  O   UNL A   1      33.873  27.645  26.629  1.00  0.00    -0.275 OA
ATOM      5  C   UNL A   1      32.927  28.320  27.029  1.00  0.00     0.222 C 
ATOM      6  H   UNL A   1      32.288  30.120  27.750  1.00  0.00     0.163 HD
BRANCH   5   7
ATOM      7  C   UNL A   1      31.501  27.875  26.791  1.00  0.00     0.135 C 
BRANCH   7   8
ATOM      8  C   UNL A   1      31.173  27.326  25.393  1.00  0.00     0.187 C 
ATOM      9  C   UNL A   1      31.123  28.525  24.399  1.00  0.00     0.243 C 
ATOM     10  N   UNL A   1      30.095  26.319  25.215  1.00  0.00    -0.294 N 
ATOM     11  O   UNL A   1      31.932  29.451  24.437  1.00  0.00    -0.273 OA
ATOM     12  N   UNL A   1      30.135  28.561  23.456  1.00  0.00    -0.353 N 
ATOM     13  C   UNL A   1      29.497  26.245  23.885  1.00  0.00     0.145 C 
ATOM     14  C   UNL A   1      29.040  27.621  23.436  1.00  0.00     0.137 C 
ATOM     15  H   UNL A   1      30.172  29.258  22.762  1.00  0.00     0.163 HD
BRANCH  10  16
ATOM     16  C   UNL A   1      29.904  25.204  26.015  1.00  0.00     0.410 C 
ATOM     17  O   UNL A   1      29.209  25.210  27.022  1.00  0.00    -0.224 OA
BRANCH  16  18
ATOM     18  O   UNL A   1      30.625  24.137  25.609  1.00  0.00    -0.448 OA
BRANCH  18  19
ATOM     19  C   UNL A   1      32.019  24.120  25.980  1.00  0.00     0.248 C 
BRANCH  19  20
ATOM     20  C   UNL A   1      33.011  23.643  24.887  1.00  0.00     0.088 C 
ATOM     21  C   UNL A   1      32.734  22.281  24.264  1.00  0.00    -0.029 A 
ATOM     22  C   UNL A   1      33.037  24.537  23.646  1.00  0.00    -0.029 A 
ATOM     23  C   UNL A   1      32.787  21.035  24.859  1.00  0.00     0.005 A 
ATOM     24  C   UNL A   1      32.465  22.415  22.884  1.00  0.00    -0.014 A 
ATOM     25  C   UNL A   1      32.686  23.791  22.499  1.00  0.00    -0.014 A 
ATOM     26  C   UNL A   1      33.440  25.860  23.545  1.00  0.00     0.005 A 
ATOM     27  C   UNL A   1      32.509  19.917  24.070  1.00  0.00     0.000 A 
ATOM     28  C   UNL A   1      32.140  21.310  22.114  1.00  0.00     0.009 A 
ATOM     29  C   UNL A   1      32.710  24.373  21.242  1.00  0.00     0.009 A 
ATOM     30  C   UNL A   1      33.479  26.442  22.276  1.00  0.00     0.000 A 
ATOM     31  C   UNL A   1      32.154  20.053  22.720  1.00  0.00     0.001 A 
ATOM     32  C   UNL A   1      33.113  25.707  21.136  1.00  0.00     0.001 A 
ENDBRANCH  19  20
ENDBRANCH  18  19
ENDBRANCH  16  18
ENDBRANCH  10  16
ENDBRANCH   7   8
ENDBRANCH   5   7
ENDBRANCH   2   3
ENDBRANCH   1   2
BRANCH   1  33
ATOM     33  C   UNL A   1      35.024  32.466  28.700  1.00  0.00     0.002 C 
BRANCH  33  34
ATOM     34  C   UNL A   1      35.385  33.895  28.281  1.00  0.00     0.002 C 
BRANCH  34  35
ATOM     35  C   UNL A   1      34.235  34.905  28.279  1.00  0.00     0.021 C 
BRANCH  35  36
ATOM     36  C   UNL A   1      32.975  34.479  29.028  1.00  0.00     0.116 C 
BRANCH  36  37
ATOM     37  N   UNL A   1      32.627  35.379  30.114  1.00  0.00    -0.352 N 
ATOM     38  C   UNL A   1      33.173  35.488  31.371  1.00  0.00     0.251 C 
ATOM     39  H   UNL A   1      31.892  36.004  29.921  1.00  0.00     0.163 HD
ATOM     40  O   UNL A   1      32.654  36.240  32.192  1.00  0.00    -0.269 OA
BRANCH  38  41
ATOM     41  C   UNL A   1      34.359  34.684  31.749  1.00  0.00     0.039 A 
ATOM     42  C   UNL A   1      35.629  35.236  31.557  1.00  0.00     0.014 A 
ATOM     43  C   UNL A   1      34.230  33.396  32.275  1.00  0.00     0.014 A 
ATOM     44  C   UNL A   1      36.765  34.522  31.951  1.00  0.00     0.010 A 
ATOM     45  C   UNL A   1      35.360  32.713  32.726  1.00  0.00     0.010 A 
ATOM     46  C   UNL A   1      36.639  33.269  32.570  1.00  0.00    -0.014 A 
BRANCH  46  47
ATOM     47  C   UNL A   1      37.829  32.531  33.066  1.00  0.00     0.031 A 
ATOM     48  C   UNL A   1      38.472  32.914  34.371  1.00  0.00     0.074 A 
ATOM     49  C   UNL A   1      38.369  31.555  32.310  1.00  0.00     0.049 A 
ATOM     50  N   UNL A   1      39.547  32.429  34.938  1.00  0.00    -0.248 NA
ATOM     51  C   UNL A   1      37.835  34.003  35.129  1.00  0.00     0.031 C 
ATOM     52  C   UNL A   1      37.864  31.117  31.006  1.00  0.00     0.029 A 
ATOM     53  N   UNL A   1      39.467  30.759  32.523  1.00  0.00    -0.354 N 
ATOM     54  C   UNL A   1      39.728  33.162  36.104  1.00  0.00     0.074 A 
ATOM     55  C   UNL A   1      38.676  34.155  36.142  1.00  0.00     0.031 C 
ATOM     56  C   UNL A   1      38.634  30.116  30.550  1.00  0.00     0.029 A 
ATOM     57  C   UNL A   1      39.708  29.865  31.507  1.00  0.00     0.049 A 
ATOM     58  H   UNL A   1      40.030  30.823  33.328  1.00  0.00     0.167 HD
ATOM     59  C   UNL A   1      40.670  33.010  37.065  1.00  0.00     0.037 A 
ATOM     60  C   UNL A   1      40.684  28.948  31.361  1.00  0.00     0.037 A 
ATOM     61  C   UNL A   1      41.699  32.003  37.035  1.00  0.00     0.049 A 
ATOM     62  C   UNL A   1      41.722  28.800  32.438  1.00  0.00     0.074 A 
ATOM     63  C   UNL A   1      42.660  31.725  37.992  1.00  0.00     0.029 A 
ATOM     64  N   UNL A   1      41.904  31.110  35.993  1.00  0.00    -0.354 N 
ATOM     65  N   UNL A   1      41.839  29.460  33.566  1.00  0.00    -0.248 NA
ATOM     66  C   UNL A   1      42.760  27.781  32.226  1.00  0.00     0.031 C 
ATOM     67  C   UNL A   1      43.471  30.690  37.511  1.00  0.00     0.029 A 
ATOM     68  C   UNL A   1      42.989  30.294  36.273  1.00  0.00     0.049 A 
ATOM     69  H   UNL A   1      41.359  31.063  35.175  1.00  0.00     0.167 HD
ATOM     70  C   UNL A   1      42.945  28.917  34.211  1.00  0.00     0.074 A 
ATOM     71  C   UNL A   1      43.457  27.870  33.350  1.00  0.00     0.031 C 
ATOM     72  C   UNL A   1      43.484  29.251  35.409  1.00  0.00     0.037 A 
BRANCH  59  73
ATOM     73  C   UNL A   1      40.631  33.962  38.230  1.00  0.00     0.058 A 
ATOM     74  C   UNL A   1      41.390  35.142  38.244  1.00  0.00     0.135 A 
ATOM     75  C   UNL A   1      39.817  33.695  39.343  1.00  0.00     0.135 A 
ATOM     76  F   UNL A   1      42.196  35.440  37.212  1.00  0.00    -0.206 F 
ATOM     77  C   UNL A   1      41.377  36.004  39.335  1.00  0.00     0.059 A 
ATOM     78  C   UNL A   1      39.767  34.557  40.435  1.00  0.00     0.059 A 
ATOM     79  F   UNL A   1      39.067  32.582  39.381  1.00  0.00    -0.206 F 
ATOM     80  C   UNL A   1      40.567  35.699  40.430  1.00  0.00     0.060 A 
BRANCH  80  81
ATOM     81  S   UNL A   1      40.576  36.814  41.851  1.00  0.00     0.124 S 
ATOM     82  O   UNL A   1      39.233  37.381  41.781  1.00  0.00    -0.237 OA
ATOM     83  O   UNL A   1      40.820  35.902  42.963  1.00  0.00    -0.237 OA
ATOM     84  O   UNL A   1      41.664  37.737  41.551  1.00  0.00    -0.744 OA
ENDBRANCH  80  81
ENDBRANCH  59  73
BRANCH  60  85
ATOM     85  C   UNL A   1      40.704  28.072  30.160  1.00  0.00     0.058 A 
ATOM     86  C   UNL A   1      39.781  27.024  30.023  1.00  0.00     0.135 A 
ATOM     87  C   UNL A   1      41.625  28.272  29.120  1.00  0.00     0.135 A 
ATOM     88  F   UNL A   1      38.886  26.790  30.995  1.00  0.00    -0.206 F 
ATOM     89  C   UNL A   1      39.778  26.196  28.906  1.00  0.00     0.059 A 
ATOM     90  C   UNL A   1      41.627  27.472  27.982  1.00  0.00     0.059 A 
ATOM     91  F   UNL A   1      42.518  29.272  29.196  1.00  0.00    -0.206 F 
ATOM     92  C   UNL A   1      40.703  26.430  27.888  1.00  0.00     0.060 A 
BRANCH  92  93
ATOM     93  S   UNL A   1      40.653  25.386  26.415  1.00  0.00     0.124 S 
ATOM     94  O   UNL A   1      41.555  24.304  26.791  1.00  0.00    -0.237 OA
ATOM     95  O   UNL A   1      39.237  25.040  26.333  1.00  0.00    -0.237 OA
ATOM     96  O   UNL A   1      41.134  26.274  25.360  1.00  0.00    -0.744 OA
ENDBRANCH  92  93
ENDBRANCH  60  85
BRANCH  72  97
ATOM     97  C   UNL A   1      44.670  28.458  35.879  1.00  0.00     0.058 A 
ATOM     98  C   UNL A   1      45.985  28.857  35.594  1.00  0.00     0.135 A 
ATOM     99  C   UNL A   1      44.489  27.306  36.663  1.00  0.00     0.135 A 
ATOM    100  F   UNL A   1      46.213  29.946  34.842  1.00  0.00    -0.206 F 
ATOM    101  C   UNL A   1      47.080  28.131  36.053  1.00  0.00     0.059 A 
ATOM    102  C   UNL A   1      45.569  26.579  37.152  1.00  0.00     0.059 A 
ATOM    103  F   UNL A   1      43.252  26.886  36.971  1.00  0.00    -0.206 F 
ATOM    104  C   UNL A   1      46.862  26.993  36.832  1.00  0.00     0.060 A 
BRANCH 104 105
ATOM    105  S   UNL A   1      48.290  26.078  37.451  1.00  0.00     0.124 S 
ATOM    106  O   UNL A   1      48.996  25.764  36.212  1.00  0.00    -0.237 OA
ATOM    107  O   UNL A   1      48.938  27.057  38.318  1.00  0.00    -0.237 OA
ATOM    108  O   UNL A   1      47.691  24.939  38.139  1.00  0.00    -0.744 OA
ENDBRANCH 104 105
ENDBRANCH  72  97
ENDBRANCH  46  47
ENDBRANCH  38  41
ENDBRANCH  36  37
ENDBRANCH  35  36
ENDBRANCH  34  35
ENDBRANCH  33  34
ENDBRANCH   1  33
TORSDOF 21
ENDMDL
MODEL 2
REMARK VINA RESULT:     -10.4      5.522     16.899
REMARK SMILES O=C(C[C@@H]1C(=O)NCCN1C(=O)OCC1c2ccccc2-c2ccccc21)NCCCCCCNC(=O)c1ccc(-c2c3nc(c(-c4c(F)cc(S(=O)(=O)[O-])cc4F)c4ccc([nH]4)c(-c4c(F)cc(S(=O)(=O)[O-])cc4F)c4nc(c(-c5c(F)cc(S(=O)(=O)[O-])cc5F)c5ccc2[nH]5)C=C4)C=C3)cc1
REMARK SMILES IDX 30 1 29 2 28 3 1 4 2 5 3 7 4 8 5 9 10 10 6 11 7 12 9 13 8 14
REMARK SMILES IDX 11 16 12 17 13 18 14 19 15 20 16 21 27 22 17 23 21 24 22 25
REMARK SMILES IDX 26 26 18 27 20 28 23 29 25 30 19 31 24 32 31 33 32 34 33 35
REMARK SMILES IDX 34 36 35 37 36 38 37 40 38 41 39 42 103 43 40 44 102 45
REMARK SMILES IDX 41 46 42 47 43 48 96 49 44 50 101 51 95 52 97 53 45 54
REMARK SMILES IDX 100 55 94 56 93 57 46 59 80 60 59 61 79 62 60 63 63 64 78 65
REMARK SMILES IDX 98 66 61 67 62 68 77 70 99 71 64 72 47 73 48 74 57 75 49 76
REMARK SMILES IDX 50 77 56 78 58 79 51 80 52 81 53 82 54 83 55 84 81 85 82 86
REMARK SMILES IDX 91 87 83 88 84 89 90 90 92 91 85 92 86 93 87 94 88 95 89 96
REMARK SMILES IDX 65 97 66 98 75 99 67 100 68 101 74 102 76 103 69 104 70 105
REMARK SMILES IDX 71 106 72 107 73 108
REMARK H PARENT 28 6 7 15 35 39 97 58 63 69
REMARK Flexibility Score: inf
ROOT
ATOM      1  C   UNL A   1      52.641  24.018  37.373  1.00  0.00     0.021 C 
ENDROOT
BRANCH   1   2
ATOM      2  C   UNL A   1      53.900  23.214  37.064  1.00  0.00     0.116 C 
BRANCH   2   3
ATOM      3  N   UNL A   1      53.616  21.916  36.489  1.00  0.00    -0.356 N 
ATOM      4  O   UNL A   1      55.056  22.125  34.723  1.00  0.00    -0.275 OA
ATOM      5  C   UNL A   1      54.304  21.429  35.402  1.00  0.00     0.222 C 
ATOM      6  H   UNL A   1      52.907  21.362  36.890  1.00  0.00     0.163 HD
BRANCH   5   7
ATOM      7  C   UNL A   1      53.985  20.007  34.997  1.00  0.00     0.135 C 
BRANCH   7   8
ATOM      8  C   UNL A   1      52.574  19.748  34.443  1.00  0.00     0.187 C 
ATOM      9  C   UNL A   1      52.408  20.569  33.129  1.00  0.00     0.243 C 
ATOM     10  N   UNL A   1      51.396  19.770  35.348  1.00  0.00    -0.294 N 
ATOM     11  O   UNL A   1      53.304  20.668  32.292  1.00  0.00    -0.273 OA
ATOM     12  N   UNL A   1      51.228  21.219  32.900  1.00  0.00    -0.353 N 
ATOM     13  C   UNL A   1      50.107  20.042  34.720  1.00  0.00     0.145 C 
ATOM     14  C   UNL A   1      50.182  21.312  33.890  1.00  0.00     0.137 C 
ATOM     15  H   UNL A   1      51.086  21.642  32.023  1.00  0.00     0.163 HD
BRANCH  10  16
ATOM     16  C   UNL A   1      51.333  19.163  36.592  1.00  0.00     0.410 C 
ATOM     17  O   UNL A   1      51.721  18.022  36.804  1.00  0.00    -0.224 OA
BRANCH  16  18
ATOM     18  O   UNL A   1      50.731  19.934  37.523  1.00  0.00    -0.448 OA
BRANCH  18  19
ATOM     19  C   UNL A   1      50.223  19.258  38.692  1.00  0.00     0.248 C 
BRANCH  19  20
ATOM     20  C   UNL A   1      48.792  19.651  39.141  1.00  0.00     0.088 C 
ATOM     21  C   UNL A   1      47.807  20.010  38.037  1.00  0.00    -0.029 A 
ATOM     22  C   UNL A   1      48.040  18.527  39.857  1.00  0.00    -0.029 A 
ATOM     23  C   UNL A   1      47.834  21.089  37.175  1.00  0.00     0.005 A 
ATOM     24  C   UNL A   1      46.728  19.098  38.023  1.00  0.00    -0.014 A 
ATOM     25  C   UNL A   1      46.853  18.213  39.159  1.00  0.00    -0.014 A 
ATOM     26  C   UNL A   1      48.341  17.926  41.069  1.00  0.00     0.005 A 
ATOM     27  C   UNL A   1      46.797  21.219  36.249  1.00  0.00     0.000 A 
ATOM     28  C   UNL A   1      45.726  19.199  37.071  1.00  0.00     0.009 A 
ATOM     29  C   UNL A   1      45.969  17.270  39.658  1.00  0.00     0.009 A 
ATOM     30  C   UNL A   1      47.441  16.988  41.580  1.00  0.00     0.000 A 
ATOM     31  C   UNL A   1      45.771  20.266  36.173  1.00  0.00     0.001 A 
ATOM     32  C   UNL A   1      46.269  16.659  40.879  1.00  0.00     0.001 A 
ENDBRANCH  19  20
ENDBRANCH  18  19
ENDBRANCH  16  18
ENDBRANCH  10  16
ENDBRANCH   7   8
ENDBRANCH   5   7
ENDBRANCH   2   3
ENDBRANCH   1   2
BRANCH   1  33
ATOM     33  C   UNL A   1      51.495  23.837  36.372  1.00  0.00     0.002 C 
BRANCH  33  34
ATOM     34  C   UNL A   1      50.449  24.957  36.334  1.00  0.00     0.002 C 
BRANCH  34  35
ATOM     35  C   UNL A   1      49.164  24.650  35.561  1.00  0.00     0.021 C 
BRANCH  35  36
ATOM     36  C   UNL A   1      47.862  24.849  36.333  1.00  0.00     0.116 C 
BRANCH  36  37
ATOM     37  N   UNL A   1      48.037  25.610  37.557  1.00  0.00    -0.352 N 
ATOM     38  C   UNL A   1      47.418  26.767  37.967  1.00  0.00     0.251 C 
ATOM     39  H   UNL A   1      48.698  25.244  38.188  1.00  0.00     0.163 HD
ATOM     40  O   UNL A   1      47.795  27.323  38.995  1.00  0.00    -0.269 OA
BRANCH  38  41
ATOM     41  C   UNL A   1      46.323  27.360  37.164  1.00  0.00     0.039 A 
ATOM     42  C   UNL A   1      45.018  26.902  37.371  1.00  0.00     0.014 A 
ATOM     43  C   UNL A   1      46.572  28.345  36.205  1.00  0.00     0.014 A 
ATOM     44  C   UNL A   1      43.958  27.477  36.664  1.00  0.00     0.010 A 
ATOM     45  C   UNL A   1      45.507  28.962  35.549  1.00  0.00     0.010 A 
ATOM     46  C   UNL A   1      44.189  28.536  35.772  1.00  0.00    -0.014 A 
BRANCH  46  47
ATOM     47  C   UNL A   1      43.067  29.212  35.071  1.00  0.00     0.031 A 
ATOM     48  C   UNL A   1      42.657  28.773  33.692  1.00  0.00     0.074 A 
ATOM     49  C   UNL A   1      42.457  30.264  35.651  1.00  0.00     0.049 A 
ATOM     50  N   UNL A   1      41.745  29.277  32.900  1.00  0.00    -0.248 NA
ATOM     51  C   UNL A   1      43.384  27.629  33.117  1.00  0.00     0.031 C 
ATOM     52  C   UNL A   1      42.789  30.814  36.968  1.00  0.00     0.029 A 
ATOM     53  N   UNL A   1      41.436  31.067  35.207  1.00  0.00    -0.354 N 
ATOM     54  C   UNL A   1      41.801  28.529  31.729  1.00  0.00     0.074 A 
ATOM     55  C   UNL A   1      42.867  27.565  31.898  1.00  0.00     0.031 C 
ATOM     56  C   UNL A   1      41.971  31.844  37.234  1.00  0.00     0.029 A 
ATOM     57  C   UNL A   1      41.082  32.054  36.095  1.00  0.00     0.049 A 
ATOM     58  H   UNL A   1      40.999  30.947  34.333  1.00  0.00     0.167 HD
ATOM     59  C   UNL A   1      41.024  28.624  30.624  1.00  0.00     0.037 A 
ATOM     60  C   UNL A   1      40.148  33.021  36.003  1.00  0.00     0.037 A 
ATOM     61  C   UNL A   1      39.948  29.568  30.472  1.00  0.00     0.049 A 
ATOM     62  C   UNL A   1      39.300  33.109  34.765  1.00  0.00     0.074 A 
ATOM     63  C   UNL A   1      39.060  29.698  29.417  1.00  0.00     0.029 A 
ATOM     64  N   UNL A   1      39.614  30.546  31.397  1.00  0.00    -0.354 N 
ATOM     65  N   UNL A   1      39.324  32.352  33.694  1.00  0.00    -0.248 NA
ATOM     66  C   UNL A   1      38.295  34.181  34.722  1.00  0.00     0.031 C 
ATOM     67  C   UNL A   1      38.214  30.781  29.689  1.00  0.00     0.029 A 
ATOM     68  C   UNL A   1      38.547  31.297  30.931  1.00  0.00     0.049 A 
ATOM     69  H   UNL A   1      40.068  30.685  32.260  1.00  0.00     0.167 HD
ATOM     70  C   UNL A   1      38.320  32.836  32.863  1.00  0.00     0.074 A 
ATOM     71  C   UNL A   1      37.704  33.948  33.558  1.00  0.00     0.031 C 
ATOM     72  C   UNL A   1      37.940  32.398  31.638  1.00  0.00     0.037 A 
BRANCH  59  73
ATOM     73  C   UNL A   1      41.316  27.678  29.490  1.00  0.00     0.058 A 
ATOM     74  C   UNL A   1      40.455  26.614  29.177  1.00  0.00     0.135 A 
ATOM     75  C   UNL A   1      42.464  27.845  28.699  1.00  0.00     0.135 A 
ATOM     76  F   UNL A   1      39.350  26.402  29.908  1.00  0.00    -0.206 F 
ATOM     77  C   UNL A   1      40.743  25.723  28.149  1.00  0.00     0.059 A 
ATOM     78  C   UNL A   1      42.759  26.981  27.647  1.00  0.00     0.059 A 
ATOM     79  F   UNL A   1      43.320  28.848  28.951  1.00  0.00    -0.206 F 
ATOM     80  C   UNL A   1      41.902  25.911  27.394  1.00  0.00     0.060 A 
BRANCH  80  81
ATOM     81  S   UNL A   1      42.277  24.734  26.076  1.00  0.00     0.124 S 
ATOM     82  O   UNL A   1      43.543  24.176  26.540  1.00  0.00    -0.237 OA
ATOM     83  O   UNL A   1      41.132  23.831  26.127  1.00  0.00    -0.237 OA
ATOM     84  O   UNL A   1      42.358  25.573  24.885  1.00  0.00    -0.744 OA
ENDBRANCH  80  81
ENDBRANCH  59  73
BRANCH  60  85
ATOM     85  C   UNL A   1      39.942  33.963  37.135  1.00  0.00     0.058 A 
ATOM     86  C   UNL A   1      40.613  35.195  37.171  1.00  0.00     0.135 A 
ATOM     87  C   UNL A   1      39.064  33.666  38.187  1.00  0.00     0.135 A 
ATOM     88  F   UNL A   1      41.469  35.520  36.190  1.00  0.00    -0.206 F 
ATOM     89  C   UNL A   1      40.432  36.094  38.216  1.00  0.00     0.059 A 
ATOM     90  C   UNL A   1      38.847  34.558  39.233  1.00  0.00     0.059 A 
ATOM     91  F   UNL A   1      38.386  32.507  38.190  1.00  0.00    -0.206 F 
ATOM     92  C   UNL A   1      39.543  35.767  39.242  1.00  0.00     0.060 A 
BRANCH  92  93
ATOM     93  S   UNL A   1      39.269  36.966  40.565  1.00  0.00     0.124 S 
ATOM     94  O   UNL A   1      38.562  38.027  39.859  1.00  0.00    -0.237 OA
ATOM     95  O   UNL A   1      38.477  36.194  41.519  1.00  0.00    -0.237 OA
ATOM     96  O   UNL A   1      40.623  37.291  41.007  1.00  0.00    -0.744 OA
ENDBRANCH  92  93
ENDBRANCH  60  85
BRANCH  72  97
ATOM     97  C   UNL A   1      36.783  33.097  30.982  1.00  0.00     0.058 A 
ATOM     98  C   UNL A   1      36.963  33.941  29.874  1.00  0.00     0.135 A 
ATOM     99  C   UNL A   1      35.472  32.886  31.440  1.00  0.00     0.135 A 
ATOM    100  F   UNL A   1      38.196  34.183  29.402  1.00  0.00    -0.206 F 
ATOM    101  C   UNL A   1      35.885  34.567  29.256  1.00  0.00     0.059 A 
ATOM    102  C   UNL A   1      34.378  33.482  30.821  1.00  0.00     0.059 A 
ATOM    103  F   UNL A   1      35.245  32.081  32.490  1.00  0.00    -0.206 F 
ATOM    104  C   UNL A   1      34.595  34.331  29.737  1.00  0.00     0.060 A 
BRANCH 104 105
ATOM    105  S   UNL A   1      33.201  35.120  28.905  1.00  0.00     0.124 S 
ATOM    106  O   UNL A   1      32.843  34.112  27.913  1.00  0.00    -0.237 OA
ATOM    107  O   UNL A   1      32.248  35.303  29.995  1.00  0.00    -0.237 OA
ATOM    108  O   UNL A   1      33.777  36.351  28.372  1.00  0.00    -0.744 OA
ENDBRANCH 104 105
ENDBRANCH  72  97
ENDBRANCH  46  47
ENDBRANCH  38  41
ENDBRANCH  36  37
ENDBRANCH  35  36
ENDBRANCH  34  35
ENDBRANCH  33  34
ENDBRANCH   1  33
TORSDOF 21
ENDMDL
MODEL 3
REMARK VINA RESULT:     -10.1      5.778     10.190
REMARK SMILES O=C(C[C@@H]1C(=O)NCCN1C(=O)OCC1c2ccccc2-c2ccccc21)NCCCCCCNC(=O)c1ccc(-c2c3nc(c(-c4c(F)cc(S(=O)(=O)[O-])cc4F)c4ccc([nH]4)c(-c4c(F)cc(S(=O)(=O)[O-])cc4F)c4nc(c(-c5c(F)cc(S(=O)(=O)[O-])cc5F)c5ccc2[nH]5)C=C4)C=C3)cc1
REMARK SMILES IDX 30 1 29 2 28 3 1 4 2 5 3 7 4 8 5 9 10 10 6 11 7 12 9 13 8 14
REMARK SMILES IDX 11 16 12 17 13 18 14 19 15 20 16 21 27 22 17 23 21 24 22 25
REMARK SMILES IDX 26 26 18 27 20 28 23 29 25 30 19 31 24 32 31 33 32 34 33 35
REMARK SMILES IDX 34 36 35 37 36 38 37 40 38 41 39 42 103 43 40 44 102 45
REMARK SMILES IDX 41 46 42 47 43 48 96 49 44 50 101 51 95 52 97 53 45 54
REMARK SMILES IDX 100 55 94 56 93 57 46 59 80 60 59 61 79 62 60 63 63 64 78 65
REMARK SMILES IDX 98 66 61 67 62 68 77 70 99 71 64 72 47 73 48 74 57 75 49 76
REMARK SMILES IDX 50 77 56 78 58 79 51 80 52 81 53 82 54 83 55 84 81 85 82 86
REMARK SMILES IDX 91 87 83 88 84 89 90 90 92 91 85 92 86 93 87 94 88 95 89 96
REMARK SMILES IDX 65 97 66 98 75 99 67 100 68 101 74 102 76 103 69 104 70 105
REMARK SMILES IDX 71 106 72 107 73 108
REMARK H PARENT 28 6 7 15 35 39 97 58 63 69
REMARK Flexibility Score: inf
ROOT
ATOM      1  C   UNL A   1      34.947  31.375  27.983  1.00  0.00     0.021 C 
ENDROOT
BRANCH   1   2
ATOM      2  C   UNL A   1      34.656  29.906  27.692  1.00  0.00     0.116 C 
BRANCH   2   3
ATOM      3  N   UNL A   1      33.282  29.665  27.305  1.00  0.00    -0.356 N 
ATOM      4  O   UNL A   1      33.773  28.758  25.263  1.00  0.00    -0.275 OA
ATOM      5  C   UNL A   1      32.953  29.008  26.143  1.00  0.00     0.222 C 
ATOM      6  H   UNL A   1      32.560  29.983  27.893  1.00  0.00     0.163 HD
BRANCH   5   7
ATOM      7  C   UNL A   1      31.482  28.718  25.939  1.00  0.00     0.135 C 
BRANCH   7   8
ATOM      8  C   UNL A   1      31.124  27.714  24.831  1.00  0.00     0.187 C 
ATOM      9  C   UNL A   1      30.224  28.441  23.787  1.00  0.00     0.243 C 
ATOM     10  N   UNL A   1      30.692  26.335  25.178  1.00  0.00    -0.294 N 
ATOM     11  O   UNL A   1      30.438  29.595  23.418  1.00  0.00    -0.273 OA
ATOM     12  N   UNL A   1      29.146  27.781  23.270  1.00  0.00    -0.353 N 
ATOM     13  C   UNL A   1      29.891  25.641  24.174  1.00  0.00     0.145 C 
ATOM     14  C   UNL A   1      28.707  26.497  23.760  1.00  0.00     0.137 C 
ATOM     15  H   UNL A   1      28.647  28.200  22.532  1.00  0.00     0.163 HD
BRANCH  10  16
ATOM     16  C   UNL A   1      31.300  25.521  26.119  1.00  0.00     0.410 C 
ATOM     17  O   UNL A   1      30.677  24.854  26.935  1.00  0.00    -0.224 OA
BRANCH  16  18
ATOM     18  O   UNL A   1      32.648  25.601  26.092  1.00  0.00    -0.448 OA
BRANCH  18  19
ATOM     19  C   UNL A   1      33.371  24.354  26.139  1.00  0.00     0.248 C 
BRANCH  19  20
ATOM     20  C   UNL A   1      33.927  23.835  24.788  1.00  0.00     0.088 C 
ATOM     21  C   UNL A   1      33.437  22.469  24.329  1.00  0.00    -0.029 A 
ATOM     22  C   UNL A   1      33.545  24.706  23.589  1.00  0.00    -0.029 A 
ATOM     23  C   UNL A   1      33.669  21.233  24.900  1.00  0.00     0.005 A 
ATOM     24  C   UNL A   1      32.719  22.584  23.117  1.00  0.00    -0.014 A 
ATOM     25  C   UNL A   1      32.817  23.947  22.647  1.00  0.00    -0.014 A 
ATOM     26  C   UNL A   1      33.910  26.018  23.327  1.00  0.00     0.005 A 
ATOM     27  C   UNL A   1      33.124  20.108  24.280  1.00  0.00     0.000 A 
ATOM     28  C   UNL A   1      32.136  21.473  22.530  1.00  0.00     0.009 A 
ATOM     29  C   UNL A   1      32.423  24.507  21.442  1.00  0.00     0.009 A 
ATOM     30  C   UNL A   1      33.527  26.576  22.105  1.00  0.00     0.000 A 
ATOM     31  C   UNL A   1      32.336  20.227  23.126  1.00  0.00     0.001 A 
ATOM     32  C   UNL A   1      32.786  25.829  21.174  1.00  0.00     0.001 A 
ENDBRANCH  19  20
ENDBRANCH  18  19
ENDBRANCH  16  18
ENDBRANCH  10  16
ENDBRANCH   7   8
ENDBRANCH   5   7
ENDBRANCH   2   3
ENDBRANCH   1   2
BRANCH   1  33
ATOM     33  C   UNL A   1      36.154  31.629  28.893  1.00  0.00     0.002 C 
BRANCH  33  34
ATOM     34  C   UNL A   1      36.036  31.111  30.330  1.00  0.00     0.002 C 
BRANCH  34  35
ATOM     35  C   UNL A   1      36.875  29.877  30.671  1.00  0.00     0.021 C 
BRANCH  35  36
ATOM     36  C   UNL A   1      36.995  29.545  32.156  1.00  0.00     0.116 C 
BRANCH  36  37
ATOM     37  N   UNL A   1      37.190  30.721  32.987  1.00  0.00    -0.352 N 
ATOM     38  C   UNL A   1      38.345  31.407  33.278  1.00  0.00     0.251 C 
ATOM     39  H   UNL A   1      36.374  31.080  33.404  1.00  0.00     0.163 HD
ATOM     40  O   UNL A   1      38.317  32.315  34.105  1.00  0.00    -0.269 OA
BRANCH  38  41
ATOM     41  C   UNL A   1      39.624  31.040  32.626  1.00  0.00     0.039 A 
ATOM     42  C   UNL A   1      40.491  30.172  33.296  1.00  0.00     0.014 A 
ATOM     43  C   UNL A   1      39.978  31.550  31.374  1.00  0.00     0.014 A 
ATOM     44  C   UNL A   1      41.681  29.767  32.685  1.00  0.00     0.010 A 
ATOM     45  C   UNL A   1      41.134  31.095  30.739  1.00  0.00     0.010 A 
ATOM     46  C   UNL A   1      41.997  30.198  31.387  1.00  0.00    -0.014 A 
BRANCH  46  47
ATOM     47  C   UNL A   1      43.218  29.717  30.690  1.00  0.00     0.031 A 
ATOM     48  C   UNL A   1      43.207  28.404  29.956  1.00  0.00     0.074 A 
ATOM     49  C   UNL A   1      44.356  30.434  30.771  1.00  0.00     0.049 A 
ATOM     50  N   UNL A   1      44.187  27.792  29.341  1.00  0.00    -0.248 NA
ATOM     51  C   UNL A   1      41.932  27.670  29.930  1.00  0.00     0.031 C 
ATOM     52  C   UNL A   1      44.508  31.703  31.488  1.00  0.00     0.029 A 
ATOM     53  N   UNL A   1      45.605  30.195  30.255  1.00  0.00    -0.354 N 
ATOM     54  C   UNL A   1      43.655  26.596  28.873  1.00  0.00     0.074 A 
ATOM     55  C   UNL A   1      42.277  26.549  29.313  1.00  0.00     0.031 C 
ATOM     56  C   UNL A   1      45.768  32.142  31.342  1.00  0.00     0.029 A 
ATOM     57  C   UNL A   1      46.525  31.172  30.556  1.00  0.00     0.049 A 
ATOM     58  H   UNL A   1      45.823  29.399  29.719  1.00  0.00     0.167 HD
ATOM     59  C   UNL A   1      44.252  25.636  28.128  1.00  0.00     0.037 A 
ATOM     60  C   UNL A   1      47.830  31.274  30.239  1.00  0.00     0.037 A 
ATOM     61  C   UNL A   1      45.616  25.700  27.670  1.00  0.00     0.049 A 
ATOM     62  C   UNL A   1      48.473  30.193  29.415  1.00  0.00     0.074 A 
ATOM     63  C   UNL A   1      46.294  24.809  26.855  1.00  0.00     0.029 A 
ATOM     64  N   UNL A   1      46.513  26.710  27.989  1.00  0.00    -0.354 N 
ATOM     65  N   UNL A   1      47.937  29.100  28.926  1.00  0.00    -0.248 NA
ATOM     66  C   UNL A   1      49.898  30.360  29.096  1.00  0.00     0.031 C 
ATOM     67  C   UNL A   1      47.611  25.260  26.714  1.00  0.00     0.029 A 
ATOM     68  C   UNL A   1      47.743  26.454  27.406  1.00  0.00     0.049 A 
ATOM     69  H   UNL A   1      46.305  27.493  28.548  1.00  0.00     0.167 HD
ATOM     70  C   UNL A   1      48.950  28.464  28.217  1.00  0.00     0.074 A 
ATOM     71  C   UNL A   1      50.129  29.297  28.337  1.00  0.00     0.031 C 
ATOM     72  C   UNL A   1      48.907  27.297  27.527  1.00  0.00     0.037 A 
BRANCH  59  73
ATOM     73  C   UNL A   1      43.430  24.429  27.765  1.00  0.00     0.058 A 
ATOM     74  C   UNL A   1      42.756  24.337  26.537  1.00  0.00     0.135 A 
ATOM     75  C   UNL A   1      43.321  23.346  28.652  1.00  0.00     0.135 A 
ATOM     76  F   UNL A   1      42.816  25.350  25.656  1.00  0.00    -0.206 F 
ATOM     77  C   UNL A   1      41.971  23.235  26.217  1.00  0.00     0.059 A 
ATOM     78  C   UNL A   1      42.562  22.220  28.342  1.00  0.00     0.059 A 
ATOM     79  F   UNL A   1      43.947  23.378  29.840  1.00  0.00    -0.206 F 
ATOM     80  C   UNL A   1      41.875  22.184  27.130  1.00  0.00     0.060 A 
BRANCH  80  81
ATOM     81  S   UNL A   1      40.833  20.769  26.713  1.00  0.00     0.124 S 
ATOM     82  O   UNL A   1      40.790  20.057  27.987  1.00  0.00    -0.237 OA
ATOM     83  O   UNL A   1      39.587  21.406  26.303  1.00  0.00    -0.237 OA
ATOM     84  O   UNL A   1      41.575  20.104  25.647  1.00  0.00    -0.744 OA
ENDBRANCH  80  81
ENDBRANCH  59  73
BRANCH  60  85
ATOM     85  C   UNL A   1      48.608  32.464  30.673  1.00  0.00     0.058 A 
ATOM     86  C   UNL A   1      48.693  33.600  29.855  1.00  0.00     0.135 A 
ATOM     87  C   UNL A   1      49.263  32.500  31.913  1.00  0.00     0.135 A 
ATOM     88  F   UNL A   1      48.088  33.609  28.657  1.00  0.00    -0.206 F 
ATOM     89  C   UNL A   1      49.409  34.727  30.243  1.00  0.00     0.059 A 
ATOM     90  C   UNL A   1      49.968  33.624  32.334  1.00  0.00     0.059 A 
ATOM     91  F   UNL A   1      49.199  31.444  32.739  1.00  0.00    -0.206 F 
ATOM     92  C   UNL A   1      50.041  34.730  31.487  1.00  0.00     0.060 A 
BRANCH  92  93
ATOM     93  S   UNL A   1      50.921  36.219  32.008  1.00  0.00     0.124 S 
ATOM     94  O   UNL A   1      52.202  36.054  31.332  1.00  0.00    -0.237 OA
ATOM     95  O   UNL A   1      50.059  37.280  31.493  1.00  0.00    -0.237 OA
ATOM     96  O   UNL A   1      50.951  36.099  33.462  1.00  0.00    -0.744 OA
ENDBRANCH  92  93
ENDBRANCH  60  85
BRANCH  72  97
ATOM     97  C   UNL A   1      50.160  26.867  26.818  1.00  0.00     0.058 A 
ATOM     98  C   UNL A   1      50.399  27.201  25.476  1.00  0.00     0.135 A 
ATOM     99  C   UNL A   1      51.154  26.150  27.504  1.00  0.00     0.135 A 
ATOM    100  F   UNL A   1      49.478  27.878  24.773  1.00  0.00    -0.206 F 
ATOM    101  C   UNL A   1      51.573  26.820  24.832  1.00  0.00     0.059 A 
ATOM    102  C   UNL A   1      52.344  25.781  26.887  1.00  0.00     0.059 A 
ATOM    103  F   UNL A   1      50.978  25.814  28.792  1.00  0.00    -0.206 F 
ATOM    104  C   UNL A   1      52.540  26.111  25.546  1.00  0.00     0.060 A 
BRANCH 104 105
ATOM    105  S   UNL A   1      54.074  25.653  24.711  1.00  0.00     0.124 S 
ATOM    106  O   UNL A   1      55.049  26.476  25.418  1.00  0.00    -0.237 OA
ATOM    107  O   UNL A   1      54.154  24.218  24.965  1.00  0.00    -0.237 OA
ATOM    108  O   UNL A   1      53.826  26.024  23.321  1.00  0.00    -0.744 OA
ENDBRANCH 104 105
ENDBRANCH  72  97
ENDBRANCH  46  47
ENDBRANCH  38  41
ENDBRANCH  36  37
ENDBRANCH  35  36
ENDBRANCH  34  35
ENDBRANCH  33  34
ENDBRANCH   1  33
TORSDOF 21
ENDMDL
