MODEL 1
REMARK VINA RESULT:     -11.5      0.000      0.000
REMARK SMILES Cc1cc(C(=O)N2CCC[C@@H]2C)sc1/C=C/C(=O)NCCCCCCNC(=O)c1ccc(-c2c3nc(c(-c4c(F)cc(S(=O)(=O)[O-])cc4F)c4ccc([nH]4)c(-c4c(F)cc(S(=O)(=O)[O-])cc4F)c4nc(c(-c5c(F)cc(S(=O)(=O)[O-])cc5F)c5ccc2[nH]5)C=C4)C=C3)cc1
REMARK SMILES IDX 22 1 21 2 20 3 19 4 17 5 18 6 16 8 15 9 14 10 1 11 2 12 3 13
REMARK SMILES IDX 4 14 13 15 5 16 6 17 7 18 8 19 11 20 9 21 10 22 12 23 23 24
REMARK SMILES IDX 24 25 25 26 26 27 27 28 28 30 29 31 30 32 94 33 31 34 93 35
REMARK SMILES IDX 32 36 33 37 34 38 87 39 35 40 92 41 86 42 88 43 36 44 91 45
REMARK SMILES IDX 85 46 84 47 37 49 71 50 50 51 70 52 51 53 54 54 69 55 89 56
REMARK SMILES IDX 52 57 53 58 68 60 90 61 55 62 38 63 39 64 48 65 40 66 41 67
REMARK SMILES IDX 47 68 49 69 42 70 43 71 44 72 45 73 46 74 72 75 73 76 82 77
REMARK SMILES IDX 74 78 75 79 81 80 83 81 76 82 77 83 78 84 79 85 80 86 56 87
REMARK SMILES IDX 57 88 66 89 58 90 59 91 65 92 67 93 60 94 61 95 62 96 63 97
REMARK SMILES IDX 64 98
REMARK H PARENT 19 7 26 29 88 48 54 59
REMARK Flexibility Score: inf
ROOT
ATOM      1  C   UNL A   1      31.222  28.844  24.332  1.00  0.00     0.002 C 
ENDROOT
BRANCH   1   2
ATOM      2  C   UNL A   1      30.071  28.050  23.701  1.00  0.00     0.021 C 
BRANCH   2   3
ATOM      3  C   UNL A   1      30.539  27.046  22.647  1.00  0.00     0.116 C 
BRANCH   3   4
ATOM      4  N   UNL A   1      31.835  27.441  22.125  1.00  0.00    -0.353 N 
ATOM      5  C   UNL A   1      33.024  26.785  22.119  1.00  0.00     0.244 C 
ATOM      6  O   UNL A   1      33.998  27.290  21.567  1.00  0.00    -0.270 OA
ATOM      7  H   UNL A   1      31.855  28.331  21.704  1.00  0.00     0.163 HD
BRANCH   5   8
ATOM      8  C   UNL A   1      33.134  25.422  22.677  1.00  0.00     0.072 C 
ATOM      9  C   UNL A   1      34.153  24.982  23.432  1.00  0.00     0.025 C 
BRANCH   9  10
ATOM     10  C   UNL A   1      34.197  23.654  23.956  1.00  0.00     0.031 A 
ATOM     11  C   UNL A   1      36.468  23.672  25.174  1.00  0.00     0.046 C 
ATOM     12  C   UNL A   1      35.208  23.031  24.677  1.00  0.00    -0.032 A 
ATOM     13  C   UNL A   1      34.887  21.654  24.946  1.00  0.00     0.029 A 
ATOM     14  C   UNL A   1      33.640  21.271  24.486  1.00  0.00     0.093 A 
ATOM     15  S   UNL A   1      32.871  22.589  23.737  1.00  0.00    -0.130 S 
BRANCH  14  16
ATOM     16  C   UNL A   1      32.962  20.012  24.782  1.00  0.00     0.264 C 
ATOM     17  O   UNL A   1      31.906  20.005  25.421  1.00  0.00    -0.268 OA
BRANCH  16  18
ATOM     18  N   UNL A   1      33.436  18.810  24.269  1.00  0.00    -0.335 N 
ATOM     19  C   UNL A   1      34.824  18.458  24.465  1.00  0.00     0.120 C 
ATOM     20  C   UNL A   1      32.754  17.785  23.471  1.00  0.00     0.082 C 
ATOM     21  C   UNL A   1      34.775  16.943  24.514  1.00  0.00     0.024 C 
ATOM     22  C   UNL A   1      33.737  16.601  23.448  1.00  0.00     0.026 C 
ATOM     23  C   UNL A   1      32.460  18.287  22.060  1.00  0.00     0.031 C 
ENDBRANCH  16  18
ENDBRANCH  14  16
ENDBRANCH   9  10
ENDBRANCH   5   8
ENDBRANCH   3   4
ENDBRANCH   2   3
ENDBRANCH   1   2
BRANCH   1  24
ATOM     24  C   UNL A   1      31.535  28.473  25.787  1.00  0.00     0.002 C 
BRANCH  24  25
ATOM     25  C   UNL A   1      32.854  27.721  25.992  1.00  0.00     0.021 C 
BRANCH  25  26
ATOM     26  C   UNL A   1      34.097  28.604  25.921  1.00  0.00     0.116 C 
BRANCH  26  27
ATOM     27  N   UNL A   1      33.804  29.973  26.317  1.00  0.00    -0.352 N 
ATOM     28  C   UNL A   1      34.369  30.727  27.314  1.00  0.00     0.251 C 
ATOM     29  H   UNL A   1      33.101  30.421  25.794  1.00  0.00     0.163 HD
ATOM     30  O   UNL A   1      33.836  31.775  27.664  1.00  0.00    -0.269 OA
BRANCH  28  31
ATOM     31  C   UNL A   1      35.612  30.267  27.970  1.00  0.00     0.039 A 
ATOM     32  C   UNL A   1      36.832  30.464  27.322  1.00  0.00     0.014 A 
ATOM     33  C   UNL A   1      35.568  29.626  29.212  1.00  0.00     0.014 A 
ATOM     34  C   UNL A   1      38.017  30.064  27.946  1.00  0.00     0.010 A 
ATOM     35  C   UNL A   1      36.752  29.293  29.862  1.00  0.00     0.010 A 
ATOM     36  C   UNL A   1      37.989  29.502  29.233  1.00  0.00    -0.014 A 
BRANCH  36  37
ATOM     37  C   UNL A   1      39.241  29.124  29.935  1.00  0.00     0.031 A 
ATOM     38  C   UNL A   1      39.668  29.867  31.172  1.00  0.00     0.074 A 
ATOM     39  C   UNL A   1      40.024  28.154  29.424  1.00  0.00     0.049 A 
ATOM     40  N   UNL A   1      40.755  29.728  31.886  1.00  0.00    -0.248 NA
ATOM     41  C   UNL A   1      38.767  30.926  31.654  1.00  0.00     0.031 C 
ATOM     42  C   UNL A   1      39.740  27.394  28.203  1.00  0.00     0.029 A 
ATOM     43  N   UNL A   1      41.223  27.647  29.857  1.00  0.00    -0.354 N 
ATOM     44  C   UNL A   1      40.676  30.685  32.890  1.00  0.00     0.074 A 
ATOM     45  C   UNL A   1      39.461  31.436  32.661  1.00  0.00     0.031 C 
ATOM     46  C   UNL A   1      40.725  26.505  28.000  1.00  0.00     0.029 A 
ATOM     47  C   UNL A   1      41.728  26.655  29.050  1.00  0.00     0.049 A 
ATOM     48  H   UNL A   1      41.679  27.965  30.670  1.00  0.00     0.167 HD
ATOM     49  C   UNL A   1      41.527  30.903  33.922  1.00  0.00     0.037 A 
ATOM     50  C   UNL A   1      42.873  25.951  29.141  1.00  0.00     0.037 A 
ATOM     51  C   UNL A   1      42.723  30.136  34.154  1.00  0.00     0.049 A 
ATOM     52  C   UNL A   1      43.803  26.212  30.294  1.00  0.00     0.074 A 
ATOM     53  C   UNL A   1      43.620  30.238  35.203  1.00  0.00     0.029 A 
ATOM     54  N   UNL A   1      43.192  29.128  33.324  1.00  0.00    -0.354 N 
ATOM     55  N   UNL A   1      43.680  27.078  31.272  1.00  0.00    -0.248 NA
ATOM     56  C   UNL A   1      45.024  25.397  30.361  1.00  0.00     0.031 C 
ATOM     57  C   UNL A   1      44.656  29.323  34.983  1.00  0.00     0.029 A 
ATOM     58  C   UNL A   1      44.377  28.615  33.825  1.00  0.00     0.049 A 
ATOM     59  H   UNL A   1      42.748  28.821  32.501  1.00  0.00     0.167 HD
ATOM     60  C   UNL A   1      44.794  26.895  32.084  1.00  0.00     0.074 A 
ATOM     61  C   UNL A   1      45.572  25.827  31.488  1.00  0.00     0.031 C 
ATOM     62  C   UNL A   1      45.140  27.550  33.220  1.00  0.00     0.037 A 
BRANCH  49  63
ATOM     63  C   UNL A   1      41.192  32.018  34.876  1.00  0.00     0.058 A 
ATOM     64  C   UNL A   1      40.348  31.815  35.981  1.00  0.00     0.135 A 
ATOM     65  C   UNL A   1      41.736  33.299  34.699  1.00  0.00     0.135 A 
ATOM     66  F   UNL A   1      39.787  30.614  36.192  1.00  0.00    -0.206 F 
ATOM     67  C   UNL A   1      40.027  32.850  36.852  1.00  0.00     0.059 A 
ATOM     68  C   UNL A   1      41.453  34.343  35.575  1.00  0.00     0.059 A 
ATOM     69  F   UNL A   1      42.550  33.551  33.661  1.00  0.00    -0.206 F 
ATOM     70  C   UNL A   1      40.582  34.113  36.639  1.00  0.00     0.060 A 
BRANCH  70  71
ATOM     71  S   UNL A   1      40.148  35.449  37.773  1.00  0.00     0.124 S 
ATOM     72  O   UNL A   1      39.941  36.560  36.848  1.00  0.00    -0.237 OA
ATOM     73  O   UNL A   1      38.945  34.932  38.419  1.00  0.00    -0.237 OA
ATOM     74  O   UNL A   1      41.320  35.559  38.634  1.00  0.00    -0.744 OA
ENDBRANCH  70  71
ENDBRANCH  49  63
BRANCH  50  75
ATOM     75  C   UNL A   1      43.185  24.913  28.123  1.00  0.00     0.058 A 
ATOM     76  C   UNL A   1      43.832  25.251  26.925  1.00  0.00     0.135 A 
ATOM     77  C   UNL A   1      42.871  23.562  28.338  1.00  0.00     0.135 A 
ATOM     78  F   UNL A   1      44.148  26.530  26.671  1.00  0.00    -0.206 F 
ATOM     79  C   UNL A   1      44.145  24.290  25.970  1.00  0.00     0.059 A 
ATOM     80  C   UNL A   1      43.197  22.579  27.410  1.00  0.00     0.059 A 
ATOM     81  F   UNL A   1      42.269  23.185  29.477  1.00  0.00    -0.206 F 
ATOM     82  C   UNL A   1      43.827  22.954  26.224  1.00  0.00     0.060 A 
BRANCH  82  83
ATOM     83  S   UNL A   1      44.294  21.707  25.005  1.00  0.00     0.124 S 
ATOM     84  O   UNL A   1      45.682  21.446  25.365  1.00  0.00    -0.237 OA
ATOM     85  O   UNL A   1      43.347  20.632  25.288  1.00  0.00    -0.237 OA
ATOM     86  O   UNL A   1      44.088  22.391  23.731  1.00  0.00    -0.744 OA
ENDBRANCH  82  83
ENDBRANCH  50  75
BRANCH  62  87
ATOM     87  C   UNL A   1      46.401  27.114  33.913  1.00  0.00     0.058 A 
ATOM     88  C   UNL A   1      46.397  26.106  34.891  1.00  0.00     0.135 A 
ATOM     89  C   UNL A   1      47.639  27.676  33.556  1.00  0.00     0.135 A 
ATOM     90  F   UNL A   1      45.240  25.542  35.272  1.00  0.00    -0.206 F 
ATOM     91  C   UNL A   1      47.571  25.687  35.507  1.00  0.00     0.059 A 
ATOM     92  C   UNL A   1      48.828  27.253  34.140  1.00  0.00     0.059 A 
ATOM     93  F   UNL A   1      47.700  28.636  32.621  1.00  0.00    -0.206 F 
ATOM     94  C   UNL A   1      48.782  26.265  35.123  1.00  0.00     0.060 A 
BRANCH  94  95
ATOM     95  S   UNL A   1      50.303  25.687  35.906  1.00  0.00     0.124 S 
ATOM     96  O   UNL A   1      51.289  25.950  34.863  1.00  0.00    -0.237 OA
ATOM     97  O   UNL A   1      50.389  26.536  37.090  1.00  0.00    -0.237 OA
ATOM     98  O   UNL A   1      50.033  24.276  36.172  1.00  0.00    -0.744 OA
ENDBRANCH  94  95
ENDBRANCH  62  87
ENDBRANCH  36  37
ENDBRANCH  28  31
ENDBRANCH  26  27
ENDBRANCH  25  26
ENDBRANCH  24  25
ENDBRANCH   1  24
TORSDOF 19
ENDMDL
MODEL 2
REMARK VINA RESULT:     -11.0      3.084      9.916
REMARK SMILES Cc1cc(C(=O)N2CCC[C@@H]2C)sc1/C=C/C(=O)NCCCCCCNC(=O)c1ccc(-c2c3nc(c(-c4c(F)cc(S(=O)(=O)[O-])cc4F)c4ccc([nH]4)c(-c4c(F)cc(S(=O)(=O)[O-])cc4F)c4nc(c(-c5c(F)cc(S(=O)(=O)[O-])cc5F)c5ccc2[nH]5)C=C4)C=C3)cc1
REMARK SMILES IDX 22 1 21 2 20 3 19 4 17 5 18 6 16 8 15 9 14 10 1 11 2 12 3 13
REMARK SMILES IDX 4 14 13 15 5 16 6 17 7 18 8 19 11 20 9 21 10 22 12 23 23 24
REMARK SMILES IDX 24 25 25 26 26 27 27 28 28 30 29 31 30 32 94 33 31 34 93 35
REMARK SMILES IDX 32 36 33 37 34 38 87 39 35 40 92 41 86 42 88 43 36 44 91 45
REMARK SMILES IDX 85 46 84 47 37 49 71 50 50 51 70 52 51 53 54 54 69 55 89 56
REMARK SMILES IDX 52 57 53 58 68 60 90 61 55 62 38 63 39 64 48 65 40 66 41 67
REMARK SMILES IDX 47 68 49 69 42 70 43 71 44 72 45 73 46 74 72 75 73 76 82 77
REMARK SMILES IDX 74 78 75 79 81 80 83 81 76 82 77 83 78 84 79 85 80 86 56 87
REMARK SMILES IDX 57 88 66 89 58 90 59 91 65 92 67 93 60 94 61 95 62 96 63 97
REMARK SMILES IDX 64 98
REMARK H PARENT 19 7 26 29 88 48 54 59
REMARK Flexibility Score: inf
ROOT
ATOM      1  C   UNL A   1      37.209  21.185  24.300  1.00  0.00     0.002 C 
ENDROOT
BRANCH   1   2
ATOM      2  C   UNL A   1      36.409  19.973  24.793  1.00  0.00     0.021 C 
BRANCH   2   3
ATOM      3  C   UNL A   1      35.121  20.357  25.522  1.00  0.00     0.116 C 
BRANCH   3   4
ATOM      4  N   UNL A   1      34.094  19.362  25.277  1.00  0.00    -0.353 N 
ATOM      5  C   UNL A   1      32.771  19.504  25.006  1.00  0.00     0.244 C 
ATOM      6  O   UNL A   1      32.084  18.512  24.776  1.00  0.00    -0.270 OA
ATOM      7  H   UNL A   1      34.407  18.429  25.313  1.00  0.00     0.163 HD
BRANCH   5   8
ATOM      8  C   UNL A   1      32.169  20.846  24.879  1.00  0.00     0.072 C 
ATOM      9  C   UNL A   1      32.292  21.831  25.782  1.00  0.00     0.025 C 
BRANCH   9  10
ATOM     10  C   UNL A   1      31.697  23.117  25.596  1.00  0.00     0.031 A 
ATOM     11  C   UNL A   1      29.688  22.976  27.204  1.00  0.00     0.046 C 
ATOM     12  C   UNL A   1      30.537  23.633  26.159  1.00  0.00    -0.032 A 
ATOM     13  C   UNL A   1      30.243  24.944  25.642  1.00  0.00     0.029 A 
ATOM     14  C   UNL A   1      31.191  25.420  24.755  1.00  0.00     0.093 A 
ATOM     15  S   UNL A   1      32.431  24.272  24.563  1.00  0.00    -0.130 S 
BRANCH  14  16
ATOM     16  C   UNL A   1      31.271  26.779  24.227  1.00  0.00     0.264 C 
ATOM     17  O   UNL A   1      30.790  27.051  23.123  1.00  0.00    -0.268 OA
BRANCH  16  18
ATOM     18  N   UNL A   1      31.800  27.811  24.993  1.00  0.00    -0.335 N 
ATOM     19  C   UNL A   1      31.648  29.175  24.540  1.00  0.00     0.120 C 
ATOM     20  C   UNL A   1      32.577  27.766  26.236  1.00  0.00     0.082 C 
ATOM     21  C   UNL A   1      31.600  29.950  25.844  1.00  0.00     0.024 C 
ATOM     22  C   UNL A   1      32.633  29.231  26.707  1.00  0.00     0.026 C 
ATOM     23  C   UNL A   1      33.979  27.210  25.994  1.00  0.00     0.031 C 
ENDBRANCH  16  18
ENDBRANCH  14  16
ENDBRANCH   9  10
ENDBRANCH   5   8
ENDBRANCH   3   4
ENDBRANCH   2   3
ENDBRANCH   1   2
BRANCH   1  24
ATOM     24  C   UNL A   1      38.072  21.863  25.371  1.00  0.00     0.002 C 
BRANCH  24  25
ATOM     25  C   UNL A   1      37.745  23.337  25.627  1.00  0.00     0.021 C 
BRANCH  25  26
ATOM     26  C   UNL A   1      38.667  24.019  26.634  1.00  0.00     0.116 C 
BRANCH  26  27
ATOM     27  N   UNL A   1      40.054  23.987  26.196  1.00  0.00    -0.352 N 
ATOM     28  C   UNL A   1      41.067  24.876  26.457  1.00  0.00     0.251 C 
ATOM     29  H   UNL A   1      40.301  23.219  25.633  1.00  0.00     0.163 HD
ATOM     30  O   UNL A   1      42.108  24.822  25.811  1.00  0.00    -0.269 OA
BRANCH  28  31
ATOM     31  C   UNL A   1      40.892  25.902  27.507  1.00  0.00     0.039 A 
ATOM     32  C   UNL A   1      39.918  25.709  28.488  1.00  0.00     0.014 A 
ATOM     33  C   UNL A   1      41.677  27.059  27.511  1.00  0.00     0.014 A 
ATOM     34  C   UNL A   1      39.766  26.654  29.505  1.00  0.00     0.010 A 
ATOM     35  C   UNL A   1      41.572  27.964  28.563  1.00  0.00     0.010 A 
ATOM     36  C   UNL A   1      40.610  27.774  29.568  1.00  0.00    -0.014 A 
BRANCH  36  37
ATOM     37  C   UNL A   1      40.502  28.760  30.673  1.00  0.00     0.031 A 
ATOM     38  C   UNL A   1      41.381  28.632  31.888  1.00  0.00     0.074 A 
ATOM     39  C   UNL A   1      39.570  29.731  30.610  1.00  0.00     0.049 A 
ATOM     40  N   UNL A   1      41.390  29.353  32.980  1.00  0.00    -0.248 NA
ATOM     41  C   UNL A   1      42.358  27.532  31.888  1.00  0.00     0.031 C 
ATOM     42  C   UNL A   1      38.628  29.927  29.505  1.00  0.00     0.029 A 
ATOM     43  N   UNL A   1      39.253  30.728  31.496  1.00  0.00    -0.354 N 
ATOM     44  C   UNL A   1      42.361  28.789  33.799  1.00  0.00     0.074 A 
ATOM     45  C   UNL A   1      42.880  27.632  33.102  1.00  0.00     0.031 C 
ATOM     46  C   UNL A   1      37.855  30.992  29.771  1.00  0.00     0.029 A 
ATOM     47  C   UNL A   1      38.218  31.531  31.078  1.00  0.00     0.049 A 
ATOM     48  H   UNL A   1      39.722  30.857  32.353  1.00  0.00     0.167 HD
ATOM     49  C   UNL A   1      42.795  29.209  35.012  1.00  0.00     0.037 A 
ATOM     50  C   UNL A   1      37.624  32.579  31.682  1.00  0.00     0.037 A 
ATOM     51  C   UNL A   1      42.288  30.374  35.689  1.00  0.00     0.049 A 
ATOM     52  C   UNL A   1      38.122  33.027  33.028  1.00  0.00     0.074 A 
ATOM     53  C   UNL A   1      42.701  30.918  36.892  1.00  0.00     0.029 A 
ATOM     54  N   UNL A   1      41.251  31.172  35.224  1.00  0.00    -0.354 N 
ATOM     55  N   UNL A   1      39.086  32.520  33.760  1.00  0.00    -0.248 NA
ATOM     56  C   UNL A   1      37.458  34.191  33.630  1.00  0.00     0.031 C 
ATOM     57  C   UNL A   1      41.885  32.019  37.177  1.00  0.00     0.029 A 
ATOM     58  C   UNL A   1      40.997  32.191  36.128  1.00  0.00     0.049 A 
ATOM     59  H   UNL A   1      40.768  31.034  34.378  1.00  0.00     0.167 HD
ATOM     60  C   UNL A   1      39.160  33.319  34.896  1.00  0.00     0.074 A 
ATOM     61  C   UNL A   1      38.152  34.349  34.747  1.00  0.00     0.031 C 
ATOM     62  C   UNL A   1      39.989  33.210  35.964  1.00  0.00     0.037 A 
BRANCH  49  63
ATOM     63  C   UNL A   1      43.874  28.402  35.683  1.00  0.00     0.058 A 
ATOM     64  C   UNL A   1      45.236  28.642  35.438  1.00  0.00     0.135 A 
ATOM     65  C   UNL A   1      43.545  27.389  36.597  1.00  0.00     0.135 A 
ATOM     66  F   UNL A   1      45.610  29.588  34.562  1.00  0.00    -0.206 F 
ATOM     67  C   UNL A   1      46.231  27.884  36.047  1.00  0.00     0.059 A 
ATOM     68  C   UNL A   1      44.525  26.638  37.242  1.00  0.00     0.059 A 
ATOM     69  F   UNL A   1      42.260  27.116  36.871  1.00  0.00    -0.206 F 
ATOM     70  C   UNL A   1      45.865  26.881  36.946  1.00  0.00     0.060 A 
BRANCH  70  71
ATOM     71  S   UNL A   1      47.167  25.899  37.720  1.00  0.00     0.124 S 
ATOM     72  O   UNL A   1      48.343  26.728  37.470  1.00  0.00    -0.237 OA
ATOM     73  O   UNL A   1      46.724  25.833  39.110  1.00  0.00    -0.237 OA
ATOM     74  O   UNL A   1      47.121  24.637  36.990  1.00  0.00    -0.744 OA
ENDBRANCH  70  71
ENDBRANCH  49  63
BRANCH  50  75
ATOM     75  C   UNL A   1      36.510  33.291  31.000  1.00  0.00     0.058 A 
ATOM     76  C   UNL A   1      35.193  33.185  31.470  1.00  0.00     0.135 A 
ATOM     77  C   UNL A   1      36.743  34.112  29.886  1.00  0.00     0.135 A 
ATOM     78  F   UNL A   1      34.919  32.407  32.528  1.00  0.00    -0.206 F 
ATOM     79  C   UNL A   1      34.143  33.856  30.853  1.00  0.00     0.059 A 
ATOM     80  C   UNL A   1      35.714  34.815  29.267  1.00  0.00     0.059 A 
ATOM     81  F   UNL A   1      37.989  34.262  29.409  1.00  0.00    -0.206 F 
ATOM     82  C   UNL A   1      34.415  34.673  29.754  1.00  0.00     0.060 A 
BRANCH  82  83
ATOM     83  S   UNL A   1      33.053  35.589  28.999  1.00  0.00     0.124 S 
ATOM     84  O   UNL A   1      33.764  36.658  28.309  1.00  0.00    -0.237 OA
ATOM     85  O   UNL A   1      32.438  34.575  28.147  1.00  0.00    -0.237 OA
ATOM     86  O   UNL A   1      32.250  36.001  30.147  1.00  0.00    -0.744 OA
ENDBRANCH  82  83
ENDBRANCH  50  75
BRANCH  62  87
ATOM     87  C   UNL A   1      39.863  34.247  37.046  1.00  0.00     0.058 A 
ATOM     88  C   UNL A   1      40.405  35.534  36.903  1.00  0.00     0.135 A 
ATOM     89  C   UNL A   1      39.146  33.964  38.221  1.00  0.00     0.135 A 
ATOM     90  F   UNL A   1      41.105  35.853  35.803  1.00  0.00    -0.206 F 
ATOM     91  C   UNL A   1      40.259  36.498  37.895  1.00  0.00     0.059 A 
ATOM     92  C   UNL A   1      38.964  34.922  39.214  1.00  0.00     0.059 A 
ATOM     93  F   UNL A   1      38.600  32.753  38.404  1.00  0.00    -0.206 F 
ATOM     94  C   UNL A   1      39.536  36.183  39.046  1.00  0.00     0.060 A 
BRANCH  94  95
ATOM     95  S   UNL A   1      39.325  37.455  40.310  1.00  0.00     0.124 S 
ATOM     96  O   UNL A   1      40.710  37.761  40.653  1.00  0.00    -0.237 OA
ATOM     97  O   UNL A   1      38.604  38.497  39.588  1.00  0.00    -0.237 OA
ATOM     98  O   UNL A   1      38.557  36.775  41.351  1.00  0.00    -0.744 OA
ENDBRANCH  94  95
ENDBRANCH  62  87
ENDBRANCH  36  37
ENDBRANCH  28  31
ENDBRANCH  26  27
ENDBRANCH  25  26
ENDBRANCH  24  25
ENDBRANCH   1  24
TORSDOF 19
ENDMDL
MODEL 3
REMARK VINA RESULT:     -10.9      6.813     16.070
REMARK SMILES Cc1cc(C(=O)N2CCC[C@@H]2C)sc1/C=C/C(=O)NCCCCCCNC(=O)c1ccc(-c2c3nc(c(-c4c(F)cc(S(=O)(=O)[O-])cc4F)c4ccc([nH]4)c(-c4c(F)cc(S(=O)(=O)[O-])cc4F)c4nc(c(-c5c(F)cc(S(=O)(=O)[O-])cc5F)c5ccc2[nH]5)C=C4)C=C3)cc1
REMARK SMILES IDX 22 1 21 2 20 3 19 4 17 5 18 6 16 8 15 9 14 10 1 11 2 12 3 13
REMARK SMILES IDX 4 14 13 15 5 16 6 17 7 18 8 19 11 20 9 21 10 22 12 23 23 24
REMARK SMILES IDX 24 25 25 26 26 27 27 28 28 30 29 31 30 32 94 33 31 34 93 35
REMARK SMILES IDX 32 36 33 37 34 38 87 39 35 40 92 41 86 42 88 43 36 44 91 45
REMARK SMILES IDX 85 46 84 47 37 49 71 50 50 51 70 52 51 53 54 54 69 55 89 56
REMARK SMILES IDX 52 57 53 58 68 60 90 61 55 62 38 63 39 64 48 65 40 66 41 67
REMARK SMILES IDX 47 68 49 69 42 70 43 71 44 72 45 73 46 74 72 75 73 76 82 77
REMARK SMILES IDX 74 78 75 79 81 80 83 81 76 82 77 83 78 84 79 85 80 86 56 87
REMARK SMILES IDX 57 88 66 89 58 90 59 91 65 92 67 93 60 94 61 95 62 96 63 97
REMARK SMILES IDX 64 98
REMARK H PARENT 19 7 26 29 88 48 54 59
REMARK Flexibility Score: inf
ROOT
ATOM      1  C   UNL A   1      46.023  21.121  36.329  1.00  0.00     0.002 C 
ENDROOT
BRANCH   1   2
ATOM      2  C   UNL A   1      46.565  20.746  37.715  1.00  0.00     0.021 C 
BRANCH   2   3
ATOM      3  C   UNL A   1      46.758  19.241  37.898  1.00  0.00     0.116 C 
BRANCH   3   4
ATOM      4  N   UNL A   1      47.782  18.987  38.895  1.00  0.00    -0.353 N 
ATOM      5  C   UNL A   1      47.788  18.150  39.965  1.00  0.00     0.244 C 
ATOM      6  O   UNL A   1      48.797  18.053  40.658  1.00  0.00    -0.270 OA
ATOM      7  H   UNL A   1      48.609  19.508  38.777  1.00  0.00     0.163 HD
BRANCH   5   8
ATOM      8  C   UNL A   1      46.631  17.275  40.242  1.00  0.00     0.072 C 
ATOM      9  C   UNL A   1      45.467  17.686  40.770  1.00  0.00     0.025 C 
BRANCH   9  10
ATOM     10  C   UNL A   1      44.377  16.793  41.002  1.00  0.00     0.031 A 
ATOM     11  C   UNL A   1      43.700  16.193  38.589  1.00  0.00     0.046 C 
ATOM     12  C   UNL A   1      43.551  16.162  40.079  1.00  0.00    -0.032 A 
ATOM     13  C   UNL A   1      42.517  15.405  40.734  1.00  0.00     0.029 A 
ATOM     14  C   UNL A   1      42.600  15.425  42.114  1.00  0.00     0.093 A 
ATOM     15  S   UNL A   1      43.935  16.357  42.600  1.00  0.00    -0.130 S 
BRANCH  14  16
ATOM     16  C   UNL A   1      41.822  14.600  43.035  1.00  0.00     0.264 C 
ATOM     17  O   UNL A   1      40.770  15.026  43.522  1.00  0.00    -0.268 OA
BRANCH  16  18
ATOM     18  N   UNL A   1      42.196  13.289  43.305  1.00  0.00    -0.335 N 
ATOM     19  C   UNL A   1      41.317  12.210  42.915  1.00  0.00     0.120 C 
ATOM     20  C   UNL A   1      43.375  12.764  44.003  1.00  0.00     0.082 C 
ATOM     21  C   UNL A   1      42.290  11.078  42.640  1.00  0.00     0.024 C 
ATOM     22  C   UNL A   1      43.332  11.247  43.742  1.00  0.00     0.026 C 
ATOM     23  C   UNL A   1      43.317  13.069  45.497  1.00  0.00     0.031 C 
ENDBRANCH  16  18
ENDBRANCH  14  16
ENDBRANCH   9  10
ENDBRANCH   5   8
ENDBRANCH   3   4
ENDBRANCH   2   3
ENDBRANCH   1   2
BRANCH   1  24
ATOM     24  C   UNL A   1      46.142  22.608  35.975  1.00  0.00     0.002 C 
BRANCH  24  25
ATOM     25  C   UNL A   1      46.648  23.504  37.109  1.00  0.00     0.021 C 
BRANCH  25  26
ATOM     26  C   UNL A   1      47.483  24.694  36.643  1.00  0.00     0.116 C 
BRANCH  26  27
ATOM     27  N   UNL A   1      47.826  25.572  37.752  1.00  0.00    -0.352 N 
ATOM     28  C   UNL A   1      47.431  26.865  37.989  1.00  0.00     0.251 C 
ATOM     29  H   UNL A   1      48.426  25.183  38.428  1.00  0.00     0.163 HD
ATOM     30  O   UNL A   1      48.006  27.533  38.842  1.00  0.00    -0.269 OA
BRANCH  28  31
ATOM     31  C   UNL A   1      46.322  27.450  37.205  1.00  0.00     0.039 A 
ATOM     32  C   UNL A   1      45.018  27.019  37.450  1.00  0.00     0.014 A 
ATOM     33  C   UNL A   1      46.574  28.408  36.218  1.00  0.00     0.014 A 
ATOM     34  C   UNL A   1      43.957  27.588  36.741  1.00  0.00     0.010 A 
ATOM     35  C   UNL A   1      45.512  29.023  35.563  1.00  0.00     0.010 A 
ATOM     36  C   UNL A   1      44.193  28.614  35.812  1.00  0.00    -0.014 A 
BRANCH  36  37
ATOM     37  C   UNL A   1      43.074  29.271  35.090  1.00  0.00     0.031 A 
ATOM     38  C   UNL A   1      42.703  28.823  33.702  1.00  0.00     0.074 A 
ATOM     39  C   UNL A   1      42.435  30.312  35.659  1.00  0.00     0.049 A 
ATOM     40  N   UNL A   1      41.803  29.312  32.889  1.00  0.00    -0.248 NA
ATOM     41  C   UNL A   1      43.464  27.693  33.144  1.00  0.00     0.031 C 
ATOM     42  C   UNL A   1      42.736  30.868  36.981  1.00  0.00     0.029 A 
ATOM     43  N   UNL A   1      41.407  31.094  35.198  1.00  0.00    -0.354 N 
ATOM     44  C   UNL A   1      41.896  28.562  31.723  1.00  0.00     0.074 A 
ATOM     45  C   UNL A   1      42.979  27.621  31.913  1.00  0.00     0.031 C 
ATOM     46  C   UNL A   1      41.898  31.887  37.230  1.00  0.00     0.029 A 
ATOM     47  C   UNL A   1      41.026  32.081  36.076  1.00  0.00     0.049 A 
ATOM     48  H   UNL A   1      40.983  30.962  34.319  1.00  0.00     0.167 HD
ATOM     49  C   UNL A   1      41.136  28.636  30.604  1.00  0.00     0.037 A 
ATOM     50  C   UNL A   1      40.086  33.039  35.961  1.00  0.00     0.037 A 
ATOM     51  C   UNL A   1      40.046  29.561  30.432  1.00  0.00     0.049 A 
ATOM     52  C   UNL A   1      39.254  33.103  34.710  1.00  0.00     0.074 A 
ATOM     53  C   UNL A   1      39.176  29.677  29.362  1.00  0.00     0.029 A 
ATOM     54  N   UNL A   1      39.680  30.534  31.352  1.00  0.00    -0.354 N 
ATOM     55  N   UNL A   1      39.313  32.342  33.642  1.00  0.00    -0.248 NA
ATOM     56  C   UNL A   1      38.224  34.149  34.648  1.00  0.00     0.031 C 
ATOM     57  C   UNL A   1      38.312  30.748  29.615  1.00  0.00     0.029 A 
ATOM     58  C   UNL A   1      38.610  31.268  30.864  1.00  0.00     0.049 A 
ATOM     59  H   UNL A   1      40.114  30.681  32.223  1.00  0.00     0.167 HD
ATOM     60  C   UNL A   1      38.312  32.802  32.793  1.00  0.00     0.074 A 
ATOM     61  C   UNL A   1      37.656  33.898  33.478  1.00  0.00     0.031 C 
ATOM     62  C   UNL A   1      37.967  32.356  31.559  1.00  0.00     0.037 A 
BRANCH  49  63
ATOM     63  C   UNL A   1      41.457  27.688  29.480  1.00  0.00     0.058 A 
ATOM     64  C   UNL A   1      42.616  27.834  28.700  1.00  0.00     0.135 A 
ATOM     65  C   UNL A   1      40.607  26.609  29.189  1.00  0.00     0.135 A 
ATOM     66  F   UNL A   1      43.458  28.856  28.924  1.00  0.00    -0.206 F 
ATOM     67  C   UNL A   1      42.903  26.966  27.652  1.00  0.00     0.059 A 
ATOM     68  C   UNL A   1      40.890  25.711  28.164  1.00  0.00     0.059 A 
ATOM     69  F   UNL A   1      39.485  26.420  29.902  1.00  0.00    -0.206 F 
ATOM     70  C   UNL A   1      42.031  25.908  27.388  1.00  0.00     0.060 A 
BRANCH  70  71
ATOM     71  S   UNL A   1      42.411  24.798  26.017  1.00  0.00     0.124 S 
ATOM     72  O   UNL A   1      42.125  25.649  24.866  1.00  0.00    -0.237 OA
ATOM     73  O   UNL A   1      43.820  24.493  26.243  1.00  0.00    -0.237 OA
ATOM     74  O   UNL A   1      41.492  23.683  26.218  1.00  0.00    -0.744 OA
ENDBRANCH  70  71
ENDBRANCH  49  63
BRANCH  50  75
ATOM     75  C   UNL A   1      39.865  33.996  37.079  1.00  0.00     0.058 A 
ATOM     76  C   UNL A   1      40.473  35.260  37.074  1.00  0.00     0.135 A 
ATOM     77  C   UNL A   1      39.023  33.679  38.155  1.00  0.00     0.135 A 
ATOM     78  F   UNL A   1      41.292  35.608  36.069  1.00  0.00    -0.206 F 
ATOM     79  C   UNL A   1      40.265  36.172  38.104  1.00  0.00     0.059 A 
ATOM     80  C   UNL A   1      38.778  34.583  39.183  1.00  0.00     0.059 A 
ATOM     81  F   UNL A   1      38.403  32.489  38.196  1.00  0.00    -0.206 F 
ATOM     82  C   UNL A   1      39.411  35.826  39.152  1.00  0.00     0.060 A 
BRANCH  82  83
ATOM     83  S   UNL A   1      39.100  37.040  40.452  1.00  0.00     0.124 S 
ATOM     84  O   UNL A   1      38.266  38.011  39.754  1.00  0.00    -0.237 OA
ATOM     85  O   UNL A   1      38.429  36.236  41.469  1.00  0.00    -0.237 OA
ATOM     86  O   UNL A   1      40.439  37.498  40.810  1.00  0.00    -0.744 OA
ENDBRANCH  82  83
ENDBRANCH  50  75
BRANCH  62  87
ATOM     87  C   UNL A   1      36.810  33.032  30.878  1.00  0.00     0.058 A 
ATOM     88  C   UNL A   1      35.481  32.782  31.255  1.00  0.00     0.135 A 
ATOM     89  C   UNL A   1      37.037  33.983  29.869  1.00  0.00     0.135 A 
ATOM     90  F   UNL A   1      35.210  31.877  32.209  1.00  0.00    -0.206 F 
ATOM     91  C   UNL A   1      34.416  33.433  30.641  1.00  0.00     0.059 A 
ATOM     92  C   UNL A   1      35.988  34.666  29.260  1.00  0.00     0.059 A 
ATOM     93  F   UNL A   1      38.288  34.268  29.477  1.00  0.00    -0.206 F 
ATOM     94  C   UNL A   1      34.681  34.375  29.645  1.00  0.00     0.060 A 
BRANCH  94  95
ATOM     95  S   UNL A   1      33.291  35.238  28.881  1.00  0.00     0.124 S 
ATOM     96  O   UNL A   1      33.972  36.306  28.156  1.00  0.00    -0.237 OA
ATOM     97  O   UNL A   1      32.689  34.195  28.058  1.00  0.00    -0.237 OA
ATOM     98  O   UNL A   1      32.488  35.668  30.024  1.00  0.00    -0.744 OA
ENDBRANCH  94  95
ENDBRANCH  62  87
ENDBRANCH  36  37
ENDBRANCH  28  31
ENDBRANCH  26  27
ENDBRANCH  25  26
ENDBRANCH  24  25
ENDBRANCH   1  24
TORSDOF 19
ENDMDL
