MODEL 1
REMARK VINA RESULT:     -10.9      0.000      0.000
REMARK SMILES Cc1ccc(NC(=O)NC2(C(=O)NCCCCCCNC(=O)c3ccc(-c4c5nc(c(-c6c(F)cc(S(=O)(=O)[O-])cc6F)c6ccc([nH]6)c(-c6c(F)cc(S(=O)(=O)[O-])cc6F)c6nc(c(-c7c(F)cc(S(=O)(=O)[O-])cc7F)c7ccc4[nH]7)C=C6)C=C5)cc3)CC2)c(C)n1
REMARK SMILES IDX 17 1 16 2 15 3 14 4 13 5 11 6 12 7 10 9 89 10 90 11 9 12
REMARK SMILES IDX 6 13 7 14 8 16 5 18 1 19 2 20 3 21 93 22 4 23 91 24 92 25
REMARK SMILES IDX 18 26 19 27 20 28 21 29 22 31 23 32 24 33 88 34 25 35 87 36
REMARK SMILES IDX 26 37 27 38 28 39 81 40 29 41 86 42 80 43 82 44 30 45 85 46
REMARK SMILES IDX 79 47 78 48 31 50 65 51 44 52 64 53 45 54 48 55 63 56 83 57
REMARK SMILES IDX 46 58 47 59 62 61 84 62 49 63 32 64 33 65 42 66 34 67 35 68
REMARK SMILES IDX 41 69 43 70 36 71 37 72 38 73 39 74 40 75 66 76 67 77 76 78
REMARK SMILES IDX 68 79 69 80 75 81 77 82 70 83 71 84 72 85 73 86 74 87 50 88
REMARK SMILES IDX 51 89 60 90 52 91 53 92 59 93 61 94 54 95 55 96 56 97 57 98
REMARK SMILES IDX 58 99
REMARK H PARENT 13 8 6 15 9 17 20 30 82 49 48 60
REMARK Flexibility Score: inf
ROOT
ATOM      1  C   UNL A   1      34.045  26.490  25.940  1.00  0.00     0.002 C 
ENDROOT
BRANCH   1   2
ATOM      2  C   UNL A   1      33.046  25.573  25.228  1.00  0.00     0.002 C 
BRANCH   2   3
ATOM      3  C   UNL A   1      33.192  25.427  23.705  1.00  0.00     0.021 C 
BRANCH   3   4
ATOM      4  C   UNL A   1      34.127  24.299  23.203  1.00  0.00     0.116 C 
BRANCH   4   5
ATOM      5  N   UNL A   1      35.374  24.209  23.981  1.00  0.00    -0.354 N 
ATOM      6  C   UNL A   1      36.385  23.288  23.732  1.00  0.00     0.245 C 
ATOM      7  O   UNL A   1      36.569  22.794  22.612  1.00  0.00    -0.272 OA
ATOM      8  H   UNL A   1      35.501  24.841  24.724  1.00  0.00     0.163 HD
BRANCH   6   9
ATOM      9  C   UNL A   1      37.291  22.864  24.929  1.00  0.00     0.120 C 
ATOM     10  C   UNL A   1      36.921  23.598  26.231  1.00  0.00     0.041 C 
ATOM     11  C   UNL A   1      38.325  23.619  25.814  1.00  0.00     0.041 C 
BRANCH   9  12
ATOM     12  N   UNL A   1      37.741  21.537  24.826  1.00  0.00    -0.323 N 
ATOM     13  N   UNL A   1      35.688  20.439  25.374  1.00  0.00    -0.306 N 
ATOM     14  C   UNL A   1      36.983  20.461  25.015  1.00  0.00     0.320 C 
ATOM     15  H   UNL A   1      35.488  19.481  25.483  1.00  0.00     0.171 HD
ATOM     16  O   UNL A   1      37.526  19.357  24.871  1.00  0.00    -0.248 OA
ATOM     17  H   UNL A   1      38.687  21.393  24.597  1.00  0.00     0.166 HD
BRANCH  13  18
ATOM     18  C   UNL A   1      34.438  21.092  25.682  1.00  0.00     0.064 A 
ATOM     19  C   UNL A   1      30.409  22.646  25.624  1.00  0.00     0.067 C 
ATOM     20  C   UNL A   1      31.783  22.088  25.528  1.00  0.00     0.038 A 
ATOM     21  C   UNL A   1      32.253  21.342  24.490  1.00  0.00     0.025 A 
ATOM     22  N   UNL A   1      32.555  22.328  26.584  1.00  0.00    -0.256 NA
ATOM     23  C   UNL A   1      33.563  20.873  24.574  1.00  0.00     0.030 A 
ATOM     24  C   UNL A   1      33.827  21.837  26.723  1.00  0.00     0.061 A 
ATOM     25  C   UNL A   1      34.134  22.283  28.115  1.00  0.00     0.069 C 
ENDBRANCH  13  18
ENDBRANCH   9  12
ENDBRANCH   6   9
ENDBRANCH   4   5
ENDBRANCH   3   4
ENDBRANCH   2   3
ENDBRANCH   1   2
BRANCH   1  26
ATOM     26  C   UNL A   1      33.685  27.979  26.041  1.00  0.00     0.021 C 
BRANCH  26  27
ATOM     27  C   UNL A   1      33.185  28.491  27.398  1.00  0.00     0.116 C 
BRANCH  27  28
ATOM     28  N   UNL A   1      33.234  29.942  27.525  1.00  0.00    -0.352 N 
ATOM     29  C   UNL A   1      34.228  30.780  27.974  1.00  0.00     0.251 C 
ATOM     30  H   UNL A   1      32.412  30.404  27.239  1.00  0.00     0.163 HD
ATOM     31  O   UNL A   1      33.980  31.974  28.133  1.00  0.00    -0.269 OA
BRANCH  29  32
ATOM     32  C   UNL A   1      35.584  30.271  28.286  1.00  0.00     0.039 A 
ATOM     33  C   UNL A   1      36.542  30.230  27.266  1.00  0.00     0.014 A 
ATOM     34  C   UNL A   1      35.909  29.793  29.558  1.00  0.00     0.014 A 
ATOM     35  C   UNL A   1      37.843  29.797  27.542  1.00  0.00     0.010 A 
ATOM     36  C   UNL A   1      37.223  29.416  29.846  1.00  0.00     0.010 A 
ATOM     37  C   UNL A   1      38.208  29.430  28.847  1.00  0.00    -0.014 A 
BRANCH  37  38
ATOM     38  C   UNL A   1      39.622  29.119  29.195  1.00  0.00     0.031 A 
ATOM     39  C   UNL A   1      40.517  30.169  29.796  1.00  0.00     0.074 A 
ATOM     40  C   UNL A   1      40.122  27.904  28.890  1.00  0.00     0.049 A 
ATOM     41  N   UNL A   1      41.793  30.102  30.080  1.00  0.00    -0.248 NA
ATOM     42  C   UNL A   1      39.902  31.470  30.102  1.00  0.00     0.031 C 
ATOM     43  C   UNL A   1      39.367  26.814  28.267  1.00  0.00     0.029 A 
ATOM     44  N   UNL A   1      41.384  27.384  29.044  1.00  0.00    -0.354 N 
ATOM     45  C   UNL A   1      42.138  31.350  30.587  1.00  0.00     0.074 A 
ATOM     46  C   UNL A   1      40.945  32.168  30.530  1.00  0.00     0.031 C 
ATOM     47  C   UNL A   1      40.173  25.753  28.108  1.00  0.00     0.029 A 
ATOM     48  C   UNL A   1      41.514  26.099  28.571  1.00  0.00     0.049 A 
ATOM     49  H   UNL A   1      42.126  27.883  29.457  1.00  0.00     0.167 HD
ATOM     50  C   UNL A   1      43.332  31.767  31.072  1.00  0.00     0.037 A 
ATOM     51  C   UNL A   1      42.592  25.294  28.495  1.00  0.00     0.037 A 
ATOM     52  C   UNL A   1      44.512  30.941  31.135  1.00  0.00     0.049 A 
ATOM     53  C   UNL A   1      43.916  25.793  29.006  1.00  0.00     0.074 A 
ATOM     54  C   UNL A   1      45.752  31.252  31.664  1.00  0.00     0.029 A 
ATOM     55  N   UNL A   1      44.603  29.646  30.643  1.00  0.00    -0.354 N 
ATOM     56  N   UNL A   1      44.205  26.951  29.549  1.00  0.00    -0.248 NA
ATOM     57  C   UNL A   1      45.062  24.879  28.891  1.00  0.00     0.031 C 
ATOM     58  C   UNL A   1      46.609  30.170  31.440  1.00  0.00     0.029 A 
ATOM     59  C   UNL A   1      45.889  29.159  30.822  1.00  0.00     0.049 A 
ATOM     60  H   UNL A   1      43.864  29.147  30.227  1.00  0.00     0.167 HD
ATOM     61  C   UNL A   1      45.561  26.899  29.857  1.00  0.00     0.074 A 
ATOM     62  C   UNL A   1      46.029  25.588  29.458  1.00  0.00     0.031 C 
ATOM     63  C   UNL A   1      46.345  27.853  30.417  1.00  0.00     0.037 A 
BRANCH  50  64
ATOM     64  C   UNL A   1      43.432  33.184  31.574  1.00  0.00     0.058 A 
ATOM     65  C   UNL A   1      43.173  33.511  32.915  1.00  0.00     0.135 A 
ATOM     66  C   UNL A   1      43.840  34.220  30.717  1.00  0.00     0.135 A 
ATOM     67  F   UNL A   1      42.770  32.564  33.777  1.00  0.00    -0.206 F 
ATOM     68  C   UNL A   1      43.285  34.817  33.380  1.00  0.00     0.059 A 
ATOM     69  C   UNL A   1      43.988  35.529  31.169  1.00  0.00     0.059 A 
ATOM     70  F   UNL A   1      44.103  33.965  29.425  1.00  0.00    -0.206 F 
ATOM     71  C   UNL A   1      43.694  35.820  32.499  1.00  0.00     0.060 A 
BRANCH  71  72
ATOM     72  S   UNL A   1      43.837  37.509  33.123  1.00  0.00     0.124 S 
ATOM     73  O   UNL A   1      42.656  37.604  33.976  1.00  0.00    -0.237 OA
ATOM     74  O   UNL A   1      45.119  37.476  33.819  1.00  0.00    -0.237 OA
ATOM     75  O   UNL A   1      43.802  38.323  31.913  1.00  0.00    -0.744 OA
ENDBRANCH  71  72
ENDBRANCH  50  64
BRANCH  51  76
ATOM     76  C   UNL A   1      42.462  23.930  27.913  1.00  0.00     0.058 A 
ATOM     77  C   UNL A   1      42.387  23.740  26.525  1.00  0.00     0.135 A 
ATOM     78  C   UNL A   1      42.427  22.787  28.730  1.00  0.00     0.135 A 
ATOM     79  F   UNL A   1      42.407  24.800  25.703  1.00  0.00    -0.206 F 
ATOM     80  C   UNL A   1      42.268  22.471  25.968  1.00  0.00     0.059 A 
ATOM     81  C   UNL A   1      42.337  21.506  28.195  1.00  0.00     0.059 A 
ATOM     82  F   UNL A   1      42.510  22.912  30.064  1.00  0.00    -0.206 F 
ATOM     83  C   UNL A   1      42.248  21.359  26.812  1.00  0.00     0.060 A 
BRANCH  83  84
ATOM     84  S   UNL A   1      42.144  19.715  26.073  1.00  0.00     0.124 S 
ATOM     85  O   UNL A   1      43.087  19.830  24.966  1.00  0.00    -0.237 OA
ATOM     86  O   UNL A   1      42.558  18.856  27.179  1.00  0.00    -0.237 OA
ATOM     87  O   UNL A   1      40.738  19.605  25.696  1.00  0.00    -0.744 OA
ENDBRANCH  83  84
ENDBRANCH  51  76
BRANCH  63  88
ATOM     88  C   UNL A   1      47.794  27.515  30.644  1.00  0.00     0.058 A 
ATOM     89  C   UNL A   1      48.246  27.007  31.872  1.00  0.00     0.135 A 
ATOM     90  C   UNL A   1      48.728  27.635  29.602  1.00  0.00     0.135 A 
ATOM     91  F   UNL A   1      47.397  26.882  32.905  1.00  0.00    -0.206 F 
ATOM     92  C   UNL A   1      49.575  26.643  32.063  1.00  0.00     0.059 A 
ATOM     93  C   UNL A   1      50.055  27.250  29.761  1.00  0.00     0.059 A 
ATOM     94  F   UNL A   1      48.347  28.110  28.405  1.00  0.00    -0.206 F 
ATOM     95  C   UNL A   1      50.471  26.761  30.999  1.00  0.00     0.060 A 
BRANCH  95  96
ATOM     96  S   UNL A   1      52.179  26.231  31.246  1.00  0.00     0.124 S 
ATOM     97  O   UNL A   1      51.998  24.857  31.703  1.00  0.00    -0.237 OA
ATOM     98  O   UNL A   1      52.747  26.385  29.911  1.00  0.00    -0.237 OA
ATOM     99  O   UNL A   1      52.684  27.164  32.248  1.00  0.00    -0.744 OA
ENDBRANCH  95  96
ENDBRANCH  63  88
ENDBRANCH  37  38
ENDBRANCH  29  32
ENDBRANCH  27  28
ENDBRANCH  26  27
ENDBRANCH   1  26
TORSDOF 18
ENDMDL
MODEL 2
REMARK VINA RESULT:     -10.7      3.284      4.830
REMARK SMILES Cc1ccc(NC(=O)NC2(C(=O)NCCCCCCNC(=O)c3ccc(-c4c5nc(c(-c6c(F)cc(S(=O)(=O)[O-])cc6F)c6ccc([nH]6)c(-c6c(F)cc(S(=O)(=O)[O-])cc6F)c6nc(c(-c7c(F)cc(S(=O)(=O)[O-])cc7F)c7ccc4[nH]7)C=C6)C=C5)cc3)CC2)c(C)n1
REMARK SMILES IDX 17 1 16 2 15 3 14 4 13 5 11 6 12 7 10 9 89 10 90 11 9 12
REMARK SMILES IDX 6 13 7 14 8 16 5 18 1 19 2 20 3 21 93 22 4 23 91 24 92 25
REMARK SMILES IDX 18 26 19 27 20 28 21 29 22 31 23 32 24 33 88 34 25 35 87 36
REMARK SMILES IDX 26 37 27 38 28 39 81 40 29 41 86 42 80 43 82 44 30 45 85 46
REMARK SMILES IDX 79 47 78 48 31 50 65 51 44 52 64 53 45 54 48 55 63 56 83 57
REMARK SMILES IDX 46 58 47 59 62 61 84 62 49 63 32 64 33 65 42 66 34 67 35 68
REMARK SMILES IDX 41 69 43 70 36 71 37 72 38 73 39 74 40 75 66 76 67 77 76 78
REMARK SMILES IDX 68 79 69 80 75 81 77 82 70 83 71 84 72 85 73 86 74 87 50 88
REMARK SMILES IDX 51 89 60 90 52 91 53 92 59 93 61 94 54 95 55 96 56 97 57 98
REMARK SMILES IDX 58 99
REMARK H PARENT 13 8 6 15 9 17 20 30 82 49 48 60
REMARK Flexibility Score: inf
ROOT
ATOM      1  C   UNL A   1      34.986  29.863  27.627  1.00  0.00     0.002 C 
ENDROOT
BRANCH   1   2
ATOM      2  C   UNL A   1      33.821  29.199  26.886  1.00  0.00     0.002 C 
BRANCH   2   3
ATOM      3  C   UNL A   1      34.144  28.501  25.556  1.00  0.00     0.021 C 
BRANCH   3   4
ATOM      4  C   UNL A   1      33.769  27.003  25.449  1.00  0.00     0.116 C 
BRANCH   4   5
ATOM      5  N   UNL A   1      32.356  26.798  25.087  1.00  0.00    -0.354 N 
ATOM      6  C   UNL A   1      31.363  26.438  25.990  1.00  0.00     0.245 C 
ATOM      7  O   UNL A   1      31.437  26.704  27.196  1.00  0.00    -0.272 OA
ATOM      8  H   UNL A   1      32.099  26.923  24.145  1.00  0.00     0.163 HD
BRANCH   6   9
ATOM      9  C   UNL A   1      30.132  25.653  25.440  1.00  0.00     0.120 C 
ATOM     10  C   UNL A   1      30.251  25.361  23.932  1.00  0.00     0.041 C 
ATOM     11  C   UNL A   1      29.016  25.990  24.408  1.00  0.00     0.041 C 
BRANCH   9  12
ATOM     12  N   UNL A   1      29.551  24.810  26.402  1.00  0.00    -0.323 N 
ATOM     13  N   UNL A   1      31.155  23.039  26.316  1.00  0.00    -0.306 N 
ATOM     14  C   UNL A   1      30.052  23.641  26.790  1.00  0.00     0.320 C 
ATOM     15  H   UNL A   1      31.172  22.173  26.784  1.00  0.00     0.171 HD
ATOM     16  O   UNL A   1      29.428  23.024  27.664  1.00  0.00    -0.248 OA
ATOM     17  H   UNL A   1      28.712  25.108  26.821  1.00  0.00     0.166 HD
BRANCH  13  18
ATOM     18  C   UNL A   1      32.329  23.003  25.476  1.00  0.00     0.064 A 
ATOM     19  C   UNL A   1      36.340  23.207  23.889  1.00  0.00     0.067 C 
ATOM     20  C   UNL A   1      35.000  23.195  24.531  1.00  0.00     0.038 A 
ATOM     21  C   UNL A   1      34.759  23.475  25.842  1.00  0.00     0.025 A 
ATOM     22  N   UNL A   1      34.003  22.834  23.728  1.00  0.00    -0.256 NA
ATOM     23  C   UNL A   1      33.440  23.391  26.286  1.00  0.00     0.030 A 
ATOM     24  C   UNL A   1      32.706  22.688  24.145  1.00  0.00     0.061 A 
ATOM     25  C   UNL A   1      32.087  22.139  22.902  1.00  0.00     0.069 C 
ENDBRANCH  13  18
ENDBRANCH   9  12
ENDBRANCH   6   9
ENDBRANCH   4   5
ENDBRANCH   3   4
ENDBRANCH   2   3
ENDBRANCH   1   2
BRANCH   1  26
ATOM     26  C   UNL A   1      34.840  31.351  27.977  1.00  0.00     0.021 C 
BRANCH  26  27
ATOM     27  C   UNL A   1      35.784  31.917  29.046  1.00  0.00     0.116 C 
BRANCH  27  28
ATOM     28  N   UNL A   1      35.689  31.229  30.328  1.00  0.00    -0.352 N 
ATOM     29  C   UNL A   1      36.573  30.403  30.980  1.00  0.00     0.251 C 
ATOM     30  H   UNL A   1      34.845  31.382  30.811  1.00  0.00     0.163 HD
ATOM     31  O   UNL A   1      36.207  29.813  31.995  1.00  0.00    -0.269 OA
BRANCH  29  32
ATOM     32  C   UNL A   1      37.953  30.197  30.479  1.00  0.00     0.039 A 
ATOM     33  C   UNL A   1      39.005  30.136  31.400  1.00  0.00     0.014 A 
ATOM     34  C   UNL A   1      38.226  30.111  29.111  1.00  0.00     0.014 A 
ATOM     35  C   UNL A   1      40.311  29.898  30.958  1.00  0.00     0.010 A 
ATOM     36  C   UNL A   1      39.520  29.816  28.676  1.00  0.00     0.010 A 
ATOM     37  C   UNL A   1      40.573  29.689  29.595  1.00  0.00    -0.014 A 
BRANCH  37  38
ATOM     38  C   UNL A   1      41.924  29.278  29.122  1.00  0.00     0.031 A 
ATOM     39  C   UNL A   1      43.035  30.285  28.994  1.00  0.00     0.074 A 
ATOM     40  C   UNL A   1      42.124  28.003  28.731  1.00  0.00     0.049 A 
ATOM     41  N   UNL A   1      44.244  30.125  28.518  1.00  0.00    -0.248 NA
ATOM     42  C   UNL A   1      42.744  31.656  29.441  1.00  0.00     0.031 C 
ATOM     43  C   UNL A   1      41.115  26.942  28.768  1.00  0.00     0.029 A 
ATOM     44  N   UNL A   1      43.234  27.383  28.209  1.00  0.00    -0.354 N 
ATOM     45  C   UNL A   1      44.855  31.370  28.599  1.00  0.00     0.074 A 
ATOM     46  C   UNL A   1      43.867  32.287  29.127  1.00  0.00     0.031 C 
ATOM     47  C   UNL A   1      41.654  25.803  28.307  1.00  0.00     0.029 A 
ATOM     48  C   UNL A   1      43.031  26.060  27.894  1.00  0.00     0.049 A 
ATOM     49  H   UNL A   1      44.094  27.843  28.074  1.00  0.00     0.167 HD
ATOM     50  C   UNL A   1      46.126  31.713  28.278  1.00  0.00     0.037 A 
ATOM     51  C   UNL A   1      43.849  25.157  27.320  1.00  0.00     0.037 A 
ATOM     52  C   UNL A   1      47.107  30.791  27.763  1.00  0.00     0.049 A 
ATOM     53  C   UNL A   1      45.245  25.571  26.939  1.00  0.00     0.074 A 
ATOM     54  C   UNL A   1      48.437  31.028  27.466  1.00  0.00     0.029 A 
ATOM     55  N   UNL A   1      46.862  29.459  27.456  1.00  0.00    -0.354 N 
ATOM     56  N   UNL A   1      45.828  26.736  27.090  1.00  0.00    -0.248 NA
ATOM     57  C   UNL A   1      46.094  24.551  26.307  1.00  0.00     0.031 C 
ATOM     58  C   UNL A   1      48.981  29.858  26.925  1.00  0.00     0.029 A 
ATOM     59  C   UNL A   1      48.006  28.873  26.938  1.00  0.00     0.049 A 
ATOM     60  H   UNL A   1      46.001  28.999  27.586  1.00  0.00     0.167 HD
ATOM     61  C   UNL A   1      47.116  26.584  26.589  1.00  0.00     0.074 A 
ATOM     62  C   UNL A   1      47.234  25.210  26.148  1.00  0.00     0.031 C 
ATOM     63  C   UNL A   1      48.110  27.503  26.499  1.00  0.00     0.037 A 
BRANCH  50  64
ATOM     64  C   UNL A   1      46.538  33.150  28.473  1.00  0.00     0.058 A 
ATOM     65  C   UNL A   1      47.037  33.614  29.701  1.00  0.00     0.135 A 
ATOM     66  C   UNL A   1      46.481  34.061  27.405  1.00  0.00     0.135 A 
ATOM     67  F   UNL A   1      47.105  32.791  30.758  1.00  0.00    -0.206 F 
ATOM     68  C   UNL A   1      47.435  34.936  29.871  1.00  0.00     0.059 A 
ATOM     69  C   UNL A   1      46.902  35.380  27.545  1.00  0.00     0.059 A 
ATOM     70  F   UNL A   1      46.015  33.672  26.208  1.00  0.00    -0.206 F 
ATOM     71  C   UNL A   1      47.364  35.812  28.786  1.00  0.00     0.060 A 
BRANCH  71  72
ATOM     72  S   UNL A   1      47.889  37.524  29.027  1.00  0.00     0.124 S 
ATOM     73  O   UNL A   1      49.181  37.530  28.347  1.00  0.00    -0.237 OA
ATOM     74  O   UNL A   1      46.824  38.272  28.368  1.00  0.00    -0.237 OA
ATOM     75  O   UNL A   1      47.946  37.662  30.479  1.00  0.00    -0.744 OA
ENDBRANCH  71  72
ENDBRANCH  50  64
BRANCH  51  76
ATOM     76  C   UNL A   1      43.370  23.770  27.071  1.00  0.00     0.058 A 
ATOM     77  C   UNL A   1      43.290  22.834  28.113  1.00  0.00     0.135 A 
ATOM     78  C   UNL A   1      42.968  23.355  25.790  1.00  0.00     0.135 A 
ATOM     79  F   UNL A   1      43.671  23.179  29.352  1.00  0.00    -0.206 F 
ATOM     80  C   UNL A   1      42.842  21.536  27.894  1.00  0.00     0.059 A 
ATOM     81  C   UNL A   1      42.489  22.070  25.552  1.00  0.00     0.059 A 
ATOM     82  F   UNL A   1      43.011  24.215  24.761  1.00  0.00    -0.206 F 
ATOM     83  C   UNL A   1      42.439  21.165  26.611  1.00  0.00     0.060 A 
BRANCH  83  84
ATOM     84  S   UNL A   1      41.813  19.491  26.350  1.00  0.00     0.124 S 
ATOM     85  O   UNL A   1      42.268  18.816  27.561  1.00  0.00    -0.237 OA
ATOM     86  O   UNL A   1      40.374  19.716  26.247  1.00  0.00    -0.237 OA
ATOM     87  O   UNL A   1      42.466  19.076  25.113  1.00  0.00    -0.744 OA
ENDBRANCH  83  84
ENDBRANCH  51  76
BRANCH  63  88
ATOM     88  C   UNL A   1      49.420  27.054  25.911  1.00  0.00     0.058 A 
ATOM     89  C   UNL A   1      49.707  27.217  24.547  1.00  0.00     0.135 A 
ATOM     90  C   UNL A   1      50.427  26.519  26.733  1.00  0.00     0.135 A 
ATOM     91  F   UNL A   1      48.777  27.713  23.715  1.00  0.00    -0.206 F 
ATOM     92  C   UNL A   1      50.940  26.852  24.015  1.00  0.00     0.059 A 
ATOM     93  C   UNL A   1      51.677  26.176  26.228  1.00  0.00     0.059 A 
ATOM     94  F   UNL A   1      50.207  26.349  28.047  1.00  0.00    -0.206 F 
ATOM     95  C   UNL A   1      51.921  26.339  24.865  1.00  0.00     0.060 A 
BRANCH  95  96
ATOM     96  S   UNL A   1      53.535  25.925  24.169  1.00  0.00     0.124 S 
ATOM     97  O   UNL A   1      53.256  25.954  22.738  1.00  0.00    -0.237 OA
ATOM     98  O   UNL A   1      54.377  27.006  24.673  1.00  0.00    -0.237 OA
ATOM     99  O   UNL A   1      53.818  24.606  24.726  1.00  0.00    -0.744 OA
ENDBRANCH  95  96
ENDBRANCH  63  88
ENDBRANCH  37  38
ENDBRANCH  29  32
ENDBRANCH  27  28
ENDBRANCH  26  27
ENDBRANCH   1  26
TORSDOF 18
ENDMDL
MODEL 3
REMARK VINA RESULT:     -10.7      1.302      2.716
REMARK SMILES Cc1ccc(NC(=O)NC2(C(=O)NCCCCCCNC(=O)c3ccc(-c4c5nc(c(-c6c(F)cc(S(=O)(=O)[O-])cc6F)c6ccc([nH]6)c(-c6c(F)cc(S(=O)(=O)[O-])cc6F)c6nc(c(-c7c(F)cc(S(=O)(=O)[O-])cc7F)c7ccc4[nH]7)C=C6)C=C5)cc3)CC2)c(C)n1
REMARK SMILES IDX 17 1 16 2 15 3 14 4 13 5 11 6 12 7 10 9 89 10 90 11 9 12
REMARK SMILES IDX 6 13 7 14 8 16 5 18 1 19 2 20 3 21 93 22 4 23 91 24 92 25
REMARK SMILES IDX 18 26 19 27 20 28 21 29 22 31 23 32 24 33 88 34 25 35 87 36
REMARK SMILES IDX 26 37 27 38 28 39 81 40 29 41 86 42 80 43 82 44 30 45 85 46
REMARK SMILES IDX 79 47 78 48 31 50 65 51 44 52 64 53 45 54 48 55 63 56 83 57
REMARK SMILES IDX 46 58 47 59 62 61 84 62 49 63 32 64 33 65 42 66 34 67 35 68
REMARK SMILES IDX 41 69 43 70 36 71 37 72 38 73 39 74 40 75 66 76 67 77 76 78
REMARK SMILES IDX 68 79 69 80 75 81 77 82 70 83 71 84 72 85 73 86 74 87 50 88
REMARK SMILES IDX 51 89 60 90 52 91 53 92 59 93 61 94 54 95 55 96 56 97 57 98
REMARK SMILES IDX 58 99
REMARK H PARENT 13 8 6 15 9 17 20 30 82 49 48 60
REMARK Flexibility Score: inf
ROOT
ATOM      1  C   UNL A   1      33.329  29.267  24.828  1.00  0.00     0.002 C 
ENDROOT
BRANCH   1   2
ATOM      2  C   UNL A   1      32.254  28.857  23.817  1.00  0.00     0.002 C 
BRANCH   2   3
ATOM      3  C   UNL A   1      32.733  28.443  22.417  1.00  0.00     0.021 C 
BRANCH   3   4
ATOM      4  C   UNL A   1      33.596  27.161  22.330  1.00  0.00     0.116 C 
BRANCH   4   5
ATOM      5  N   UNL A   1      33.028  26.042  23.101  1.00  0.00    -0.354 N 
ATOM      6  C   UNL A   1      32.734  24.794  22.566  1.00  0.00     0.245 C 
ATOM      7  O   UNL A   1      33.320  24.344  21.573  1.00  0.00    -0.272 OA
ATOM      8  H   UNL A   1      32.846  26.187  24.057  1.00  0.00     0.163 HD
BRANCH   6   9
ATOM      9  C   UNL A   1      31.606  23.960  23.248  1.00  0.00     0.120 C 
ATOM     10  C   UNL A   1      30.502  24.850  23.850  1.00  0.00     0.041 C 
ATOM     11  C   UNL A   1      31.102  23.831  24.714  1.00  0.00     0.041 C 
BRANCH   9  12
ATOM     12  N   UNL A   1      31.418  22.705  22.644  1.00  0.00    -0.323 N 
ATOM     13  N   UNL A   1      33.346  21.606  23.533  1.00  0.00    -0.306 N 
ATOM     14  C   UNL A   1      32.215  21.654  22.811  1.00  0.00     0.320 C 
ATOM     15  H   UNL A   1      33.695  20.701  23.369  1.00  0.00     0.171 HD
ATOM     16  O   UNL A   1      31.902  20.611  22.221  1.00  0.00    -0.248 OA
ATOM     17  H   UNL A   1      30.637  22.596  22.055  1.00  0.00     0.166 HD
BRANCH  13  18
ATOM     18  C   UNL A   1      34.317  22.195  24.426  1.00  0.00     0.064 A 
ATOM     19  C   UNL A   1      37.809  24.039  26.174  1.00  0.00     0.067 C 
ATOM     20  C   UNL A   1      36.672  23.384  25.475  1.00  0.00     0.038 A 
ATOM     21  C   UNL A   1      36.619  23.131  24.138  1.00  0.00     0.025 A 
ATOM     22  N   UNL A   1      35.638  23.086  26.256  1.00  0.00    -0.256 NA
ATOM     23  C   UNL A   1      35.462  22.533  23.641  1.00  0.00     0.030 A 
ATOM     24  C   UNL A   1      34.466  22.548  25.791  1.00  0.00     0.061 A 
ATOM     25  C   UNL A   1      33.649  22.572  27.042  1.00  0.00     0.069 C 
ENDBRANCH  13  18
ENDBRANCH   9  12
ENDBRANCH   6   9
ENDBRANCH   4   5
ENDBRANCH   3   4
ENDBRANCH   2   3
ENDBRANCH   1   2
BRANCH   1  26
ATOM     26  C   UNL A   1      33.781  28.206  25.843  1.00  0.00     0.021 C 
BRANCH  26  27
ATOM     27  C   UNL A   1      33.476  28.475  27.322  1.00  0.00     0.116 C 
BRANCH  27  28
ATOM     28  N   UNL A   1      33.495  29.890  27.672  1.00  0.00    -0.352 N 
ATOM     29  C   UNL A   1      34.472  30.669  28.244  1.00  0.00     0.251 C 
ATOM     30  H   UNL A   1      32.663  30.373  27.461  1.00  0.00     0.163 HD
ATOM     31  O   UNL A   1      34.201  31.819  28.585  1.00  0.00    -0.269 OA
BRANCH  29  32
ATOM     32  C   UNL A   1      35.841  30.147  28.473  1.00  0.00     0.039 A 
ATOM     33  C   UNL A   1      36.749  30.142  27.408  1.00  0.00     0.014 A 
ATOM     34  C   UNL A   1      36.224  29.623  29.710  1.00  0.00     0.014 A 
ATOM     35  C   UNL A   1      38.060  29.697  27.606  1.00  0.00     0.010 A 
ATOM     36  C   UNL A   1      37.549  29.233  29.922  1.00  0.00     0.010 A 
ATOM     37  C   UNL A   1      38.485  29.282  28.878  1.00  0.00    -0.014 A 
BRANCH  37  38
ATOM     38  C   UNL A   1      39.913  28.957  29.147  1.00  0.00     0.031 A 
ATOM     39  C   UNL A   1      40.854  30.001  29.685  1.00  0.00     0.074 A 
ATOM     40  C   UNL A   1      40.380  27.733  28.827  1.00  0.00     0.049 A 
ATOM     41  N   UNL A   1      42.143  29.921  29.895  1.00  0.00    -0.248 NA
ATOM     42  C   UNL A   1      40.273  31.313  30.013  1.00  0.00     0.031 C 
ATOM     43  C   UNL A   1      39.577  26.646  28.260  1.00  0.00     0.029 A 
ATOM     44  N   UNL A   1      41.642  27.198  28.914  1.00  0.00    -0.354 N 
ATOM     45  C   UNL A   1      42.532  31.169  30.369  1.00  0.00     0.074 A 
ATOM     46  C   UNL A   1      41.347  32.002  30.372  1.00  0.00     0.031 C 
ATOM     47  C   UNL A   1      40.360  25.573  28.066  1.00  0.00     0.029 A 
ATOM     48  C   UNL A   1      41.729  25.906  28.447  1.00  0.00     0.049 A 
ATOM     49  H   UNL A   1      42.413  27.692  29.278  1.00  0.00     0.167 HD
ATOM     50  C   UNL A   1      43.757  31.575  30.780  1.00  0.00     0.037 A 
ATOM     51  C   UNL A   1      42.791  25.087  28.318  1.00  0.00     0.037 A 
ATOM     52  C   UNL A   1      44.929  30.735  30.784  1.00  0.00     0.049 A 
ATOM     53  C   UNL A   1      44.148  25.574  28.746  1.00  0.00     0.074 A 
ATOM     54  C   UNL A   1      46.201  31.036  31.237  1.00  0.00     0.029 A 
ATOM     55  N   UNL A   1      44.976  29.434  30.301  1.00  0.00    -0.354 N 
ATOM     56  N   UNL A   1      44.482  26.734  29.260  1.00  0.00    -0.248 NA
ATOM     57  C   UNL A   1      45.274  24.645  28.575  1.00  0.00     0.031 C 
ATOM     58  C   UNL A   1      47.030  29.940  30.976  1.00  0.00     0.029 A 
ATOM     59  C   UNL A   1      46.264  28.933  30.411  1.00  0.00     0.049 A 
ATOM     60  H   UNL A   1      44.208  28.940  29.933  1.00  0.00     0.167 HD
ATOM     61  C   UNL A   1      45.853  26.667  29.490  1.00  0.00     0.074 A 
ATOM     62  C   UNL A   1      46.281  25.347  29.078  1.00  0.00     0.031 C 
ATOM     63  C   UNL A   1      46.680  27.617  29.994  1.00  0.00     0.037 A 
BRANCH  50  64
ATOM     64  C   UNL A   1      43.903  32.996  31.261  1.00  0.00     0.058 A 
ATOM     65  C   UNL A   1      44.036  34.068  30.364  1.00  0.00     0.135 A 
ATOM     66  C   UNL A   1      43.857  33.295  32.633  1.00  0.00     0.135 A 
ATOM     67  F   UNL A   1      44.095  33.842  29.043  1.00  0.00    -0.206 F 
ATOM     68  C   UNL A   1      44.149  35.381  30.811  1.00  0.00     0.059 A 
ATOM     69  C   UNL A   1      43.939  34.604  33.100  1.00  0.00     0.059 A 
ATOM     70  F   UNL A   1      43.729  32.310  33.536  1.00  0.00    -0.206 F 
ATOM     71  C   UNL A   1      44.099  35.639  32.182  1.00  0.00     0.060 A 
BRANCH  71  72
ATOM     72  S   UNL A   1      44.244  37.350  32.741  1.00  0.00     0.124 S 
ATOM     73  O   UNL A   1      45.497  37.305  33.490  1.00  0.00    -0.237 OA
ATOM     74  O   UNL A   1      44.285  38.087  31.482  1.00  0.00    -0.237 OA
ATOM     75  O   UNL A   1      43.042  37.549  33.544  1.00  0.00    -0.744 OA
ENDBRANCH  71  72
ENDBRANCH  50  64
BRANCH  51  76
ATOM     76  C   UNL A   1      42.612  23.719  27.759  1.00  0.00     0.058 A 
ATOM     77  C   UNL A   1      42.587  23.502  26.373  1.00  0.00     0.135 A 
ATOM     78  C   UNL A   1      42.476  22.600  28.597  1.00  0.00     0.135 A 
ATOM     79  F   UNL A   1      42.703  24.541  25.531  1.00  0.00    -0.206 F 
ATOM     80  C   UNL A   1      42.422  22.229  25.837  1.00  0.00     0.059 A 
ATOM     81  C   UNL A   1      42.339  21.313  28.084  1.00  0.00     0.059 A 
ATOM     82  F   UNL A   1      42.507  22.750  29.930  1.00  0.00    -0.206 F 
ATOM     83  C   UNL A   1      42.304  21.140  26.701  1.00  0.00     0.060 A 
BRANCH  83  84
ATOM     84  S   UNL A   1      42.140  19.487  25.993  1.00  0.00     0.124 S 
ATOM     85  O   UNL A   1      42.641  18.651  27.079  1.00  0.00    -0.237 OA
ATOM     86  O   UNL A   1      40.706  19.406  25.734  1.00  0.00    -0.237 OA
ATOM     87  O   UNL A   1      42.983  19.547  24.803  1.00  0.00    -0.744 OA
ENDBRANCH  83  84
ENDBRANCH  51  76
BRANCH  63  88
ATOM     88  C   UNL A   1      48.135  27.263  30.141  1.00  0.00     0.058 A 
ATOM     89  C   UNL A   1      49.058  27.512  29.113  1.00  0.00     0.135 A 
ATOM     90  C   UNL A   1      48.624  26.735  31.347  1.00  0.00     0.135 A 
ATOM     91  F   UNL A   1      48.643  28.007  27.936  1.00  0.00    -0.206 F 
ATOM     92  C   UNL A   1      50.413  27.237  29.271  1.00  0.00     0.059 A 
ATOM     93  C   UNL A   1      49.979  26.479  31.537  1.00  0.00     0.059 A 
ATOM     94  F   UNL A   1      47.785  26.484  32.365  1.00  0.00    -0.206 F 
ATOM     95  C   UNL A   1      50.865  26.727  30.490  1.00  0.00     0.060 A 
BRANCH  95  96
ATOM     96  S   UNL A   1      52.633  26.429  30.698  1.00  0.00     0.124 S 
ATOM     97  O   UNL A   1      53.068  27.665  31.339  1.00  0.00    -0.237 OA
ATOM     98  O   UNL A   1      52.649  25.238  31.542  1.00  0.00    -0.237 OA
ATOM     99  O   UNL A   1      53.108  26.229  29.333  1.00  0.00    -0.744 OA
ENDBRANCH  95  96
ENDBRANCH  63  88
ENDBRANCH  37  38
ENDBRANCH  29  32
ENDBRANCH  27  28
ENDBRANCH  26  27
ENDBRANCH   1  26
TORSDOF 18
ENDMDL
