MODEL 1
REMARK VINA RESULT:     -10.6      0.000      0.000
REMARK SMILES CCN(Cc1ccccn1)C(=O)NC(CC)(CC)C(=O)NCCCCCCNC(=O)c1ccc(-c2c3nc(c(-c4c(F)cc(S(=O)(=O)[O-])cc4F)c4ccc([nH]4)c(-c4c(F)cc(S(=O)(=O)[O-])cc4F)c4nc(c(-c5c(F)cc(S(=O)(=O)[O-])cc5F)c5ccc2[nH]5)C=C4)C=C3)cc1
REMARK SMILES IDX 24 1 23 2 22 3 21 4 19 5 20 6 14 8 13 9 11 10 12 11 3 13
REMARK SMILES IDX 2 14 1 15 4 16 5 17 6 18 10 19 7 20 9 21 8 22 15 23 16 24
REMARK SMILES IDX 17 25 18 26 25 27 26 28 27 29 28 30 29 31 30 33 31 34 32 35
REMARK SMILES IDX 96 36 33 37 95 38 34 39 35 40 36 41 89 42 37 43 94 44 88 45
REMARK SMILES IDX 90 46 38 47 93 48 87 49 86 50 39 52 73 53 52 54 72 55 53 56
REMARK SMILES IDX 56 57 71 58 91 59 54 60 55 61 70 63 92 64 57 65 40 66 41 67
REMARK SMILES IDX 50 68 42 69 43 70 49 71 51 72 44 73 45 74 46 75 47 76 48 77
REMARK SMILES IDX 74 78 75 79 84 80 76 81 77 82 83 83 85 84 78 85 79 86 80 87
REMARK SMILES IDX 81 88 82 89 58 90 59 91 68 92 60 93 61 94 67 95 69 96 62 97
REMARK SMILES IDX 63 98 64 99 65 100 66 101
REMARK H PARENT 21 7 13 12 28 32 90 51 56 62
REMARK Flexibility Score: inf
ROOT
ATOM      1  C   UNL A   1      38.413  22.416  25.931  1.00  0.00     0.002 C 
ENDROOT
BRANCH   1   2
ATOM      2  C   UNL A   1      37.564  21.449  25.090  1.00  0.00     0.021 C 
BRANCH   2   3
ATOM      3  C   UNL A   1      36.193  21.144  25.687  1.00  0.00     0.116 C 
BRANCH   3   4
ATOM      4  N   UNL A   1      35.229  20.985  24.627  1.00  0.00    -0.354 N 
ATOM      5  C   UNL A   1      33.914  21.330  24.686  1.00  0.00     0.245 C 
ATOM      6  O   UNL A   1      33.074  20.433  24.579  1.00  0.00    -0.272 OA
ATOM      7  H   UNL A   1      35.551  20.592  23.783  1.00  0.00     0.163 HD
BRANCH   5   8
ATOM      8  C   UNL A   1      33.543  22.823  24.855  1.00  0.00     0.120 C 
BRANCH   8   9
ATOM      9  N   UNL A   1      32.330  23.131  24.041  1.00  0.00    -0.323 N 
ATOM     10  C   UNL A   1      31.542  24.146  23.670  1.00  0.00     0.318 C 
ATOM     11  O   UNL A   1      30.477  23.770  23.157  1.00  0.00    -0.249 OA
ATOM     12  H   UNL A   1      31.994  22.299  23.638  1.00  0.00     0.166 HD
BRANCH  10  13
ATOM     13  N   UNL A   1      31.848  25.476  23.685  1.00  0.00    -0.319 N 
BRANCH  13  14
ATOM     14  C   UNL A   1      32.732  25.920  22.594  1.00  0.00     0.118 C 
ATOM     15  C   UNL A   1      32.076  25.892  21.214  1.00  0.00     0.027 C 
ENDBRANCH  13  14
BRANCH  13  16
ATOM     16  C   UNL A   1      31.455  26.555  24.609  1.00  0.00     0.177 C 
BRANCH  16  17
ATOM     17  C   UNL A   1      30.570  27.663  24.093  1.00  0.00     0.060 A 
ATOM     18  C   UNL A   1      29.391  27.398  23.402  1.00  0.00     0.026 A 
ATOM     19  N   UNL A   1      31.025  28.933  24.279  1.00  0.00    -0.259 NA
ATOM     20  C   UNL A   1      28.600  28.469  22.991  1.00  0.00     0.004 A 
ATOM     21  C   UNL A   1      30.242  29.951  23.863  1.00  0.00     0.111 A 
ATOM     22  C   UNL A   1      29.023  29.769  23.238  1.00  0.00     0.020 A 
ENDBRANCH  16  17
ENDBRANCH  13  16
ENDBRANCH  10  13
ENDBRANCH   8   9
BRANCH   8  23
ATOM     23  C   UNL A   1      34.656  23.838  24.445  1.00  0.00     0.035 C 
ATOM     24  C   UNL A   1      34.880  25.028  25.380  1.00  0.00     0.007 C 
ENDBRANCH   8  23
BRANCH   8  25
ATOM     25  C   UNL A   1      33.178  23.014  26.366  1.00  0.00     0.035 C 
ATOM     26  C   UNL A   1      31.711  22.803  26.737  1.00  0.00     0.007 C 
ENDBRANCH   8  25
ENDBRANCH   5   8
ENDBRANCH   3   4
ENDBRANCH   2   3
ENDBRANCH   1   2
BRANCH   1  27
ATOM     27  C   UNL A   1      39.842  21.948  26.221  1.00  0.00     0.002 C 
BRANCH  27  28
ATOM     28  C   UNL A   1      40.374  22.319  27.605  1.00  0.00     0.021 C 
BRANCH  28  29
ATOM     29  C   UNL A   1      41.529  23.311  27.594  1.00  0.00     0.116 C 
BRANCH  29  30
ATOM     30  N   UNL A   1      41.613  24.046  26.347  1.00  0.00    -0.352 N 
ATOM     31  C   UNL A   1      41.378  25.376  26.119  1.00  0.00     0.251 C 
ATOM     32  H   UNL A   1      41.874  23.517  25.558  1.00  0.00     0.163 HD
ATOM     33  O   UNL A   1      41.330  25.800  24.965  1.00  0.00    -0.269 OA
BRANCH  31  34
ATOM     34  C   UNL A   1      41.151  26.291  27.259  1.00  0.00     0.039 A 
ATOM     35  C   UNL A   1      40.035  26.083  28.069  1.00  0.00     0.014 A 
ATOM     36  C   UNL A   1      42.023  27.353  27.526  1.00  0.00     0.014 A 
ATOM     37  C   UNL A   1      39.812  26.917  29.164  1.00  0.00     0.010 A 
ATOM     38  C   UNL A   1      41.846  28.130  28.669  1.00  0.00     0.010 A 
ATOM     39  C   UNL A   1      40.727  27.934  29.489  1.00  0.00    -0.014 A 
BRANCH  39  40
ATOM     40  C   UNL A   1      40.501  28.793  30.679  1.00  0.00     0.031 A 
ATOM     41  C   UNL A   1      41.363  28.646  31.904  1.00  0.00     0.074 A 
ATOM     42  C   UNL A   1      39.510  29.706  30.654  1.00  0.00     0.049 A 
ATOM     43  N   UNL A   1      41.368  29.362  33.000  1.00  0.00    -0.248 NA
ATOM     44  C   UNL A   1      42.331  27.537  31.914  1.00  0.00     0.031 C 
ATOM     45  C   UNL A   1      38.569  29.900  29.548  1.00  0.00     0.029 A 
ATOM     46  N   UNL A   1      39.139  30.654  31.573  1.00  0.00    -0.354 N 
ATOM     47  C   UNL A   1      42.326  28.789  33.827  1.00  0.00     0.074 A 
ATOM     48  C   UNL A   1      42.840  27.629  33.133  1.00  0.00     0.031 C 
ATOM     49  C   UNL A   1      37.769  30.940  29.828  1.00  0.00     0.029 A 
ATOM     50  C   UNL A   1      38.116  31.466  31.145  1.00  0.00     0.049 A 
ATOM     51  H   UNL A   1      39.566  30.745  32.457  1.00  0.00     0.167 HD
ATOM     52  C   UNL A   1      42.755  29.204  35.043  1.00  0.00     0.037 A 
ATOM     53  C   UNL A   1      37.534  32.527  31.737  1.00  0.00     0.037 A 
ATOM     54  C   UNL A   1      42.250  30.374  35.716  1.00  0.00     0.049 A 
ATOM     55  C   UNL A   1      38.039  32.981  33.079  1.00  0.00     0.074 A 
ATOM     56  C   UNL A   1      42.665  30.924  36.915  1.00  0.00     0.029 A 
ATOM     57  N   UNL A   1      41.210  31.168  35.252  1.00  0.00    -0.354 N 
ATOM     58  N   UNL A   1      39.008  32.480  33.809  1.00  0.00    -0.248 NA
ATOM     59  C   UNL A   1      37.381  34.151  33.674  1.00  0.00     0.031 C 
ATOM     60  C   UNL A   1      41.839  32.015  37.205  1.00  0.00     0.029 A 
ATOM     61  C   UNL A   1      40.951  32.186  36.156  1.00  0.00     0.049 A 
ATOM     62  H   UNL A   1      40.728  31.028  34.405  1.00  0.00     0.167 HD
ATOM     63  C   UNL A   1      39.101  33.298  34.931  1.00  0.00     0.074 A 
ATOM     64  C   UNL A   1      38.093  34.328  34.777  1.00  0.00     0.031 C 
ATOM     65  C   UNL A   1      39.946  33.207  35.988  1.00  0.00     0.037 A 
BRANCH  52  66
ATOM     66  C   UNL A   1      43.816  28.384  35.728  1.00  0.00     0.058 A 
ATOM     67  C   UNL A   1      45.186  28.602  35.506  1.00  0.00     0.135 A 
ATOM     68  C   UNL A   1      43.458  27.378  36.641  1.00  0.00     0.135 A 
ATOM     69  F   UNL A   1      45.590  29.542  34.635  1.00  0.00    -0.206 F 
ATOM     70  C   UNL A   1      46.160  27.826  36.131  1.00  0.00     0.059 A 
ATOM     71  C   UNL A   1      44.414  26.612  37.301  1.00  0.00     0.059 A 
ATOM     72  F   UNL A   1      42.164  27.125  36.895  1.00  0.00    -0.206 F 
ATOM     73  C   UNL A   1      45.763  26.831  37.025  1.00  0.00     0.060 A 
BRANCH  73  74
ATOM     74  S   UNL A   1      47.037  25.827  37.818  1.00  0.00     0.124 S 
ATOM     75  O   UNL A   1      47.854  25.439  36.674  1.00  0.00    -0.237 OA
ATOM     76  O   UNL A   1      47.650  26.774  38.743  1.00  0.00    -0.237 OA
ATOM     77  O   UNL A   1      46.278  24.747  38.443  1.00  0.00    -0.744 OA
ENDBRANCH  73  74
ENDBRANCH  52  66
BRANCH  53  78
ATOM     78  C   UNL A   1      36.451  33.267  31.036  1.00  0.00     0.058 A 
ATOM     79  C   UNL A   1      35.118  33.166  31.459  1.00  0.00     0.135 A 
ATOM     80  C   UNL A   1      36.727  34.108  29.947  1.00  0.00     0.135 A 
ATOM     81  F   UNL A   1      34.801  32.372  32.494  1.00  0.00    -0.206 F 
ATOM     82  C   UNL A   1      34.093  33.858  30.821  1.00  0.00     0.059 A 
ATOM     83  C   UNL A   1      35.724  34.832  29.309  1.00  0.00     0.059 A 
ATOM     84  F   UNL A   1      37.989  34.256  29.514  1.00  0.00    -0.206 F 
ATOM     85  C   UNL A   1      34.409  34.693  29.748  1.00  0.00     0.060 A 
BRANCH  85  86
ATOM     86  S   UNL A   1      33.080  35.631  28.962  1.00  0.00     0.124 S 
ATOM     87  O   UNL A   1      33.831  36.623  28.203  1.00  0.00    -0.237 OA
ATOM     88  O   UNL A   1      32.404  34.603  28.178  1.00  0.00    -0.237 OA
ATOM     89  O   UNL A   1      32.318  36.146  30.096  1.00  0.00    -0.744 OA
ENDBRANCH  85  86
ENDBRANCH  53  78
BRANCH  65  90
ATOM     90  C   UNL A   1      39.851  34.278  37.041  1.00  0.00     0.058 A 
ATOM     91  C   UNL A   1      39.055  34.128  38.188  1.00  0.00     0.135 A 
ATOM     92  C   UNL A   1      40.593  35.465  36.910  1.00  0.00     0.135 A 
ATOM     93  F   UNL A   1      38.322  33.016  38.361  1.00  0.00    -0.206 F 
ATOM     94  C   UNL A   1      38.967  35.132  39.147  1.00  0.00     0.059 A 
ATOM     95  C   UNL A   1      40.546  36.467  37.874  1.00  0.00     0.059 A 
ATOM     96  F   UNL A   1      41.382  35.655  35.840  1.00  0.00    -0.206 F 
ATOM     97  C   UNL A   1      39.714  36.299  38.979  1.00  0.00     0.060 A 
BRANCH  97  98
ATOM     98  S   UNL A   1      39.597  37.591  40.235  1.00  0.00     0.124 S 
ATOM     99  O   UNL A   1      38.218  38.040  40.065  1.00  0.00    -0.237 OA
ATOM    100  O   UNL A   1      39.877  36.859  41.465  1.00  0.00    -0.237 OA
ATOM    101  O   UNL A   1      40.623  38.549  39.834  1.00  0.00    -0.744 OA
ENDBRANCH  97  98
ENDBRANCH  65  90
ENDBRANCH  39  40
ENDBRANCH  31  34
ENDBRANCH  29  30
ENDBRANCH  28  29
ENDBRANCH  27  28
ENDBRANCH   1  27
TORSDOF 23
ENDMDL
MODEL 2
REMARK VINA RESULT:     -10.5      0.974      1.981
REMARK SMILES CCN(Cc1ccccn1)C(=O)NC(CC)(CC)C(=O)NCCCCCCNC(=O)c1ccc(-c2c3nc(c(-c4c(F)cc(S(=O)(=O)[O-])cc4F)c4ccc([nH]4)c(-c4c(F)cc(S(=O)(=O)[O-])cc4F)c4nc(c(-c5c(F)cc(S(=O)(=O)[O-])cc5F)c5ccc2[nH]5)C=C4)C=C3)cc1
REMARK SMILES IDX 24 1 23 2 22 3 21 4 19 5 20 6 14 8 13 9 11 10 12 11 3 13
REMARK SMILES IDX 2 14 1 15 4 16 5 17 6 18 10 19 7 20 9 21 8 22 15 23 16 24
REMARK SMILES IDX 17 25 18 26 25 27 26 28 27 29 28 30 29 31 30 33 31 34 32 35
REMARK SMILES IDX 96 36 33 37 95 38 34 39 35 40 36 41 89 42 37 43 94 44 88 45
REMARK SMILES IDX 90 46 38 47 93 48 87 49 86 50 39 52 73 53 52 54 72 55 53 56
REMARK SMILES IDX 56 57 71 58 91 59 54 60 55 61 70 63 92 64 57 65 40 66 41 67
REMARK SMILES IDX 50 68 42 69 43 70 49 71 51 72 44 73 45 74 46 75 47 76 48 77
REMARK SMILES IDX 74 78 75 79 84 80 76 81 77 82 83 83 85 84 78 85 79 86 80 87
REMARK SMILES IDX 81 88 82 89 58 90 59 91 68 92 60 93 61 94 67 95 69 96 62 97
REMARK SMILES IDX 63 98 64 99 65 100 66 101
REMARK H PARENT 21 7 13 12 28 32 90 51 56 62
REMARK Flexibility Score: inf
ROOT
ATOM      1  C   UNL A   1      38.627  22.608  26.348  1.00  0.00     0.002 C 
ENDROOT
BRANCH   1   2
ATOM      2  C   UNL A   1      37.697  22.042  25.263  1.00  0.00     0.021 C 
BRANCH   2   3
ATOM      3  C   UNL A   1      36.346  21.565  25.789  1.00  0.00     0.116 C 
BRANCH   3   4
ATOM      4  N   UNL A   1      35.637  22.675  26.375  1.00  0.00    -0.354 N 
ATOM      5  C   UNL A   1      34.886  23.587  25.700  1.00  0.00     0.245 C 
ATOM      6  O   UNL A   1      35.248  24.766  25.723  1.00  0.00    -0.272 OA
ATOM      7  H   UNL A   1      35.701  22.783  27.352  1.00  0.00     0.163 HD
BRANCH   5   8
ATOM      8  C   UNL A   1      33.610  23.105  24.968  1.00  0.00     0.120 C 
BRANCH   8   9
ATOM      9  N   UNL A   1      32.408  23.728  25.598  1.00  0.00    -0.323 N 
ATOM     10  C   UNL A   1      31.874  24.917  25.898  1.00  0.00     0.318 C 
ATOM     11  O   UNL A   1      30.916  24.833  26.682  1.00  0.00    -0.249 OA
ATOM     12  H   UNL A   1      31.797  23.015  25.895  1.00  0.00     0.166 HD
BRANCH  10  13
ATOM     13  N   UNL A   1      32.188  26.124  25.346  1.00  0.00    -0.319 N 
BRANCH  13  14
ATOM     14  C   UNL A   1      32.740  27.111  26.289  1.00  0.00     0.118 C 
ATOM     15  C   UNL A   1      33.629  28.166  25.632  1.00  0.00     0.027 C 
ENDBRANCH  13  14
BRANCH  13  16
ATOM     16  C   UNL A   1      32.067  26.625  23.965  1.00  0.00     0.177 C 
BRANCH  16  17
ATOM     17  C   UNL A   1      30.838  27.414  23.586  1.00  0.00     0.060 A 
ATOM     18  C   UNL A   1      29.559  26.875  23.690  1.00  0.00     0.026 A 
ATOM     19  N   UNL A   1      31.056  28.656  23.069  1.00  0.00    -0.259 NA
ATOM     20  C   UNL A   1      28.466  27.674  23.363  1.00  0.00     0.004 A 
ATOM     21  C   UNL A   1      29.978  29.405  22.754  1.00  0.00     0.111 A 
ATOM     22  C   UNL A   1      28.675  28.968  22.901  1.00  0.00     0.020 A 
ENDBRANCH  16  17
ENDBRANCH  13  16
ENDBRANCH  10  13
ENDBRANCH   8   9
BRANCH   8  23
ATOM     23  C   UNL A   1      33.390  21.560  24.956  1.00  0.00     0.035 C 
ATOM     24  C   UNL A   1      31.986  21.063  25.304  1.00  0.00     0.007 C 
ENDBRANCH   8  23
BRANCH   8  25
ATOM     25  C   UNL A   1      33.722  23.638  23.499  1.00  0.00     0.035 C 
ATOM     26  C   UNL A   1      34.969  23.220  22.723  1.00  0.00     0.007 C 
ENDBRANCH   8  25
ENDBRANCH   5   8
ENDBRANCH   3   4
ENDBRANCH   2   3
ENDBRANCH   1   2
BRANCH   1  27
ATOM     27  C   UNL A   1      40.044  22.025  26.363  1.00  0.00     0.002 C 
BRANCH  27  28
ATOM     28  C   UNL A   1      40.846  22.311  27.633  1.00  0.00     0.021 C 
BRANCH  28  29
ATOM     29  C   UNL A   1      41.998  23.288  27.448  1.00  0.00     0.116 C 
BRANCH  29  30
ATOM     30  N   UNL A   1      41.848  24.097  26.253  1.00  0.00    -0.352 N 
ATOM     31  C   UNL A   1      41.413  25.391  26.143  1.00  0.00     0.251 C 
ATOM     32  H   UNL A   1      42.093  23.655  25.406  1.00  0.00     0.163 HD
ATOM     33  O   UNL A   1      41.187  25.867  25.032  1.00  0.00    -0.269 OA
BRANCH  31  34
ATOM     34  C   UNL A   1      41.188  26.200  27.360  1.00  0.00     0.039 A 
ATOM     35  C   UNL A   1      42.087  27.225  27.654  1.00  0.00     0.014 A 
ATOM     36  C   UNL A   1      40.107  25.949  28.213  1.00  0.00     0.014 A 
ATOM     37  C   UNL A   1      41.883  28.018  28.783  1.00  0.00     0.010 A 
ATOM     38  C   UNL A   1      39.858  26.796  29.290  1.00  0.00     0.010 A 
ATOM     39  C   UNL A   1      40.755  27.827  29.600  1.00  0.00    -0.014 A 
BRANCH  39  40
ATOM     40  C   UNL A   1      40.526  28.702  30.778  1.00  0.00     0.031 A 
ATOM     41  C   UNL A   1      41.381  28.567  32.009  1.00  0.00     0.074 A 
ATOM     42  C   UNL A   1      39.538  29.617  30.736  1.00  0.00     0.049 A 
ATOM     43  N   UNL A   1      41.383  29.298  33.096  1.00  0.00    -0.248 NA
ATOM     44  C   UNL A   1      42.345  27.455  32.038  1.00  0.00     0.031 C 
ATOM     45  C   UNL A   1      38.604  29.800  29.623  1.00  0.00     0.029 A 
ATOM     46  N   UNL A   1      39.166  30.579  31.641  1.00  0.00    -0.354 N 
ATOM     47  C   UNL A   1      42.335  28.732  33.935  1.00  0.00     0.074 A 
ATOM     48  C   UNL A   1      42.849  27.562  33.259  1.00  0.00     0.031 C 
ATOM     49  C   UNL A   1      37.805  30.846  29.885  1.00  0.00     0.029 A 
ATOM     50  C   UNL A   1      38.147  31.388  31.197  1.00  0.00     0.049 A 
ATOM     51  H   UNL A   1      39.588  30.679  32.525  1.00  0.00     0.167 HD
ATOM     52  C   UNL A   1      42.759  29.162  35.148  1.00  0.00     0.037 A 
ATOM     53  C   UNL A   1      37.566  32.459  31.772  1.00  0.00     0.037 A 
ATOM     54  C   UNL A   1      42.254  30.342  35.803  1.00  0.00     0.049 A 
ATOM     55  C   UNL A   1      38.065  32.928  33.111  1.00  0.00     0.074 A 
ATOM     56  C   UNL A   1      42.665  30.906  36.997  1.00  0.00     0.029 A 
ATOM     57  N   UNL A   1      41.219  31.133  35.323  1.00  0.00    -0.354 N 
ATOM     58  N   UNL A   1      39.029  32.434  33.852  1.00  0.00    -0.248 NA
ATOM     59  C   UNL A   1      37.408  34.108  33.687  1.00  0.00     0.031 C 
ATOM     60  C   UNL A   1      41.841  32.004  37.269  1.00  0.00     0.029 A 
ATOM     61  C   UNL A   1      40.959  32.164  36.213  1.00  0.00     0.049 A 
ATOM     62  H   UNL A   1      40.741  30.984  34.476  1.00  0.00     0.167 HD
ATOM     63  C   UNL A   1      39.118  33.266  34.964  1.00  0.00     0.074 A 
ATOM     64  C   UNL A   1      38.115  34.297  34.792  1.00  0.00     0.031 C 
ATOM     65  C   UNL A   1      39.958  33.185  36.027  1.00  0.00     0.037 A 
BRANCH  52  66
ATOM     66  C   UNL A   1      43.813  28.347  35.850  1.00  0.00     0.058 A 
ATOM     67  C   UNL A   1      45.185  28.596  35.677  1.00  0.00     0.135 A 
ATOM     68  C   UNL A   1      43.447  27.314  36.728  1.00  0.00     0.135 A 
ATOM     69  F   UNL A   1      45.598  29.563  34.839  1.00  0.00    -0.206 F 
ATOM     70  C   UNL A   1      46.154  27.825  36.315  1.00  0.00     0.059 A 
ATOM     71  C   UNL A   1      44.396  26.553  37.403  1.00  0.00     0.059 A 
ATOM     72  F   UNL A   1      42.151  27.031  36.935  1.00  0.00    -0.206 F 
ATOM     73  C   UNL A   1      45.749  26.804  37.174  1.00  0.00     0.060 A 
BRANCH  73  74
ATOM     74  S   UNL A   1      47.016  25.807  37.987  1.00  0.00     0.124 S 
ATOM     75  O   UNL A   1      46.321  24.535  38.154  1.00  0.00    -0.237 OA
ATOM     76  O   UNL A   1      48.096  25.815  37.005  1.00  0.00    -0.237 OA
ATOM     77  O   UNL A   1      47.288  26.540  39.219  1.00  0.00    -0.744 OA
ENDBRANCH  73  74
ENDBRANCH  52  66
BRANCH  53  78
ATOM     78  C   UNL A   1      36.489  33.193  31.056  1.00  0.00     0.058 A 
ATOM     79  C   UNL A   1      36.776  33.967  29.921  1.00  0.00     0.135 A 
ATOM     80  C   UNL A   1      35.151  33.118  31.472  1.00  0.00     0.135 A 
ATOM     81  F   UNL A   1      38.041  34.073  29.484  1.00  0.00    -0.206 F 
ATOM     82  C   UNL A   1      35.781  34.653  29.233  1.00  0.00     0.059 A 
ATOM     83  C   UNL A   1      34.134  33.773  30.785  1.00  0.00     0.059 A 
ATOM     84  F   UNL A   1      34.820  32.376  32.540  1.00  0.00    -0.206 F 
ATOM     85  C   UNL A   1      34.460  34.545  29.672  1.00  0.00     0.060 A 
BRANCH  85  86
ATOM     86  S   UNL A   1      33.166  35.394  28.739  1.00  0.00     0.124 S 
ATOM     87  O   UNL A   1      32.352  35.954  29.810  1.00  0.00    -0.237 OA
ATOM     88  O   UNL A   1      33.936  36.353  27.953  1.00  0.00    -0.237 OA
ATOM     89  O   UNL A   1      32.548  34.318  27.970  1.00  0.00    -0.744 OA
ENDBRANCH  85  86
ENDBRANCH  53  78
BRANCH  65  90
ATOM     90  C   UNL A   1      39.861  34.271  37.065  1.00  0.00     0.058 A 
ATOM     91  C   UNL A   1      40.513  35.505  36.917  1.00  0.00     0.135 A 
ATOM     92  C   UNL A   1      39.079  34.078  38.217  1.00  0.00     0.135 A 
ATOM     93  F   UNL A   1      41.278  35.741  35.838  1.00  0.00    -0.206 F 
ATOM     94  C   UNL A   1      40.426  36.495  37.891  1.00  0.00     0.059 A 
ATOM     95  C   UNL A   1      38.950  35.067  39.187  1.00  0.00     0.059 A 
ATOM     96  F   UNL A   1      38.422  32.922  38.403  1.00  0.00    -0.206 F 
ATOM     97  C   UNL A   1      39.643  36.265  39.024  1.00  0.00     0.060 A 
BRANCH  97  98
ATOM     98  S   UNL A   1      39.531  37.559  40.277  1.00  0.00     0.124 S 
ATOM     99  O   UNL A   1      38.602  38.494  39.649  1.00  0.00    -0.237 OA
ATOM    100  O   UNL A   1      39.014  36.833  41.432  1.00  0.00    -0.237 OA
ATOM    101  O   UNL A   1      40.906  38.031  40.403  1.00  0.00    -0.744 OA
ENDBRANCH  97  98
ENDBRANCH  65  90
ENDBRANCH  39  40
ENDBRANCH  31  34
ENDBRANCH  29  30
ENDBRANCH  28  29
ENDBRANCH  27  28
ENDBRANCH   1  27
TORSDOF 23
ENDMDL
MODEL 3
REMARK VINA RESULT:     -10.4      6.431     12.222
REMARK SMILES CCN(Cc1ccccn1)C(=O)NC(CC)(CC)C(=O)NCCCCCCNC(=O)c1ccc(-c2c3nc(c(-c4c(F)cc(S(=O)(=O)[O-])cc4F)c4ccc([nH]4)c(-c4c(F)cc(S(=O)(=O)[O-])cc4F)c4nc(c(-c5c(F)cc(S(=O)(=O)[O-])cc5F)c5ccc2[nH]5)C=C4)C=C3)cc1
REMARK SMILES IDX 24 1 23 2 22 3 21 4 19 5 20 6 14 8 13 9 11 10 12 11 3 13
REMARK SMILES IDX 2 14 1 15 4 16 5 17 6 18 10 19 7 20 9 21 8 22 15 23 16 24
REMARK SMILES IDX 17 25 18 26 25 27 26 28 27 29 28 30 29 31 30 33 31 34 32 35
REMARK SMILES IDX 96 36 33 37 95 38 34 39 35 40 36 41 89 42 37 43 94 44 88 45
REMARK SMILES IDX 90 46 38 47 93 48 87 49 86 50 39 52 73 53 52 54 72 55 53 56
REMARK SMILES IDX 56 57 71 58 91 59 54 60 55 61 70 63 92 64 57 65 40 66 41 67
REMARK SMILES IDX 50 68 42 69 43 70 49 71 51 72 44 73 45 74 46 75 47 76 48 77
REMARK SMILES IDX 74 78 75 79 84 80 76 81 77 82 83 83 85 84 78 85 79 86 80 87
REMARK SMILES IDX 81 88 82 89 58 90 59 91 68 92 60 93 61 94 67 95 69 96 62 97
REMARK SMILES IDX 63 98 64 99 65 100 66 101
REMARK H PARENT 21 7 13 12 28 32 90 51 56 62
REMARK Flexibility Score: inf
ROOT
ATOM      1  C   UNL A   1      34.494  30.749  27.371  1.00  0.00     0.002 C 
ENDROOT
BRANCH   1   2
ATOM      2  C   UNL A   1      33.164  29.978  27.376  1.00  0.00     0.021 C 
BRANCH   2   3
ATOM      3  C   UNL A   1      32.277  30.260  26.166  1.00  0.00     0.116 C 
BRANCH   3   4
ATOM      4  N   UNL A   1      32.883  29.701  24.984  1.00  0.00    -0.354 N 
ATOM      5  C   UNL A   1      32.861  28.390  24.619  1.00  0.00     0.245 C 
ATOM      6  O   UNL A   1      33.935  27.788  24.554  1.00  0.00    -0.272 OA
ATOM      7  H   UNL A   1      33.357  30.323  24.385  1.00  0.00     0.163 HD
BRANCH   5   8
ATOM      8  C   UNL A   1      31.500  27.735  24.281  1.00  0.00     0.120 C 
BRANCH   8   9
ATOM      9  N   UNL A   1      31.676  26.770  23.155  1.00  0.00    -0.323 N 
ATOM     10  C   UNL A   1      32.177  25.562  22.874  1.00  0.00     0.318 C 
ATOM     11  O   UNL A   1      32.272  25.350  21.655  1.00  0.00    -0.249 OA
ATOM     12  H   UNL A   1      31.290  27.157  22.337  1.00  0.00     0.166 HD
BRANCH  10  13
ATOM     13  N   UNL A   1      32.450  24.557  23.755  1.00  0.00    -0.319 N 
BRANCH  13  14
ATOM     14  C   UNL A   1      31.637  23.343  23.581  1.00  0.00     0.118 C 
ATOM     15  C   UNL A   1      32.344  22.227  22.811  1.00  0.00     0.027 C 
ENDBRANCH  13  14
BRANCH  13  16
ATOM     16  C   UNL A   1      33.418  24.471  24.864  1.00  0.00     0.177 C 
BRANCH  16  17
ATOM     17  C   UNL A   1      34.643  23.607  24.690  1.00  0.00     0.060 A 
ATOM     18  C   UNL A   1      35.475  23.729  23.582  1.00  0.00     0.026 A 
ATOM     19  N   UNL A   1      34.847  22.654  25.643  1.00  0.00    -0.259 NA
ATOM     20  C   UNL A   1      36.612  22.927  23.506  1.00  0.00     0.004 A 
ATOM     21  C   UNL A   1      35.953  21.887  25.540  1.00  0.00     0.111 A 
ATOM     22  C   UNL A   1      36.867  22.000  24.510  1.00  0.00     0.020 A 
ENDBRANCH  16  17
ENDBRANCH  13  16
ENDBRANCH  10  13
ENDBRANCH   8   9
BRANCH   8  23
ATOM     23  C   UNL A   1      30.363  28.727  23.878  1.00  0.00     0.035 C 
ATOM     24  C   UNL A   1      29.583  28.398  22.604  1.00  0.00     0.007 C 
ENDBRANCH   8  23
BRANCH   8  25
ATOM     25  C   UNL A   1      31.074  26.927  25.554  1.00  0.00     0.035 C 
ATOM     26  C   UNL A   1      29.938  25.924  25.367  1.00  0.00     0.007 C 
ENDBRANCH   8  25
ENDBRANCH   5   8
ENDBRANCH   3   4
ENDBRANCH   2   3
ENDBRANCH   1   2
BRANCH   1  27
ATOM     27  C   UNL A   1      34.512  32.027  28.216  1.00  0.00     0.002 C 
BRANCH  27  28
ATOM     28  C   UNL A   1      35.788  32.860  28.099  1.00  0.00     0.021 C 
BRANCH  28  29
ATOM     29  C   UNL A   1      36.739  32.730  29.281  1.00  0.00     0.116 C 
BRANCH  29  30
ATOM     30  N   UNL A   1      36.234  31.829  30.298  1.00  0.00    -0.352 N 
ATOM     31  C   UNL A   1      36.739  30.620  30.699  1.00  0.00     0.251 C 
ATOM     32  H   UNL A   1      35.418  32.126  30.764  1.00  0.00     0.163 HD
ATOM     33  O   UNL A   1      36.087  29.907  31.460  1.00  0.00    -0.269 OA
BRANCH  31  34
ATOM     34  C   UNL A   1      38.051  30.163  30.191  1.00  0.00     0.039 A 
ATOM     35  C   UNL A   1      38.206  29.977  28.817  1.00  0.00     0.014 A 
ATOM     36  C   UNL A   1      39.120  29.911  31.058  1.00  0.00     0.014 A 
ATOM     37  C   UNL A   1      39.440  29.570  28.311  1.00  0.00     0.010 A 
ATOM     38  C   UNL A   1      40.374  29.588  30.543  1.00  0.00     0.010 A 
ATOM     39  C   UNL A   1      40.543  29.394  29.166  1.00  0.00    -0.014 A 
BRANCH  39  40
ATOM     40  C   UNL A   1      41.863  28.998  28.613  1.00  0.00     0.031 A 
ATOM     41  C   UNL A   1      42.986  29.996  28.525  1.00  0.00     0.074 A 
ATOM     42  C   UNL A   1      42.045  27.733  28.185  1.00  0.00     0.049 A 
ATOM     43  N   UNL A   1      44.227  29.808  28.151  1.00  0.00    -0.248 NA
ATOM     44  C   UNL A   1      42.675  31.390  28.878  1.00  0.00     0.031 C 
ATOM     45  C   UNL A   1      41.014  26.693  28.163  1.00  0.00     0.029 A 
ATOM     46  N   UNL A   1      43.163  27.099  27.706  1.00  0.00    -0.354 N 
ATOM     47  C   UNL A   1      44.838  31.056  28.217  1.00  0.00     0.074 A 
ATOM     48  C   UNL A   1      43.817  32.003  28.606  1.00  0.00     0.031 C 
ATOM     49  C   UNL A   1      41.560  25.539  27.750  1.00  0.00     0.029 A 
ATOM     50  C   UNL A   1      42.971  25.763  27.447  1.00  0.00     0.049 A 
ATOM     51  H   UNL A   1      44.023  27.558  27.561  1.00  0.00     0.167 HD
ATOM     52  C   UNL A   1      46.135  31.378  27.995  1.00  0.00     0.037 A 
ATOM     53  C   UNL A   1      43.836  24.818  27.030  1.00  0.00     0.037 A 
ATOM     54  C   UNL A   1      47.148  30.421  27.627  1.00  0.00     0.049 A 
ATOM     55  C   UNL A   1      45.275  25.196  26.807  1.00  0.00     0.074 A 
ATOM     56  C   UNL A   1      48.504  30.628  27.450  1.00  0.00     0.029 A 
ATOM     57  N   UNL A   1      46.913  29.077  27.370  1.00  0.00    -0.354 N 
ATOM     58  N   UNL A   1      45.856  26.363  26.960  1.00  0.00    -0.248 NA
ATOM     59  C   UNL A   1      46.180  24.126  26.369  1.00  0.00     0.031 C 
ATOM     60  C   UNL A   1      49.079  29.424  27.029  1.00  0.00     0.029 A 
ATOM     61  C   UNL A   1      48.094  28.450  27.007  1.00  0.00     0.049 A 
ATOM     62  H   UNL A   1      46.036  28.635  27.436  1.00  0.00     0.167 HD
ATOM     63  C   UNL A   1      47.202  26.158  26.673  1.00  0.00     0.074 A 
ATOM     64  C   UNL A   1      47.347  24.754  26.345  1.00  0.00     0.031 C 
ATOM     65  C   UNL A   1      48.224  27.050  26.685  1.00  0.00     0.037 A 
BRANCH  52  66
ATOM     66  C   UNL A   1      46.530  32.824  28.135  1.00  0.00     0.058 A 
ATOM     67  C   UNL A   1      47.046  33.343  29.334  1.00  0.00     0.135 A 
ATOM     68  C   UNL A   1      46.413  33.701  27.044  1.00  0.00     0.135 A 
ATOM     69  F   UNL A   1      47.170  32.555  30.415  1.00  0.00    -0.206 F 
ATOM     70  C   UNL A   1      47.392  34.686  29.459  1.00  0.00     0.059 A 
ATOM     71  C   UNL A   1      46.784  35.040  27.136  1.00  0.00     0.059 A 
ATOM     72  F   UNL A   1      45.929  33.262  25.872  1.00  0.00    -0.206 F 
ATOM     73  C   UNL A   1      47.255  35.527  28.355  1.00  0.00     0.060 A 
BRANCH  73  74
ATOM     74  S   UNL A   1      47.697  37.268  28.536  1.00  0.00     0.124 S 
ATOM     75  O   UNL A   1      49.144  37.184  28.703  1.00  0.00    -0.237 OA
ATOM     76  O   UNL A   1      47.237  37.840  27.275  1.00  0.00    -0.237 OA
ATOM     77  O   UNL A   1      46.952  37.687  29.720  1.00  0.00    -0.744 OA
ENDBRANCH  73  74
ENDBRANCH  52  66
BRANCH  53  78
ATOM     78  C   UNL A   1      43.377  23.415  26.856  1.00  0.00     0.058 A 
ATOM     79  C   UNL A   1      43.172  22.877  25.577  1.00  0.00     0.135 A 
ATOM     80  C   UNL A   1      43.157  22.575  27.959  1.00  0.00     0.135 A 
ATOM     81  F   UNL A   1      43.365  23.640  24.490  1.00  0.00    -0.206 F 
ATOM     82  C   UNL A   1      42.751  21.564  25.394  1.00  0.00     0.059 A 
ATOM     83  C   UNL A   1      42.761  21.251  27.802  1.00  0.00     0.059 A 
ATOM     84  F   UNL A   1      43.357  23.035  29.204  1.00  0.00    -0.206 F 
ATOM     85  C   UNL A   1      42.553  20.756  26.516  1.00  0.00     0.060 A 
BRANCH  85  86
ATOM     86  S   UNL A   1      42.061  19.036  26.268  1.00  0.00     0.124 S 
ATOM     87  O   UNL A   1      42.186  18.498  27.617  1.00  0.00    -0.237 OA
ATOM     88  O   UNL A   1      40.700  19.178  25.759  1.00  0.00    -0.237 OA
ATOM     89  O   UNL A   1      43.036  18.546  25.298  1.00  0.00    -0.744 OA
ENDBRANCH  85  86
ENDBRANCH  53  78
BRANCH  65  90
ATOM     90  C   UNL A   1      49.601  26.525  26.380  1.00  0.00     0.058 A 
ATOM     91  C   UNL A   1      50.422  25.964  27.371  1.00  0.00     0.135 A 
ATOM     92  C   UNL A   1      50.096  26.561  25.064  1.00  0.00     0.135 A 
ATOM     93  F   UNL A   1      50.001  25.908  28.646  1.00  0.00    -0.206 F 
ATOM     94  C   UNL A   1      51.698  25.494  27.078  1.00  0.00     0.059 A 
ATOM     95  C   UNL A   1      51.355  26.065  24.743  1.00  0.00     0.059 A 
ATOM     96  F   UNL A   1      49.347  27.074  24.075  1.00  0.00    -0.206 F 
ATOM     97  C   UNL A   1      52.157  25.551  25.760  1.00  0.00     0.060 A 
BRANCH  97  98
ATOM     98  S   UNL A   1      53.811  24.931  25.390  1.00  0.00     0.124 S 
ATOM     99  O   UNL A   1      54.183  25.755  24.244  1.00  0.00    -0.237 OA
ATOM    100  O   UNL A   1      54.532  25.205  26.628  1.00  0.00    -0.237 OA
ATOM    101  O   UNL A   1      53.587  23.518  25.101  1.00  0.00    -0.744 OA
ENDBRANCH  97  98
ENDBRANCH  65  90
ENDBRANCH  39  40
ENDBRANCH  31  34
ENDBRANCH  29  30
ENDBRANCH  28  29
ENDBRANCH  27  28
ENDBRANCH   1  27
TORSDOF 23
ENDMDL
