MODEL 1
REMARK VINA RESULT:     -11.8      0.000      0.000
REMARK SMILES Cc1ccnc(C(=O)c2[nH]c3ccc(F)cc3c2CC(=O)NCCCCCCNC(=O)c2ccc(-c3c4nc(c(-c5c(F)cc(S(=O)(=O)[O-])cc5F)c5ccc([nH]5)c(-c5c(F)cc(S(=O)(=O)[O-])cc5F)c5nc(c(-c6c(F)cc(S(=O)(=O)[O-])cc6F)c6ccc3[nH]6)C=C5)C=C4)cc2)c1
REMARK SMILES IDX 25 1 24 2 23 3 22 4 20 5 21 6 19 8 18 9 9 10 10 11 11 12
REMARK SMILES IDX 17 14 12 15 16 16 13 17 14 18 15 19 7 20 8 21 6 22 1 23 2 24
REMARK SMILES IDX 3 25 98 26 4 27 5 28 26 29 27 30 28 31 29 32 30 33 31 35
REMARK SMILES IDX 32 36 33 37 97 38 34 39 96 40 35 41 36 42 37 43 90 44 38 45
REMARK SMILES IDX 95 46 89 47 91 48 39 49 94 50 88 51 87 52 40 54 74 55 53 56
REMARK SMILES IDX 73 57 54 58 57 59 72 60 92 61 55 62 56 63 71 65 93 66 58 67
REMARK SMILES IDX 41 68 42 69 51 70 43 71 44 72 50 73 52 74 45 75 46 76 47 77
REMARK SMILES IDX 48 78 49 79 75 80 76 81 85 82 77 83 78 84 84 85 86 86 79 87
REMARK SMILES IDX 80 88 81 89 82 90 83 91 59 92 60 93 69 94 61 95 62 96 68 97
REMARK SMILES IDX 70 98 63 99 64 100 65 101 66 102 67 103
REMARK H PARENT 22 7 10 13 29 34 91 53 57 64
REMARK Flexibility Score: inf
ROOT
ATOM      1  C   UNL A   1      32.028  26.708  24.651  1.00  0.00     0.002 C 
ENDROOT
BRANCH   1   2
ATOM      2  C   UNL A   1      31.165  26.433  25.887  1.00  0.00     0.021 C 
BRANCH   2   3
ATOM      3  C   UNL A   1      30.486  25.058  25.958  1.00  0.00     0.116 C 
BRANCH   3   4
ATOM      4  N   UNL A   1      31.111  24.123  26.873  1.00  0.00    -0.356 N 
ATOM      5  C   UNL A   1      32.234  23.362  26.749  1.00  0.00     0.224 C 
ATOM      6  O   UNL A   1      32.614  22.758  27.757  1.00  0.00    -0.275 OA
ATOM      7  H   UNL A   1      30.641  24.021  27.732  1.00  0.00     0.163 HD
BRANCH   5   8
ATOM      8  C   UNL A   1      33.041  23.290  25.467  1.00  0.00     0.138 C 
BRANCH   8   9
ATOM      9  C   UNL A   1      34.117  22.246  25.400  1.00  0.00    -0.002 A 
ATOM     10  C   UNL A   1      34.009  20.860  25.246  1.00  0.00     0.093 A 
ATOM     11  N   UNL A   1      35.287  20.350  25.384  1.00  0.00    -0.352 N 
ATOM     12  C   UNL A   1      36.222  21.343  25.512  1.00  0.00     0.046 A 
ATOM     13  H   UNL A   1      35.500  19.388  25.391  1.00  0.00     0.167 HD
ATOM     14  C   UNL A   1      35.521  22.539  25.602  1.00  0.00     0.007 A 
ATOM     15  C   UNL A   1      37.622  21.268  25.579  1.00  0.00     0.030 A 
ATOM     16  C   UNL A   1      36.256  23.724  25.827  1.00  0.00     0.049 A 
ATOM     17  C   UNL A   1      38.327  22.464  25.733  1.00  0.00     0.041 A 
ATOM     18  C   UNL A   1      37.649  23.665  25.864  1.00  0.00     0.123 A 
ATOM     19  F   UNL A   1      38.344  24.801  26.012  1.00  0.00    -0.207 F 
BRANCH  10  20
ATOM     20  C   UNL A   1      32.897  19.919  25.108  1.00  0.00     0.227 C 
ATOM     21  O   UNL A   1      31.752  20.312  25.335  1.00  0.00    -0.285 OA
BRANCH  20  22
ATOM     22  C   UNL A   1      33.099  18.450  24.835  1.00  0.00     0.113 A 
ATOM     23  C   UNL A   1      32.183  14.987  26.125  1.00  0.00     0.044 C 
ATOM     24  C   UNL A   1      32.724  16.107  25.286  1.00  0.00    -0.047 A 
ATOM     25  C   UNL A   1      33.486  15.810  24.161  1.00  0.00     0.023 A 
ATOM     26  C   UNL A   1      32.480  17.455  25.585  1.00  0.00     0.036 A 
ATOM     27  C   UNL A   1      34.013  16.855  23.425  1.00  0.00     0.112 A 
ATOM     28  N   UNL A   1      33.851  18.157  23.740  1.00  0.00    -0.253 NA
ENDBRANCH  20  22
ENDBRANCH  10  20
ENDBRANCH   8   9
ENDBRANCH   5   8
ENDBRANCH   3   4
ENDBRANCH   2   3
ENDBRANCH   1   2
BRANCH   1  29
ATOM     29  C   UNL A   1      33.535  26.707  24.890  1.00  0.00     0.002 C 
BRANCH  29  30
ATOM     30  C   UNL A   1      34.077  28.049  25.375  1.00  0.00     0.021 C 
BRANCH  30  31
ATOM     31  C   UNL A   1      34.110  28.186  26.891  1.00  0.00     0.116 C 
BRANCH  31  32
ATOM     32  N   UNL A   1      33.709  29.514  27.326  1.00  0.00    -0.352 N 
ATOM     33  C   UNL A   1      34.418  30.408  28.091  1.00  0.00     0.251 C 
ATOM     34  H   UNL A   1      32.816  29.811  27.037  1.00  0.00     0.163 HD
ATOM     35  O   UNL A   1      33.874  31.403  28.547  1.00  0.00    -0.269 OA
BRANCH  33  36
ATOM     36  C   UNL A   1      35.843  30.131  28.369  1.00  0.00     0.039 A 
ATOM     37  C   UNL A   1      36.204  29.607  29.612  1.00  0.00     0.014 A 
ATOM     38  C   UNL A   1      36.812  30.364  27.388  1.00  0.00     0.014 A 
ATOM     39  C   UNL A   1      37.538  29.282  29.857  1.00  0.00     0.010 A 
ATOM     40  C   UNL A   1      38.123  29.960  27.604  1.00  0.00     0.010 A 
ATOM     41  C   UNL A   1      38.505  29.434  28.847  1.00  0.00    -0.014 A 
BRANCH  41  42
ATOM     42  C   UNL A   1      39.927  29.086  29.088  1.00  0.00     0.031 A 
ATOM     43  C   UNL A   1      40.861  30.115  29.668  1.00  0.00     0.074 A 
ATOM     44  C   UNL A   1      40.389  27.868  28.742  1.00  0.00     0.049 A 
ATOM     45  N   UNL A   1      42.142  30.024  29.912  1.00  0.00    -0.248 NA
ATOM     46  C   UNL A   1      40.283  31.430  29.989  1.00  0.00     0.031 C 
ATOM     47  C   UNL A   1      39.592  26.805  28.125  1.00  0.00     0.029 A 
ATOM     48  N   UNL A   1      41.641  27.320  28.855  1.00  0.00    -0.354 N 
ATOM     49  C   UNL A   1      42.524  31.268  30.401  1.00  0.00     0.074 A 
ATOM     50  C   UNL A   1      41.354  32.118  30.356  1.00  0.00     0.031 C 
ATOM     51  C   UNL A   1      40.367  25.724  27.941  1.00  0.00     0.029 A 
ATOM     52  C   UNL A   1      41.722  26.028  28.390  1.00  0.00     0.049 A 
ATOM     53  H   UNL A   1      42.409  27.804  29.235  1.00  0.00     0.167 HD
ATOM     54  C   UNL A   1      43.731  31.661  30.872  1.00  0.00     0.037 A 
ATOM     55  C   UNL A   1      42.772  25.186  28.331  1.00  0.00     0.037 A 
ATOM     56  C   UNL A   1      44.884  30.802  30.934  1.00  0.00     0.049 A 
ATOM     57  C   UNL A   1      44.105  25.642  28.863  1.00  0.00     0.074 A 
ATOM     58  C   UNL A   1      46.141  31.083  31.440  1.00  0.00     0.029 A 
ATOM     59  N   UNL A   1      44.922  29.493  30.475  1.00  0.00    -0.354 N 
ATOM     60  N   UNL A   1      44.434  26.804  29.378  1.00  0.00    -0.248 NA
ATOM     61  C   UNL A   1      45.206  24.670  28.817  1.00  0.00     0.031 C 
ATOM     62  C   UNL A   1      46.953  29.962  31.239  1.00  0.00     0.029 A 
ATOM     63  C   UNL A   1      46.186  28.959  30.667  1.00  0.00     0.049 A 
ATOM     64  H   UNL A   1      44.163  29.014  30.071  1.00  0.00     0.167 HD
ATOM     65  C   UNL A   1      45.769  26.689  29.752  1.00  0.00     0.074 A 
ATOM     66  C   UNL A   1      46.182  25.344  29.411  1.00  0.00     0.031 C 
ATOM     67  C   UNL A   1      46.578  27.613  30.330  1.00  0.00     0.037 A 
BRANCH  54  68
ATOM     68  C   UNL A   1      43.863  33.080  31.356  1.00  0.00     0.058 A 
ATOM     69  C   UNL A   1      43.637  33.429  32.698  1.00  0.00     0.135 A 
ATOM     70  C   UNL A   1      44.241  34.104  30.472  1.00  0.00     0.135 A 
ATOM     71  F   UNL A   1      43.257  32.496  33.585  1.00  0.00    -0.206 F 
ATOM     72  C   UNL A   1      43.744  34.745  33.138  1.00  0.00     0.059 A 
ATOM     73  C   UNL A   1      44.387  35.422  30.897  1.00  0.00     0.059 A 
ATOM     74  F   UNL A   1      44.468  33.831  29.178  1.00  0.00    -0.206 F 
ATOM     75  C   UNL A   1      44.120  35.734  32.229  1.00  0.00     0.060 A 
BRANCH  75  76
ATOM     76  S   UNL A   1      44.253  37.436  32.816  1.00  0.00     0.124 S 
ATOM     77  O   UNL A   1      44.081  38.185  31.575  1.00  0.00    -0.237 OA
ATOM     78  O   UNL A   1      43.151  37.525  33.768  1.00  0.00    -0.237 OA
ATOM     79  O   UNL A   1      45.590  37.491  33.401  1.00  0.00    -0.744 OA
ENDBRANCH  75  76
ENDBRANCH  54  68
BRANCH  55  80
ATOM     80  C   UNL A   1      42.597  23.817  27.775  1.00  0.00     0.058 A 
ATOM     81  C   UNL A   1      42.476  22.703  28.620  1.00  0.00     0.135 A 
ATOM     82  C   UNL A   1      42.533  23.594  26.391  1.00  0.00     0.135 A 
ATOM     83  F   UNL A   1      42.537  22.862  29.952  1.00  0.00    -0.206 F 
ATOM     84  C   UNL A   1      42.317  21.417  28.116  1.00  0.00     0.059 A 
ATOM     85  C   UNL A   1      42.345  22.322  25.862  1.00  0.00     0.059 A 
ATOM     86  F   UNL A   1      42.624  24.627  25.539  1.00  0.00    -0.206 F 
ATOM     87  C   UNL A   1      42.249  21.237  26.733  1.00  0.00     0.060 A 
BRANCH  87  88
ATOM     88  S   UNL A   1      41.992  19.569  26.089  1.00  0.00     0.124 S 
ATOM     89  O   UNL A   1      40.563  19.580  25.805  1.00  0.00    -0.237 OA
ATOM     90  O   UNL A   1      42.876  19.550  24.928  1.00  0.00    -0.237 OA
ATOM     91  O   UNL A   1      42.410  18.715  27.199  1.00  0.00    -0.744 OA
ENDBRANCH  87  88
ENDBRANCH  55  80
BRANCH  67  92
ATOM     92  C   UNL A   1      47.978  27.184  30.680  1.00  0.00     0.058 A 
ATOM     93  C   UNL A   1      48.273  26.504  31.872  1.00  0.00     0.135 A 
ATOM     94  C   UNL A   1      49.035  27.427  29.787  1.00  0.00     0.135 A 
ATOM     95  F   UNL A   1      47.302  26.248  32.762  1.00  0.00    -0.206 F 
ATOM     96  C   UNL A   1      49.572  26.112  32.182  1.00  0.00     0.059 A 
ATOM     97  C   UNL A   1      50.334  27.015  30.061  1.00  0.00     0.059 A 
ATOM     98  F   UNL A   1      48.807  28.061  28.625  1.00  0.00    -0.206 F 
ATOM     99  C   UNL A   1      50.596  26.372  31.270  1.00  0.00     0.060 A 
BRANCH  99 100
ATOM    100  S   UNL A   1      52.274  25.846  31.678  1.00  0.00     0.124 S 
ATOM    101  O   UNL A   1      52.049  24.479  32.135  1.00  0.00    -0.237 OA
ATOM    102  O   UNL A   1      52.964  25.984  30.399  1.00  0.00    -0.237 OA
ATOM    103  O   UNL A   1      52.684  26.793  32.711  1.00  0.00    -0.744 OA
ENDBRANCH  99 100
ENDBRANCH  67  92
ENDBRANCH  41  42
ENDBRANCH  33  36
ENDBRANCH  31  32
ENDBRANCH  30  31
ENDBRANCH  29  30
ENDBRANCH   1  29
TORSDOF 19
ENDMDL
MODEL 2
REMARK VINA RESULT:     -11.6      2.570      3.145
REMARK SMILES Cc1ccnc(C(=O)c2[nH]c3ccc(F)cc3c2CC(=O)NCCCCCCNC(=O)c2ccc(-c3c4nc(c(-c5c(F)cc(S(=O)(=O)[O-])cc5F)c5ccc([nH]5)c(-c5c(F)cc(S(=O)(=O)[O-])cc5F)c5nc(c(-c6c(F)cc(S(=O)(=O)[O-])cc6F)c6ccc3[nH]6)C=C5)C=C4)cc2)c1
REMARK SMILES IDX 25 1 24 2 23 3 22 4 20 5 21 6 19 8 18 9 9 10 10 11 11 12
REMARK SMILES IDX 17 14 12 15 16 16 13 17 14 18 15 19 7 20 8 21 6 22 1 23 2 24
REMARK SMILES IDX 3 25 98 26 4 27 5 28 26 29 27 30 28 31 29 32 30 33 31 35
REMARK SMILES IDX 32 36 33 37 97 38 34 39 96 40 35 41 36 42 37 43 90 44 38 45
REMARK SMILES IDX 95 46 89 47 91 48 39 49 94 50 88 51 87 52 40 54 74 55 53 56
REMARK SMILES IDX 73 57 54 58 57 59 72 60 92 61 55 62 56 63 71 65 93 66 58 67
REMARK SMILES IDX 41 68 42 69 51 70 43 71 44 72 50 73 52 74 45 75 46 76 47 77
REMARK SMILES IDX 48 78 49 79 75 80 76 81 85 82 77 83 78 84 84 85 86 86 79 87
REMARK SMILES IDX 80 88 81 89 82 90 83 91 59 92 60 93 69 94 61 95 62 96 68 97
REMARK SMILES IDX 70 98 63 99 64 100 65 101 66 102 67 103
REMARK H PARENT 22 7 10 13 29 34 91 53 57 64
REMARK Flexibility Score: inf
ROOT
ATOM      1  C   UNL A   1      32.130  28.179  27.146  1.00  0.00     0.002 C 
ENDROOT
BRANCH   1   2
ATOM      2  C   UNL A   1      32.509  27.120  26.107  1.00  0.00     0.021 C 
BRANCH   2   3
ATOM      3  C   UNL A   1      31.517  25.967  25.909  1.00  0.00     0.116 C 
BRANCH   3   4
ATOM      4  N   UNL A   1      31.813  25.100  24.786  1.00  0.00    -0.356 N 
ATOM      5  C   UNL A   1      32.471  23.909  24.720  1.00  0.00     0.224 C 
ATOM      6  O   UNL A   1      32.448  23.316  23.637  1.00  0.00    -0.275 OA
ATOM      7  H   UNL A   1      31.480  25.431  23.919  1.00  0.00     0.163 HD
BRANCH   5   8
ATOM      8  C   UNL A   1      33.153  23.280  25.920  1.00  0.00     0.138 C 
BRANCH   8   9
ATOM      9  C   UNL A   1      34.208  22.251  25.640  1.00  0.00    -0.002 A 
ATOM     10  C   UNL A   1      34.071  20.900  25.303  1.00  0.00     0.093 A 
ATOM     11  N   UNL A   1      35.349  20.369  25.286  1.00  0.00    -0.352 N 
ATOM     12  C   UNL A   1      36.304  21.331  25.488  1.00  0.00     0.046 A 
ATOM     13  H   UNL A   1      35.548  19.415  25.146  1.00  0.00     0.167 HD
ATOM     14  C   UNL A   1      35.625  22.506  25.788  1.00  0.00     0.007 A 
ATOM     15  C   UNL A   1      37.703  21.241  25.452  1.00  0.00     0.030 A 
ATOM     16  C   UNL A   1      36.390  23.645  26.126  1.00  0.00     0.049 A 
ATOM     17  C   UNL A   1      38.433  22.401  25.724  1.00  0.00     0.041 A 
ATOM     18  C   UNL A   1      37.781  23.575  26.063  1.00  0.00     0.123 A 
ATOM     19  F   UNL A   1      38.499  24.678  26.320  1.00  0.00    -0.207 F 
BRANCH  10  20
ATOM     20  C   UNL A   1      32.941  19.992  25.110  1.00  0.00     0.227 C 
ATOM     21  O   UNL A   1      31.799  20.412  25.303  1.00  0.00    -0.285 OA
BRANCH  20  22
ATOM     22  C   UNL A   1      33.112  18.523  24.817  1.00  0.00     0.113 A 
ATOM     23  C   UNL A   1      32.228  15.061  26.132  1.00  0.00     0.044 C 
ATOM     24  C   UNL A   1      32.737  16.181  25.273  1.00  0.00    -0.047 A 
ATOM     25  C   UNL A   1      33.437  15.883  24.108  1.00  0.00     0.023 A 
ATOM     26  C   UNL A   1      32.522  17.529  25.593  1.00  0.00     0.036 A 
ATOM     27  C   UNL A   1      33.936  16.928  23.353  1.00  0.00     0.112 A 
ATOM     28  N   UNL A   1      33.804  18.230  23.684  1.00  0.00    -0.253 NA
ENDBRANCH  20  22
ENDBRANCH  10  20
ENDBRANCH   8   9
ENDBRANCH   5   8
ENDBRANCH   3   4
ENDBRANCH   2   3
ENDBRANCH   1   2
BRANCH   1  29
ATOM     29  C   UNL A   1      33.083  29.367  27.251  1.00  0.00     0.002 C 
BRANCH  29  30
ATOM     30  C   UNL A   1      34.540  28.964  27.458  1.00  0.00     0.021 C 
BRANCH  30  31
ATOM     31  C   UNL A   1      35.465  30.137  27.749  1.00  0.00     0.116 C 
BRANCH  31  32
ATOM     32  N   UNL A   1      35.368  30.577  29.132  1.00  0.00    -0.352 N 
ATOM     33  C   UNL A   1      36.332  30.526  30.111  1.00  0.00     0.251 C 
ATOM     34  H   UNL A   1      34.502  30.957  29.403  1.00  0.00     0.163 HD
ATOM     35  O   UNL A   1      36.043  30.744  31.278  1.00  0.00    -0.269 OA
BRANCH  33  36
ATOM     36  C   UNL A   1      37.717  30.183  29.725  1.00  0.00     0.039 A 
ATOM     37  C   UNL A   1      38.648  29.893  30.723  1.00  0.00     0.014 A 
ATOM     38  C   UNL A   1      38.079  30.123  28.375  1.00  0.00     0.014 A 
ATOM     39  C   UNL A   1      39.939  29.504  30.363  1.00  0.00     0.010 A 
ATOM     40  C   UNL A   1      39.338  29.654  28.020  1.00  0.00     0.010 A 
ATOM     41  C   UNL A   1      40.288  29.360  29.009  1.00  0.00    -0.014 A 
BRANCH  41  42
ATOM     42  C   UNL A   1      41.653  28.940  28.608  1.00  0.00     0.031 A 
ATOM     43  C   UNL A   1      42.764  29.956  28.563  1.00  0.00     0.074 A 
ATOM     44  C   UNL A   1      41.884  27.665  28.241  1.00  0.00     0.049 A 
ATOM     45  N   UNL A   1      44.011  29.802  28.198  1.00  0.00    -0.248 NA
ATOM     46  C   UNL A   1      42.420  31.334  28.949  1.00  0.00     0.031 C 
ATOM     47  C   UNL A   1      40.877  26.602  28.195  1.00  0.00     0.029 A 
ATOM     48  N   UNL A   1      43.037  27.045  27.831  1.00  0.00    -0.354 N 
ATOM     49  C   UNL A   1      44.593  31.060  28.300  1.00  0.00     0.074 A 
ATOM     50  C   UNL A   1      43.549  31.979  28.695  1.00  0.00     0.031 C 
ATOM     51  C   UNL A   1      41.462  25.457  27.809  1.00  0.00     0.029 A 
ATOM     52  C   UNL A   1      42.875  25.710  27.542  1.00  0.00     0.049 A 
ATOM     53  H   UNL A   1      43.900  27.511  27.751  1.00  0.00     0.167 HD
ATOM     54  C   UNL A   1      45.886  31.414  28.111  1.00  0.00     0.037 A 
ATOM     55  C   UNL A   1      43.765  24.796  27.110  1.00  0.00     0.037 A 
ATOM     56  C   UNL A   1      46.924  30.488  27.740  1.00  0.00     0.049 A 
ATOM     57  C   UNL A   1      45.198  25.211  26.908  1.00  0.00     0.074 A 
ATOM     58  C   UNL A   1      48.275  30.731  27.571  1.00  0.00     0.029 A 
ATOM     59  N   UNL A   1      46.725  29.139  27.478  1.00  0.00    -0.354 N 
ATOM     60  N   UNL A   1      45.745  26.393  27.068  1.00  0.00    -0.248 NA
ATOM     61  C   UNL A   1      46.138  24.165  26.480  1.00  0.00     0.031 C 
ATOM     62  C   UNL A   1      48.885  29.542  27.158  1.00  0.00     0.029 A 
ATOM     63  C   UNL A   1      47.926  28.542  27.131  1.00  0.00     0.049 A 
ATOM     64  H   UNL A   1      45.859  28.675  27.532  1.00  0.00     0.167 HD
ATOM     65  C   UNL A   1      47.099  26.225  26.796  1.00  0.00     0.074 A 
ATOM     66  C   UNL A   1      47.287  24.826  26.471  1.00  0.00     0.031 C 
ATOM     67  C   UNL A   1      48.097  27.144  26.818  1.00  0.00     0.037 A 
BRANCH  54  68
ATOM     68  C   UNL A   1      46.248  32.863  28.302  1.00  0.00     0.058 A 
ATOM     69  C   UNL A   1      46.681  33.361  29.542  1.00  0.00     0.135 A 
ATOM     70  C   UNL A   1      46.182  33.764  27.226  1.00  0.00     0.135 A 
ATOM     71  F   UNL A   1      46.747  32.550  30.611  1.00  0.00    -0.206 F 
ATOM     72  C   UNL A   1      46.999  34.704  29.719  1.00  0.00     0.059 A 
ATOM     73  C   UNL A   1      46.527  35.104  27.371  1.00  0.00     0.059 A 
ATOM     74  F   UNL A   1      45.774  33.345  26.017  1.00  0.00    -0.206 F 
ATOM     75  C   UNL A   1      46.919  35.568  28.626  1.00  0.00     0.060 A 
BRANCH  75  76
ATOM     76  S   UNL A   1      47.333  37.307  28.872  1.00  0.00     0.124 S 
ATOM     77  O   UNL A   1      46.217  37.969  28.204  1.00  0.00    -0.237 OA
ATOM     78  O   UNL A   1      47.358  37.419  30.328  1.00  0.00    -0.237 OA
ATOM     79  O   UNL A   1      48.629  37.445  28.214  1.00  0.00    -0.744 OA
ENDBRANCH  75  76
ENDBRANCH  54  68
BRANCH  55  80
ATOM     80  C   UNL A   1      43.332  23.392  26.870  1.00  0.00     0.058 A 
ATOM     81  C   UNL A   1      43.041  22.532  27.939  1.00  0.00     0.135 A 
ATOM     82  C   UNL A   1      43.187  22.887  25.569  1.00  0.00     0.135 A 
ATOM     83  F   UNL A   1      43.170  22.966  29.203  1.00  0.00    -0.206 F 
ATOM     84  C   UNL A   1      42.641  21.216  27.730  1.00  0.00     0.059 A 
ATOM     85  C   UNL A   1      42.760  21.584  25.333  1.00  0.00     0.059 A 
ATOM     86  F   UNL A   1      43.434  23.674  24.510  1.00  0.00    -0.206 F 
ATOM     87  C   UNL A   1      42.500  20.752  26.421  1.00  0.00     0.060 A 
BRANCH  87  88
ATOM     88  S   UNL A   1      41.932  19.058  26.161  1.00  0.00     0.124 S 
ATOM     89  O   UNL A   1      42.719  18.657  25.002  1.00  0.00    -0.237 OA
ATOM     90  O   UNL A   1      42.284  18.421  27.426  1.00  0.00    -0.237 OA
ATOM     91  O   UNL A   1      40.499  19.218  25.926  1.00  0.00    -0.744 OA
ENDBRANCH  87  88
ENDBRANCH  55  80
BRANCH  67  92
ATOM     92  C   UNL A   1      49.493  26.658  26.535  1.00  0.00     0.058 A 
ATOM     93  C   UNL A   1      50.319  26.134  27.541  1.00  0.00     0.135 A 
ATOM     94  C   UNL A   1      49.996  26.682  25.223  1.00  0.00     0.135 A 
ATOM     95  F   UNL A   1      49.890  26.089  28.812  1.00  0.00    -0.206 F 
ATOM     96  C   UNL A   1      51.607  25.686  27.264  1.00  0.00     0.059 A 
ATOM     97  C   UNL A   1      51.268  26.209  24.917  1.00  0.00     0.059 A 
ATOM     98  F   UNL A   1      49.243  27.160  24.218  1.00  0.00    -0.206 F 
ATOM     99  C   UNL A   1      52.072  25.728  25.948  1.00  0.00     0.060 A 
BRANCH  99 100
ATOM    100  S   UNL A   1      53.740  25.131  25.600  1.00  0.00     0.124 S 
ATOM    101  O   UNL A   1      54.439  25.478  26.833  1.00  0.00    -0.237 OA
ATOM    102  O   UNL A   1      53.520  23.706  25.373  1.00  0.00    -0.237 OA
ATOM    103  O   UNL A   1      54.134  25.894  24.419  1.00  0.00    -0.744 OA
ENDBRANCH  99 100
ENDBRANCH  67  92
ENDBRANCH  41  42
ENDBRANCH  33  36
ENDBRANCH  31  32
ENDBRANCH  30  31
ENDBRANCH  29  30
ENDBRANCH   1  29
TORSDOF 19
ENDMDL
MODEL 3
REMARK VINA RESULT:     -11.6      2.551      3.062
REMARK SMILES Cc1ccnc(C(=O)c2[nH]c3ccc(F)cc3c2CC(=O)NCCCCCCNC(=O)c2ccc(-c3c4nc(c(-c5c(F)cc(S(=O)(=O)[O-])cc5F)c5ccc([nH]5)c(-c5c(F)cc(S(=O)(=O)[O-])cc5F)c5nc(c(-c6c(F)cc(S(=O)(=O)[O-])cc6F)c6ccc3[nH]6)C=C5)C=C4)cc2)c1
REMARK SMILES IDX 25 1 24 2 23 3 22 4 20 5 21 6 19 8 18 9 9 10 10 11 11 12
REMARK SMILES IDX 17 14 12 15 16 16 13 17 14 18 15 19 7 20 8 21 6 22 1 23 2 24
REMARK SMILES IDX 3 25 98 26 4 27 5 28 26 29 27 30 28 31 29 32 30 33 31 35
REMARK SMILES IDX 32 36 33 37 97 38 34 39 96 40 35 41 36 42 37 43 90 44 38 45
REMARK SMILES IDX 95 46 89 47 91 48 39 49 94 50 88 51 87 52 40 54 74 55 53 56
REMARK SMILES IDX 73 57 54 58 57 59 72 60 92 61 55 62 56 63 71 65 93 66 58 67
REMARK SMILES IDX 41 68 42 69 51 70 43 71 44 72 50 73 52 74 45 75 46 76 47 77
REMARK SMILES IDX 48 78 49 79 75 80 76 81 85 82 77 83 78 84 84 85 86 86 79 87
REMARK SMILES IDX 80 88 81 89 82 90 83 91 59 92 60 93 69 94 61 95 62 96 68 97
REMARK SMILES IDX 70 98 63 99 64 100 65 101 66 102 67 103
REMARK H PARENT 22 7 10 13 29 34 91 53 57 64
REMARK Flexibility Score: inf
ROOT
ATOM      1  C   UNL A   1      30.784  26.925  24.996  1.00  0.00     0.002 C 
ENDROOT
BRANCH   1   2
ATOM      2  C   UNL A   1      30.206  25.962  26.039  1.00  0.00     0.021 C 
BRANCH   2   3
ATOM      3  C   UNL A   1      30.316  24.464  25.724  1.00  0.00     0.116 C 
BRANCH   3   4
ATOM      4  N   UNL A   1      30.969  23.678  26.752  1.00  0.00    -0.356 N 
ATOM      5  C   UNL A   1      32.262  23.269  26.883  1.00  0.00     0.224 C 
ATOM      6  O   UNL A   1      32.572  22.725  27.948  1.00  0.00    -0.275 OA
ATOM      7  H   UNL A   1      30.374  23.388  27.481  1.00  0.00     0.163 HD
BRANCH   5   8
ATOM      8  C   UNL A   1      33.314  23.516  25.819  1.00  0.00     0.138 C 
BRANCH   8   9
ATOM      9  C   UNL A   1      34.326  22.429  25.600  1.00  0.00    -0.002 A 
ATOM     10  C   UNL A   1      34.135  21.076  25.302  1.00  0.00     0.093 A 
ATOM     11  N   UNL A   1      35.386  20.487  25.338  1.00  0.00    -0.352 N 
ATOM     12  C   UNL A   1      36.379  21.409  25.537  1.00  0.00     0.046 A 
ATOM     13  H   UNL A   1      35.544  19.520  25.234  1.00  0.00     0.167 HD
ATOM     14  C   UNL A   1      35.750  22.624  25.781  1.00  0.00     0.007 A 
ATOM     15  C   UNL A   1      37.773  21.253  25.544  1.00  0.00     0.030 A 
ATOM     16  C   UNL A   1      36.558  23.736  26.105  1.00  0.00     0.049 A 
ATOM     17  C   UNL A   1      38.550  22.386  25.800  1.00  0.00     0.041 A 
ATOM     18  C   UNL A   1      37.946  23.600  26.083  1.00  0.00     0.123 A 
ATOM     19  F   UNL A   1      38.708  24.675  26.327  1.00  0.00    -0.207 F 
BRANCH  10  20
ATOM     20  C   UNL A   1      32.968  20.216  25.105  1.00  0.00     0.227 C 
ATOM     21  O   UNL A   1      31.847  20.668  25.346  1.00  0.00    -0.285 OA
BRANCH  20  22
ATOM     22  C   UNL A   1      33.080  18.754  24.753  1.00  0.00     0.113 A 
ATOM     23  C   UNL A   1      32.360  15.264  26.092  1.00  0.00     0.044 C 
ATOM     24  C   UNL A   1      32.750  16.403  25.198  1.00  0.00    -0.047 A 
ATOM     25  C   UNL A   1      33.270  16.133  23.935  1.00  0.00     0.023 A 
ATOM     26  C   UNL A   1      32.599  17.744  25.580  1.00  0.00     0.036 A 
ATOM     27  C   UNL A   1      33.665  17.195  23.143  1.00  0.00     0.112 A 
ATOM     28  N   UNL A   1      33.596  18.488  23.523  1.00  0.00    -0.253 NA
ENDBRANCH  20  22
ENDBRANCH  10  20
ENDBRANCH   8   9
ENDBRANCH   5   8
ENDBRANCH   3   4
ENDBRANCH   2   3
ENDBRANCH   1   2
BRANCH   1  29
ATOM     29  C   UNL A   1      31.805  27.928  25.525  1.00  0.00     0.002 C 
BRANCH  29  30
ATOM     30  C   UNL A   1      33.252  27.532  25.247  1.00  0.00     0.021 C 
BRANCH  30  31
ATOM     31  C   UNL A   1      34.258  28.182  26.187  1.00  0.00     0.116 C 
BRANCH  31  32
ATOM     32  N   UNL A   1      33.950  29.582  26.430  1.00  0.00    -0.352 N 
ATOM     33  C   UNL A   1      34.565  30.449  27.301  1.00  0.00     0.251 C 
ATOM     34  H   UNL A   1      33.205  29.956  25.907  1.00  0.00     0.163 HD
ATOM     35  O   UNL A   1      34.068  31.538  27.546  1.00  0.00    -0.269 OA
BRANCH  33  36
ATOM     36  C   UNL A   1      35.825  30.029  27.949  1.00  0.00     0.039 A 
ATOM     37  C   UNL A   1      37.034  30.236  27.283  1.00  0.00     0.014 A 
ATOM     38  C   UNL A   1      35.806  29.456  29.225  1.00  0.00     0.014 A 
ATOM     39  C   UNL A   1      38.231  29.901  27.916  1.00  0.00     0.010 A 
ATOM     40  C   UNL A   1      37.002  29.204  29.886  1.00  0.00     0.010 A 
ATOM     41  C   UNL A   1      38.227  29.404  29.231  1.00  0.00    -0.014 A 
BRANCH  41  42
ATOM     42  C   UNL A   1      39.490  29.050  29.923  1.00  0.00     0.031 A 
ATOM     43  C   UNL A   1      39.908  29.813  31.153  1.00  0.00     0.074 A 
ATOM     44  C   UNL A   1      40.282  28.081  29.424  1.00  0.00     0.049 A 
ATOM     45  N   UNL A   1      40.991  29.689  31.874  1.00  0.00    -0.248 NA
ATOM     46  C   UNL A   1      39.001  30.877  31.615  1.00  0.00     0.031 C 
ATOM     47  C   UNL A   1      40.009  27.307  28.210  1.00  0.00     0.029 A 
ATOM     48  N   UNL A   1      41.480  27.585  29.870  1.00  0.00    -0.354 N 
ATOM     49  C   UNL A   1      40.902  30.663  32.862  1.00  0.00     0.074 A 
ATOM     50  C   UNL A   1      39.692  31.413  32.609  1.00  0.00     0.031 C 
ATOM     51  C   UNL A   1      40.995  26.415  28.026  1.00  0.00     0.029 A 
ATOM     52  C   UNL A   1      41.989  26.579  29.083  1.00  0.00     0.049 A 
ATOM     53  H   UNL A   1      41.934  27.917  30.678  1.00  0.00     0.167 HD
ATOM     54  C   UNL A   1      41.736  30.893  33.904  1.00  0.00     0.037 A 
ATOM     55  C   UNL A   1      43.129  25.870  29.200  1.00  0.00     0.037 A 
ATOM     56  C   UNL A   1      42.927  30.126  34.161  1.00  0.00     0.049 A 
ATOM     57  C   UNL A   1      44.041  26.141  30.367  1.00  0.00     0.074 A 
ATOM     58  C   UNL A   1      43.815  30.243  35.216  1.00  0.00     0.029 A 
ATOM     59  N   UNL A   1      43.397  29.100  33.354  1.00  0.00    -0.354 N 
ATOM     60  N   UNL A   1      43.909  27.026  31.328  1.00  0.00    -0.248 NA
ATOM     61  C   UNL A   1      45.247  25.310  30.474  1.00  0.00     0.031 C 
ATOM     62  C   UNL A   1      44.849  29.322  35.020  1.00  0.00     0.029 A 
ATOM     63  C   UNL A   1      44.573  28.587  33.877  1.00  0.00     0.049 A 
ATOM     64  H   UNL A   1      42.959  28.782  32.532  1.00  0.00     0.167 HD
ATOM     65  C   UNL A   1      44.997  26.832  32.173  1.00  0.00     0.074 A 
ATOM     66  C   UNL A   1      45.769  25.742  31.614  1.00  0.00     0.031 C 
ATOM     67  C   UNL A   1      45.325  27.494  33.312  1.00  0.00     0.037 A 
BRANCH  54  68
ATOM     68  C   UNL A   1      41.387  32.019  34.840  1.00  0.00     0.058 A 
ATOM     69  C   UNL A   1      40.535  31.831  35.941  1.00  0.00     0.135 A 
ATOM     70  C   UNL A   1      41.929  33.301  34.649  1.00  0.00     0.135 A 
ATOM     71  F   UNL A   1      39.974  30.631  36.164  1.00  0.00    -0.206 F 
ATOM     72  C   UNL A   1      40.203  32.877  36.795  1.00  0.00     0.059 A 
ATOM     73  C   UNL A   1      41.637  34.355  35.509  1.00  0.00     0.059 A 
ATOM     74  F   UNL A   1      42.749  33.541  33.613  1.00  0.00    -0.206 F 
ATOM     75  C   UNL A   1      40.759  34.137  36.570  1.00  0.00     0.060 A 
BRANCH  75  76
ATOM     76  S   UNL A   1      40.317  35.485  37.686  1.00  0.00     0.124 S 
ATOM     77  O   UNL A   1      41.506  35.566  38.529  1.00  0.00    -0.237 OA
ATOM     78  O   UNL A   1      40.115  36.599  36.765  1.00  0.00    -0.237 OA
ATOM     79  O   UNL A   1      39.111  34.997  38.349  1.00  0.00    -0.744 OA
ENDBRANCH  75  76
ENDBRANCH  54  68
BRANCH  55  80
ATOM     80  C   UNL A   1      43.455  24.816  28.201  1.00  0.00     0.058 A 
ATOM     81  C   UNL A   1      43.025  23.493  28.380  1.00  0.00     0.135 A 
ATOM     82  C   UNL A   1      44.191  25.111  27.043  1.00  0.00     0.135 A 
ATOM     83  F   UNL A   1      42.323  23.157  29.474  1.00  0.00    -0.206 F 
ATOM     84  C   UNL A   1      43.327  22.495  27.458  1.00  0.00     0.059 A 
ATOM     85  C   UNL A   1      44.481  24.139  26.092  1.00  0.00     0.059 A 
ATOM     86  F   UNL A   1      44.610  26.365  26.815  1.00  0.00    -0.206 F 
ATOM     87  C   UNL A   1      44.054  22.830  26.314  1.00  0.00     0.060 A 
BRANCH  87  88
ATOM     88  S   UNL A   1      44.397  21.538  25.099  1.00  0.00     0.124 S 
ATOM     89  O   UNL A   1      43.299  20.611  25.337  1.00  0.00    -0.237 OA
ATOM     90  O   UNL A   1      44.347  22.280  23.843  1.00  0.00    -0.237 OA
ATOM     91  O   UNL A   1      45.723  21.061  25.484  1.00  0.00    -0.744 OA
ENDBRANCH  87  88
ENDBRANCH  55  80
BRANCH  67  92
ATOM     92  C   UNL A   1      46.543  27.022  34.060  1.00  0.00     0.058 A 
ATOM     93  C   UNL A   1      46.474  26.021  35.041  1.00  0.00     0.135 A 
ATOM     94  C   UNL A   1      47.807  27.559  33.761  1.00  0.00     0.135 A 
ATOM     95  F   UNL A   1      45.292  25.476  35.368  1.00  0.00    -0.206 F 
ATOM     96  C   UNL A   1      47.609  25.594  35.724  1.00  0.00     0.059 A 
ATOM     97  C   UNL A   1      48.959  27.124  34.407  1.00  0.00     0.059 A 
ATOM     98  F   UNL A   1      47.933  28.510  32.821  1.00  0.00    -0.206 F 
ATOM     99  C   UNL A   1      48.847  26.152  35.400  1.00  0.00     0.060 A 
BRANCH  99 100
ATOM    100  S   UNL A   1      50.313  25.579  36.283  1.00  0.00     0.124 S 
ATOM    101  O   UNL A   1      50.365  24.176  35.887  1.00  0.00    -0.237 OA
ATOM    102  O   UNL A   1      51.362  26.434  35.734  1.00  0.00    -0.237 OA
ATOM    103  O   UNL A   1      49.982  25.823  37.684  1.00  0.00    -0.744 OA
ENDBRANCH  99 100
ENDBRANCH  67  92
ENDBRANCH  41  42
ENDBRANCH  33  36
ENDBRANCH  31  32
ENDBRANCH  30  31
ENDBRANCH  29  30
ENDBRANCH   1  29
TORSDOF 19
ENDMDL
