MODEL 1
REMARK VINA RESULT:     -12.5      0.000      0.000
REMARK SMILES O=C(NCCCCCCNC(=O)[C@H](c1ccc(O)cc1)[NH+]1CC[NH+](Cc2cccc(Cl)c2)CC1)c1ccc(-c2c3nc(c(-c4c(F)cc(S(=O)(=O)[O-])cc4F)c4ccc([nH]4)c(-c4c(F)cc(S(=O)(=O)[O-])cc4F)c4nc(c(-c5c(F)cc(S(=O)(=O)[O-])cc5F)c5ccc2[nH]5)C=C4)C=C3)cc1
REMARK SMILES IDX 6 1 5 2 4 3 3 4 1 5 2 6 35 8 36 9 100 10 37 11 99 12 38 13
REMARK SMILES IDX 39 14 40 15 93 16 41 17 98 18 92 19 94 20 42 21 97 22 91 23
REMARK SMILES IDX 90 24 43 26 77 27 56 28 76 29 57 30 60 31 75 32 95 33 58 34
REMARK SMILES IDX 59 35 74 37 96 38 61 39 44 40 45 41 54 42 46 43 47 44 53 45
REMARK SMILES IDX 55 46 48 47 49 48 50 49 51 50 52 51 78 52 79 53 88 54 80 55
REMARK SMILES IDX 81 56 87 57 89 58 82 59 83 60 84 61 85 62 86 63 62 64 63 65
REMARK SMILES IDX 72 66 64 67 65 68 71 69 73 70 66 71 67 72 68 73 69 74 70 75
REMARK SMILES IDX 7 76 8 77 9 78 10 79 11 80 12 82 13 83 21 84 22 85 34 86
REMARK SMILES IDX 23 88 33 89 24 90 25 92 26 93 27 94 32 95 28 96 30 97 29 98
REMARK SMILES IDX 31 99 14 100 15 101 20 102 16 103 19 104 17 105 18 106
REMARK H PARENT 3 7 94 25 60 36 10 81 21 87 24 91 18 107
REMARK Flexibility Score: inf
ROOT
ATOM      1  C   UNL A   1      39.060  22.439  26.142  1.00  0.00     0.002 C 
ENDROOT
BRANCH   1   2
ATOM      2  C   UNL A   1      39.814  22.818  27.418  1.00  0.00     0.021 C 
BRANCH   2   3
ATOM      3  C   UNL A   1      41.296  23.117  27.220  1.00  0.00     0.116 C 
BRANCH   3   4
ATOM      4  N   UNL A   1      41.501  24.033  26.110  1.00  0.00    -0.352 N 
ATOM      5  O   UNL A   1      41.234  25.980  25.011  1.00  0.00    -0.269 OA
ATOM      6  C   UNL A   1      41.328  25.394  26.083  1.00  0.00     0.251 C 
ATOM      7  H   UNL A   1      41.803  23.623  25.267  1.00  0.00     0.163 HD
BRANCH   6   8
ATOM      8  C   UNL A   1      41.271  26.146  27.355  1.00  0.00     0.039 A 
ATOM      9  C   UNL A   1      42.377  26.886  27.782  1.00  0.00     0.014 A 
ATOM     10  C   UNL A   1      40.081  26.169  28.088  1.00  0.00     0.014 A 
ATOM     11  C   UNL A   1      42.320  27.595  28.977  1.00  0.00     0.010 A 
ATOM     12  C   UNL A   1      40.002  26.938  29.252  1.00  0.00     0.010 A 
ATOM     13  C   UNL A   1      41.117  27.662  29.699  1.00  0.00    -0.014 A 
BRANCH  13  14
ATOM     14  C   UNL A   1      41.001  28.620  30.824  1.00  0.00     0.031 A 
ATOM     15  C   UNL A   1      41.848  28.489  32.056  1.00  0.00     0.074 A 
ATOM     16  C   UNL A   1      40.083  29.603  30.720  1.00  0.00     0.049 A 
ATOM     17  N   UNL A   1      41.828  29.217  33.141  1.00  0.00    -0.248 NA
ATOM     18  C   UNL A   1      42.839  27.401  32.080  1.00  0.00     0.031 C 
ATOM     19  C   UNL A   1      39.189  29.798  29.573  1.00  0.00     0.029 A 
ATOM     20  N   UNL A   1      39.739  30.613  31.578  1.00  0.00    -0.354 N 
ATOM     21  C   UNL A   1      42.781  28.667  33.989  1.00  0.00     0.074 A 
ATOM     22  C   UNL A   1      43.360  27.536  33.294  1.00  0.00     0.031 C 
ATOM     23  C   UNL A   1      38.410  30.866  29.794  1.00  0.00     0.029 A 
ATOM     24  C   UNL A   1      38.702  31.393  31.121  1.00  0.00     0.049 A 
ATOM     25  H   UNL A   1      40.189  30.766  32.441  1.00  0.00     0.167 HD
ATOM     26  C   UNL A   1      43.132  29.075  35.232  1.00  0.00     0.037 A 
ATOM     27  C   UNL A   1      38.028  32.394  31.718  1.00  0.00     0.037 A 
ATOM     28  C   UNL A   1      42.559  30.221  35.894  1.00  0.00     0.049 A 
ATOM     29  C   UNL A   1      38.427  32.804  33.106  1.00  0.00     0.074 A 
ATOM     30  C   UNL A   1      42.913  30.772  37.114  1.00  0.00     0.029 A 
ATOM     31  N   UNL A   1      41.505  30.978  35.406  1.00  0.00    -0.354 N 
ATOM     32  N   UNL A   1      39.390  32.327  33.857  1.00  0.00    -0.248 NA
ATOM     33  C   UNL A   1      37.645  33.877  33.733  1.00  0.00     0.031 C 
ATOM     34  C   UNL A   1      42.035  31.824  37.390  1.00  0.00     0.029 A 
ATOM     35  C   UNL A   1      41.165  31.961  36.321  1.00  0.00     0.049 A 
ATOM     36  H   UNL A   1      41.062  30.837  34.537  1.00  0.00     0.167 HD
ATOM     37  C   UNL A   1      39.331  33.042  35.046  1.00  0.00     0.074 A 
ATOM     38  C   UNL A   1      38.259  34.006  34.901  1.00  0.00     0.031 C 
ATOM     39  C   UNL A   1      40.090  32.908  36.160  1.00  0.00     0.037 A 
BRANCH  26  40
ATOM     40  C   UNL A   1      44.169  28.288  35.982  1.00  0.00     0.058 A 
ATOM     41  C   UNL A   1      45.534  28.609  35.915  1.00  0.00     0.135 A 
ATOM     42  C   UNL A   1      43.779  27.274  36.873  1.00  0.00     0.135 A 
ATOM     43  F   UNL A   1      45.964  29.561  35.073  1.00  0.00    -0.206 F 
ATOM     44  C   UNL A   1      46.474  27.953  36.706  1.00  0.00     0.059 A 
ATOM     45  C   UNL A   1      44.698  26.620  37.687  1.00  0.00     0.059 A 
ATOM     46  F   UNL A   1      42.485  26.927  36.974  1.00  0.00    -0.206 F 
ATOM     47  C   UNL A   1      46.044  26.966  37.597  1.00  0.00     0.060 A 
BRANCH  47  48
ATOM     48  S   UNL A   1      47.269  26.168  38.656  1.00  0.00     0.124 S 
ATOM     49  O   UNL A   1      47.356  27.114  39.765  1.00  0.00    -0.237 OA
ATOM     50  O   UNL A   1      46.632  24.891  38.964  1.00  0.00    -0.237 OA
ATOM     51  O   UNL A   1      48.454  26.085  37.808  1.00  0.00    -0.744 OA
ENDBRANCH  47  48
ENDBRANCH  26  40
BRANCH  27  52
ATOM     52  C   UNL A   1      36.876  33.032  31.028  1.00  0.00     0.058 A 
ATOM     53  C   UNL A   1      35.557  32.778  31.424  1.00  0.00     0.135 A 
ATOM     54  C   UNL A   1      37.078  33.911  29.949  1.00  0.00     0.135 A 
ATOM     55  F   UNL A   1      35.312  31.945  32.447  1.00  0.00    -0.206 F 
ATOM     56  C   UNL A   1      34.475  33.347  30.760  1.00  0.00     0.059 A 
ATOM     57  C   UNL A   1      36.015  34.516  29.290  1.00  0.00     0.059 A 
ATOM     58  F   UNL A   1      38.323  34.204  29.543  1.00  0.00    -0.206 F 
ATOM     59  C   UNL A   1      34.715  34.213  29.690  1.00  0.00     0.060 A 
BRANCH  59  60
ATOM     60  S   UNL A   1      33.308  34.958  28.841  1.00  0.00     0.124 S 
ATOM     61  O   UNL A   1      32.356  35.115  29.935  1.00  0.00    -0.237 OA
ATOM     62  O   UNL A   1      33.882  36.191  28.313  1.00  0.00    -0.237 OA
ATOM     63  O   UNL A   1      32.957  33.959  27.835  1.00  0.00    -0.744 OA
ENDBRANCH  59  60
ENDBRANCH  27  52
BRANCH  39  64
ATOM     64  C   UNL A   1      39.785  33.822  37.311  1.00  0.00     0.058 A 
ATOM     65  C   UNL A   1      38.936  33.422  38.354  1.00  0.00     0.135 A 
ATOM     66  C   UNL A   1      40.390  35.086  37.400  1.00  0.00     0.135 A 
ATOM     67  F   UNL A   1      38.323  32.229  38.307  1.00  0.00    -0.206 F 
ATOM     68  C   UNL A   1      38.688  34.250  39.444  1.00  0.00     0.059 A 
ATOM     69  C   UNL A   1      40.178  35.918  38.494  1.00  0.00     0.059 A 
ATOM     70  F   UNL A   1      41.214  35.511  36.431  1.00  0.00    -0.206 F 
ATOM     71  C   UNL A   1      39.319  35.493  39.508  1.00  0.00     0.060 A 
BRANCH  71  72
ATOM     72  S   UNL A   1      39.029  36.534  40.954  1.00  0.00     0.124 S 
ATOM     73  O   UNL A   1      38.624  37.792  40.335  1.00  0.00    -0.237 OA
ATOM     74  O   UNL A   1      37.978  35.806  41.657  1.00  0.00    -0.237 OA
ATOM     75  O   UNL A   1      40.326  36.553  41.624  1.00  0.00    -0.744 OA
ENDBRANCH  71  72
ENDBRANCH  39  64
ENDBRANCH  13  14
ENDBRANCH   6   8
ENDBRANCH   3   4
ENDBRANCH   2   3
ENDBRANCH   1   2
BRANCH   1  76
ATOM     76  C   UNL A   1      37.757  23.208  25.910  1.00  0.00     0.002 C 
BRANCH  76  77
ATOM     77  C   UNL A   1      36.986  22.809  24.648  1.00  0.00     0.021 C 
BRANCH  77  78
ATOM     78  C   UNL A   1      36.209  21.487  24.757  1.00  0.00     0.116 C 
BRANCH  78  79
ATOM     79  N   UNL A   1      35.573  21.389  26.058  1.00  0.00    -0.351 N 
ATOM     80  C   UNL A   1      34.335  21.703  26.528  1.00  0.00     0.283 C 
ATOM     81  H   UNL A   1      36.165  21.017  26.751  1.00  0.00     0.163 HD
ATOM     82  O   UNL A   1      34.255  21.698  27.769  1.00  0.00    -0.268 OA
BRANCH  80  83
ATOM     83  C   UNL A   1      33.026  21.965  25.692  1.00  0.00     0.305 C 
BRANCH  83  84
ATOM     84  N   UNL A   1      32.975  23.216  24.894  1.00  0.00    -0.312 N 
ATOM     85  C   UNL A   1      31.690  23.521  24.234  1.00  0.00     0.325 C 
ATOM     86  C   UNL A   1      33.573  24.387  25.556  1.00  0.00     0.325 C 
ATOM     87  H   UNL A   1      33.594  22.987  24.116  1.00  0.00     0.349 HD
ATOM     88  C   UNL A   1      30.872  24.750  24.697  1.00  0.00     0.324 C 
ATOM     89  C   UNL A   1      32.689  25.566  25.996  1.00  0.00     0.324 C 
ATOM     90  N   UNL A   1      31.633  25.936  25.065  1.00  0.00    -0.322 N 
ATOM     91  H   UNL A   1      30.994  26.558  25.561  1.00  0.00     0.348 HD
BRANCH  90  92
ATOM     92  C   UNL A   1      31.997  26.859  23.982  1.00  0.00     0.299 C 
BRANCH  92  93
ATOM     93  C   UNL A   1      30.950  27.794  23.412  1.00  0.00     0.008 A 
ATOM     94  C   UNL A   1      31.314  28.838  22.546  1.00  0.00     0.009 A 
ATOM     95  C   UNL A   1      29.586  27.599  23.675  1.00  0.00     0.030 A 
ATOM     96  C   UNL A   1      30.363  29.727  22.042  1.00  0.00     0.002 A 
ATOM     97  C   UNL A   1      28.632  28.458  23.123  1.00  0.00     0.041 A 
ATOM     98  C   UNL A   1      29.016  29.539  22.334  1.00  0.00     0.020 A 
ATOM     99  Cl  UNL A   1      26.959  28.161  23.389  1.00  0.00    -0.084 Cl
ENDBRANCH  92  93
ENDBRANCH  90  92
ENDBRANCH  83  84
BRANCH  83 100
ATOM    100  C   UNL A   1      32.735  20.697  24.869  1.00  0.00     0.019 A 
ATOM    101  C   UNL A   1      32.787  19.415  25.445  1.00  0.00     0.014 A 
ATOM    102  C   UNL A   1      32.494  20.808  23.487  1.00  0.00     0.014 A 
ATOM    103  C   UNL A   1      32.613  18.274  24.653  1.00  0.00     0.046 A 
ATOM    104  C   UNL A   1      32.337  19.668  22.697  1.00  0.00     0.046 A 
ATOM    105  C   UNL A   1      32.399  18.412  23.285  1.00  0.00     0.115 A 
BRANCH 105 106
ATOM    106  O   UNL A   1      32.254  17.326  22.473  1.00  0.00    -0.508 OA
ATOM    107  H   UNL A   1      31.410  17.103  22.134  1.00  0.00     0.293 HD
ENDBRANCH 105 106
ENDBRANCH  83 100
ENDBRANCH  80  83
ENDBRANCH  78  79
ENDBRANCH  77  78
ENDBRANCH  76  77
ENDBRANCH   1  76
TORSDOF 21
ENDMDL
MODEL 2
REMARK VINA RESULT:     -12.5      6.629     12.287
REMARK SMILES O=C(NCCCCCCNC(=O)[C@H](c1ccc(O)cc1)[NH+]1CC[NH+](Cc2cccc(Cl)c2)CC1)c1ccc(-c2c3nc(c(-c4c(F)cc(S(=O)(=O)[O-])cc4F)c4ccc([nH]4)c(-c4c(F)cc(S(=O)(=O)[O-])cc4F)c4nc(c(-c5c(F)cc(S(=O)(=O)[O-])cc5F)c5ccc2[nH]5)C=C4)C=C3)cc1
REMARK SMILES IDX 6 1 5 2 4 3 3 4 1 5 2 6 35 8 36 9 100 10 37 11 99 12 38 13
REMARK SMILES IDX 39 14 40 15 93 16 41 17 98 18 92 19 94 20 42 21 97 22 91 23
REMARK SMILES IDX 90 24 43 26 77 27 56 28 76 29 57 30 60 31 75 32 95 33 58 34
REMARK SMILES IDX 59 35 74 37 96 38 61 39 44 40 45 41 54 42 46 43 47 44 53 45
REMARK SMILES IDX 55 46 48 47 49 48 50 49 51 50 52 51 78 52 79 53 88 54 80 55
REMARK SMILES IDX 81 56 87 57 89 58 82 59 83 60 84 61 85 62 86 63 62 64 63 65
REMARK SMILES IDX 72 66 64 67 65 68 71 69 73 70 66 71 67 72 68 73 69 74 70 75
REMARK SMILES IDX 7 76 8 77 9 78 10 79 11 80 12 82 13 83 21 84 22 85 34 86
REMARK SMILES IDX 23 88 33 89 24 90 25 92 26 93 27 94 32 95 28 96 30 97 29 98
REMARK SMILES IDX 31 99 14 100 15 101 20 102 16 103 19 104 17 105 18 106
REMARK H PARENT 3 7 94 25 60 36 10 81 21 87 24 91 18 107
REMARK Flexibility Score: inf
ROOT
ATOM      1  C   UNL A   1      33.579  32.322  27.692  1.00  0.00     0.002 C 
ENDROOT
BRANCH   1   2
ATOM      2  C   UNL A   1      35.050  32.490  28.074  1.00  0.00     0.021 C 
BRANCH   2   3
ATOM      3  C   UNL A   1      35.778  31.191  28.403  1.00  0.00     0.116 C 
BRANCH   3   4
ATOM      4  N   UNL A   1      35.686  30.885  29.821  1.00  0.00    -0.352 N 
ATOM      5  O   UNL A   1      36.245  29.771  31.696  1.00  0.00    -0.269 OA
ATOM      6  C   UNL A   1      36.592  30.225  30.612  1.00  0.00     0.251 C 
ATOM      7  H   UNL A   1      34.867  31.192  30.273  1.00  0.00     0.163 HD
BRANCH   6   8
ATOM      8  C   UNL A   1      37.991  30.082  30.154  1.00  0.00     0.039 A 
ATOM      9  C   UNL A   1      39.038  30.103  31.080  1.00  0.00     0.014 A 
ATOM     10  C   UNL A   1      38.251  29.853  28.799  1.00  0.00     0.014 A 
ATOM     11  C   UNL A   1      40.352  29.964  30.646  1.00  0.00     0.010 A 
ATOM     12  C   UNL A   1      39.565  29.645  28.374  1.00  0.00     0.010 A 
ATOM     13  C   UNL A   1      40.623  29.691  29.295  1.00  0.00    -0.014 A 
BRANCH  13  14
ATOM     14  C   UNL A   1      41.995  29.296  28.898  1.00  0.00     0.031 A 
ATOM     15  C   UNL A   1      43.104  30.302  28.806  1.00  0.00     0.074 A 
ATOM     16  C   UNL A   1      42.212  28.001  28.590  1.00  0.00     0.049 A 
ATOM     17  N   UNL A   1      44.342  30.121  28.427  1.00  0.00    -0.248 NA
ATOM     18  C   UNL A   1      42.788  31.691  29.179  1.00  0.00     0.031 C 
ATOM     19  C   UNL A   1      41.189  26.948  28.620  1.00  0.00     0.029 A 
ATOM     20  N   UNL A   1      43.345  27.345  28.186  1.00  0.00    -0.354 N 
ATOM     21  C   UNL A   1      44.949  31.368  28.490  1.00  0.00     0.074 A 
ATOM     22  C   UNL A   1      43.941  32.305  28.939  1.00  0.00     0.031 C 
ATOM     23  C   UNL A   1      41.744  25.782  28.263  1.00  0.00     0.029 A 
ATOM     24  C   UNL A   1      43.140  26.011  27.918  1.00  0.00     0.049 A 
ATOM     25  H   UNL A   1      44.221  27.785  28.096  1.00  0.00     0.167 HD
ATOM     26  C   UNL A   1      46.231  31.691  28.195  1.00  0.00     0.037 A 
ATOM     27  C   UNL A   1      43.971  25.082  27.408  1.00  0.00     0.037 A 
ATOM     28  C   UNL A   1      47.226  30.736  27.774  1.00  0.00     0.049 A 
ATOM     29  C   UNL A   1      45.378  25.481  27.070  1.00  0.00     0.074 A 
ATOM     30  C   UNL A   1      48.574  30.948  27.544  1.00  0.00     0.029 A 
ATOM     31  N   UNL A   1      46.980  29.398  27.503  1.00  0.00    -0.354 N 
ATOM     32  N   UNL A   1      45.958  26.648  27.219  1.00  0.00    -0.248 NA
ATOM     33  C   UNL A   1      46.241  24.447  26.486  1.00  0.00     0.031 C 
ATOM     34  C   UNL A   1      49.131  29.754  27.076  1.00  0.00     0.029 A 
ATOM     35  C   UNL A   1      48.141  28.784  27.062  1.00  0.00     0.049 A 
ATOM     36  H   UNL A   1      46.108  28.951  27.607  1.00  0.00     0.167 HD
ATOM     37  C   UNL A   1      47.254  26.488  26.749  1.00  0.00     0.074 A 
ATOM     38  C   UNL A   1      47.383  25.104  26.340  1.00  0.00     0.031 C 
ATOM     39  C   UNL A   1      48.246  27.406  26.654  1.00  0.00     0.037 A 
BRANCH  26  40
ATOM     40  C   UNL A   1      46.653  33.130  28.298  1.00  0.00     0.058 A 
ATOM     41  C   UNL A   1      46.506  34.024  27.226  1.00  0.00     0.135 A 
ATOM     42  C   UNL A   1      47.098  33.649  29.526  1.00  0.00     0.135 A 
ATOM     43  F   UNL A   1      46.095  33.580  26.028  1.00  0.00    -0.206 F 
ATOM     44  C   UNL A   1      46.785  35.380  27.368  1.00  0.00     0.059 A 
ATOM     45  C   UNL A   1      47.364  35.004  29.696  1.00  0.00     0.059 A 
ATOM     46  F   UNL A   1      47.258  32.836  30.583  1.00  0.00    -0.206 F 
ATOM     47  C   UNL A   1      47.205  35.863  28.611  1.00  0.00     0.060 A 
BRANCH  47  48
ATOM     48  S   UNL A   1      47.504  37.634  28.791  1.00  0.00     0.124 S 
ATOM     49  O   UNL A   1      46.144  38.150  28.908  1.00  0.00    -0.237 OA
ATOM     50  O   UNL A   1      48.308  37.692  30.008  1.00  0.00    -0.237 OA
ATOM     51  O   UNL A   1      48.207  37.989  27.562  1.00  0.00    -0.744 OA
ENDBRANCH  47  48
ENDBRANCH  26  40
BRANCH  27  52
ATOM     52  C   UNL A   1      43.474  23.707  27.136  1.00  0.00     0.058 A 
ATOM     53  C   UNL A   1      43.174  23.285  25.834  1.00  0.00     0.135 A 
ATOM     54  C   UNL A   1      43.286  22.788  28.181  1.00  0.00     0.135 A 
ATOM     55  F   UNL A   1      43.336  24.127  24.801  1.00  0.00    -0.206 F 
ATOM     56  C   UNL A   1      42.678  22.011  25.579  1.00  0.00     0.059 A 
ATOM     57  C   UNL A   1      42.821  21.499  27.949  1.00  0.00     0.059 A 
ATOM     58  F   UNL A   1      43.577  23.136  29.445  1.00  0.00    -0.206 F 
ATOM     59  C   UNL A   1      42.501  21.126  26.645  1.00  0.00     0.060 A 
BRANCH  59  60
ATOM     60  S   UNL A   1      41.868  19.470  26.305  1.00  0.00     0.124 S 
ATOM     61  O   UNL A   1      40.435  19.721  26.203  1.00  0.00    -0.237 OA
ATOM     62  O   UNL A   1      42.546  19.130  25.058  1.00  0.00    -0.237 OA
ATOM     63  O   UNL A   1      42.296  18.703  27.471  1.00  0.00    -0.744 OA
ENDBRANCH  59  60
ENDBRANCH  27  52
BRANCH  39  64
ATOM     64  C   UNL A   1      49.556  26.943  26.085  1.00  0.00     0.058 A 
ATOM     65  C   UNL A   1      49.840  27.067  24.716  1.00  0.00     0.135 A 
ATOM     66  C   UNL A   1      50.556  26.423  26.921  1.00  0.00     0.135 A 
ATOM     67  F   UNL A   1      48.911  27.545  23.874  1.00  0.00    -0.206 F 
ATOM     68  C   UNL A   1      51.070  26.682  24.194  1.00  0.00     0.059 A 
ATOM     69  C   UNL A   1      51.802  26.057  26.424  1.00  0.00     0.059 A 
ATOM     70  F   UNL A   1      50.335  26.290  28.238  1.00  0.00    -0.206 F 
ATOM     71  C   UNL A   1      52.047  26.183  25.057  1.00  0.00     0.060 A 
BRANCH  71  72
ATOM     72  S   UNL A   1      53.656  25.737  24.373  1.00  0.00     0.124 S 
ATOM     73  O   UNL A   1      54.543  26.649  25.086  1.00  0.00    -0.237 OA
ATOM     74  O   UNL A   1      53.770  24.328  24.736  1.00  0.00    -0.237 OA
ATOM     75  O   UNL A   1      53.503  25.999  22.945  1.00  0.00    -0.744 OA
ENDBRANCH  71  72
ENDBRANCH  39  64
ENDBRANCH  13  14
ENDBRANCH   6   8
ENDBRANCH   3   4
ENDBRANCH   2   3
ENDBRANCH   1   2
BRANCH   1  76
ATOM     76  C   UNL A   1      33.184  30.911  27.249  1.00  0.00     0.002 C 
BRANCH  76  77
ATOM     77  C   UNL A   1      31.924  30.833  26.381  1.00  0.00     0.021 C 
BRANCH  77  78
ATOM     78  C   UNL A   1      31.788  29.543  25.554  1.00  0.00     0.116 C 
BRANCH  78  79
ATOM     79  N   UNL A   1      32.777  29.526  24.492  1.00  0.00    -0.351 N 
ATOM     80  C   UNL A   1      33.002  28.709  23.427  1.00  0.00     0.283 C 
ATOM     81  H   UNL A   1      33.427  30.263  24.557  1.00  0.00     0.163 HD
ATOM     82  O   UNL A   1      34.107  28.888  22.885  1.00  0.00    -0.268 OA
BRANCH  80  83
ATOM     83  C   UNL A   1      32.007  27.672  22.783  1.00  0.00     0.305 C 
BRANCH  83  84
ATOM     84  N   UNL A   1      31.890  26.348  23.445  1.00  0.00    -0.312 N 
ATOM     85  C   UNL A   1      31.868  25.170  22.556  1.00  0.00     0.325 C 
ATOM     86  C   UNL A   1      32.769  26.170  24.612  1.00  0.00     0.325 C 
ATOM     87  H   UNL A   1      30.939  26.388  23.813  1.00  0.00     0.349 HD
ATOM     88  C   UNL A   1      33.048  24.170  22.590  1.00  0.00     0.324 C 
ATOM     89  C   UNL A   1      33.929  25.161  24.565  1.00  0.00     0.324 C 
ATOM     90  N   UNL A   1      33.634  23.902  23.896  1.00  0.00    -0.322 N 
ATOM     91  H   UNL A   1      34.523  23.429  23.733  1.00  0.00     0.348 HD
BRANCH  90  92
ATOM     92  C   UNL A   1      33.004  22.853  24.709  1.00  0.00     0.299 C 
BRANCH  92  93
ATOM     93  C   UNL A   1      33.567  21.446  24.681  1.00  0.00     0.008 A 
ATOM     94  C   UNL A   1      32.740  20.347  24.398  1.00  0.00     0.009 A 
ATOM     95  C   UNL A   1      34.938  21.212  24.864  1.00  0.00     0.030 A 
ATOM     96  C   UNL A   1      33.240  19.043  24.404  1.00  0.00     0.002 A 
ATOM     97  C   UNL A   1      35.444  19.910  24.814  1.00  0.00     0.041 A 
ATOM     98  C   UNL A   1      34.596  18.822  24.617  1.00  0.00     0.020 A 
ATOM     99  Cl  UNL A   1      37.136  19.644  24.963  1.00  0.00    -0.084 Cl
ENDBRANCH  92  93
ENDBRANCH  90  92
ENDBRANCH  83  84
BRANCH  83 100
ATOM    100  C   UNL A   1      30.656  28.383  22.584  1.00  0.00     0.019 A 
ATOM    101  C   UNL A   1      30.565  29.632  21.945  1.00  0.00     0.014 A 
ATOM    102  C   UNL A   1      29.487  27.816  23.128  1.00  0.00     0.014 A 
ATOM    103  C   UNL A   1      29.338  30.300  21.862  1.00  0.00     0.046 A 
ATOM    104  C   UNL A   1      28.269  28.492  23.059  1.00  0.00     0.046 A 
ATOM    105  C   UNL A   1      28.203  29.727  22.429  1.00  0.00     0.115 A 
BRANCH 105 106
ATOM    106  O   UNL A   1      26.995  30.358  22.398  1.00  0.00    -0.508 OA
ATOM    107  H   UNL A   1      26.842  31.047  21.782  1.00  0.00     0.293 HD
ENDBRANCH 105 106
ENDBRANCH  83 100
ENDBRANCH  80  83
ENDBRANCH  78  79
ENDBRANCH  77  78
ENDBRANCH  76  77
ENDBRANCH   1  76
TORSDOF 21
ENDMDL
MODEL 3
REMARK VINA RESULT:     -12.4      6.667     12.031
REMARK SMILES O=C(NCCCCCCNC(=O)[C@H](c1ccc(O)cc1)[NH+]1CC[NH+](Cc2cccc(Cl)c2)CC1)c1ccc(-c2c3nc(c(-c4c(F)cc(S(=O)(=O)[O-])cc4F)c4ccc([nH]4)c(-c4c(F)cc(S(=O)(=O)[O-])cc4F)c4nc(c(-c5c(F)cc(S(=O)(=O)[O-])cc5F)c5ccc2[nH]5)C=C4)C=C3)cc1
REMARK SMILES IDX 6 1 5 2 4 3 3 4 1 5 2 6 35 8 36 9 100 10 37 11 99 12 38 13
REMARK SMILES IDX 39 14 40 15 93 16 41 17 98 18 92 19 94 20 42 21 97 22 91 23
REMARK SMILES IDX 90 24 43 26 77 27 56 28 76 29 57 30 60 31 75 32 95 33 58 34
REMARK SMILES IDX 59 35 74 37 96 38 61 39 44 40 45 41 54 42 46 43 47 44 53 45
REMARK SMILES IDX 55 46 48 47 49 48 50 49 51 50 52 51 78 52 79 53 88 54 80 55
REMARK SMILES IDX 81 56 87 57 89 58 82 59 83 60 84 61 85 62 86 63 62 64 63 65
REMARK SMILES IDX 72 66 64 67 65 68 71 69 73 70 66 71 67 72 68 73 69 74 70 75
REMARK SMILES IDX 7 76 8 77 9 78 10 79 11 80 12 82 13 83 21 84 22 85 34 86
REMARK SMILES IDX 23 88 33 89 24 90 25 92 26 93 27 94 32 95 28 96 30 97 29 98
REMARK SMILES IDX 31 99 14 100 15 101 20 102 16 103 19 104 17 105 18 106
REMARK H PARENT 3 7 94 25 60 36 10 81 21 87 24 91 18 107
REMARK Flexibility Score: inf
ROOT
ATOM      1  C   UNL A   1      33.168  30.746  27.350  1.00  0.00     0.002 C 
ENDROOT
BRANCH   1   2
ATOM      2  C   UNL A   1      34.510  30.084  27.033  1.00  0.00     0.021 C 
BRANCH   2   3
ATOM      3  C   UNL A   1      35.702  30.663  27.787  1.00  0.00     0.116 C 
BRANCH   3   4
ATOM      4  N   UNL A   1      35.517  30.552  29.224  1.00  0.00    -0.352 N 
ATOM      5  O   UNL A   1      35.975  29.734  31.271  1.00  0.00    -0.269 OA
ATOM      6  C   UNL A   1      36.385  30.050  30.160  1.00  0.00     0.251 C 
ATOM      7  H   UNL A   1      34.655  30.880  29.570  1.00  0.00     0.163 HD
BRANCH   6   8
ATOM      8  C   UNL A   1      37.818  29.910  29.823  1.00  0.00     0.039 A 
ATOM      9  C   UNL A   1      38.783  29.942  30.834  1.00  0.00     0.014 A 
ATOM     10  C   UNL A   1      38.192  29.672  28.497  1.00  0.00     0.014 A 
ATOM     11  C   UNL A   1      40.129  29.806  30.514  1.00  0.00     0.010 A 
ATOM     12  C   UNL A   1      39.539  29.466  28.187  1.00  0.00     0.010 A 
ATOM     13  C   UNL A   1      40.514  29.523  29.194  1.00  0.00    -0.014 A 
BRANCH  13  14
ATOM     14  C   UNL A   1      41.917  29.132  28.917  1.00  0.00     0.031 A 
ATOM     15  C   UNL A   1      43.032  30.135  28.951  1.00  0.00     0.074 A 
ATOM     16  C   UNL A   1      42.159  27.842  28.602  1.00  0.00     0.049 A 
ATOM     17  N   UNL A   1      44.299  29.957  28.684  1.00  0.00    -0.248 NA
ATOM     18  C   UNL A   1      42.685  31.516  29.322  1.00  0.00     0.031 C 
ATOM     19  C   UNL A   1      41.136  26.793  28.515  1.00  0.00     0.029 A 
ATOM     20  N   UNL A   1      43.323  27.190  28.292  1.00  0.00    -0.354 N 
ATOM     21  C   UNL A   1      44.901  31.200  28.830  1.00  0.00     0.074 A 
ATOM     22  C   UNL A   1      43.857  32.131  29.204  1.00  0.00     0.031 C 
ATOM     23  C   UNL A   1      41.719  25.633  28.186  1.00  0.00     0.029 A 
ATOM     24  C   UNL A   1      43.142  25.864  27.977  1.00  0.00     0.049 A 
ATOM     25  H   UNL A   1      44.205  27.629  28.293  1.00  0.00     0.167 HD
ATOM     26  C   UNL A   1      46.205  31.524  28.664  1.00  0.00     0.037 A 
ATOM     27  C   UNL A   1      44.014  24.943  27.527  1.00  0.00     0.037 A 
ATOM     28  C   UNL A   1      47.233  30.574  28.316  1.00  0.00     0.049 A 
ATOM     29  C   UNL A   1      45.448  25.343  27.330  1.00  0.00     0.074 A 
ATOM     30  C   UNL A   1      48.597  30.785  28.217  1.00  0.00     0.029 A 
ATOM     31  N   UNL A   1      47.010  29.243  27.994  1.00  0.00    -0.354 N 
ATOM     32  N   UNL A   1      46.013  26.504  27.557  1.00  0.00    -0.248 NA
ATOM     33  C   UNL A   1      46.358  24.318  26.806  1.00  0.00     0.031 C 
ATOM     34  C   UNL A   1      49.192  29.599  27.777  1.00  0.00     0.029 A 
ATOM     35  C   UNL A   1      48.206  28.634  27.650  1.00  0.00     0.049 A 
ATOM     36  H   UNL A   1      46.132  28.797  28.007  1.00  0.00     0.167 HD
ATOM     37  C   UNL A   1      47.348  26.349  27.206  1.00  0.00     0.074 A 
ATOM     38  C   UNL A   1      47.511  24.973  26.781  1.00  0.00     0.031 C 
ATOM     39  C   UNL A   1      48.346  27.264  27.224  1.00  0.00     0.037 A 
BRANCH  26  40
ATOM     40  C   UNL A   1      46.618  32.959  28.836  1.00  0.00     0.058 A 
ATOM     41  C   UNL A   1      47.063  33.459  30.070  1.00  0.00     0.135 A 
ATOM     42  C   UNL A   1      46.681  33.814  27.723  1.00  0.00     0.135 A 
ATOM     43  F   UNL A   1      47.013  32.689  31.169  1.00  0.00    -0.206 F 
ATOM     44  C   UNL A   1      47.557  34.754  30.193  1.00  0.00     0.059 A 
ATOM     45  C   UNL A   1      47.190  35.105  27.818  1.00  0.00     0.059 A 
ATOM     46  F   UNL A   1      46.266  33.385  26.520  1.00  0.00    -0.206 F 
ATOM     47  C   UNL A   1      47.626  35.567  29.058  1.00  0.00     0.060 A 
BRANCH  47  48
ATOM     48  S   UNL A   1      48.325  37.224  29.225  1.00  0.00     0.124 S 
ATOM     49  O   UNL A   1      49.755  36.949  29.124  1.00  0.00    -0.237 OA
ATOM     50  O   UNL A   1      47.735  37.927  28.091  1.00  0.00    -0.237 OA
ATOM     51  O   UNL A   1      47.862  37.660  30.539  1.00  0.00    -0.744 OA
ENDBRANCH  47  48
ENDBRANCH  26  40
BRANCH  27  52
ATOM     52  C   UNL A   1      43.542  23.576  27.180  1.00  0.00     0.058 A 
ATOM     53  C   UNL A   1      43.397  22.584  28.158  1.00  0.00     0.135 A 
ATOM     54  C   UNL A   1      43.231  23.236  25.852  1.00  0.00     0.135 A 
ATOM     55  F   UNL A   1      43.683  22.859  29.440  1.00  0.00    -0.206 F 
ATOM     56  C   UNL A   1      42.988  21.295  27.833  1.00  0.00     0.059 A 
ATOM     57  C   UNL A   1      42.790  21.964  25.506  1.00  0.00     0.059 A 
ATOM     58  F   UNL A   1      43.334  24.155  24.879  1.00  0.00    -0.206 F 
ATOM     59  C   UNL A   1      42.690  20.994  26.501  1.00  0.00     0.060 A 
BRANCH  59  60
ATOM     60  S   UNL A   1      42.148  19.323  26.088  1.00  0.00     0.124 S 
ATOM     61  O   UNL A   1      42.516  18.590  27.294  1.00  0.00    -0.237 OA
ATOM     62  O   UNL A   1      40.718  19.508  25.865  1.00  0.00    -0.237 OA
ATOM     63  O   UNL A   1      42.925  19.006  24.892  1.00  0.00    -0.744 OA
ENDBRANCH  59  60
ENDBRANCH  27  52
BRANCH  39  64
ATOM     64  C   UNL A   1      49.702  26.809  26.769  1.00  0.00     0.058 A 
ATOM     65  C   UNL A   1      50.653  26.328  27.681  1.00  0.00     0.135 A 
ATOM     66  C   UNL A   1      50.034  26.800  25.405  1.00  0.00     0.135 A 
ATOM     67  F   UNL A   1      50.389  26.330  28.997  1.00  0.00    -0.206 F 
ATOM     68  C   UNL A   1      51.894  25.863  27.258  1.00  0.00     0.059 A 
ATOM     69  C   UNL A   1      51.257  26.314  24.957  1.00  0.00     0.059 A 
ATOM     70  F   UNL A   1      49.155  27.245  24.493  1.00  0.00    -0.206 F 
ATOM     71  C   UNL A   1      52.184  25.855  25.893  1.00  0.00     0.060 A 
BRANCH  71  72
ATOM     72  S   UNL A   1      53.776  25.199  25.353  1.00  0.00     0.124 S 
ATOM     73  O   UNL A   1      53.365  24.175  24.399  1.00  0.00    -0.237 OA
ATOM     74  O   UNL A   1      54.421  26.377  24.780  1.00  0.00    -0.237 OA
ATOM     75  O   UNL A   1      54.376  24.703  26.588  1.00  0.00    -0.744 OA
ENDBRANCH  71  72
ENDBRANCH  39  64
ENDBRANCH  13  14
ENDBRANCH   6   8
ENDBRANCH   3   4
ENDBRANCH   2   3
ENDBRANCH   1   2
BRANCH   1  76
ATOM     76  C   UNL A   1      31.937  29.964  26.885  1.00  0.00     0.002 C 
BRANCH  76  77
ATOM     77  C   UNL A   1      31.735  28.607  27.568  1.00  0.00     0.021 C 
BRANCH  77  78
ATOM     78  C   UNL A   1      31.643  27.409  26.608  1.00  0.00     0.116 C 
BRANCH  78  79
ATOM     79  N   UNL A   1      32.589  27.569  25.519  1.00  0.00    -0.351 N 
ATOM     80  C   UNL A   1      32.765  26.943  24.324  1.00  0.00     0.283 C 
ATOM     81  H   UNL A   1      33.247  28.284  25.681  1.00  0.00     0.163 HD
ATOM     82  O   UNL A   1      33.849  27.209  23.775  1.00  0.00    -0.268 OA
BRANCH  80  83
ATOM     83  C   UNL A   1      31.736  26.031  23.554  1.00  0.00     0.305 C 
BRANCH  83  84
ATOM     84  N   UNL A   1      31.611  24.623  24.009  1.00  0.00    -0.312 N 
ATOM     85  C   UNL A   1      31.574  23.594  22.952  1.00  0.00     0.325 C 
ATOM     86  C   UNL A   1      32.494  24.263  25.131  1.00  0.00     0.325 C 
ATOM     87  H   UNL A   1      30.662  24.615  24.385  1.00  0.00     0.349 HD
ATOM     88  C   UNL A   1      32.745  22.590  22.828  1.00  0.00     0.324 C 
ATOM     89  C   UNL A   1      33.644  23.264  24.924  1.00  0.00     0.324 C 
ATOM     90  N   UNL A   1      33.335  22.123  24.075  1.00  0.00    -0.322 N 
ATOM     91  H   UNL A   1      34.219  21.673  23.837  1.00  0.00     0.348 HD
BRANCH  90  92
ATOM     92  C   UNL A   1      32.700  20.968  24.723  1.00  0.00     0.299 C 
BRANCH  92  93
ATOM     93  C   UNL A   1      32.956  19.575  24.186  1.00  0.00     0.008 A 
ATOM     94  C   UNL A   1      32.337  19.137  23.004  1.00  0.00     0.009 A 
ATOM     95  C   UNL A   1      33.869  18.714  24.812  1.00  0.00     0.030 A 
ATOM     96  C   UNL A   1      32.537  17.843  22.517  1.00  0.00     0.002 A 
ATOM     97  C   UNL A   1      34.108  17.440  24.290  1.00  0.00     0.041 A 
ATOM     98  C   UNL A   1      33.423  16.989  23.165  1.00  0.00     0.020 A 
ATOM     99  Cl  UNL A   1      35.287  16.424  25.022  1.00  0.00    -0.084 Cl
ENDBRANCH  92  93
ENDBRANCH  90  92
ENDBRANCH  83  84
BRANCH  83 100
ATOM    100  C   UNL A   1      30.394  26.783  23.501  1.00  0.00     0.019 A 
ATOM    101  C   UNL A   1      29.209  26.218  24.003  1.00  0.00     0.014 A 
ATOM    102  C   UNL A   1      30.326  28.033  22.856  1.00  0.00     0.014 A 
ATOM    103  C   UNL A   1      27.986  26.882  23.855  1.00  0.00     0.046 A 
ATOM    104  C   UNL A   1      29.103  28.686  22.695  1.00  0.00     0.046 A 
ATOM    105  C   UNL A   1      27.945  28.107  23.193  1.00  0.00     0.115 A 
BRANCH 105 106
ATOM    106  O   UNL A   1      26.770  28.773  23.001  1.00  0.00    -0.508 OA
ATOM    107  H   UNL A   1      26.295  28.665  22.201  1.00  0.00     0.293 HD
ENDBRANCH 105 106
ENDBRANCH  83 100
ENDBRANCH  80  83
ENDBRANCH  78  79
ENDBRANCH  77  78
ENDBRANCH  76  77
ENDBRANCH   1  76
TORSDOF 21
ENDMDL
