MODEL 1
REMARK VINA RESULT:     -10.9      0.000      0.000
REMARK SMILES Cc1cc(C)c(C#N)c(NC[C@H](CC(C)C)C(=O)NCCCCCCNC(=O)c2ccc(-c3c4nc(c(-c5c(F)cc(S(=O)(=O)[O-])cc5F)c5ccc([nH]5)c(-c5c(F)cc(S(=O)(=O)[O-])cc5F)c5nc(c(-c6c(F)cc(S(=O)(=O)[O-])cc6F)c6ccc3[nH]6)C=C5)C=C4)cc2)n1
REMARK SMILES IDX 22 1 21 2 20 3 19 4 17 5 18 6 12 8 11 9 10 10 9 12 1 13 2 14
REMARK SMILES IDX 3 15 95 16 4 17 5 18 6 19 7 20 8 21 13 22 14 23 15 24 16 25
REMARK SMILES IDX 23 26 24 27 25 28 26 29 27 30 28 32 29 33 30 34 94 35 31 36
REMARK SMILES IDX 93 37 32 38 33 39 34 40 87 41 35 42 92 43 86 44 88 45 36 46
REMARK SMILES IDX 91 47 85 48 84 49 37 51 71 52 50 53 70 54 51 55 54 56 69 57
REMARK SMILES IDX 89 58 52 59 53 60 68 62 90 63 55 64 38 65 39 66 48 67 40 68
REMARK SMILES IDX 41 69 47 70 49 71 42 72 43 73 44 74 45 75 46 76 72 77 73 78
REMARK SMILES IDX 82 79 74 80 75 81 81 82 83 83 76 84 77 85 78 86 79 87 80 88
REMARK SMILES IDX 56 89 57 90 66 91 58 92 59 93 65 94 67 95 60 96 61 97 62 98
REMARK SMILES IDX 63 99 64 100
REMARK H PARENT 19 7 10 11 26 31 88 50 54 61
REMARK Flexibility Score: inf
ROOT
ATOM      1  C   UNL A   1      39.100  20.817  25.709  1.00  0.00     0.002 C 
ENDROOT
BRANCH   1   2
ATOM      2  C   UNL A   1      38.116  21.979  25.780  1.00  0.00     0.021 C 
BRANCH   2   3
ATOM      3  C   UNL A   1      36.695  21.652  25.313  1.00  0.00     0.116 C 
BRANCH   3   4
ATOM      4  N   UNL A   1      35.733  21.793  26.382  1.00  0.00    -0.356 N 
ATOM      5  C   UNL A   1      34.481  21.306  26.545  1.00  0.00     0.224 C 
ATOM      6  O   UNL A   1      33.956  21.541  27.643  1.00  0.00    -0.275 OA
ATOM      7  H   UNL A   1      36.048  22.347  27.133  1.00  0.00     0.163 HD
BRANCH   5   8
ATOM      8  C   UNL A   1      33.694  20.515  25.492  1.00  0.00     0.098 C 
BRANCH   8   9
ATOM      9  C   UNL A   1      32.899  21.338  24.466  1.00  0.00     0.128 C 
BRANCH   9  10
ATOM     10  N   UNL A   1      33.333  22.691  24.195  1.00  0.00    -0.368 N 
ATOM     11  H   UNL A   1      34.304  22.847  24.251  1.00  0.00     0.162 HD
BRANCH  10  12
ATOM     12  C   UNL A   1      32.570  23.787  23.872  1.00  0.00     0.144 A 
ATOM     13  C   UNL A   1      32.505  25.677  20.685  1.00  0.00     0.067 C 
ATOM     14  C   UNL A   1      32.149  25.252  22.080  1.00  0.00     0.040 A 
ATOM     15  C   UNL A   1      31.164  25.922  22.785  1.00  0.00     0.028 A 
ATOM     16  N   UNL A   1      32.830  24.202  22.605  1.00  0.00    -0.235 NA
ATOM     17  C   UNL A   1      30.874  25.513  24.086  1.00  0.00    -0.028 A 
ATOM     18  C   UNL A   1      29.793  26.225  24.859  1.00  0.00     0.046 C 
ATOM     19  C   UNL A   1      31.600  24.437  24.647  1.00  0.00     0.097 A 
BRANCH  19  20
ATOM     20  C   UNL A   1      31.301  24.075  25.998  1.00  0.00     0.103 C 
ATOM     21  N   UNL A   1      30.988  23.785  27.081  1.00  0.00    -0.192 NA
ENDBRANCH  19  20
ENDBRANCH  10  12
ENDBRANCH   9  10
ENDBRANCH   8   9
BRANCH   8  22
ATOM     22  C   UNL A   1      33.245  19.070  25.818  1.00  0.00     0.018 C 
BRANCH  22  23
ATOM     23  C   UNL A   1      32.839  18.092  24.716  1.00  0.00    -0.017 C 
ATOM     24  C   UNL A   1      33.969  17.719  23.764  1.00  0.00     0.007 C 
ATOM     25  C   UNL A   1      32.244  16.807  25.304  1.00  0.00     0.007 C 
ENDBRANCH  22  23
ENDBRANCH   8  22
ENDBRANCH   5   8
ENDBRANCH   3   4
ENDBRANCH   2   3
ENDBRANCH   1   2
BRANCH   1  26
ATOM     26  C   UNL A   1      40.422  21.064  26.438  1.00  0.00     0.002 C 
BRANCH  26  27
ATOM     27  C   UNL A   1      40.434  22.268  27.386  1.00  0.00     0.021 C 
BRANCH  27  28
ATOM     28  C   UNL A   1      41.742  23.056  27.401  1.00  0.00     0.116 C 
BRANCH  28  29
ATOM     29  N   UNL A   1      41.865  23.914  26.233  1.00  0.00    -0.352 N 
ATOM     30  C   UNL A   1      41.569  25.243  26.081  1.00  0.00     0.251 C 
ATOM     31  H   UNL A   1      42.214  23.471  25.426  1.00  0.00     0.163 HD
ATOM     32  O   UNL A   1      41.451  25.714  24.954  1.00  0.00    -0.269 OA
BRANCH  30  33
ATOM     33  C   UNL A   1      41.397  26.103  27.269  1.00  0.00     0.039 A 
ATOM     34  C   UNL A   1      42.320  27.123  27.505  1.00  0.00     0.014 A 
ATOM     35  C   UNL A   1      40.350  25.880  28.168  1.00  0.00     0.014 A 
ATOM     36  C   UNL A   1      42.166  27.946  28.620  1.00  0.00     0.010 A 
ATOM     37  C   UNL A   1      40.148  26.756  29.229  1.00  0.00     0.010 A 
ATOM     38  C   UNL A   1      41.062  27.790  29.475  1.00  0.00    -0.014 A 
BRANCH  38  39
ATOM     39  C   UNL A   1      40.852  28.708  30.622  1.00  0.00     0.031 A 
ATOM     40  C   UNL A   1      41.721  28.617  31.846  1.00  0.00     0.074 A 
ATOM     41  C   UNL A   1      39.844  29.601  30.572  1.00  0.00     0.049 A 
ATOM     42  N   UNL A   1      41.694  29.343  32.933  1.00  0.00    -0.248 NA
ATOM     43  C   UNL A   1      42.737  27.554  31.861  1.00  0.00     0.031 C 
ATOM     44  C   UNL A   1      38.906  29.753  29.457  1.00  0.00     0.029 A 
ATOM     45  N   UNL A   1      39.445  30.555  31.473  1.00  0.00    -0.354 N 
ATOM     46  C   UNL A   1      42.680  28.821  33.764  1.00  0.00     0.074 A 
ATOM     47  C   UNL A   1      43.239  27.675  33.081  1.00  0.00     0.031 C 
ATOM     48  C   UNL A   1      38.078  30.776  29.716  1.00  0.00     0.029 A 
ATOM     49  C   UNL A   1      38.391  31.321  31.033  1.00  0.00     0.049 A 
ATOM     50  H   UNL A   1      39.873  30.679  32.351  1.00  0.00     0.167 HD
ATOM     51  C   UNL A   1      43.096  29.270  34.974  1.00  0.00     0.037 A 
ATOM     52  C   UNL A   1      37.752  32.349  31.623  1.00  0.00     0.037 A 
ATOM     53  C   UNL A   1      42.525  30.411  35.644  1.00  0.00     0.049 A 
ATOM     54  C   UNL A   1      38.208  32.808  32.980  1.00  0.00     0.074 A 
ATOM     55  C   UNL A   1      42.906  30.984  36.845  1.00  0.00     0.029 A 
ATOM     56  N   UNL A   1      41.439  31.143  35.183  1.00  0.00    -0.354 N 
ATOM     57  N   UNL A   1      39.193  32.355  33.718  1.00  0.00    -0.248 NA
ATOM     58  C   UNL A   1      37.465  33.921  33.581  1.00  0.00     0.031 C 
ATOM     59  C   UNL A   1      42.003  32.010  37.146  1.00  0.00     0.029 A 
ATOM     60  C   UNL A   1      41.108  32.133  36.095  1.00  0.00     0.049 A 
ATOM     61  H   UNL A   1      40.971  30.981  34.332  1.00  0.00     0.167 HD
ATOM     62  C   UNL A   1      39.210  33.150  34.859  1.00  0.00     0.074 A 
ATOM     63  C   UNL A   1      38.144  34.121  34.701  1.00  0.00     0.031 C 
ATOM     64  C   UNL A   1      40.035  33.087  35.935  1.00  0.00     0.037 A 
BRANCH  51  65
ATOM     65  C   UNL A   1      44.201  28.501  35.657  1.00  0.00     0.058 A 
ATOM     66  C   UNL A   1      45.559  28.774  35.420  1.00  0.00     0.135 A 
ATOM     67  C   UNL A   1      43.895  27.464  36.555  1.00  0.00     0.135 A 
ATOM     68  F   UNL A   1      45.916  29.748  34.566  1.00  0.00    -0.206 F 
ATOM     69  C   UNL A   1      46.569  28.011  35.998  1.00  0.00     0.059 A 
ATOM     70  C   UNL A   1      44.891  26.715  37.176  1.00  0.00     0.059 A 
ATOM     71  F   UNL A   1      42.617  27.159  36.827  1.00  0.00    -0.206 F 
ATOM     72  C   UNL A   1      46.224  26.978  36.870  1.00  0.00     0.060 A 
BRANCH  72  73
ATOM     73  S   UNL A   1      47.543  25.969  37.576  1.00  0.00     0.124 S 
ATOM     74  O   UNL A   1      47.129  25.886  38.974  1.00  0.00    -0.237 OA
ATOM     75  O   UNL A   1      47.432  24.732  36.809  1.00  0.00    -0.237 OA
ATOM     76  O   UNL A   1      48.746  26.754  37.324  1.00  0.00    -0.744 OA
ENDBRANCH  72  73
ENDBRANCH  51  65
BRANCH  52  77
ATOM     77  C   UNL A   1      36.652  33.043  30.903  1.00  0.00     0.058 A 
ATOM     78  C   UNL A   1      35.315  32.848  31.280  1.00  0.00     0.135 A 
ATOM     79  C   UNL A   1      36.910  33.943  29.857  1.00  0.00     0.135 A 
ATOM     80  F   UNL A   1      35.014  31.993  32.270  1.00  0.00    -0.206 F 
ATOM     81  C   UNL A   1      34.272  33.515  30.646  1.00  0.00     0.059 A 
ATOM     82  C   UNL A   1      35.888  34.644  29.226  1.00  0.00     0.059 A 
ATOM     83  F   UNL A   1      38.173  34.177  29.467  1.00  0.00    -0.206 F 
ATOM     84  C   UNL A   1      34.571  34.421  29.626  1.00  0.00     0.060 A 
BRANCH  84  85
ATOM     85  S   UNL A   1      33.216  35.339  28.865  1.00  0.00     0.124 S 
ATOM     86  O   UNL A   1      33.932  36.381  28.140  1.00  0.00    -0.237 OA
ATOM     87  O   UNL A   1      32.578  34.313  28.046  1.00  0.00    -0.237 OA
ATOM     88  O   UNL A   1      32.432  35.792  30.010  1.00  0.00    -0.744 OA
ENDBRANCH  84  85
ENDBRANCH  52  77
BRANCH  64  89
ATOM     89  C   UNL A   1      39.835  34.116  37.018  1.00  0.00     0.058 A 
ATOM     90  C   UNL A   1      39.074  33.851  38.168  1.00  0.00     0.135 A 
ATOM     91  C   UNL A   1      40.432  35.384  36.910  1.00  0.00     0.135 A 
ATOM     92  F   UNL A   1      38.475  32.659  38.322  1.00  0.00    -0.206 F 
ATOM     93  C   UNL A   1      38.877  34.817  39.150  1.00  0.00     0.059 A 
ATOM     94  C   UNL A   1      40.282  36.351  37.898  1.00  0.00     0.059 A 
ATOM     95  F   UNL A   1      41.182  35.691  35.839  1.00  0.00    -0.206 F 
ATOM     96  C   UNL A   1      39.486  36.065  39.006  1.00  0.00     0.060 A 
BRANCH  96  97
ATOM     97  S   UNL A   1      39.229  37.305  40.292  1.00  0.00     0.124 S 
ATOM     98  O   UNL A   1      40.601  37.685  40.613  1.00  0.00    -0.237 OA
ATOM     99  O   UNL A   1      38.439  38.315  39.594  1.00  0.00    -0.237 OA
ATOM    100  O   UNL A   1      38.519  36.573  41.336  1.00  0.00    -0.744 OA
ENDBRANCH  96  97
ENDBRANCH  64  89
ENDBRANCH  38  39
ENDBRANCH  30  33
ENDBRANCH  28  29
ENDBRANCH  27  28
ENDBRANCH  26  27
ENDBRANCH   1  26
TORSDOF 22
ENDMDL
MODEL 2
REMARK VINA RESULT:     -10.8      1.434      2.215
REMARK SMILES Cc1cc(C)c(C#N)c(NC[C@H](CC(C)C)C(=O)NCCCCCCNC(=O)c2ccc(-c3c4nc(c(-c5c(F)cc(S(=O)(=O)[O-])cc5F)c5ccc([nH]5)c(-c5c(F)cc(S(=O)(=O)[O-])cc5F)c5nc(c(-c6c(F)cc(S(=O)(=O)[O-])cc6F)c6ccc3[nH]6)C=C5)C=C4)cc2)n1
REMARK SMILES IDX 22 1 21 2 20 3 19 4 17 5 18 6 12 8 11 9 10 10 9 12 1 13 2 14
REMARK SMILES IDX 3 15 95 16 4 17 5 18 6 19 7 20 8 21 13 22 14 23 15 24 16 25
REMARK SMILES IDX 23 26 24 27 25 28 26 29 27 30 28 32 29 33 30 34 94 35 31 36
REMARK SMILES IDX 93 37 32 38 33 39 34 40 87 41 35 42 92 43 86 44 88 45 36 46
REMARK SMILES IDX 91 47 85 48 84 49 37 51 71 52 50 53 70 54 51 55 54 56 69 57
REMARK SMILES IDX 89 58 52 59 53 60 68 62 90 63 55 64 38 65 39 66 48 67 40 68
REMARK SMILES IDX 41 69 47 70 49 71 42 72 43 73 44 74 45 75 46 76 72 77 73 78
REMARK SMILES IDX 82 79 74 80 75 81 81 82 83 83 76 84 77 85 78 86 79 87 80 88
REMARK SMILES IDX 56 89 57 90 66 91 58 92 59 93 65 94 67 95 60 96 61 97 62 98
REMARK SMILES IDX 63 99 64 100
REMARK H PARENT 19 7 10 11 26 31 88 50 54 61
REMARK Flexibility Score: inf
ROOT
ATOM      1  C   UNL A   1      39.987  21.227  26.348  1.00  0.00     0.002 C 
ENDROOT
BRANCH   1   2
ATOM      2  C   UNL A   1      39.271  22.564  26.497  1.00  0.00     0.021 C 
BRANCH   2   3
ATOM      3  C   UNL A   1      38.022  22.729  25.626  1.00  0.00     0.116 C 
BRANCH   3   4
ATOM      4  N   UNL A   1      36.809  22.636  26.406  1.00  0.00    -0.356 N 
ATOM      5  C   UNL A   1      35.516  22.905  26.107  1.00  0.00     0.224 C 
ATOM      6  O   UNL A   1      34.694  22.620  26.990  1.00  0.00    -0.275 OA
ATOM      7  H   UNL A   1      36.948  22.315  27.326  1.00  0.00     0.163 HD
BRANCH   5   8
ATOM      8  C   UNL A   1      35.021  23.527  24.795  1.00  0.00     0.098 C 
BRANCH   8   9
ATOM      9  C   UNL A   1      34.736  25.038  24.814  1.00  0.00     0.128 C 
BRANCH   9  10
ATOM     10  N   UNL A   1      33.668  25.518  25.662  1.00  0.00    -0.368 N 
ATOM     11  H   UNL A   1      33.561  25.048  26.521  1.00  0.00     0.162 HD
BRANCH  10  12
ATOM     12  C   UNL A   1      32.782  26.541  25.428  1.00  0.00     0.144 A 
ATOM     13  C   UNL A   1      29.496  26.383  23.721  1.00  0.00     0.067 C 
ATOM     14  C   UNL A   1      30.668  26.941  24.476  1.00  0.00     0.040 A 
ATOM     15  C   UNL A   1      30.691  28.275  24.844  1.00  0.00     0.028 A 
ATOM     16  N   UNL A   1      31.683  26.089  24.769  1.00  0.00    -0.235 NA
ATOM     17  C   UNL A   1      31.804  28.763  25.526  1.00  0.00    -0.028 A 
ATOM     18  C   UNL A   1      31.836  30.210  25.947  1.00  0.00     0.046 C 
ATOM     19  C   UNL A   1      32.877  27.886  25.810  1.00  0.00     0.097 A 
BRANCH  19  20
ATOM     20  C   UNL A   1      34.019  28.435  26.474  1.00  0.00     0.103 C 
ATOM     21  N   UNL A   1      34.909  28.941  27.027  1.00  0.00    -0.192 NA
ENDBRANCH  19  20
ENDBRANCH  10  12
ENDBRANCH   9  10
ENDBRANCH   8   9
BRANCH   8  22
ATOM     22  C   UNL A   1      34.293  22.629  23.767  1.00  0.00     0.018 C 
BRANCH  22  23
ATOM     23  C   UNL A   1      32.773  22.668  23.608  1.00  0.00    -0.017 C 
ATOM     24  C   UNL A   1      32.229  21.701  22.563  1.00  0.00     0.007 C 
ATOM     25  C   UNL A   1      32.067  22.403  24.943  1.00  0.00     0.007 C 
ENDBRANCH  22  23
ENDBRANCH   8  22
ENDBRANCH   5   8
ENDBRANCH   3   4
ENDBRANCH   2   3
ENDBRANCH   1   2
BRANCH   1  26
ATOM     26  C   UNL A   1      41.444  21.236  26.814  1.00  0.00     0.002 C 
BRANCH  26  27
ATOM     27  C   UNL A   1      41.755  22.181  27.980  1.00  0.00     0.021 C 
BRANCH  27  28
ATOM     28  C   UNL A   1      42.883  23.176  27.714  1.00  0.00     0.116 C 
BRANCH  28  29
ATOM     29  N   UNL A   1      42.689  23.883  26.458  1.00  0.00    -0.352 N 
ATOM     30  C   UNL A   1      42.060  25.073  26.204  1.00  0.00     0.251 C 
ATOM     31  H   UNL A   1      43.067  23.436  25.666  1.00  0.00     0.163 HD
ATOM     32  O   UNL A   1      41.733  25.355  25.056  1.00  0.00    -0.269 OA
BRANCH  30  33
ATOM     33  C   UNL A   1      41.780  26.012  27.310  1.00  0.00     0.039 A 
ATOM     34  C   UNL A   1      40.683  25.771  28.139  1.00  0.00     0.014 A 
ATOM     35  C   UNL A   1      42.572  27.147  27.503  1.00  0.00     0.014 A 
ATOM     36  C   UNL A   1      40.410  26.647  29.189  1.00  0.00     0.010 A 
ATOM     37  C   UNL A   1      42.351  27.969  28.603  1.00  0.00     0.010 A 
ATOM     38  C   UNL A   1      41.259  27.735  29.450  1.00  0.00    -0.014 A 
BRANCH  38  39
ATOM     39  C   UNL A   1      41.017  28.630  30.610  1.00  0.00     0.031 A 
ATOM     40  C   UNL A   1      41.880  28.544  31.838  1.00  0.00     0.074 A 
ATOM     41  C   UNL A   1      39.985  29.496  30.566  1.00  0.00     0.049 A 
ATOM     42  N   UNL A   1      41.826  29.253  32.936  1.00  0.00    -0.248 NA
ATOM     43  C   UNL A   1      42.925  27.509  31.845  1.00  0.00     0.031 C 
ATOM     44  C   UNL A   1      39.051  29.639  29.447  1.00  0.00     0.029 A 
ATOM     45  N   UNL A   1      39.554  30.424  31.478  1.00  0.00    -0.354 N 
ATOM     46  C   UNL A   1      42.821  28.745  33.765  1.00  0.00     0.074 A 
ATOM     47  C   UNL A   1      43.415  27.625  33.070  1.00  0.00     0.031 C 
ATOM     48  C   UNL A   1      38.194  30.635  29.715  1.00  0.00     0.029 A 
ATOM     49  C   UNL A   1      38.483  31.168  31.042  1.00  0.00     0.049 A 
ATOM     50  H   UNL A   1      39.973  30.547  32.361  1.00  0.00     0.167 HD
ATOM     51  C   UNL A   1      43.216  29.187  34.986  1.00  0.00     0.037 A 
ATOM     52  C   UNL A   1      37.813  32.169  31.643  1.00  0.00     0.037 A 
ATOM     53  C   UNL A   1      42.610  30.301  35.669  1.00  0.00     0.049 A 
ATOM     54  C   UNL A   1      38.246  32.620  33.010  1.00  0.00     0.074 A 
ATOM     55  C   UNL A   1      42.966  30.866  36.880  1.00  0.00     0.029 A 
ATOM     56  N   UNL A   1      41.507  31.010  35.210  1.00  0.00    -0.354 N 
ATOM     57  N   UNL A   1      39.239  32.183  33.748  1.00  0.00    -0.248 NA
ATOM     58  C   UNL A   1      37.469  33.703  33.622  1.00  0.00     0.031 C 
ATOM     59  C   UNL A   1      42.034  31.863  37.190  1.00  0.00     0.029 A 
ATOM     60  C   UNL A   1      41.143  31.977  36.134  1.00  0.00     0.049 A 
ATOM     61  H   UNL A   1      41.049  30.849  34.354  1.00  0.00     0.167 HD
ATOM     62  C   UNL A   1      39.226  32.961  34.901  1.00  0.00     0.074 A 
ATOM     63  C   UNL A   1      38.136  33.905  34.750  1.00  0.00     0.031 C 
ATOM     64  C   UNL A   1      40.045  32.903  35.982  1.00  0.00     0.037 A 
BRANCH  51  65
ATOM     65  C   UNL A   1      44.337  28.437  35.664  1.00  0.00     0.058 A 
ATOM     66  C   UNL A   1      45.688  28.753  35.443  1.00  0.00     0.135 A 
ATOM     67  C   UNL A   1      44.054  27.378  36.543  1.00  0.00     0.135 A 
ATOM     68  F   UNL A   1      46.024  29.750  34.608  1.00  0.00    -0.206 F 
ATOM     69  C   UNL A   1      46.715  28.009  36.017  1.00  0.00     0.059 A 
ATOM     70  C   UNL A   1      45.065  26.647  37.160  1.00  0.00     0.059 A 
ATOM     71  F   UNL A   1      42.783  27.032  36.801  1.00  0.00    -0.206 F 
ATOM     72  C   UNL A   1      46.393  26.953  36.869  1.00  0.00     0.060 A 
BRANCH  72  73
ATOM     73  S   UNL A   1      47.734  25.969  37.569  1.00  0.00     0.124 S 
ATOM     74  O   UNL A   1      48.218  26.849  38.629  1.00  0.00    -0.237 OA
ATOM     75  O   UNL A   1      47.037  24.767  38.015  1.00  0.00    -0.237 OA
ATOM     76  O   UNL A   1      48.645  25.782  36.444  1.00  0.00    -0.744 OA
ENDBRANCH  72  73
ENDBRANCH  51  65
BRANCH  52  77
ATOM     77  C   UNL A   1      36.698  32.844  30.926  1.00  0.00     0.058 A 
ATOM     78  C   UNL A   1      35.368  32.650  31.326  1.00  0.00     0.135 A 
ATOM     79  C   UNL A   1      36.937  33.724  29.859  1.00  0.00     0.135 A 
ATOM     80  F   UNL A   1      35.086  31.812  32.337  1.00  0.00    -0.206 F 
ATOM     81  C   UNL A   1      34.313  33.299  30.694  1.00  0.00     0.059 A 
ATOM     82  C   UNL A   1      35.902  34.408  29.230  1.00  0.00     0.059 A 
ATOM     83  F   UNL A   1      38.193  33.957  29.447  1.00  0.00    -0.206 F 
ATOM     84  C   UNL A   1      34.593  34.187  29.653  1.00  0.00     0.060 A 
BRANCH  84  85
ATOM     85  S   UNL A   1      33.222  35.083  28.894  1.00  0.00     0.124 S 
ATOM     86  O   UNL A   1      32.327  35.275  30.029  1.00  0.00    -0.237 OA
ATOM     87  O   UNL A   1      33.885  36.282  28.392  1.00  0.00    -0.237 OA
ATOM     88  O   UNL A   1      32.747  34.163  27.865  1.00  0.00    -0.744 OA
ENDBRANCH  84  85
ENDBRANCH  52  77
BRANCH  64  89
ATOM     89  C   UNL A   1      39.810  33.911  37.078  1.00  0.00     0.058 A 
ATOM     90  C   UNL A   1      40.323  35.216  37.015  1.00  0.00     0.135 A 
ATOM     91  C   UNL A   1      39.040  33.567  38.203  1.00  0.00     0.135 A 
ATOM     92  F   UNL A   1      41.070  35.598  35.966  1.00  0.00    -0.206 F 
ATOM     93  C   UNL A   1      40.118  36.131  38.044  1.00  0.00     0.059 A 
ATOM     94  C   UNL A   1      38.790  34.478  39.225  1.00  0.00     0.059 A 
ATOM     95  F   UNL A   1      38.513  32.338  38.314  1.00  0.00    -0.206 F 
ATOM     96  C   UNL A   1      39.349  35.751  39.145  1.00  0.00     0.060 A 
BRANCH  96  97
ATOM     97  S   UNL A   1      39.085  36.950  40.468  1.00  0.00     0.124 S 
ATOM     98  O   UNL A   1      38.513  38.075  39.736  1.00  0.00    -0.237 OA
ATOM     99  O   UNL A   1      38.169  36.237  41.354  1.00  0.00    -0.237 OA
ATOM    100  O   UNL A   1      40.425  37.167  41.005  1.00  0.00    -0.744 OA
ENDBRANCH  96  97
ENDBRANCH  64  89
ENDBRANCH  38  39
ENDBRANCH  30  33
ENDBRANCH  28  29
ENDBRANCH  27  28
ENDBRANCH  26  27
ENDBRANCH   1  26
TORSDOF 22
ENDMDL
MODEL 3
REMARK VINA RESULT:     -10.8      5.210      6.920
REMARK SMILES Cc1cc(C)c(C#N)c(NC[C@H](CC(C)C)C(=O)NCCCCCCNC(=O)c2ccc(-c3c4nc(c(-c5c(F)cc(S(=O)(=O)[O-])cc5F)c5ccc([nH]5)c(-c5c(F)cc(S(=O)(=O)[O-])cc5F)c5nc(c(-c6c(F)cc(S(=O)(=O)[O-])cc6F)c6ccc3[nH]6)C=C5)C=C4)cc2)n1
REMARK SMILES IDX 22 1 21 2 20 3 19 4 17 5 18 6 12 8 11 9 10 10 9 12 1 13 2 14
REMARK SMILES IDX 3 15 95 16 4 17 5 18 6 19 7 20 8 21 13 22 14 23 15 24 16 25
REMARK SMILES IDX 23 26 24 27 25 28 26 29 27 30 28 32 29 33 30 34 94 35 31 36
REMARK SMILES IDX 93 37 32 38 33 39 34 40 87 41 35 42 92 43 86 44 88 45 36 46
REMARK SMILES IDX 91 47 85 48 84 49 37 51 71 52 50 53 70 54 51 55 54 56 69 57
REMARK SMILES IDX 89 58 52 59 53 60 68 62 90 63 55 64 38 65 39 66 48 67 40 68
REMARK SMILES IDX 41 69 47 70 49 71 42 72 43 73 44 74 45 75 46 76 72 77 73 78
REMARK SMILES IDX 82 79 74 80 75 81 81 82 83 83 76 84 77 85 78 86 79 87 80 88
REMARK SMILES IDX 56 89 57 90 66 91 58 92 59 93 65 94 67 95 60 96 61 97 62 98
REMARK SMILES IDX 63 99 64 100
REMARK H PARENT 19 7 10 11 26 31 88 50 54 61
REMARK Flexibility Score: inf
ROOT
ATOM      1  C   UNL A   1      34.269  22.960  23.086  1.00  0.00     0.002 C 
ENDROOT
BRANCH   1   2
ATOM      2  C   UNL A   1      32.795  22.713  23.386  1.00  0.00     0.021 C 
BRANCH   2   3
ATOM      3  C   UNL A   1      31.848  23.831  22.941  1.00  0.00     0.116 C 
BRANCH   3   4
ATOM      4  N   UNL A   1      32.335  24.508  21.761  1.00  0.00    -0.356 N 
ATOM      5  C   UNL A   1      32.780  25.770  21.559  1.00  0.00     0.224 C 
ATOM      6  O   UNL A   1      33.224  26.004  20.425  1.00  0.00    -0.275 OA
ATOM      7  H   UNL A   1      32.347  23.945  20.953  1.00  0.00     0.163 HD
BRANCH   5   8
ATOM      8  C   UNL A   1      32.762  26.894  22.603  1.00  0.00     0.098 C 
BRANCH   8   9
ATOM      9  C   UNL A   1      32.399  28.299  22.096  1.00  0.00     0.128 C 
BRANCH   9  10
ATOM     10  N   UNL A   1      31.594  29.144  22.951  1.00  0.00    -0.368 N 
ATOM     11  H   UNL A   1      32.084  29.631  23.653  1.00  0.00     0.162 HD
BRANCH  10  12
ATOM     12  C   UNL A   1      30.237  29.356  22.914  1.00  0.00     0.144 A 
ATOM     13  C   UNL A   1      28.412  32.307  21.613  1.00  0.00     0.067 C 
ATOM     14  C   UNL A   1      28.659  30.948  22.201  1.00  0.00     0.040 A 
ATOM     15  C   UNL A   1      27.595  30.137  22.557  1.00  0.00     0.028 A 
ATOM     16  N   UNL A   1      29.950  30.564  22.363  1.00  0.00    -0.235 NA
ATOM     17  C   UNL A   1      27.862  28.889  23.119  1.00  0.00    -0.028 A 
ATOM     18  C   UNL A   1      26.713  27.990  23.498  1.00  0.00     0.046 C 
ATOM     19  C   UNL A   1      29.206  28.496  23.316  1.00  0.00     0.097 A 
BRANCH  19  20
ATOM     20  C   UNL A   1      29.437  27.227  23.933  1.00  0.00     0.103 C 
ATOM     21  N   UNL A   1      29.623  26.227  24.500  1.00  0.00    -0.192 NA
ENDBRANCH  19  20
ENDBRANCH  10  12
ENDBRANCH   9  10
ENDBRANCH   8   9
BRANCH   8  22
ATOM     22  C   UNL A   1      33.624  26.745  23.880  1.00  0.00     0.018 C 
BRANCH  22  23
ATOM     23  C   UNL A   1      32.991  26.467  25.243  1.00  0.00    -0.017 C 
ATOM     24  C   UNL A   1      33.735  25.432  26.078  1.00  0.00     0.007 C 
ATOM     25  C   UNL A   1      32.849  27.754  26.064  1.00  0.00     0.007 C 
ENDBRANCH  22  23
ENDBRANCH   8  22
ENDBRANCH   5   8
ENDBRANCH   3   4
ENDBRANCH   2   3
ENDBRANCH   1   2
BRANCH   1  26
ATOM     26  C   UNL A   1      35.219  22.562  24.217  1.00  0.00     0.002 C 
BRANCH  26  27
ATOM     27  C   UNL A   1      36.432  23.480  24.409  1.00  0.00     0.021 C 
BRANCH  27  28
ATOM     28  C   UNL A   1      36.886  23.643  25.858  1.00  0.00     0.116 C 
BRANCH  28  29
ATOM     29  N   UNL A   1      37.870  22.638  26.228  1.00  0.00    -0.352 N 
ATOM     30  C   UNL A   1      39.185  22.780  26.585  1.00  0.00     0.251 C 
ATOM     31  H   UNL A   1      37.540  21.710  26.220  1.00  0.00     0.163 HD
ATOM     32  O   UNL A   1      39.929  21.804  26.566  1.00  0.00    -0.269 OA
BRANCH  30  33
ATOM     33  C   UNL A   1      39.701  24.102  26.992  1.00  0.00     0.039 A 
ATOM     34  C   UNL A   1      39.701  24.439  28.347  1.00  0.00     0.014 A 
ATOM     35  C   UNL A   1      40.148  25.021  26.039  1.00  0.00     0.014 A 
ATOM     36  C   UNL A   1      40.190  25.683  28.747  1.00  0.00     0.010 A 
ATOM     37  C   UNL A   1      40.717  26.223  26.446  1.00  0.00     0.010 A 
ATOM     38  C   UNL A   1      40.732  26.573  27.803  1.00  0.00    -0.014 A 
BRANCH  38  39
ATOM     39  C   UNL A   1      41.321  27.867  28.229  1.00  0.00     0.031 A 
ATOM     40  C   UNL A   1      42.797  28.120  28.091  1.00  0.00     0.074 A 
ATOM     41  C   UNL A   1      40.521  28.803  28.778  1.00  0.00     0.049 A 
ATOM     42  N   UNL A   1      43.483  29.192  28.394  1.00  0.00    -0.248 NA
ATOM     43  C   UNL A   1      43.614  27.014  27.569  1.00  0.00     0.031 C 
ATOM     44  C   UNL A   1      39.082  28.655  29.005  1.00  0.00     0.029 A 
ATOM     45  N   UNL A   1      40.801  30.064  29.237  1.00  0.00    -0.354 N 
ATOM     46  C   UNL A   1      44.809  28.888  28.108  1.00  0.00     0.074 A 
ATOM     47  C   UNL A   1      44.839  27.509  27.673  1.00  0.00     0.031 C 
ATOM     48  C   UNL A   1      38.596  29.800  29.506  1.00  0.00     0.029 A 
ATOM     49  C   UNL A   1      39.694  30.745  29.685  1.00  0.00     0.049 A 
ATOM     50  H   UNL A   1      41.709  30.446  29.245  1.00  0.00     0.167 HD
ATOM     51  C   UNL A   1      45.899  29.692  28.181  1.00  0.00     0.037 A 
ATOM     52  C   UNL A   1      39.576  31.991  30.179  1.00  0.00     0.037 A 
ATOM     53  C   UNL A   1      45.855  31.063  28.621  1.00  0.00     0.049 A 
ATOM     54  C   UNL A   1      40.803  32.854  30.283  1.00  0.00     0.074 A 
ATOM     55  C   UNL A   1      46.886  31.983  28.681  1.00  0.00     0.029 A 
ATOM     56  N   UNL A   1      44.720  31.709  29.096  1.00  0.00    -0.354 N 
ATOM     57  N   UNL A   1      42.038  32.580  29.935  1.00  0.00    -0.248 NA
ATOM     58  C   UNL A   1      40.617  34.197  30.844  1.00  0.00     0.031 C 
ATOM     59  C   UNL A   1      46.395  33.156  29.264  1.00  0.00     0.029 A 
ATOM     60  C   UNL A   1      45.037  33.000  29.492  1.00  0.00     0.049 A 
ATOM     61  H   UNL A   1      43.822  31.309  29.145  1.00  0.00     0.167 HD
ATOM     62  C   UNL A   1      42.773  33.730  30.205  1.00  0.00     0.074 A 
ATOM     63  C   UNL A   1      41.836  34.704  30.730  1.00  0.00     0.031 C 
ATOM     64  C   UNL A   1      44.099  33.959  30.028  1.00  0.00     0.037 A 
BRANCH  51  65
ATOM     65  C   UNL A   1      47.231  29.090  27.803  1.00  0.00     0.058 A 
ATOM     66  C   UNL A   1      47.628  28.935  26.463  1.00  0.00     0.135 A 
ATOM     67  C   UNL A   1      48.121  28.652  28.798  1.00  0.00     0.135 A 
ATOM     68  F   UNL A   1      46.819  29.328  25.467  1.00  0.00    -0.206 F 
ATOM     69  C   UNL A   1      48.826  28.313  26.124  1.00  0.00     0.059 A 
ATOM     70  C   UNL A   1      49.342  28.063  28.482  1.00  0.00     0.059 A 
ATOM     71  F   UNL A   1      47.802  28.778  30.095  1.00  0.00    -0.206 F 
ATOM     72  C   UNL A   1      49.673  27.874  27.142  1.00  0.00     0.060 A 
BRANCH  72  73
ATOM     73  S   UNL A   1      51.201  27.028  26.687  1.00  0.00     0.124 S 
ATOM     74  O   UNL A   1      52.209  27.948  27.207  1.00  0.00    -0.237 OA
ATOM     75  O   UNL A   1      51.077  25.759  27.396  1.00  0.00    -0.237 OA
ATOM     76  O   UNL A   1      51.124  26.941  25.232  1.00  0.00    -0.744 OA
ENDBRANCH  72  73
ENDBRANCH  51  65
BRANCH  52  77
ATOM     77  C   UNL A   1      38.235  32.510  30.560  1.00  0.00     0.058 A 
ATOM     78  C   UNL A   1      37.761  32.375  31.873  1.00  0.00     0.135 A 
ATOM     79  C   UNL A   1      37.419  33.184  29.637  1.00  0.00     0.135 A 
ATOM     80  F   UNL A   1      38.500  31.732  32.790  1.00  0.00    -0.206 F 
ATOM     81  C   UNL A   1      36.526  32.885  32.259  1.00  0.00     0.059 A 
ATOM     82  C   UNL A   1      36.194  33.728  30.006  1.00  0.00     0.059 A 
ATOM     83  F   UNL A   1      37.833  33.354  28.371  1.00  0.00    -0.206 F 
ATOM     84  C   UNL A   1      35.754  33.571  31.319  1.00  0.00     0.060 A 
BRANCH  84  85
ATOM     85  S   UNL A   1      34.190  34.296  31.854  1.00  0.00     0.124 S 
ATOM     86  O   UNL A   1      33.637  33.232  32.683  1.00  0.00    -0.237 OA
ATOM     87  O   UNL A   1      34.637  35.491  32.562  1.00  0.00    -0.237 OA
ATOM     88  O   UNL A   1      33.488  34.546  30.599  1.00  0.00    -0.744 OA
ENDBRANCH  84  85
ENDBRANCH  52  77
BRANCH  64  89
ATOM     89  C   UNL A   1      44.613  35.331  30.382  1.00  0.00     0.058 A 
ATOM     90  C   UNL A   1      45.123  35.632  31.656  1.00  0.00     0.135 A 
ATOM     91  C   UNL A   1      44.614  36.357  29.421  1.00  0.00     0.135 A 
ATOM     92  F   UNL A   1      45.142  34.692  32.615  1.00  0.00    -0.206 F 
ATOM     93  C   UNL A   1      45.573  36.909  31.978  1.00  0.00     0.059 A 
ATOM     94  C   UNL A   1      45.097  37.630  29.709  1.00  0.00     0.059 A 
ATOM     95  F   UNL A   1      44.151  36.126  28.182  1.00  0.00    -0.206 F 
ATOM     96  C   UNL A   1      45.556  37.901  30.996  1.00  0.00     0.060 A 
BRANCH  96  97
ATOM     97  S   UNL A   1      46.152  39.550  31.426  1.00  0.00     0.124 S 
ATOM     98  O   UNL A   1      45.291  40.396  30.607  1.00  0.00    -0.237 OA
ATOM     99  O   UNL A   1      45.910  39.601  32.864  1.00  0.00    -0.237 OA
ATOM    100  O   UNL A   1      47.558  39.518  31.034  1.00  0.00    -0.744 OA
ENDBRANCH  96  97
ENDBRANCH  64  89
ENDBRANCH  38  39
ENDBRANCH  30  33
ENDBRANCH  28  29
ENDBRANCH  27  28
ENDBRANCH  26  27
ENDBRANCH   1  26
TORSDOF 22
ENDMDL
