MODEL 1
REMARK VINA RESULT:     -10.9      0.000      0.000
REMARK SMILES CC[NH2+][C@]1(C(=O)NCCCCCCNC(=O)c2ccc(-c3c4nc(c(-c5c(F)cc(S(=O)(=O)[O-])cc5F)c5ccc([nH]5)c(-c5c(F)cc(S(=O)(=O)[O-])cc5F)c5nc(c(-c6c(F)cc(S(=O)(=O)[O-])cc6F)c6ccc3[nH]6)C=C5)C=C4)cc2)CCC[C@H]1CCSc1ccc(Cl)cc1
REMARK SMILES IDX 10 1 9 2 8 3 7 4 5 5 6 6 4 8 83 9 86 10 84 11 85 12 3 13
REMARK SMILES IDX 2 16 1 17 87 18 88 19 89 20 90 21 91 22 96 23 92 24 95 25
REMARK SMILES IDX 93 26 94 27 11 28 12 29 13 30 14 31 15 32 16 34 17 35 18 36
REMARK SMILES IDX 82 37 19 38 81 39 20 40 21 41 22 42 75 43 23 44 80 45 74 46
REMARK SMILES IDX 76 47 24 48 79 49 73 50 72 51 25 53 59 54 38 55 58 56 39 57
REMARK SMILES IDX 42 58 57 59 77 60 40 61 41 62 56 64 78 65 43 66 26 67 27 68
REMARK SMILES IDX 36 69 28 70 29 71 35 72 37 73 30 74 31 75 32 76 33 77 34 78
REMARK SMILES IDX 60 79 61 80 70 81 62 82 63 83 69 84 71 85 64 86 65 87 66 88
REMARK SMILES IDX 67 89 68 90 44 91 45 92 54 93 46 94 47 95 53 96 55 97 48 98
REMARK SMILES IDX 49 99 50 100 51 101 52 102
REMARK H PARENT 7 7 3 14 3 15 14 33 76 52 42 63
REMARK Flexibility Score: inf
ROOT
ATOM      1  C   UNL A   1      39.949  20.943  25.983  1.00  0.00     0.002 C 
ENDROOT
BRANCH   1   2
ATOM      2  C   UNL A   1      38.760  21.899  25.882  1.00  0.00     0.021 C 
BRANCH   2   3
ATOM      3  C   UNL A   1      37.553  21.289  25.172  1.00  0.00     0.116 C 
BRANCH   3   4
ATOM      4  N   UNL A   1      36.947  22.252  24.284  1.00  0.00    -0.351 N 
ATOM      5  C   UNL A   1      35.650  22.572  24.078  1.00  0.00     0.281 C 
ATOM      6  O   UNL A   1      35.399  23.007  22.943  1.00  0.00    -0.268 OA
ATOM      7  H   UNL A   1      37.587  22.761  23.735  1.00  0.00     0.163 HD
BRANCH   5   8
ATOM      8  C   UNL A   1      34.498  22.399  25.115  1.00  0.00     0.178 C 
ATOM      9  C   UNL A   1      34.798  22.123  26.593  1.00  0.00     0.079 C 
ATOM     10  C   UNL A   1      33.644  23.722  25.238  1.00  0.00     0.061 C 
ATOM     11  C   UNL A   1      33.483  22.386  27.308  1.00  0.00     0.008 C 
ATOM     12  C   UNL A   1      32.983  23.658  26.646  1.00  0.00     0.011 C 
BRANCH   8  13
ATOM     13  N   UNL A   1      33.572  21.338  24.580  1.00  0.00    -0.334 N 
ATOM     14  H   UNL A   1      32.642  21.505  24.965  1.00  0.00     0.347 HD
ATOM     15  H   UNL A   1      33.603  21.413  23.564  1.00  0.00     0.347 HD
BRANCH  13  16
ATOM     16  C   UNL A   1      33.964  19.966  24.910  1.00  0.00     0.257 C 
ATOM     17  C   UNL A   1      33.245  18.982  23.998  1.00  0.00     0.071 C 
ENDBRANCH  13  16
ENDBRANCH   8  13
BRANCH  10  18
ATOM     18  C   UNL A   1      34.374  25.083  25.080  1.00  0.00     0.022 C 
BRANCH  18  19
ATOM     19  C   UNL A   1      33.621  26.270  24.447  1.00  0.00     0.075 C 
BRANCH  19  20
ATOM     20  S   UNL A   1      32.930  27.529  25.594  1.00  0.00    -0.126 SA
BRANCH  20  21
ATOM     21  C   UNL A   1      31.509  28.119  24.700  1.00  0.00     0.007 A 
ATOM     22  C   UNL A   1      30.767  27.192  23.957  1.00  0.00     0.016 A 
ATOM     23  C   UNL A   1      31.145  29.469  24.667  1.00  0.00     0.016 A 
ATOM     24  C   UNL A   1      29.730  27.619  23.124  1.00  0.00     0.021 A 
ATOM     25  C   UNL A   1      30.092  29.895  23.850  1.00  0.00     0.021 A 
ATOM     26  C   UNL A   1      29.402  28.970  23.068  1.00  0.00     0.041 A 
ATOM     27  Cl  UNL A   1      28.157  29.501  22.005  1.00  0.00    -0.084 Cl
ENDBRANCH  20  21
ENDBRANCH  19  20
ENDBRANCH  18  19
ENDBRANCH  10  18
ENDBRANCH   5   8
ENDBRANCH   3   4
ENDBRANCH   2   3
ENDBRANCH   1   2
BRANCH   1  28
ATOM     28  C   UNL A   1      40.707  21.001  27.314  1.00  0.00     0.002 C 
BRANCH  28  29
ATOM     29  C   UNL A   1      42.060  21.713  27.250  1.00  0.00     0.021 C 
BRANCH  29  30
ATOM     30  C   UNL A   1      41.985  23.209  27.536  1.00  0.00     0.116 C 
BRANCH  30  31
ATOM     31  N   UNL A   1      41.817  23.968  26.307  1.00  0.00    -0.352 N 
ATOM     32  C   UNL A   1      41.314  25.234  26.146  1.00  0.00     0.251 C 
ATOM     33  H   UNL A   1      42.102  23.514  25.481  1.00  0.00     0.163 HD
ATOM     34  O   UNL A   1      40.930  25.617  25.048  1.00  0.00    -0.269 OA
BRANCH  32  35
ATOM     35  C   UNL A   1      41.247  26.124  27.321  1.00  0.00     0.039 A 
ATOM     36  C   UNL A   1      42.223  27.105  27.497  1.00  0.00     0.014 A 
ATOM     37  C   UNL A   1      40.202  25.982  28.239  1.00  0.00     0.014 A 
ATOM     38  C   UNL A   1      42.121  27.985  28.575  1.00  0.00     0.010 A 
ATOM     39  C   UNL A   1      40.065  26.900  29.272  1.00  0.00     0.010 A 
ATOM     40  C   UNL A   1      41.027  27.905  29.451  1.00  0.00    -0.014 A 
BRANCH  40  41
ATOM     41  C   UNL A   1      40.859  28.863  30.570  1.00  0.00     0.031 A 
ATOM     42  C   UNL A   1      41.690  28.712  31.813  1.00  0.00     0.074 A 
ATOM     43  C   UNL A   1      39.901  29.808  30.495  1.00  0.00     0.049 A 
ATOM     44  N   UNL A   1      41.621  29.376  32.936  1.00  0.00    -0.248 NA
ATOM     45  C   UNL A   1      42.715  27.655  31.800  1.00  0.00     0.031 C 
ATOM     46  C   UNL A   1      39.004  30.015  29.356  1.00  0.00     0.029 A 
ATOM     47  N   UNL A   1      39.509  30.758  31.402  1.00  0.00    -0.354 N 
ATOM     48  C   UNL A   1      42.580  28.811  33.768  1.00  0.00     0.074 A 
ATOM     49  C   UNL A   1      43.184  27.718  33.037  1.00  0.00     0.031 C 
ATOM     50  C   UNL A   1      38.175  31.035  29.628  1.00  0.00     0.029 A 
ATOM     51  C   UNL A   1      38.454  31.528  30.972  1.00  0.00     0.049 A 
ATOM     52  H   UNL A   1      39.942  30.878  32.278  1.00  0.00     0.167 HD
ATOM     53  C   UNL A   1      42.937  29.184  35.019  1.00  0.00     0.037 A 
ATOM     54  C   UNL A   1      37.778  32.510  31.600  1.00  0.00     0.037 A 
ATOM     55  C   UNL A   1      42.345  30.289  35.727  1.00  0.00     0.049 A 
ATOM     56  C   UNL A   1      38.187  32.900  32.994  1.00  0.00     0.074 A 
ATOM     57  C   UNL A   1      42.682  30.796  36.969  1.00  0.00     0.029 A 
ATOM     58  N   UNL A   1      41.291  31.057  35.253  1.00  0.00    -0.354 N 
ATOM     59  N   UNL A   1      39.144  32.401  33.741  1.00  0.00    -0.248 NA
ATOM     60  C   UNL A   1      37.428  33.985  33.630  1.00  0.00     0.031 C 
ATOM     61  C   UNL A   1      41.801  31.842  37.265  1.00  0.00     0.029 A 
ATOM     62  C   UNL A   1      40.945  32.015  36.190  1.00  0.00     0.049 A 
ATOM     63  H   UNL A   1      40.852  30.937  34.379  1.00  0.00     0.167 HD
ATOM     64  C   UNL A   1      39.111  33.120  34.931  1.00  0.00     0.074 A 
ATOM     65  C   UNL A   1      38.053  34.101  34.795  1.00  0.00     0.031 C 
ATOM     66  C   UNL A   1      39.884  32.980  36.035  1.00  0.00     0.037 A 
BRANCH  53  67
ATOM     67  C   UNL A   1      44.022  28.394  35.700  1.00  0.00     0.058 A 
ATOM     68  C   UNL A   1      43.725  27.309  36.540  1.00  0.00     0.135 A 
ATOM     69  C   UNL A   1      45.374  28.708  35.488  1.00  0.00     0.135 A 
ATOM     70  F   UNL A   1      42.448  26.977  36.790  1.00  0.00    -0.206 F 
ATOM     71  C   UNL A   1      44.728  26.580  37.168  1.00  0.00     0.059 A 
ATOM     72  C   UNL A   1      46.395  27.974  36.085  1.00  0.00     0.059 A 
ATOM     73  F   UNL A   1      45.714  29.737  34.697  1.00  0.00    -0.206 F 
ATOM     74  C   UNL A   1      46.061  26.921  36.936  1.00  0.00     0.060 A 
BRANCH  74  75
ATOM     75  S   UNL A   1      47.352  25.960  37.755  1.00  0.00     0.124 S 
ATOM     76  O   UNL A   1      47.034  24.607  37.310  1.00  0.00    -0.237 OA
ATOM     77  O   UNL A   1      48.572  26.539  37.200  1.00  0.00    -0.237 OA
ATOM     78  O   UNL A   1      47.125  26.224  39.173  1.00  0.00    -0.744 OA
ENDBRANCH  74  75
ENDBRANCH  53  67
BRANCH  54  79
ATOM     79  C   UNL A   1      36.655  33.195  30.910  1.00  0.00     0.058 A 
ATOM     80  C   UNL A   1      35.326  32.955  31.284  1.00  0.00     0.135 A 
ATOM     81  C   UNL A   1      36.887  34.121  29.880  1.00  0.00     0.135 A 
ATOM     82  F   UNL A   1      35.053  32.075  32.259  1.00  0.00    -0.206 F 
ATOM     83  C   UNL A   1      34.264  33.596  30.655  1.00  0.00     0.059 A 
ATOM     84  C   UNL A   1      35.844  34.793  29.252  1.00  0.00     0.059 A 
ATOM     85  F   UNL A   1      38.143  34.400  29.497  1.00  0.00    -0.206 F 
ATOM     86  C   UNL A   1      34.534  34.516  29.640  1.00  0.00     0.060 A 
BRANCH  86  87
ATOM     87  S   UNL A   1      33.152  35.386  28.869  1.00  0.00     0.124 S 
ATOM     88  O   UNL A   1      33.847  36.398  28.080  1.00  0.00    -0.237 OA
ATOM     89  O   UNL A   1      32.502  34.321  28.111  1.00  0.00    -0.237 OA
ATOM     90  O   UNL A   1      32.392  35.886  30.010  1.00  0.00    -0.744 OA
ENDBRANCH  86  87
ENDBRANCH  54  79
BRANCH  66  91
ATOM     91  C   UNL A   1      39.621  33.914  37.182  1.00  0.00     0.058 A 
ATOM     92  C   UNL A   1      38.886  33.506  38.305  1.00  0.00     0.135 A 
ATOM     93  C   UNL A   1      40.159  35.210  37.184  1.00  0.00     0.135 A 
ATOM     94  F   UNL A   1      38.343  32.279  38.348  1.00  0.00    -0.206 F 
ATOM     95  C   UNL A   1      38.681  34.357  39.386  1.00  0.00     0.059 A 
ATOM     96  C   UNL A   1      39.989  36.070  38.265  1.00  0.00     0.059 A 
ATOM     97  F   UNL A   1      40.878  35.646  36.137  1.00  0.00    -0.206 F 
ATOM     98  C   UNL A   1      39.239  35.637  39.357  1.00  0.00     0.060 A 
BRANCH  98  99
ATOM     99  S   UNL A   1      39.002  36.715  40.785  1.00  0.00     0.124 S 
ATOM    100  O   UNL A   1      40.366  36.842  41.287  1.00  0.00    -0.237 OA
ATOM    101  O   UNL A   1      38.434  37.915  40.180  1.00  0.00    -0.237 OA
ATOM    102  O   UNL A   1      38.089  35.957  41.635  1.00  0.00    -0.744 OA
ENDBRANCH  98  99
ENDBRANCH  66  91
ENDBRANCH  40  41
ENDBRANCH  32  35
ENDBRANCH  30  31
ENDBRANCH  29  30
ENDBRANCH  28  29
ENDBRANCH   1  28
TORSDOF 22
ENDMDL
MODEL 2
REMARK VINA RESULT:     -10.9      4.594     10.084
REMARK SMILES CC[NH2+][C@]1(C(=O)NCCCCCCNC(=O)c2ccc(-c3c4nc(c(-c5c(F)cc(S(=O)(=O)[O-])cc5F)c5ccc([nH]5)c(-c5c(F)cc(S(=O)(=O)[O-])cc5F)c5nc(c(-c6c(F)cc(S(=O)(=O)[O-])cc6F)c6ccc3[nH]6)C=C5)C=C4)cc2)CCC[C@H]1CCSc1ccc(Cl)cc1
REMARK SMILES IDX 10 1 9 2 8 3 7 4 5 5 6 6 4 8 83 9 86 10 84 11 85 12 3 13
REMARK SMILES IDX 2 16 1 17 87 18 88 19 89 20 90 21 91 22 96 23 92 24 95 25
REMARK SMILES IDX 93 26 94 27 11 28 12 29 13 30 14 31 15 32 16 34 17 35 18 36
REMARK SMILES IDX 82 37 19 38 81 39 20 40 21 41 22 42 75 43 23 44 80 45 74 46
REMARK SMILES IDX 76 47 24 48 79 49 73 50 72 51 25 53 59 54 38 55 58 56 39 57
REMARK SMILES IDX 42 58 57 59 77 60 40 61 41 62 56 64 78 65 43 66 26 67 27 68
REMARK SMILES IDX 36 69 28 70 29 71 35 72 37 73 30 74 31 75 32 76 33 77 34 78
REMARK SMILES IDX 60 79 61 80 70 81 62 82 63 83 69 84 71 85 64 86 65 87 66 88
REMARK SMILES IDX 67 89 68 90 44 91 45 92 54 93 46 94 47 95 53 96 55 97 48 98
REMARK SMILES IDX 49 99 50 100 51 101 52 102
REMARK H PARENT 7 7 3 14 3 15 14 33 76 52 42 63
REMARK Flexibility Score: inf
ROOT
ATOM      1  C   UNL A   1      30.715  25.867  26.483  1.00  0.00     0.002 C 
ENDROOT
BRANCH   1   2
ATOM      2  C   UNL A   1      30.653  24.475  25.854  1.00  0.00     0.021 C 
BRANCH   2   3
ATOM      3  C   UNL A   1      31.274  23.387  26.728  1.00  0.00     0.116 C 
BRANCH   3   4
ATOM      4  N   UNL A   1      32.702  23.574  26.831  1.00  0.00    -0.351 N 
ATOM      5  C   UNL A   1      33.722  22.981  26.171  1.00  0.00     0.281 C 
ATOM      6  O   UNL A   1      34.789  22.933  26.804  1.00  0.00    -0.268 OA
ATOM      7  H   UNL A   1      32.979  24.246  27.495  1.00  0.00     0.163 HD
BRANCH   5   8
ATOM      8  C   UNL A   1      33.634  22.347  24.748  1.00  0.00     0.178 C 
ATOM      9  C   UNL A   1      32.293  21.878  24.172  1.00  0.00     0.079 C 
ATOM     10  C   UNL A   1      34.077  23.383  23.640  1.00  0.00     0.061 C 
ATOM     11  C   UNL A   1      32.560  21.683  22.688  1.00  0.00     0.008 C 
ATOM     12  C   UNL A   1      33.392  22.901  22.328  1.00  0.00     0.011 C 
BRANCH   8  13
ATOM     13  N   UNL A   1      34.628  21.217  24.701  1.00  0.00    -0.334 N 
ATOM     14  H   UNL A   1      34.673  20.795  25.629  1.00  0.00     0.347 HD
ATOM     15  H   UNL A   1      34.298  20.570  23.985  1.00  0.00     0.347 HD
BRANCH  13  16
ATOM     16  C   UNL A   1      35.983  21.615  24.313  1.00  0.00     0.257 C 
ATOM     17  C   UNL A   1      37.009  20.755  25.036  1.00  0.00     0.071 C 
ENDBRANCH  13  16
ENDBRANCH   8  13
BRANCH  10  18
ATOM     18  C   UNL A   1      33.746  24.883  23.865  1.00  0.00     0.022 C 
BRANCH  18  19
ATOM     19  C   UNL A   1      33.179  25.710  22.694  1.00  0.00     0.075 C 
BRANCH  19  20
ATOM     20  S   UNL A   1      33.212  27.539  22.871  1.00  0.00    -0.126 SA
BRANCH  20  21
ATOM     21  C   UNL A   1      31.481  27.956  22.831  1.00  0.00     0.007 A 
ATOM     22  C   UNL A   1      31.126  29.251  22.432  1.00  0.00     0.016 A 
ATOM     23  C   UNL A   1      30.481  27.066  23.234  1.00  0.00     0.016 A 
ATOM     24  C   UNL A   1      29.798  29.679  22.518  1.00  0.00     0.021 A 
ATOM     25  C   UNL A   1      29.148  27.486  23.299  1.00  0.00     0.021 A 
ATOM     26  C   UNL A   1      28.816  28.797  22.958  1.00  0.00     0.041 A 
ATOM     27  Cl  UNL A   1      27.190  29.339  23.109  1.00  0.00    -0.084 Cl
ENDBRANCH  20  21
ENDBRANCH  19  20
ENDBRANCH  18  19
ENDBRANCH  10  18
ENDBRANCH   5   8
ENDBRANCH   3   4
ENDBRANCH   2   3
ENDBRANCH   1   2
BRANCH   1  28
ATOM     28  C   UNL A   1      32.096  26.529  26.441  1.00  0.00     0.002 C 
BRANCH  28  29
ATOM     29  C   UNL A   1      32.223  27.801  27.282  1.00  0.00     0.021 C 
BRANCH  29  30
ATOM     30  C   UNL A   1      33.606  28.442  27.229  1.00  0.00     0.116 C 
BRANCH  30  31
ATOM     31  N   UNL A   1      33.524  29.881  27.423  1.00  0.00    -0.352 N 
ATOM     32  C   UNL A   1      34.401  30.706  28.079  1.00  0.00     0.251 C 
ATOM     33  H   UNL A   1      32.735  30.321  27.032  1.00  0.00     0.163 HD
ATOM     34  O   UNL A   1      34.051  31.822  28.445  1.00  0.00    -0.269 OA
BRANCH  32  35
ATOM     35  C   UNL A   1      35.772  30.224  28.334  1.00  0.00     0.039 A 
ATOM     36  C   UNL A   1      36.710  30.242  27.301  1.00  0.00     0.014 A 
ATOM     37  C   UNL A   1      36.119  29.764  29.608  1.00  0.00     0.014 A 
ATOM     38  C   UNL A   1      38.021  29.845  27.562  1.00  0.00     0.010 A 
ATOM     39  C   UNL A   1      37.440  29.433  29.883  1.00  0.00     0.010 A 
ATOM     40  C   UNL A   1      38.400  29.465  28.861  1.00  0.00    -0.014 A 
BRANCH  40  41
ATOM     41  C   UNL A   1      39.798  29.096  29.183  1.00  0.00     0.031 A 
ATOM     42  C   UNL A   1      40.723  30.120  29.778  1.00  0.00     0.074 A 
ATOM     43  C   UNL A   1      40.251  27.869  28.859  1.00  0.00     0.049 A 
ATOM     44  N   UNL A   1      42.002  30.028  30.031  1.00  0.00    -0.248 NA
ATOM     45  C   UNL A   1      40.138  31.431  30.103  1.00  0.00     0.031 C 
ATOM     46  C   UNL A   1      39.453  26.811  28.234  1.00  0.00     0.029 A 
ATOM     47  N   UNL A   1      41.496  27.310  28.992  1.00  0.00    -0.354 N 
ATOM     48  C   UNL A   1      42.378  31.269  30.531  1.00  0.00     0.074 A 
ATOM     49  C   UNL A   1      41.202  32.113  30.500  1.00  0.00     0.031 C 
ATOM     50  C   UNL A   1      40.226  25.729  28.048  1.00  0.00     0.029 A 
ATOM     51  C   UNL A   1      41.580  26.028  28.504  1.00  0.00     0.049 A 
ATOM     52  H   UNL A   1      42.258  27.783  29.398  1.00  0.00     0.167 HD
ATOM     53  C   UNL A   1      43.588  31.661  30.994  1.00  0.00     0.037 A 
ATOM     54  C   UNL A   1      42.634  25.194  28.419  1.00  0.00     0.037 A 
ATOM     55  C   UNL A   1      44.744  30.804  31.042  1.00  0.00     0.049 A 
ATOM     56  C   UNL A   1      43.971  25.656  28.930  1.00  0.00     0.074 A 
ATOM     57  C   UNL A   1      45.998  31.079  31.557  1.00  0.00     0.029 A 
ATOM     58  N   UNL A   1      44.787  29.506  30.555  1.00  0.00    -0.354 N 
ATOM     59  N   UNL A   1      44.294  26.809  29.465  1.00  0.00    -0.248 NA
ATOM     60  C   UNL A   1      45.087  24.705  28.828  1.00  0.00     0.031 C 
ATOM     61  C   UNL A   1      46.812  29.962  31.340  1.00  0.00     0.029 A 
ATOM     62  C   UNL A   1      46.053  28.976  30.730  1.00  0.00     0.049 A 
ATOM     63  H   UNL A   1      44.028  29.031  30.144  1.00  0.00     0.167 HD
ATOM     64  C   UNL A   1      45.646  26.719  29.776  1.00  0.00     0.074 A 
ATOM     65  C   UNL A   1      46.075  25.391  29.387  1.00  0.00     0.031 C 
ATOM     66  C   UNL A   1      46.460  27.651  30.331  1.00  0.00     0.037 A 
BRANCH  53  67
ATOM     67  C   UNL A   1      43.721  33.075  31.489  1.00  0.00     0.058 A 
ATOM     68  C   UNL A   1      44.116  34.119  30.637  1.00  0.00     0.135 A 
ATOM     69  C   UNL A   1      43.423  33.396  32.823  1.00  0.00     0.135 A 
ATOM     70  F   UNL A   1      44.429  33.865  29.356  1.00  0.00    -0.206 F 
ATOM     71  C   UNL A   1      44.238  35.426  31.096  1.00  0.00     0.059 A 
ATOM     72  C   UNL A   1      43.513  34.702  33.297  1.00  0.00     0.059 A 
ATOM     73  F   UNL A   1      43.044  32.436  33.682  1.00  0.00    -0.206 F 
ATOM     74  C   UNL A   1      43.936  35.708  32.429  1.00  0.00     0.060 A 
BRANCH  74  75
ATOM     75  S   UNL A   1      44.095  37.410  33.008  1.00  0.00     0.124 S 
ATOM     76  O   UNL A   1      43.011  37.488  33.984  1.00  0.00    -0.237 OA
ATOM     77  O   UNL A   1      45.446  37.427  33.560  1.00  0.00    -0.237 OA
ATOM     78  O   UNL A   1      43.906  38.201  31.796  1.00  0.00    -0.744 OA
ENDBRANCH  74  75
ENDBRANCH  53  67
BRANCH  54  79
ATOM     79  C   UNL A   1      42.462  23.837  27.836  1.00  0.00     0.058 A 
ATOM     80  C   UNL A   1      42.350  22.709  28.660  1.00  0.00     0.135 A 
ATOM     81  C   UNL A   1      42.382  23.645  26.448  1.00  0.00     0.135 A 
ATOM     82  F   UNL A   1      42.425  22.841  29.993  1.00  0.00    -0.206 F 
ATOM     83  C   UNL A   1      42.179  21.434  28.130  1.00  0.00     0.059 A 
ATOM     84  C   UNL A   1      42.188  22.384  25.895  1.00  0.00     0.059 A 
ATOM     85  F   UNL A   1      42.466  24.696  25.616  1.00  0.00    -0.206 F 
ATOM     86  C   UNL A   1      42.096  21.282  26.745  1.00  0.00     0.060 A 
BRANCH  86  87
ATOM     87  S   UNL A   1      41.817  19.631  26.069  1.00  0.00     0.124 S 
ATOM     88  O   UNL A   1      42.218  18.785  27.187  1.00  0.00    -0.237 OA
ATOM     89  O   UNL A   1      40.388  19.659  25.768  1.00  0.00    -0.237 OA
ATOM     90  O   UNL A   1      42.693  19.594  24.902  1.00  0.00    -0.744 OA
ENDBRANCH  86  87
ENDBRANCH  54  79
BRANCH  66  91
ATOM     91  C   UNL A   1      47.893  27.265  30.559  1.00  0.00     0.058 A 
ATOM     92  C   UNL A   1      48.859  27.409  29.551  1.00  0.00     0.135 A 
ATOM     93  C   UNL A   1      48.316  26.802  31.815  1.00  0.00     0.135 A 
ATOM     94  F   UNL A   1      48.504  27.839  28.331  1.00  0.00    -0.206 F 
ATOM     95  C   UNL A   1      50.195  27.093  29.777  1.00  0.00     0.059 A 
ATOM     96  C   UNL A   1      49.651  26.505  32.071  1.00  0.00     0.059 A 
ATOM     97  F   UNL A   1      47.433  26.654  32.814  1.00  0.00    -0.206 F 
ATOM     98  C   UNL A   1      50.581  26.645  31.042  1.00  0.00     0.060 A 
BRANCH  98  99
ATOM     99  S   UNL A   1      52.325  26.280  31.333  1.00  0.00     0.124 S 
ATOM    100  O   UNL A   1      52.657  27.247  32.374  1.00  0.00    -0.237 OA
ATOM    101  O   UNL A   1      52.287  24.883  31.754  1.00  0.00    -0.237 OA
ATOM    102  O   UNL A   1      52.943  26.520  30.033  1.00  0.00    -0.744 OA
ENDBRANCH  98  99
ENDBRANCH  66  91
ENDBRANCH  40  41
ENDBRANCH  32  35
ENDBRANCH  30  31
ENDBRANCH  29  30
ENDBRANCH  28  29
ENDBRANCH   1  28
TORSDOF 22
ENDMDL
MODEL 3
REMARK VINA RESULT:     -10.6      1.169      8.243
REMARK SMILES CC[NH2+][C@]1(C(=O)NCCCCCCNC(=O)c2ccc(-c3c4nc(c(-c5c(F)cc(S(=O)(=O)[O-])cc5F)c5ccc([nH]5)c(-c5c(F)cc(S(=O)(=O)[O-])cc5F)c5nc(c(-c6c(F)cc(S(=O)(=O)[O-])cc6F)c6ccc3[nH]6)C=C5)C=C4)cc2)CCC[C@H]1CCSc1ccc(Cl)cc1
REMARK SMILES IDX 10 1 9 2 8 3 7 4 5 5 6 6 4 8 83 9 86 10 84 11 85 12 3 13
REMARK SMILES IDX 2 16 1 17 87 18 88 19 89 20 90 21 91 22 96 23 92 24 95 25
REMARK SMILES IDX 93 26 94 27 11 28 12 29 13 30 14 31 15 32 16 34 17 35 18 36
REMARK SMILES IDX 82 37 19 38 81 39 20 40 21 41 22 42 75 43 23 44 80 45 74 46
REMARK SMILES IDX 76 47 24 48 79 49 73 50 72 51 25 53 59 54 38 55 58 56 39 57
REMARK SMILES IDX 42 58 57 59 77 60 40 61 41 62 56 64 78 65 43 66 26 67 27 68
REMARK SMILES IDX 36 69 28 70 29 71 35 72 37 73 30 74 31 75 32 76 33 77 34 78
REMARK SMILES IDX 60 79 61 80 70 81 62 82 63 83 69 84 71 85 64 86 65 87 66 88
REMARK SMILES IDX 67 89 68 90 44 91 45 92 54 93 46 94 47 95 53 96 55 97 48 98
REMARK SMILES IDX 49 99 50 100 51 101 52 102
REMARK H PARENT 7 7 3 14 3 15 14 33 76 52 42 63
REMARK Flexibility Score: inf
ROOT
ATOM      1  C   UNL A   1      39.744  21.497  26.165  1.00  0.00     0.002 C 
ENDROOT
BRANCH   1   2
ATOM      2  C   UNL A   1      38.318  21.598  25.622  1.00  0.00     0.021 C 
BRANCH   2   3
ATOM      3  C   UNL A   1      37.759  23.019  25.652  1.00  0.00     0.116 C 
BRANCH   3   4
ATOM      4  N   UNL A   1      37.131  23.343  24.393  1.00  0.00    -0.351 N 
ATOM      5  C   UNL A   1      35.851  23.203  23.981  1.00  0.00     0.281 C 
ATOM      6  O   UNL A   1      35.715  23.057  22.756  1.00  0.00    -0.268 OA
ATOM      7  H   UNL A   1      37.737  23.731  23.721  1.00  0.00     0.163 HD
BRANCH   5   8
ATOM      8  C   UNL A   1      34.598  23.175  24.910  1.00  0.00     0.178 C 
ATOM      9  C   UNL A   1      34.327  24.307  25.908  1.00  0.00     0.079 C 
ATOM     10  C   UNL A   1      33.265  23.213  24.063  1.00  0.00     0.061 C 
ATOM     11  C   UNL A   1      32.881  24.106  26.332  1.00  0.00     0.008 C 
ATOM     12  C   UNL A   1      32.182  23.786  25.023  1.00  0.00     0.011 C 
BRANCH   8  13
ATOM     13  N   UNL A   1      34.609  21.854  25.634  1.00  0.00    -0.334 N 
ATOM     14  H   UNL A   1      35.461  21.806  26.194  1.00  0.00     0.347 HD
ATOM     15  H   UNL A   1      33.759  21.825  26.197  1.00  0.00     0.347 HD
BRANCH  13  16
ATOM     16  C   UNL A   1      34.570  20.681  24.758  1.00  0.00     0.257 C 
ATOM     17  C   UNL A   1      33.422  19.766  25.158  1.00  0.00     0.071 C 
ENDBRANCH  13  16
ENDBRANCH   8  13
BRANCH  10  18
ATOM     18  C   UNL A   1      33.258  24.031  22.743  1.00  0.00     0.022 C 
BRANCH  18  19
ATOM     19  C   UNL A   1      32.159  25.089  22.521  1.00  0.00     0.075 C 
BRANCH  19  20
ATOM     20  S   UNL A   1      32.709  26.773  22.029  1.00  0.00    -0.126 SA
BRANCH  20  21
ATOM     21  C   UNL A   1      32.653  27.657  23.573  1.00  0.00     0.007 A 
ATOM     22  C   UNL A   1      31.551  28.486  23.817  1.00  0.00     0.016 A 
ATOM     23  C   UNL A   1      33.686  27.599  24.514  1.00  0.00     0.016 A 
ATOM     24  C   UNL A   1      31.521  29.312  24.944  1.00  0.00     0.021 A 
ATOM     25  C   UNL A   1      33.647  28.409  25.654  1.00  0.00     0.021 A 
ATOM     26  C   UNL A   1      32.574  29.275  25.854  1.00  0.00     0.041 A 
ATOM     27  Cl  UNL A   1      32.560  30.327  27.216  1.00  0.00    -0.084 Cl
ENDBRANCH  20  21
ENDBRANCH  19  20
ENDBRANCH  18  19
ENDBRANCH  10  18
ENDBRANCH   5   8
ENDBRANCH   3   4
ENDBRANCH   2   3
ENDBRANCH   1   2
BRANCH   1  28
ATOM     28  C   UNL A   1      40.200  22.699  26.998  1.00  0.00     0.002 C 
BRANCH  28  29
ATOM     29  C   UNL A   1      41.477  22.469  27.810  1.00  0.00     0.021 C 
BRANCH  29  30
ATOM     30  C   UNL A   1      42.573  23.495  27.541  1.00  0.00     0.116 C 
BRANCH  30  31
ATOM     31  N   UNL A   1      42.248  24.315  26.384  1.00  0.00    -0.352 N 
ATOM     32  C   UNL A   1      41.582  25.513  26.347  1.00  0.00     0.251 C 
ATOM     33  H   UNL A   1      42.547  23.965  25.514  1.00  0.00     0.163 HD
ATOM     34  O   UNL A   1      41.098  25.924  25.299  1.00  0.00    -0.269 OA
BRANCH  32  35
ATOM     35  C   UNL A   1      41.462  26.297  27.591  1.00  0.00     0.039 A 
ATOM     36  C   UNL A   1      42.430  27.254  27.898  1.00  0.00     0.014 A 
ATOM     37  C   UNL A   1      40.376  26.079  28.445  1.00  0.00     0.014 A 
ATOM     38  C   UNL A   1      42.280  28.036  29.043  1.00  0.00     0.010 A 
ATOM     39  C   UNL A   1      40.193  26.902  29.548  1.00  0.00     0.010 A 
ATOM     40  C   UNL A   1      41.146  27.884  29.859  1.00  0.00    -0.014 A 
BRANCH  40  41
ATOM     41  C   UNL A   1      40.928  28.740  31.049  1.00  0.00     0.031 A 
ATOM     42  C   UNL A   1      39.862  29.799  31.021  1.00  0.00     0.074 A 
ATOM     43  C   UNL A   1      41.746  28.618  32.112  1.00  0.00     0.049 A 
ATOM     44  N   UNL A   1      39.586  30.714  31.912  1.00  0.00    -0.248 NA
ATOM     45  C   UNL A   1      39.013  29.853  29.820  1.00  0.00     0.031 C 
ATOM     46  C   UNL A   1      42.845  27.656  32.227  1.00  0.00     0.029 A 
ATOM     47  N   UNL A   1      41.794  29.318  33.290  1.00  0.00    -0.354 N 
ATOM     48  C   UNL A   1      38.544  31.461  31.376  1.00  0.00     0.074 A 
ATOM     49  C   UNL A   1      38.269  30.923  30.061  1.00  0.00     0.031 C 
ATOM     50  C   UNL A   1      43.451  27.820  33.414  1.00  0.00     0.029 A 
ATOM     51  C   UNL A   1      42.810  28.921  34.126  1.00  0.00     0.049 A 
ATOM     52  H   UNL A   1      41.161  30.037  33.515  1.00  0.00     0.167 HD
ATOM     53  C   UNL A   1      37.864  32.487  31.938  1.00  0.00     0.037 A 
ATOM     54  C   UNL A   1      43.192  29.403  35.325  1.00  0.00     0.037 A 
ATOM     55  C   UNL A   1      38.131  32.998  33.258  1.00  0.00     0.049 A 
ATOM     56  C   UNL A   1      42.428  30.551  35.925  1.00  0.00     0.074 A 
ATOM     57  C   UNL A   1      37.456  33.988  33.950  1.00  0.00     0.029 A 
ATOM     58  N   UNL A   1      39.157  32.560  34.083  1.00  0.00    -0.354 N 
ATOM     59  N   UNL A   1      41.400  31.201  35.434  1.00  0.00    -0.248 NA
ATOM     60  C   UNL A   1      42.874  31.031  37.240  1.00  0.00     0.031 C 
ATOM     61  C   UNL A   1      38.103  34.178  35.177  1.00  0.00     0.029 A 
ATOM     62  C   UNL A   1      39.152  33.278  35.266  1.00  0.00     0.049 A 
ATOM     63  H   UNL A   1      39.795  31.844  33.859  1.00  0.00     0.167 HD
ATOM     64  C   UNL A   1      41.066  32.159  36.386  1.00  0.00     0.074 A 
ATOM     65  C   UNL A   1      41.990  31.989  37.489  1.00  0.00     0.031 C 
ATOM     66  C   UNL A   1      40.086  33.094  36.350  1.00  0.00     0.037 A 
BRANCH  53  67
ATOM     67  C   UNL A   1      36.765  33.123  31.132  1.00  0.00     0.058 A 
ATOM     68  C   UNL A   1      37.043  34.004  30.074  1.00  0.00     0.135 A 
ATOM     69  C   UNL A   1      35.419  32.824  31.399  1.00  0.00     0.135 A 
ATOM     70  F   UNL A   1      38.312  34.336  29.787  1.00  0.00    -0.206 F 
ATOM     71  C   UNL A   1      36.026  34.590  29.329  1.00  0.00     0.059 A 
ATOM     72  C   UNL A   1      34.386  33.379  30.648  1.00  0.00     0.059 A 
ATOM     73  F   UNL A   1      35.097  31.990  32.399  1.00  0.00    -0.206 F 
ATOM     74  C   UNL A   1      34.699  34.272  29.624  1.00  0.00     0.060 A 
BRANCH  74  75
ATOM     75  S   UNL A   1      33.391  35.037  28.644  1.00  0.00     0.124 S 
ATOM     76  O   UNL A   1      34.159  35.926  27.777  1.00  0.00    -0.237 OA
ATOM     77  O   UNL A   1      32.779  33.886  27.988  1.00  0.00    -0.237 OA
ATOM     78  O   UNL A   1      32.560  35.701  29.644  1.00  0.00    -0.744 OA
ENDBRANCH  74  75
ENDBRANCH  53  67
BRANCH  54  79
ATOM     79  C   UNL A   1      44.345  28.792  36.037  1.00  0.00     0.058 A 
ATOM     80  C   UNL A   1      45.641  29.301  35.877  1.00  0.00     0.135 A 
ATOM     81  C   UNL A   1      44.171  27.705  36.909  1.00  0.00     0.135 A 
ATOM     82  F   UNL A   1      45.858  30.336  35.052  1.00  0.00    -0.206 F 
ATOM     83  C   UNL A   1      46.728  28.747  36.544  1.00  0.00     0.059 A 
ATOM     84  C   UNL A   1      45.239  27.149  37.605  1.00  0.00     0.059 A 
ATOM     85  F   UNL A   1      42.947  27.192  37.110  1.00  0.00    -0.206 F 
ATOM     86  C   UNL A   1      46.516  27.672  37.409  1.00  0.00     0.060 A 
BRANCH  86  87
ATOM     87  S   UNL A   1      47.926  26.996  38.315  1.00  0.00     0.124 S 
ATOM     88  O   UNL A   1      49.047  27.567  37.577  1.00  0.00    -0.237 OA
ATOM     89  O   UNL A   1      47.709  27.524  39.658  1.00  0.00    -0.237 OA
ATOM     90  O   UNL A   1      47.749  25.553  38.181  1.00  0.00    -0.744 OA
ENDBRANCH  86  87
ENDBRANCH  54  79
BRANCH  66  91
ATOM     91  C   UNL A   1      39.956  34.002  37.540  1.00  0.00     0.058 A 
ATOM     92  C   UNL A   1      40.572  35.262  37.571  1.00  0.00     0.135 A 
ATOM     93  C   UNL A   1      39.160  33.631  38.636  1.00  0.00     0.135 A 
ATOM     94  F   UNL A   1      41.350  35.659  36.552  1.00  0.00    -0.206 F 
ATOM     95  C   UNL A   1      40.415  36.120  38.655  1.00  0.00     0.059 A 
ATOM     96  C   UNL A   1      38.968  34.484  39.719  1.00  0.00     0.059 A 
ATOM     97  F   UNL A   1      38.543  32.439  38.652  1.00  0.00    -0.206 F 
ATOM     98  C   UNL A   1      39.608  35.722  39.723  1.00  0.00     0.060 A 
BRANCH  98  99
ATOM     99  S   UNL A   1      39.378  36.863  41.103  1.00  0.00     0.124 S 
ATOM    100  O   UNL A   1      40.755  37.098  41.522  1.00  0.00    -0.237 OA
ATOM    101  O   UNL A   1      38.707  37.993  40.466  1.00  0.00    -0.237 OA
ATOM    102  O   UNL A   1      38.557  36.102  42.039  1.00  0.00    -0.744 OA
ENDBRANCH  98  99
ENDBRANCH  66  91
ENDBRANCH  40  41
ENDBRANCH  32  35
ENDBRANCH  30  31
ENDBRANCH  29  30
ENDBRANCH  28  29
ENDBRANCH   1  28
TORSDOF 22
ENDMDL
