MODEL 1
REMARK VINA RESULT:     -12.3      0.000      0.000
REMARK SMILES Cc1ccc(C)c(S(=O)(=O)[C@H](C)C(=O)NCCCCCCNC(=O)c2ccc(-c3c4nc(c(-c5c(F)cc(S(=O)(=O)[O-])cc5F)c5ccc([nH]5)c(-c5c(F)cc(S(=O)(=O)[O-])cc5F)c5nc(c(-c6c(F)cc(S(=O)(=O)[O-])cc6F)c6ccc3[nH]6)C=C5)C=C4)cc2)c1
REMARK SMILES IDX 19 1 18 2 17 3 16 4 15 5 13 6 14 7 11 9 12 10 8 11 9 12
REMARK SMILES IDX 10 13 7 14 1 15 2 16 3 17 91 18 4 19 5 20 6 21 20 22 21 23
REMARK SMILES IDX 22 24 23 25 24 27 25 28 26 29 90 30 27 31 89 32 28 33 29 34
REMARK SMILES IDX 30 35 83 36 31 37 88 38 82 39 84 40 32 41 87 42 81 43 80 44
REMARK SMILES IDX 33 46 67 47 46 48 66 49 47 50 50 51 65 52 85 53 48 54 49 55
REMARK SMILES IDX 64 57 86 58 51 59 34 60 35 61 44 62 36 63 37 64 43 65 45 66
REMARK SMILES IDX 38 67 39 68 40 69 41 70 42 71 68 72 69 73 78 74 70 75 71 76
REMARK SMILES IDX 77 77 79 78 72 79 73 80 74 81 75 82 76 83 52 84 53 85 62 86
REMARK SMILES IDX 54 87 55 88 61 89 63 90 56 91 57 92 58 93 59 94 60 95
REMARK H PARENT 15 8 22 26 84 45 50 56
REMARK Flexibility Score: inf
ROOT
ATOM      1  C   UNL A   1      35.335  22.005  25.218  1.00  0.00     0.002 C 
ENDROOT
BRANCH   1   2
ATOM      2  C   UNL A   1      34.088  22.030  24.323  1.00  0.00     0.002 C 
BRANCH   2   3
ATOM      3  C   UNL A   1      33.950  23.164  23.304  1.00  0.00     0.021 C 
BRANCH   3   4
ATOM      4  C   UNL A   1      32.536  23.684  23.076  1.00  0.00     0.116 C 
BRANCH   4   5
ATOM      5  N   UNL A   1      32.373  24.451  21.851  1.00  0.00    -0.355 N 
ATOM      6  C   UNL A   1      32.823  25.710  21.563  1.00  0.00     0.238 C 
ATOM      7  O   UNL A   1      32.936  26.012  20.369  1.00  0.00    -0.274 OA
ATOM      8  H   UNL A   1      31.870  24.005  21.133  1.00  0.00     0.163 HD
BRANCH   6   9
ATOM      9  C   UNL A   1      33.133  26.742  22.623  1.00  0.00     0.199 C 
ATOM     10  C   UNL A   1      34.151  27.793  22.190  1.00  0.00     0.036 C 
BRANCH   9  11
ATOM     11  S   UNL A   1      31.648  27.406  23.325  1.00  0.00     0.190 S 
ATOM     12  O   UNL A   1      30.789  26.316  23.758  1.00  0.00    -0.223 OA
ATOM     13  O   UNL A   1      31.130  28.396  22.395  1.00  0.00    -0.223 OA
BRANCH  11  14
ATOM     14  C   UNL A   1      31.992  28.339  24.818  1.00  0.00     0.071 A 
ATOM     15  C   UNL A   1      31.231  31.753  26.347  1.00  0.00     0.044 C 
ATOM     16  C   UNL A   1      31.752  30.357  26.164  1.00  0.00    -0.050 A 
ATOM     17  C   UNL A   1      32.427  29.730  27.213  1.00  0.00     0.004 A 
ATOM     18  C   UNL A   1      31.547  29.662  24.963  1.00  0.00     0.024 A 
ATOM     19  C   UNL A   1      32.896  28.426  27.066  1.00  0.00     0.005 A 
ATOM     20  C   UNL A   1      32.680  27.705  25.879  1.00  0.00    -0.032 A 
ATOM     21  C   UNL A   1      33.234  26.305  25.835  1.00  0.00     0.046 C 
ENDBRANCH  11  14
ENDBRANCH   9  11
ENDBRANCH   6   9
ENDBRANCH   4   5
ENDBRANCH   3   4
ENDBRANCH   2   3
ENDBRANCH   1   2
BRANCH   1  22
ATOM     22  C   UNL A   1      35.945  23.312  25.747  1.00  0.00     0.021 C 
BRANCH  22  23
ATOM     23  C   UNL A   1      37.448  23.549  25.603  1.00  0.00     0.116 C 
BRANCH  23  24
ATOM     24  N   UNL A   1      38.280  22.599  26.343  1.00  0.00    -0.352 N 
ATOM     25  C   UNL A   1      39.486  22.672  27.032  1.00  0.00     0.251 C 
ATOM     26  H   UNL A   1      37.894  21.693  26.356  1.00  0.00     0.163 HD
ATOM     27  O   UNL A   1      40.053  21.637  27.314  1.00  0.00    -0.269 OA
BRANCH  25  28
ATOM     28  C   UNL A   1      40.094  23.972  27.425  1.00  0.00     0.039 A 
ATOM     29  C   UNL A   1      41.386  24.081  27.947  1.00  0.00     0.014 A 
ATOM     30  C   UNL A   1      39.338  25.122  27.375  1.00  0.00     0.014 A 
ATOM     31  C   UNL A   1      41.766  25.299  28.531  1.00  0.00     0.010 A 
ATOM     32  C   UNL A   1      39.873  26.361  27.506  1.00  0.00     0.010 A 
ATOM     33  C   UNL A   1      40.941  26.418  28.361  1.00  0.00    -0.014 A 
BRANCH  33  34
ATOM     34  C   UNL A   1      41.074  27.678  29.075  1.00  0.00     0.031 A 
ATOM     35  C   UNL A   1      42.150  28.527  28.549  1.00  0.00     0.074 A 
ATOM     36  C   UNL A   1      40.097  28.239  29.831  1.00  0.00     0.049 A 
ATOM     37  N   UNL A   1      43.331  28.688  29.037  1.00  0.00    -0.248 NA
ATOM     38  C   UNL A   1      41.950  29.133  27.221  1.00  0.00     0.031 C 
ATOM     39  C   UNL A   1      38.715  27.769  30.014  1.00  0.00     0.029 A 
ATOM     40  N   UNL A   1      40.105  29.424  30.516  1.00  0.00    -0.354 N 
ATOM     41  C   UNL A   1      43.911  29.640  28.213  1.00  0.00     0.074 A 
ATOM     42  C   UNL A   1      43.162  29.636  26.985  1.00  0.00     0.031 C 
ATOM     43  C   UNL A   1      37.980  28.740  30.605  1.00  0.00     0.029 A 
ATOM     44  C   UNL A   1      38.862  29.833  30.984  1.00  0.00     0.049 A 
ATOM     45  H   UNL A   1      40.928  29.945  30.665  1.00  0.00     0.167 HD
ATOM     46  C   UNL A   1      44.699  30.621  28.726  1.00  0.00     0.037 A 
ATOM     47  C   UNL A   1      38.568  30.990  31.632  1.00  0.00     0.037 A 
ATOM     48  C   UNL A   1      44.953  30.414  30.129  1.00  0.00     0.049 A 
ATOM     49  C   UNL A   1      39.825  31.522  32.217  1.00  0.00     0.074 A 
ATOM     50  C   UNL A   1      45.757  29.599  30.894  1.00  0.00     0.029 A 
ATOM     51  N   UNL A   1      43.983  30.922  30.955  1.00  0.00    -0.354 N 
ATOM     52  N   UNL A   1      40.521  30.902  33.132  1.00  0.00    -0.248 NA
ATOM     53  C   UNL A   1      40.513  32.631  31.562  1.00  0.00     0.031 C 
ATOM     54  C   UNL A   1      45.159  29.538  32.188  1.00  0.00     0.029 A 
ATOM     55  C   UNL A   1      44.007  30.320  32.187  1.00  0.00     0.049 A 
ATOM     56  H   UNL A   1      43.351  31.631  30.696  1.00  0.00     0.167 HD
ATOM     57  C   UNL A   1      41.829  31.259  32.870  1.00  0.00     0.074 A 
ATOM     58  C   UNL A   1      41.750  32.438  32.024  1.00  0.00     0.031 C 
ATOM     59  C   UNL A   1      42.852  30.378  33.060  1.00  0.00     0.037 A 
BRANCH  46  60
ATOM     60  C   UNL A   1      44.869  31.984  28.113  1.00  0.00     0.058 A 
ATOM     61  C   UNL A   1      46.120  32.331  27.573  1.00  0.00     0.135 A 
ATOM     62  C   UNL A   1      43.939  33.038  28.251  1.00  0.00     0.135 A 
ATOM     63  F   UNL A   1      47.080  31.405  27.430  1.00  0.00    -0.206 F 
ATOM     64  C   UNL A   1      46.436  33.643  27.225  1.00  0.00     0.059 A 
ATOM     65  C   UNL A   1      44.210  34.339  27.847  1.00  0.00     0.059 A 
ATOM     66  F   UNL A   1      42.766  32.877  28.877  1.00  0.00    -0.206 F 
ATOM     67  C   UNL A   1      45.475  34.640  27.372  1.00  0.00     0.060 A 
BRANCH  67  68
ATOM     68  S   UNL A   1      45.904  36.348  26.998  1.00  0.00     0.124 S 
ATOM     69  O   UNL A   1      46.657  36.191  25.760  1.00  0.00    -0.237 OA
ATOM     70  O   UNL A   1      44.592  36.975  26.876  1.00  0.00    -0.237 OA
ATOM     71  O   UNL A   1      46.680  36.759  28.164  1.00  0.00    -0.744 OA
ENDBRANCH  67  68
ENDBRANCH  46  60
BRANCH  47  72
ATOM     72  C   UNL A   1      37.308  31.778  31.616  1.00  0.00     0.058 A 
ATOM     73  C   UNL A   1      36.530  31.946  32.775  1.00  0.00     0.135 A 
ATOM     74  C   UNL A   1      36.991  32.612  30.526  1.00  0.00     0.135 A 
ATOM     75  F   UNL A   1      36.775  31.205  33.867  1.00  0.00    -0.206 F 
ATOM     76  C   UNL A   1      35.528  32.919  32.867  1.00  0.00     0.059 A 
ATOM     77  C   UNL A   1      35.993  33.583  30.590  1.00  0.00     0.059 A 
ATOM     78  F   UNL A   1      37.706  32.563  29.392  1.00  0.00    -0.206 F 
ATOM     79  C   UNL A   1      35.282  33.748  31.774  1.00  0.00     0.060 A 
BRANCH  79  80
ATOM     80  S   UNL A   1      34.110  35.115  31.947  1.00  0.00     0.124 S 
ATOM     81  O   UNL A   1      33.024  34.486  32.691  1.00  0.00    -0.237 OA
ATOM     82  O   UNL A   1      34.896  36.103  32.677  1.00  0.00    -0.237 OA
ATOM     83  O   UNL A   1      33.796  35.467  30.565  1.00  0.00    -0.744 OA
ENDBRANCH  79  80
ENDBRANCH  47  72
BRANCH  59  84
ATOM     84  C   UNL A   1      42.686  29.327  34.117  1.00  0.00     0.058 A 
ATOM     85  C   UNL A   1      42.838  29.539  35.496  1.00  0.00     0.135 A 
ATOM     86  C   UNL A   1      42.287  28.046  33.704  1.00  0.00     0.135 A 
ATOM     87  F   UNL A   1      43.148  30.753  35.976  1.00  0.00    -0.206 F 
ATOM     88  C   UNL A   1      42.632  28.513  36.421  1.00  0.00     0.059 A 
ATOM     89  C   UNL A   1      42.049  27.016  34.609  1.00  0.00     0.059 A 
ATOM     90  F   UNL A   1      42.089  27.791  32.400  1.00  0.00    -0.206 F 
ATOM     91  C   UNL A   1      42.236  27.255  35.968  1.00  0.00     0.060 A 
BRANCH  91  92
ATOM     92  S   UNL A   1      41.897  25.948  37.169  1.00  0.00     0.124 S 
ATOM     93  O   UNL A   1      40.544  26.275  37.604  1.00  0.00    -0.237 OA
ATOM     94  O   UNL A   1      42.030  24.736  36.365  1.00  0.00    -0.237 OA
ATOM     95  O   UNL A   1      42.939  26.132  38.176  1.00  0.00    -0.744 OA
ENDBRANCH  91  92
ENDBRANCH  59  84
ENDBRANCH  33  34
ENDBRANCH  25  28
ENDBRANCH  23  24
ENDBRANCH  22  23
ENDBRANCH   1  22
TORSDOF 18
ENDMDL
MODEL 2
REMARK VINA RESULT:     -12.2      1.368      2.117
REMARK SMILES Cc1ccc(C)c(S(=O)(=O)[C@H](C)C(=O)NCCCCCCNC(=O)c2ccc(-c3c4nc(c(-c5c(F)cc(S(=O)(=O)[O-])cc5F)c5ccc([nH]5)c(-c5c(F)cc(S(=O)(=O)[O-])cc5F)c5nc(c(-c6c(F)cc(S(=O)(=O)[O-])cc6F)c6ccc3[nH]6)C=C5)C=C4)cc2)c1
REMARK SMILES IDX 19 1 18 2 17 3 16 4 15 5 13 6 14 7 11 9 12 10 8 11 9 12
REMARK SMILES IDX 10 13 7 14 1 15 2 16 3 17 91 18 4 19 5 20 6 21 20 22 21 23
REMARK SMILES IDX 22 24 23 25 24 27 25 28 26 29 90 30 27 31 89 32 28 33 29 34
REMARK SMILES IDX 30 35 83 36 31 37 88 38 82 39 84 40 32 41 87 42 81 43 80 44
REMARK SMILES IDX 33 46 67 47 46 48 66 49 47 50 50 51 65 52 85 53 48 54 49 55
REMARK SMILES IDX 64 57 86 58 51 59 34 60 35 61 44 62 36 63 37 64 43 65 45 66
REMARK SMILES IDX 38 67 39 68 40 69 41 70 42 71 68 72 69 73 78 74 70 75 71 76
REMARK SMILES IDX 77 77 79 78 72 79 73 80 74 81 75 82 76 83 52 84 53 85 62 86
REMARK SMILES IDX 54 87 55 88 61 89 63 90 56 91 57 92 58 93 59 94 60 95
REMARK H PARENT 15 8 22 26 84 45 50 56
REMARK Flexibility Score: inf
ROOT
ATOM      1  C   UNL A   1      36.400  20.954  24.951  1.00  0.00     0.002 C 
ENDROOT
BRANCH   1   2
ATOM      2  C   UNL A   1      34.980  20.779  25.508  1.00  0.00     0.002 C 
BRANCH   2   3
ATOM      3  C   UNL A   1      33.977  19.962  24.691  1.00  0.00     0.021 C 
BRANCH   3   4
ATOM      4  C   UNL A   1      32.585  20.565  24.550  1.00  0.00     0.116 C 
BRANCH   4   5
ATOM      5  N   UNL A   1      32.140  21.317  25.713  1.00  0.00    -0.355 N 
ATOM      6  C   UNL A   1      31.590  22.568  25.764  1.00  0.00     0.238 C 
ATOM      7  O   UNL A   1      30.922  22.853  26.765  1.00  0.00    -0.274 OA
ATOM      8  H   UNL A   1      32.250  20.866  26.580  1.00  0.00     0.163 HD
BRANCH   6   9
ATOM      9  C   UNL A   1      31.803  23.611  24.691  1.00  0.00     0.199 C 
ATOM     10  C   UNL A   1      30.733  24.698  24.658  1.00  0.00     0.036 C 
BRANCH   9  11
ATOM     11  S   UNL A   1      33.467  24.222  24.713  1.00  0.00     0.190 S 
ATOM     12  O   UNL A   1      34.143  23.822  23.491  1.00  0.00    -0.223 OA
ATOM     13  O   UNL A   1      34.046  23.867  25.998  1.00  0.00    -0.223 OA
BRANCH  11  14
ATOM     14  C   UNL A   1      33.503  26.015  24.692  1.00  0.00     0.071 A 
ATOM     15  C   UNL A   1      34.098  28.934  27.080  1.00  0.00     0.044 C 
ATOM     16  C   UNL A   1      33.820  28.146  25.833  1.00  0.00    -0.050 A 
ATOM     17  C   UNL A   1      33.690  28.811  24.612  1.00  0.00     0.004 A 
ATOM     18  C   UNL A   1      33.713  26.748  25.870  1.00  0.00     0.024 A 
ATOM     19  C   UNL A   1      33.455  28.092  23.442  1.00  0.00     0.005 A 
ATOM     20  C   UNL A   1      33.369  26.689  23.456  1.00  0.00    -0.032 A 
ATOM     21  C   UNL A   1      33.109  26.020  22.131  1.00  0.00     0.046 C 
ENDBRANCH  11  14
ENDBRANCH   9  11
ENDBRANCH   6   9
ENDBRANCH   4   5
ENDBRANCH   3   4
ENDBRANCH   2   3
ENDBRANCH   1   2
BRANCH   1  22
ATOM     22  C   UNL A   1      36.903  22.338  24.513  1.00  0.00     0.021 C 
BRANCH  22  23
ATOM     23  C   UNL A   1      37.795  23.144  25.456  1.00  0.00     0.116 C 
BRANCH  23  24
ATOM     24  N   UNL A   1      38.572  22.329  26.391  1.00  0.00    -0.352 N 
ATOM     25  C   UNL A   1      39.682  22.544  27.200  1.00  0.00     0.251 C 
ATOM     26  H   UNL A   1      38.227  21.410  26.464  1.00  0.00     0.163 HD
ATOM     27  O   UNL A   1      40.256  21.580  27.662  1.00  0.00    -0.269 OA
BRANCH  25  28
ATOM     28  C   UNL A   1      40.183  23.912  27.508  1.00  0.00     0.039 A 
ATOM     29  C   UNL A   1      41.534  24.197  27.727  1.00  0.00     0.014 A 
ATOM     30  C   UNL A   1      39.286  24.942  27.687  1.00  0.00     0.014 A 
ATOM     31  C   UNL A   1      41.869  25.448  28.268  1.00  0.00     0.010 A 
ATOM     32  C   UNL A   1      39.664  26.243  27.754  1.00  0.00     0.010 A 
ATOM     33  C   UNL A   1      40.883  26.439  28.345  1.00  0.00    -0.014 A 
BRANCH  33  34
ATOM     34  C   UNL A   1      41.006  27.694  29.071  1.00  0.00     0.031 A 
ATOM     35  C   UNL A   1      42.067  28.561  28.546  1.00  0.00     0.074 A 
ATOM     36  C   UNL A   1      40.026  28.234  29.838  1.00  0.00     0.049 A 
ATOM     37  N   UNL A   1      43.249  28.732  29.028  1.00  0.00    -0.248 NA
ATOM     38  C   UNL A   1      41.851  29.177  27.225  1.00  0.00     0.031 C 
ATOM     39  C   UNL A   1      38.652  27.745  30.026  1.00  0.00     0.029 A 
ATOM     40  N   UNL A   1      40.025  29.413  30.535  1.00  0.00    -0.354 N 
ATOM     41  C   UNL A   1      43.812  29.699  28.210  1.00  0.00     0.074 A 
ATOM     42  C   UNL A   1      43.055  29.698  26.987  1.00  0.00     0.031 C 
ATOM     43  C   UNL A   1      37.909  28.702  30.632  1.00  0.00     0.029 A 
ATOM     44  C   UNL A   1      38.780  29.802  31.016  1.00  0.00     0.049 A 
ATOM     45  H   UNL A   1      40.842  29.942  30.684  1.00  0.00     0.167 HD
ATOM     46  C   UNL A   1      44.591  30.684  28.727  1.00  0.00     0.037 A 
ATOM     47  C   UNL A   1      38.476  30.948  31.678  1.00  0.00     0.037 A 
ATOM     48  C   UNL A   1      44.857  30.467  30.126  1.00  0.00     0.049 A 
ATOM     49  C   UNL A   1      39.730  31.491  32.259  1.00  0.00     0.074 A 
ATOM     50  C   UNL A   1      45.676  29.655  30.877  1.00  0.00     0.029 A 
ATOM     51  N   UNL A   1      43.887  30.955  30.963  1.00  0.00    -0.354 N 
ATOM     52  N   UNL A   1      40.440  30.870  33.163  1.00  0.00    -0.248 NA
ATOM     53  C   UNL A   1      40.400  32.615  31.610  1.00  0.00     0.031 C 
ATOM     54  C   UNL A   1      45.088  29.573  32.174  1.00  0.00     0.029 A 
ATOM     55  C   UNL A   1      43.926  30.341  32.189  1.00  0.00     0.049 A 
ATOM     56  H   UNL A   1      43.244  31.659  30.715  1.00  0.00     0.167 HD
ATOM     57  C   UNL A   1      41.741  31.245  32.896  1.00  0.00     0.074 A 
ATOM     58  C   UNL A   1      41.643  32.432  32.062  1.00  0.00     0.031 C 
ATOM     59  C   UNL A   1      42.776  30.376  33.071  1.00  0.00     0.037 A 
BRANCH  46  60
ATOM     60  C   UNL A   1      44.740  32.055  28.126  1.00  0.00     0.058 A 
ATOM     61  C   UNL A   1      45.957  32.395  27.510  1.00  0.00     0.135 A 
ATOM     62  C   UNL A   1      43.837  33.120  28.344  1.00  0.00     0.135 A 
ATOM     63  F   UNL A   1      46.891  31.458  27.288  1.00  0.00    -0.206 F 
ATOM     64  C   UNL A   1      46.269  33.708  27.163  1.00  0.00     0.059 A 
ATOM     65  C   UNL A   1      44.100  34.423  27.944  1.00  0.00     0.059 A 
ATOM     66  F   UNL A   1      42.706  32.964  29.044  1.00  0.00    -0.206 F 
ATOM     67  C   UNL A   1      45.335  34.716  27.390  1.00  0.00     0.060 A 
BRANCH  67  68
ATOM     68  S   UNL A   1      45.763  36.424  27.016  1.00  0.00     0.124 S 
ATOM     69  O   UNL A   1      44.447  37.009  26.792  1.00  0.00    -0.237 OA
ATOM     70  O   UNL A   1      46.452  36.841  28.234  1.00  0.00    -0.237 OA
ATOM     71  O   UNL A   1      46.613  36.302  25.835  1.00  0.00    -0.744 OA
ENDBRANCH  67  68
ENDBRANCH  46  60
BRANCH  47  72
ATOM     72  C   UNL A   1      37.207  31.721  31.677  1.00  0.00     0.058 A 
ATOM     73  C   UNL A   1      36.528  32.023  32.872  1.00  0.00     0.135 A 
ATOM     74  C   UNL A   1      36.782  32.415  30.528  1.00  0.00     0.135 A 
ATOM     75  F   UNL A   1      36.879  31.421  34.019  1.00  0.00    -0.206 F 
ATOM     76  C   UNL A   1      35.522  32.993  32.933  1.00  0.00     0.059 A 
ATOM     77  C   UNL A   1      35.777  33.381  30.562  1.00  0.00     0.059 A 
ATOM     78  F   UNL A   1      37.398  32.234  29.349  1.00  0.00    -0.206 F 
ATOM     79  C   UNL A   1      35.168  33.682  31.775  1.00  0.00     0.060 A 
BRANCH  79  80
ATOM     80  S   UNL A   1      33.993  35.053  31.885  1.00  0.00     0.124 S 
ATOM     81  O   UNL A   1      33.761  35.362  30.478  1.00  0.00    -0.237 OA
ATOM     82  O   UNL A   1      32.875  34.443  32.597  1.00  0.00    -0.237 OA
ATOM     83  O   UNL A   1      34.727  36.069  32.634  1.00  0.00    -0.744 OA
ENDBRANCH  79  80
ENDBRANCH  47  72
BRANCH  59  84
ATOM     84  C   UNL A   1      42.631  29.312  34.118  1.00  0.00     0.058 A 
ATOM     85  C   UNL A   1      42.865  29.495  35.490  1.00  0.00     0.135 A 
ATOM     86  C   UNL A   1      42.164  28.053  33.707  1.00  0.00     0.135 A 
ATOM     87  F   UNL A   1      43.244  30.687  35.972  1.00  0.00    -0.206 F 
ATOM     88  C   UNL A   1      42.673  28.460  36.408  1.00  0.00     0.059 A 
ATOM     89  C   UNL A   1      41.939  27.017  34.608  1.00  0.00     0.059 A 
ATOM     90  F   UNL A   1      41.886  27.830  32.412  1.00  0.00    -0.206 F 
ATOM     91  C   UNL A   1      42.208  27.224  35.957  1.00  0.00     0.060 A 
BRANCH  91  92
ATOM     92  S   UNL A   1      41.888  25.908  37.154  1.00  0.00     0.124 S 
ATOM     93  O   UNL A   1      42.868  26.197  38.195  1.00  0.00    -0.237 OA
ATOM     94  O   UNL A   1      40.492  26.139  37.515  1.00  0.00    -0.237 OA
ATOM     95  O   UNL A   1      42.130  24.687  36.390  1.00  0.00    -0.744 OA
ENDBRANCH  91  92
ENDBRANCH  59  84
ENDBRANCH  33  34
ENDBRANCH  25  28
ENDBRANCH  23  24
ENDBRANCH  22  23
ENDBRANCH   1  22
TORSDOF 18
ENDMDL
MODEL 3
REMARK VINA RESULT:     -12.1      3.103      4.566
REMARK SMILES Cc1ccc(C)c(S(=O)(=O)[C@H](C)C(=O)NCCCCCCNC(=O)c2ccc(-c3c4nc(c(-c5c(F)cc(S(=O)(=O)[O-])cc5F)c5ccc([nH]5)c(-c5c(F)cc(S(=O)(=O)[O-])cc5F)c5nc(c(-c6c(F)cc(S(=O)(=O)[O-])cc6F)c6ccc3[nH]6)C=C5)C=C4)cc2)c1
REMARK SMILES IDX 19 1 18 2 17 3 16 4 15 5 13 6 14 7 11 9 12 10 8 11 9 12
REMARK SMILES IDX 10 13 7 14 1 15 2 16 3 17 91 18 4 19 5 20 6 21 20 22 21 23
REMARK SMILES IDX 22 24 23 25 24 27 25 28 26 29 90 30 27 31 89 32 28 33 29 34
REMARK SMILES IDX 30 35 83 36 31 37 88 38 82 39 84 40 32 41 87 42 81 43 80 44
REMARK SMILES IDX 33 46 67 47 46 48 66 49 47 50 50 51 65 52 85 53 48 54 49 55
REMARK SMILES IDX 64 57 86 58 51 59 34 60 35 61 44 62 36 63 37 64 43 65 45 66
REMARK SMILES IDX 38 67 39 68 40 69 41 70 42 71 68 72 69 73 78 74 70 75 71 76
REMARK SMILES IDX 77 77 79 78 72 79 73 80 74 81 75 82 76 83 52 84 53 85 62 86
REMARK SMILES IDX 54 87 55 88 61 89 63 90 56 91 57 92 58 93 59 94 60 95
REMARK H PARENT 15 8 22 26 84 45 50 56
REMARK Flexibility Score: inf
ROOT
ATOM      1  C   UNL A   1      40.585  21.090  26.976  1.00  0.00     0.002 C 
ENDROOT
BRANCH   1   2
ATOM      2  C   UNL A   1      40.092  22.242  26.090  1.00  0.00     0.002 C 
BRANCH   2   3
ATOM      3  C   UNL A   1      38.771  22.923  26.456  1.00  0.00     0.021 C 
BRANCH   3   4
ATOM      4  C   UNL A   1      37.552  22.484  25.654  1.00  0.00     0.116 C 
BRANCH   4   5
ATOM      5  N   UNL A   1      36.316  22.443  26.420  1.00  0.00    -0.355 N 
ATOM      6  C   UNL A   1      35.178  21.729  26.168  1.00  0.00     0.238 C 
ATOM      7  O   UNL A   1      34.419  21.516  27.122  1.00  0.00    -0.274 OA
ATOM      8  H   UNL A   1      36.296  23.004  27.227  1.00  0.00     0.163 HD
BRANCH   6   9
ATOM      9  C   UNL A   1      34.791  21.244  24.790  1.00  0.00     0.199 C 
ATOM     10  C   UNL A   1      34.007  19.935  24.787  1.00  0.00     0.036 C 
BRANCH   9  11
ATOM     11  S   UNL A   1      34.050  22.543  23.837  1.00  0.00     0.190 S 
ATOM     12  O   UNL A   1      32.944  22.003  23.064  1.00  0.00    -0.223 OA
ATOM     13  O   UNL A   1      35.121  23.248  23.153  1.00  0.00    -0.223 OA
BRANCH  11  14
ATOM     14  C   UNL A   1      33.307  23.785  24.896  1.00  0.00     0.071 A 
ATOM     15  C   UNL A   1      33.878  27.406  25.962  1.00  0.00     0.044 C 
ATOM     16  C   UNL A   1      33.275  26.039  25.826  1.00  0.00    -0.050 A 
ATOM     17  C   UNL A   1      32.057  25.756  26.449  1.00  0.00     0.004 A 
ATOM     18  C   UNL A   1      33.903  25.046  25.060  1.00  0.00     0.024 A 
ATOM     19  C   UNL A   1      31.474  24.499  26.312  1.00  0.00     0.005 A 
ATOM     20  C   UNL A   1      32.076  23.499  25.530  1.00  0.00    -0.032 A 
ATOM     21  C   UNL A   1      31.354  22.178  25.458  1.00  0.00     0.046 C 
ENDBRANCH  11  14
ENDBRANCH   9  11
ENDBRANCH   6   9
ENDBRANCH   4   5
ENDBRANCH   3   4
ENDBRANCH   2   3
ENDBRANCH   1   2
BRANCH   1  22
ATOM     22  C   UNL A   1      41.146  19.804  26.349  1.00  0.00     0.021 C 
BRANCH  22  23
ATOM     23  C   UNL A   1      42.589  19.396  26.644  1.00  0.00     0.116 C 
BRANCH  23  24
ATOM     24  N   UNL A   1      43.464  19.389  25.471  1.00  0.00    -0.352 N 
ATOM     25  C   UNL A   1      44.165  20.354  24.756  1.00  0.00     0.251 C 
ATOM     26  H   UNL A   1      43.584  18.486  25.098  1.00  0.00     0.163 HD
ATOM     27  O   UNL A   1      44.590  20.064  23.658  1.00  0.00    -0.269 OA
BRANCH  25  28
ATOM     28  C   UNL A   1      44.402  21.721  25.298  1.00  0.00     0.039 A 
ATOM     29  C   UNL A   1      45.498  22.040  26.105  1.00  0.00     0.014 A 
ATOM     30  C   UNL A   1      43.466  22.709  25.089  1.00  0.00     0.014 A 
ATOM     31  C   UNL A   1      45.490  23.272  26.777  1.00  0.00     0.010 A 
ATOM     32  C   UNL A   1      43.704  24.017  25.357  1.00  0.00     0.010 A 
ATOM     33  C   UNL A   1      44.521  24.223  26.437  1.00  0.00    -0.014 A 
BRANCH  33  34
ATOM     34  C   UNL A   1      44.241  25.443  27.179  1.00  0.00     0.031 A 
ATOM     35  C   UNL A   1      45.186  26.526  26.885  1.00  0.00     0.074 A 
ATOM     36  C   UNL A   1      43.041  25.743  27.736  1.00  0.00     0.049 A 
ATOM     37  N   UNL A   1      46.191  26.905  27.597  1.00  0.00    -0.248 NA
ATOM     38  C   UNL A   1      45.114  27.148  25.551  1.00  0.00     0.031 C 
ATOM     39  C   UNL A   1      41.785  24.984  27.638  1.00  0.00     0.029 A 
ATOM     40  N   UNL A   1      42.663  26.864  28.424  1.00  0.00    -0.354 N 
ATOM     41  C   UNL A   1      46.696  28.001  26.915  1.00  0.00     0.074 A 
ATOM     42  C   UNL A   1      46.211  27.907  25.564  1.00  0.00     0.031 C 
ATOM     43  C   UNL A   1      40.758  25.746  28.087  1.00  0.00     0.029 A 
ATOM     44  C   UNL A   1      41.295  26.977  28.645  1.00  0.00     0.049 A 
ATOM     45  H   UNL A   1      43.309  27.537  28.738  1.00  0.00     0.167 HD
ATOM     46  C   UNL A   1      47.141  29.096  27.585  1.00  0.00     0.037 A 
ATOM     47  C   UNL A   1      40.640  28.009  29.238  1.00  0.00     0.037 A 
ATOM     48  C   UNL A   1      47.165  28.870  29.008  1.00  0.00     0.049 A 
ATOM     49  C   UNL A   1      41.618  28.760  30.065  1.00  0.00     0.074 A 
ATOM     50  C   UNL A   1      47.967  28.202  29.904  1.00  0.00     0.029 A 
ATOM     51  N   UNL A   1      45.970  29.118  29.634  1.00  0.00    -0.354 N 
ATOM     52  N   UNL A   1      42.247  28.251  31.090  1.00  0.00    -0.248 NA
ATOM     53  C   UNL A   1      42.161  30.024  29.571  1.00  0.00     0.031 C 
ATOM     54  C   UNL A   1      47.163  27.946  31.055  1.00  0.00     0.029 A 
ATOM     55  C   UNL A   1      45.890  28.467  30.839  1.00  0.00     0.049 A 
ATOM     56  H   UNL A   1      45.259  29.691  29.265  1.00  0.00     0.167 HD
ATOM     57  C   UNL A   1      43.472  28.888  31.094  1.00  0.00     0.074 A 
ATOM     58  C   UNL A   1      43.301  30.070  30.264  1.00  0.00     0.031 C 
ATOM     59  C   UNL A   1      44.607  28.233  31.469  1.00  0.00     0.037 A 
BRANCH  46  60
ATOM     60  C   UNL A   1      47.124  30.495  27.034  1.00  0.00     0.058 A 
ATOM     61  C   UNL A   1      48.320  31.235  27.030  1.00  0.00     0.135 A 
ATOM     62  C   UNL A   1      45.947  31.219  26.741  1.00  0.00     0.135 A 
ATOM     63  F   UNL A   1      49.486  30.642  27.326  1.00  0.00    -0.206 F 
ATOM     64  C   UNL A   1      48.340  32.607  26.783  1.00  0.00     0.059 A 
ATOM     65  C   UNL A   1      45.953  32.571  26.425  1.00  0.00     0.059 A 
ATOM     66  F   UNL A   1      44.728  30.672  26.847  1.00  0.00    -0.206 F 
ATOM     67  C   UNL A   1      47.149  33.266  26.487  1.00  0.00     0.060 A 
BRANCH  67  68
ATOM     68  S   UNL A   1      47.159  35.050  26.245  1.00  0.00     0.124 S 
ATOM     69  O   UNL A   1      47.120  35.527  27.622  1.00  0.00    -0.237 OA
ATOM     70  O   UNL A   1      48.414  35.255  25.530  1.00  0.00    -0.237 OA
ATOM     71  O   UNL A   1      45.952  35.285  25.458  1.00  0.00    -0.744 OA
ENDBRANCH  67  68
ENDBRANCH  46  60
BRANCH  47  72
ATOM     72  C   UNL A   1      39.266  28.514  28.985  1.00  0.00     0.058 A 
ATOM     73  C   UNL A   1      38.310  28.595  30.014  1.00  0.00     0.135 A 
ATOM     74  C   UNL A   1      38.952  29.188  27.789  1.00  0.00     0.135 A 
ATOM     75  F   UNL A   1      38.536  27.998  31.194  1.00  0.00    -0.206 F 
ATOM     76  C   UNL A   1      37.134  29.342  29.883  1.00  0.00     0.059 A 
ATOM     77  C   UNL A   1      37.783  29.932  27.631  1.00  0.00     0.059 A 
ATOM     78  F   UNL A   1      39.819  29.212  26.765  1.00  0.00    -0.206 F 
ATOM     79  C   UNL A   1      36.890  30.025  28.693  1.00  0.00     0.060 A 
BRANCH  79  80
ATOM     80  S   UNL A   1      35.459  31.126  28.583  1.00  0.00     0.124 S 
ATOM     81  O   UNL A   1      34.467  30.265  27.950  1.00  0.00    -0.237 OA
ATOM     82  O   UNL A   1      35.217  31.457  29.983  1.00  0.00    -0.237 OA
ATOM     83  O   UNL A   1      35.945  32.229  27.758  1.00  0.00    -0.744 OA
ENDBRANCH  79  80
ENDBRANCH  47  72
BRANCH  59  84
ATOM     84  C   UNL A   1      44.476  27.114  32.460  1.00  0.00     0.058 A 
ATOM     85  C   UNL A   1      44.333  27.278  33.847  1.00  0.00     0.135 A 
ATOM     86  C   UNL A   1      44.431  25.804  31.959  1.00  0.00     0.135 A 
ATOM     87  F   UNL A   1      44.296  28.501  34.396  1.00  0.00    -0.206 F 
ATOM     88  C   UNL A   1      44.183  26.183  34.700  1.00  0.00     0.059 A 
ATOM     89  C   UNL A   1      44.253  24.700  32.787  1.00  0.00     0.059 A 
ATOM     90  F   UNL A   1      44.524  25.586  30.637  1.00  0.00    -0.206 F 
ATOM     91  C   UNL A   1      44.142  24.897  34.161  1.00  0.00     0.060 A 
BRANCH  91  92
ATOM     92  S   UNL A   1      43.873  23.485  35.256  1.00  0.00     0.124 S 
ATOM     93  O   UNL A   1      42.423  23.329  35.204  1.00  0.00    -0.237 OA
ATOM     94  O   UNL A   1      44.649  22.430  34.611  1.00  0.00    -0.237 OA
ATOM     95  O   UNL A   1      44.405  23.942  36.538  1.00  0.00    -0.744 OA
ENDBRANCH  91  92
ENDBRANCH  59  84
ENDBRANCH  33  34
ENDBRANCH  25  28
ENDBRANCH  23  24
ENDBRANCH  22  23
ENDBRANCH   1  22
TORSDOF 18
ENDMDL
