MODEL 1
REMARK VINA RESULT:     -13.1      0.000      0.000
REMARK SMILES Cc1cccc2c1[C@H]1c3c(C)cccc3[C@H](CC(=O)NCCCCCCNC(=O)c3ccc(-c4c5nc(c(-c6c(F)cc(S(=O)(=O)[O-])cc6F)c6ccc([nH]6)c(-c6c(F)cc(S(=O)(=O)[O-])cc6F)c6nc(c(-c7c(F)cc(S(=O)(=O)[O-])cc7F)c7ccc4[nH]7)C=C6)C=C5)cc3)C[C@H]1CC2
REMARK SMILES IDX 24 1 23 2 22 3 21 4 20 5 18 6 19 7 17 9 16 10 1 11 2 12 3 13
REMARK SMILES IDX 7 14 4 15 6 16 8 17 5 18 99 19 9 20 97 21 98 22 10 23 15 24
REMARK SMILES IDX 96 25 12 26 11 27 14 28 13 29 25 30 26 31 27 32 28 33 29 35
REMARK SMILES IDX 30 36 31 37 95 38 32 39 94 40 33 41 34 42 35 43 88 44 36 45
REMARK SMILES IDX 93 46 87 47 89 48 37 49 92 50 86 51 85 52 38 54 72 55 51 56
REMARK SMILES IDX 71 57 52 58 55 59 70 60 90 61 53 62 54 63 69 65 91 66 56 67
REMARK SMILES IDX 39 68 40 69 49 70 41 71 42 72 48 73 50 74 43 75 44 76 45 77
REMARK SMILES IDX 46 78 47 79 73 80 74 81 83 82 75 83 76 84 82 85 84 86 77 87
REMARK SMILES IDX 78 88 79 89 80 90 81 91 57 92 58 93 67 94 59 95 60 96 66 97
REMARK SMILES IDX 68 98 61 99 62 100 63 101 64 102 65 103
REMARK H PARENT 20 8 27 34 89 53 55 64
REMARK Flexibility Score: inf
ROOT
ATOM      1  C   UNL A   1      40.728  21.795  26.326  1.00  0.00     0.002 C 
ENDROOT
BRANCH   1   2
ATOM      2  C   UNL A   1      39.207  22.012  26.311  1.00  0.00     0.002 C 
BRANCH   2   3
ATOM      3  C   UNL A   1      38.746  23.465  26.157  1.00  0.00     0.021 C 
BRANCH   3   4
ATOM      4  C   UNL A   1      37.299  23.645  25.706  1.00  0.00     0.116 C 
BRANCH   4   5
ATOM      5  N   UNL A   1      36.397  22.832  26.491  1.00  0.00    -0.356 N 
ATOM      6  C   UNL A   1      35.330  22.083  26.103  1.00  0.00     0.220 C 
ATOM      7  O   UNL A   1      34.706  21.471  26.976  1.00  0.00    -0.275 OA
ATOM      8  H   UNL A   1      36.582  22.819  27.458  1.00  0.00     0.163 HD
BRANCH   6   9
ATOM      9  C   UNL A   1      34.951  21.928  24.635  1.00  0.00     0.108 C 
BRANCH   9  10
ATOM     10  C   UNL A   1      33.849  22.830  24.008  1.00  0.00     0.029 C 
ATOM     11  C   UNL A   1      32.833  27.841  26.487  1.00  0.00     0.044 C 
ATOM     12  C   UNL A   1      32.095  27.961  25.190  1.00  0.00    -0.047 A 
ATOM     13  C   UNL A   1      31.413  29.163  24.943  1.00  0.00     0.004 A 
ATOM     14  C   UNL A   1      32.133  26.944  24.202  1.00  0.00    -0.034 A 
ATOM     15  C   UNL A   1      30.790  29.387  23.725  1.00  0.00     0.001 A 
ATOM     16  C   UNL A   1      31.561  27.218  22.936  1.00  0.00    -0.044 A 
ATOM     17  C   UNL A   1      32.839  25.609  24.453  1.00  0.00     0.053 C 
ATOM     18  C   UNL A   1      30.881  28.430  22.721  1.00  0.00     0.004 A 
ATOM     19  C   UNL A   1      31.790  26.329  21.734  1.00  0.00     0.036 C 
ATOM     20  C   UNL A   1      32.048  24.409  25.038  1.00  0.00    -0.034 A 
ATOM     21  C   UNL A   1      33.551  25.230  23.132  1.00  0.00     0.002 C 
ATOM     22  C   UNL A   1      32.518  25.017  22.024  1.00  0.00     0.009 C 
ATOM     23  C   UNL A   1      30.849  24.491  25.810  1.00  0.00    -0.047 A 
ATOM     24  C   UNL A   1      32.605  23.103  24.844  1.00  0.00    -0.040 A 
ATOM     25  C   UNL A   1      34.492  24.056  23.349  1.00  0.00     0.013 C 
ATOM     26  C   UNL A   1      30.273  23.320  26.353  1.00  0.00     0.004 A 
ATOM     27  C   UNL A   1      30.090  25.748  26.146  1.00  0.00     0.044 C 
ATOM     28  C   UNL A   1      31.944  21.960  25.346  1.00  0.00     0.004 A 
ATOM     29  C   UNL A   1      30.804  22.065  26.117  1.00  0.00     0.001 A 
ENDBRANCH   9  10
ENDBRANCH   6   9
ENDBRANCH   4   5
ENDBRANCH   3   4
ENDBRANCH   2   3
ENDBRANCH   1   2
BRANCH   1  30
ATOM     30  C   UNL A   1      41.456  22.124  27.636  1.00  0.00     0.021 C 
BRANCH  30  31
ATOM     31  C   UNL A   1      42.528  23.209  27.545  1.00  0.00     0.116 C 
BRANCH  31  32
ATOM     32  N   UNL A   1      42.483  23.978  26.321  1.00  0.00    -0.352 N 
ATOM     33  C   UNL A   1      42.171  25.304  26.146  1.00  0.00     0.251 C 
ATOM     34  H   UNL A   1      42.709  23.483  25.499  1.00  0.00     0.163 HD
ATOM     35  O   UNL A   1      42.171  25.789  25.017  1.00  0.00    -0.269 OA
BRANCH  33  36
ATOM     36  C   UNL A   1      41.786  26.146  27.302  1.00  0.00     0.039 A 
ATOM     37  C   UNL A   1      42.593  27.241  27.615  1.00  0.00     0.014 A 
ATOM     38  C   UNL A   1      40.674  25.847  28.098  1.00  0.00     0.014 A 
ATOM     39  C   UNL A   1      42.270  28.057  28.702  1.00  0.00     0.010 A 
ATOM     40  C   UNL A   1      40.328  26.688  29.163  1.00  0.00     0.010 A 
ATOM     41  C   UNL A   1      41.131  27.795  29.482  1.00  0.00    -0.014 A 
BRANCH  41  42
ATOM     42  C   UNL A   1      40.823  28.664  30.649  1.00  0.00     0.031 A 
ATOM     43  C   UNL A   1      41.626  28.548  31.916  1.00  0.00     0.074 A 
ATOM     44  C   UNL A   1      39.843  29.585  30.565  1.00  0.00     0.049 A 
ATOM     45  N   UNL A   1      41.570  29.284  32.998  1.00  0.00    -0.248 NA
ATOM     46  C   UNL A   1      42.615  27.462  31.978  1.00  0.00     0.031 C 
ATOM     47  C   UNL A   1      38.972  29.784  29.407  1.00  0.00     0.029 A 
ATOM     48  N   UNL A   1      39.420  30.531  31.466  1.00  0.00    -0.354 N 
ATOM     49  C   UNL A   1      42.523  28.760  33.863  1.00  0.00     0.074 A 
ATOM     50  C   UNL A   1      43.103  27.610  33.203  1.00  0.00     0.031 C 
ATOM     51  C   UNL A   1      38.134  30.802  29.658  1.00  0.00     0.029 A 
ATOM     52  C   UNL A   1      38.393  31.319  31.001  1.00  0.00     0.049 A 
ATOM     53  H   UNL A   1      39.814  30.636  32.363  1.00  0.00     0.167 HD
ATOM     54  C   UNL A   1      42.900  29.212  35.083  1.00  0.00     0.037 A 
ATOM     55  C   UNL A   1      37.741  32.345  31.582  1.00  0.00     0.037 A 
ATOM     56  C   UNL A   1      42.330  30.359  35.739  1.00  0.00     0.049 A 
ATOM     57  C   UNL A   1      38.151  32.809  32.953  1.00  0.00     0.074 A 
ATOM     58  C   UNL A   1      42.693  30.927  36.949  1.00  0.00     0.029 A 
ATOM     59  N   UNL A   1      41.267  31.105  35.252  1.00  0.00    -0.354 N 
ATOM     60  N   UNL A   1      39.112  32.354  33.722  1.00  0.00    -0.248 NA
ATOM     61  C   UNL A   1      37.393  33.926  33.536  1.00  0.00     0.031 C 
ATOM     62  C   UNL A   1      41.818  31.984  37.216  1.00  0.00     0.029 A 
ATOM     63  C   UNL A   1      40.936  32.104  36.153  1.00  0.00     0.049 A 
ATOM     64  H   UNL A   1      40.814  30.948  34.393  1.00  0.00     0.167 HD
ATOM     65  C   UNL A   1      39.081  33.134  34.873  1.00  0.00     0.074 A 
ATOM     66  C   UNL A   1      38.017  34.102  34.694  1.00  0.00     0.031 C 
ATOM     67  C   UNL A   1      39.865  33.054  35.977  1.00  0.00     0.037 A 
BRANCH  54  68
ATOM     68  C   UNL A   1      43.991  28.458  35.792  1.00  0.00     0.058 A 
ATOM     69  C   UNL A   1      45.345  28.774  35.600  1.00  0.00     0.135 A 
ATOM     70  C   UNL A   1      43.680  27.430  36.696  1.00  0.00     0.135 A 
ATOM     71  F   UNL A   1      45.698  29.741  34.738  1.00  0.00    -0.206 F 
ATOM     72  C   UNL A   1      46.355  28.078  36.256  1.00  0.00     0.059 A 
ATOM     73  C   UNL A   1      44.673  26.736  37.382  1.00  0.00     0.059 A 
ATOM     74  F   UNL A   1      42.401  27.088  36.918  1.00  0.00    -0.206 F 
ATOM     75  C   UNL A   1      46.008  27.058  37.143  1.00  0.00     0.060 A 
BRANCH  75  76
ATOM     76  S   UNL A   1      47.332  26.158  37.978  1.00  0.00     0.124 S 
ATOM     77  O   UNL A   1      48.511  26.664  37.283  1.00  0.00    -0.237 OA
ATOM     78  O   UNL A   1      47.178  26.591  39.364  1.00  0.00    -0.237 OA
ATOM     79  O   UNL A   1      47.006  24.758  37.722  1.00  0.00    -0.744 OA
ENDBRANCH  75  76
ENDBRANCH  54  68
BRANCH  55  80
ATOM     80  C   UNL A   1      36.640  33.021  30.845  1.00  0.00     0.058 A 
ATOM     81  C   UNL A   1      35.301  32.849  31.223  1.00  0.00     0.135 A 
ATOM     82  C   UNL A   1      36.913  33.893  29.778  1.00  0.00     0.135 A 
ATOM     83  F   UNL A   1      34.991  32.016  32.228  1.00  0.00    -0.206 F 
ATOM     84  C   UNL A   1      34.270  33.524  30.578  1.00  0.00     0.059 A 
ATOM     85  C   UNL A   1      35.901  34.593  29.130  1.00  0.00     0.059 A 
ATOM     86  F   UNL A   1      38.180  34.097  29.383  1.00  0.00    -0.206 F 
ATOM     87  C   UNL A   1      34.582  34.403  29.539  1.00  0.00     0.060 A 
BRANCH  87  88
ATOM     88  S   UNL A   1      33.243  35.344  28.772  1.00  0.00     0.124 S 
ATOM     89  O   UNL A   1      32.526  35.843  29.939  1.00  0.00    -0.237 OA
ATOM     90  O   UNL A   1      33.977  36.339  27.997  1.00  0.00    -0.237 OA
ATOM     91  O   UNL A   1      32.538  34.340  27.980  1.00  0.00    -0.744 OA
ENDBRANCH  87  88
ENDBRANCH  55  80
BRANCH  67  92
ATOM     92  C   UNL A   1      39.604  34.026  37.095  1.00  0.00     0.058 A 
ATOM     93  C   UNL A   1      38.908  33.638  38.250  1.00  0.00     0.135 A 
ATOM     94  C   UNL A   1      40.123  35.330  37.050  1.00  0.00     0.135 A 
ATOM     95  F   UNL A   1      38.384  32.406  38.342  1.00  0.00    -0.206 F 
ATOM     96  C   UNL A   1      38.730  34.512  39.319  1.00  0.00     0.059 A 
ATOM     97  C   UNL A   1      39.978  36.213  38.116  1.00  0.00     0.059 A 
ATOM     98  F   UNL A   1      40.804  35.750  35.971  1.00  0.00    -0.206 F 
ATOM     99  C   UNL A   1      39.276  35.795  39.246  1.00  0.00     0.060 A 
BRANCH  99 100
ATOM    100  S   UNL A   1      39.085  36.896  40.665  1.00  0.00     0.124 S 
ATOM    101  O   UNL A   1      40.468  37.272  40.935  1.00  0.00    -0.237 OA
ATOM    102  O   UNL A   1      38.234  37.954  40.126  1.00  0.00    -0.237 OA
ATOM    103  O   UNL A   1      38.458  36.047  41.673  1.00  0.00    -0.744 OA
ENDBRANCH  99 100
ENDBRANCH  67  92
ENDBRANCH  41  42
ENDBRANCH  33  36
ENDBRANCH  31  32
ENDBRANCH  30  31
ENDBRANCH   1  30
TORSDOF 17
ENDMDL
MODEL 2
REMARK VINA RESULT:     -12.9      6.139     12.046
REMARK SMILES Cc1cccc2c1[C@H]1c3c(C)cccc3[C@H](CC(=O)NCCCCCCNC(=O)c3ccc(-c4c5nc(c(-c6c(F)cc(S(=O)(=O)[O-])cc6F)c6ccc([nH]6)c(-c6c(F)cc(S(=O)(=O)[O-])cc6F)c6nc(c(-c7c(F)cc(S(=O)(=O)[O-])cc7F)c7ccc4[nH]7)C=C6)C=C5)cc3)C[C@H]1CC2
REMARK SMILES IDX 24 1 23 2 22 3 21 4 20 5 18 6 19 7 17 9 16 10 1 11 2 12 3 13
REMARK SMILES IDX 7 14 4 15 6 16 8 17 5 18 99 19 9 20 97 21 98 22 10 23 15 24
REMARK SMILES IDX 96 25 12 26 11 27 14 28 13 29 25 30 26 31 27 32 28 33 29 35
REMARK SMILES IDX 30 36 31 37 95 38 32 39 94 40 33 41 34 42 35 43 88 44 36 45
REMARK SMILES IDX 93 46 87 47 89 48 37 49 92 50 86 51 85 52 38 54 72 55 51 56
REMARK SMILES IDX 71 57 52 58 55 59 70 60 90 61 53 62 54 63 69 65 91 66 56 67
REMARK SMILES IDX 39 68 40 69 49 70 41 71 42 72 48 73 50 74 43 75 44 76 45 77
REMARK SMILES IDX 46 78 47 79 73 80 74 81 83 82 75 83 76 84 82 85 84 86 77 87
REMARK SMILES IDX 78 88 79 89 80 90 81 91 57 92 58 93 67 94 59 95 60 96 66 97
REMARK SMILES IDX 68 98 61 99 62 100 63 101 64 102 65 103
REMARK H PARENT 20 8 27 34 89 53 55 64
REMARK Flexibility Score: inf
ROOT
ATOM      1  C   UNL A   1      37.103  34.120  30.184  1.00  0.00     0.002 C 
ENDROOT
BRANCH   1   2
ATOM      2  C   UNL A   1      35.616  34.020  29.808  1.00  0.00     0.002 C 
BRANCH   2   3
ATOM      3  C   UNL A   1      35.304  33.195  28.556  1.00  0.00     0.021 C 
BRANCH   3   4
ATOM      4  C   UNL A   1      34.380  31.999  28.778  1.00  0.00     0.116 C 
BRANCH   4   5
ATOM      5  N   UNL A   1      34.997  30.767  28.339  1.00  0.00    -0.356 N 
ATOM      6  C   UNL A   1      34.580  29.860  27.415  1.00  0.00     0.220 C 
ATOM      7  O   UNL A   1      35.293  28.871  27.217  1.00  0.00    -0.275 OA
ATOM      8  H   UNL A   1      35.851  30.550  28.777  1.00  0.00     0.163 HD
BRANCH   6   9
ATOM      9  C   UNL A   1      33.320  30.080  26.587  1.00  0.00     0.108 C 
BRANCH   9  10
ATOM     10  C   UNL A   1      32.509  28.865  26.052  1.00  0.00     0.029 C 
ATOM     11  C   UNL A   1      35.092  23.804  25.991  1.00  0.00     0.044 C 
ATOM     12  C   UNL A   1      33.661  23.445  25.733  1.00  0.00    -0.047 A 
ATOM     13  C   UNL A   1      33.356  22.086  25.564  1.00  0.00     0.004 A 
ATOM     14  C   UNL A   1      32.627  24.416  25.732  1.00  0.00    -0.034 A 
ATOM     15  C   UNL A   1      32.042  21.667  25.420  1.00  0.00     0.001 A 
ATOM     16  C   UNL A   1      31.287  23.967  25.664  1.00  0.00    -0.044 A 
ATOM     17  C   UNL A   1      32.930  25.909  25.881  1.00  0.00     0.053 C 
ATOM     18  C   UNL A   1      31.013  22.598  25.490  1.00  0.00     0.004 A 
ATOM     19  C   UNL A   1      30.111  24.879  25.938  1.00  0.00     0.036 C 
ATOM     20  C   UNL A   1      33.160  26.785  24.621  1.00  0.00    -0.034 A 
ATOM     21  C   UNL A   1      31.821  26.498  26.787  1.00  0.00     0.002 C 
ATOM     22  C   UNL A   1      30.459  26.357  26.103  1.00  0.00     0.009 C 
ATOM     23  C   UNL A   1      33.583  26.316  23.340  1.00  0.00    -0.047 A 
ATOM     24  C   UNL A   1      32.999  28.202  24.772  1.00  0.00    -0.040 A 
ATOM     25  C   UNL A   1      32.170  27.916  27.207  1.00  0.00     0.013 C 
ATOM     26  C   UNL A   1      33.835  27.236  22.296  1.00  0.00     0.004 A 
ATOM     27  C   UNL A   1      33.822  24.881  22.950  1.00  0.00     0.044 C 
ATOM     28  C   UNL A   1      33.191  29.065  23.672  1.00  0.00     0.004 A 
ATOM     29  C   UNL A   1      33.631  28.594  22.450  1.00  0.00     0.001 A 
ENDBRANCH   9  10
ENDBRANCH   6   9
ENDBRANCH   4   5
ENDBRANCH   3   4
ENDBRANCH   2   3
ENDBRANCH   1   2
BRANCH   1  30
ATOM     30  C   UNL A   1      37.430  34.188  31.682  1.00  0.00     0.021 C 
BRANCH  30  31
ATOM     31  C   UNL A   1      37.733  32.852  32.355  1.00  0.00     0.116 C 
BRANCH  31  32
ATOM     32  N   UNL A   1      36.743  31.828  32.104  1.00  0.00    -0.352 N 
ATOM     33  C   UNL A   1      36.891  30.622  31.463  1.00  0.00     0.251 C 
ATOM     34  H   UNL A   1      35.836  32.021  32.439  1.00  0.00     0.163 HD
ATOM     35  O   UNL A   1      35.923  29.877  31.328  1.00  0.00    -0.269 OA
BRANCH  33  36
ATOM     36  C   UNL A   1      38.199  30.231  30.889  1.00  0.00     0.039 A 
ATOM     37  C   UNL A   1      38.393  30.404  29.518  1.00  0.00     0.014 A 
ATOM     38  C   UNL A   1      39.211  29.663  31.672  1.00  0.00     0.014 A 
ATOM     39  C   UNL A   1      39.610  30.041  28.934  1.00  0.00     0.010 A 
ATOM     40  C   UNL A   1      40.444  29.336  31.094  1.00  0.00     0.010 A 
ATOM     41  C   UNL A   1      40.650  29.512  29.716  1.00  0.00    -0.014 A 
BRANCH  41  42
ATOM     42  C   UNL A   1      41.927  29.110  29.066  1.00  0.00     0.031 A 
ATOM     43  C   UNL A   1      43.054  30.096  28.931  1.00  0.00     0.074 A 
ATOM     44  C   UNL A   1      42.091  27.847  28.624  1.00  0.00     0.049 A 
ATOM     45  N   UNL A   1      44.271  29.902  28.487  1.00  0.00    -0.248 NA
ATOM     46  C   UNL A   1      42.779  31.480  29.345  1.00  0.00     0.031 C 
ATOM     47  C   UNL A   1      41.070  26.801  28.669  1.00  0.00     0.029 A 
ATOM     48  N   UNL A   1      43.179  27.228  28.059  1.00  0.00    -0.354 N 
ATOM     49  C   UNL A   1      44.909  31.133  28.578  1.00  0.00     0.074 A 
ATOM     50  C   UNL A   1      43.930  32.079  29.068  1.00  0.00     0.031 C 
ATOM     51  C   UNL A   1      41.587  25.664  28.174  1.00  0.00     0.029 A 
ATOM     52  C   UNL A   1      42.969  25.903  27.761  1.00  0.00     0.049 A 
ATOM     53  H   UNL A   1      44.031  27.690  27.884  1.00  0.00     0.167 HD
ATOM     54  C   UNL A   1      46.200  31.442  28.306  1.00  0.00     0.037 A 
ATOM     55  C   UNL A   1      43.793  24.981  27.224  1.00  0.00     0.037 A 
ATOM     56  C   UNL A   1      47.177  30.501  27.825  1.00  0.00     0.049 A 
ATOM     57  C   UNL A   1      45.213  25.353  26.894  1.00  0.00     0.074 A 
ATOM     58  C   UNL A   1      48.525  30.710  27.581  1.00  0.00     0.029 A 
ATOM     59  N   UNL A   1      46.914  29.179  27.497  1.00  0.00    -0.354 N 
ATOM     60  N   UNL A   1      45.824  26.501  27.067  1.00  0.00    -0.248 NA
ATOM     61  C   UNL A   1      46.058  24.306  26.302  1.00  0.00     0.031 C 
ATOM     62  C   UNL A   1      49.064  29.530  27.060  1.00  0.00     0.029 A 
ATOM     63  C   UNL A   1      48.063  28.571  27.019  1.00  0.00     0.049 A 
ATOM     64  H   UNL A   1      46.039  28.738  27.591  1.00  0.00     0.167 HD
ATOM     65  C   UNL A   1      47.125  26.313  26.614  1.00  0.00     0.074 A 
ATOM     66  C   UNL A   1      47.220  24.935  26.176  1.00  0.00     0.031 C 
ATOM     67  C   UNL A   1      48.147  27.203  26.568  1.00  0.00     0.037 A 
BRANCH  54  68
ATOM     68  C   UNL A   1      46.632  32.865  28.526  1.00  0.00     0.058 A 
ATOM     69  C   UNL A   1      47.127  33.297  29.766  1.00  0.00     0.135 A 
ATOM     70  C   UNL A   1      46.580  33.798  27.479  1.00  0.00     0.135 A 
ATOM     71  F   UNL A   1      47.186  32.448  30.804  1.00  0.00    -0.206 F 
ATOM     72  C   UNL A   1      47.527  34.613  29.970  1.00  0.00     0.059 A 
ATOM     73  C   UNL A   1      46.999  35.115  27.654  1.00  0.00     0.059 A 
ATOM     74  F   UNL A   1      46.116  33.438  26.272  1.00  0.00    -0.206 F 
ATOM     75  C   UNL A   1      47.456  35.516  28.908  1.00  0.00     0.060 A 
BRANCH  75  76
ATOM     76  S   UNL A   1      47.970  37.223  29.194  1.00  0.00     0.124 S 
ATOM     77  O   UNL A   1      47.956  37.290  30.652  1.00  0.00    -0.237 OA
ATOM     78  O   UNL A   1      49.289  37.260  28.570  1.00  0.00    -0.237 OA
ATOM     79  O   UNL A   1      46.939  38.006  28.521  1.00  0.00    -0.744 OA
ENDBRANCH  75  76
ENDBRANCH  54  68
BRANCH  55  80
ATOM     80  C   UNL A   1      43.291  23.601  26.989  1.00  0.00     0.058 A 
ATOM     81  C   UNL A   1      42.982  23.151  25.698  1.00  0.00     0.135 A 
ATOM     82  C   UNL A   1      43.158  22.690  28.050  1.00  0.00     0.135 A 
ATOM     83  F   UNL A   1      43.081  23.990  24.655  1.00  0.00    -0.206 F 
ATOM     84  C   UNL A   1      42.569  21.844  25.462  1.00  0.00     0.059 A 
ATOM     85  C   UNL A   1      42.766  21.373  27.836  1.00  0.00     0.059 A 
ATOM     86  F   UNL A   1      43.449  23.071  29.304  1.00  0.00    -0.206 F 
ATOM     87  C   UNL A   1      42.475  20.959  26.537  1.00  0.00     0.060 A 
BRANCH  87  88
ATOM     88  S   UNL A   1      42.030  19.239  26.205  1.00  0.00     0.124 S 
ATOM     89  O   UNL A   1      42.872  18.932  25.056  1.00  0.00    -0.237 OA
ATOM     90  O   UNL A   1      42.392  18.584  27.458  1.00  0.00    -0.237 OA
ATOM     91  O   UNL A   1      40.596  19.310  25.938  1.00  0.00    -0.744 OA
ENDBRANCH  87  88
ENDBRANCH  55  80
BRANCH  67  92
ATOM     92  C   UNL A   1      49.464  26.732  26.012  1.00  0.00     0.058 A 
ATOM     93  C   UNL A   1      49.844  27.023  24.693  1.00  0.00     0.135 A 
ATOM     94  C   UNL A   1      50.387  26.056  26.826  1.00  0.00     0.135 A 
ATOM     95  F   UNL A   1      48.995  27.659  23.870  1.00  0.00    -0.206 F 
ATOM     96  C   UNL A   1      51.091  26.655  24.198  1.00  0.00     0.059 A 
ATOM     97  C   UNL A   1      51.649  25.700  26.360  1.00  0.00     0.059 A 
ATOM     98  F   UNL A   1      50.077  25.761  28.098  1.00  0.00    -0.206 F 
ATOM     99  C   UNL A   1      51.991  26.001  25.042  1.00  0.00     0.060 A 
BRANCH  99 100
ATOM    100  S   UNL A   1      53.627  25.581  24.401  1.00  0.00     0.124 S 
ATOM    101  O   UNL A   1      53.696  24.151  24.685  1.00  0.00    -0.237 OA
ATOM    102  O   UNL A   1      53.510  25.942  22.991  1.00  0.00    -0.237 OA
ATOM    103  O   UNL A   1      54.526  26.420  25.186  1.00  0.00    -0.744 OA
ENDBRANCH  99 100
ENDBRANCH  67  92
ENDBRANCH  41  42
ENDBRANCH  33  36
ENDBRANCH  31  32
ENDBRANCH  30  31
ENDBRANCH   1  30
TORSDOF 17
ENDMDL
MODEL 3
REMARK VINA RESULT:     -12.6      1.023      2.084
REMARK SMILES Cc1cccc2c1[C@H]1c3c(C)cccc3[C@H](CC(=O)NCCCCCCNC(=O)c3ccc(-c4c5nc(c(-c6c(F)cc(S(=O)(=O)[O-])cc6F)c6ccc([nH]6)c(-c6c(F)cc(S(=O)(=O)[O-])cc6F)c6nc(c(-c7c(F)cc(S(=O)(=O)[O-])cc7F)c7ccc4[nH]7)C=C6)C=C5)cc3)C[C@H]1CC2
REMARK SMILES IDX 24 1 23 2 22 3 21 4 20 5 18 6 19 7 17 9 16 10 1 11 2 12 3 13
REMARK SMILES IDX 7 14 4 15 6 16 8 17 5 18 99 19 9 20 97 21 98 22 10 23 15 24
REMARK SMILES IDX 96 25 12 26 11 27 14 28 13 29 25 30 26 31 27 32 28 33 29 35
REMARK SMILES IDX 30 36 31 37 95 38 32 39 94 40 33 41 34 42 35 43 88 44 36 45
REMARK SMILES IDX 93 46 87 47 89 48 37 49 92 50 86 51 85 52 38 54 72 55 51 56
REMARK SMILES IDX 71 57 52 58 55 59 70 60 90 61 53 62 54 63 69 65 91 66 56 67
REMARK SMILES IDX 39 68 40 69 49 70 41 71 42 72 48 73 50 74 43 75 44 76 45 77
REMARK SMILES IDX 46 78 47 79 73 80 74 81 83 82 75 83 76 84 82 85 84 86 77 87
REMARK SMILES IDX 78 88 79 89 80 90 81 91 57 92 58 93 67 94 59 95 60 96 66 97
REMARK SMILES IDX 68 98 61 99 62 100 63 101 64 102 65 103
REMARK H PARENT 20 8 27 34 89 53 55 64
REMARK Flexibility Score: inf
ROOT
ATOM      1  C   UNL A   1      43.940  22.640  27.023  1.00  0.00     0.002 C 
ENDROOT
BRANCH   1   2
ATOM      2  C   UNL A   1      42.470  22.273  27.282  1.00  0.00     0.002 C 
BRANCH   2   3
ATOM      3  C   UNL A   1      41.706  21.712  26.079  1.00  0.00     0.021 C 
BRANCH   3   4
ATOM      4  C   UNL A   1      40.219  21.457  26.313  1.00  0.00     0.116 C 
BRANCH   4   5
ATOM      5  N   UNL A   1      39.472  22.695  26.352  1.00  0.00    -0.356 N 
ATOM      6  C   UNL A   1      38.188  22.954  25.984  1.00  0.00     0.220 C 
ATOM      7  O   UNL A   1      37.775  24.111  26.112  1.00  0.00    -0.275 OA
ATOM      8  H   UNL A   1      39.969  23.471  26.698  1.00  0.00     0.163 HD
BRANCH   6   9
ATOM      9  C   UNL A   1      37.253  21.852  25.504  1.00  0.00     0.108 C 
BRANCH   9  10
ATOM     10  C   UNL A   1      35.903  22.209  24.817  1.00  0.00     0.029 C 
ATOM     11  C   UNL A   1      33.938  27.499  25.484  1.00  0.00     0.044 C 
ATOM     12  C   UNL A   1      33.063  26.959  24.396  1.00  0.00    -0.047 A 
ATOM     13  C   UNL A   1      32.083  27.815  23.870  1.00  0.00     0.004 A 
ATOM     14  C   UNL A   1      33.250  25.663  23.849  1.00  0.00    -0.034 A 
ATOM     15  C   UNL A   1      31.302  27.421  22.794  1.00  0.00     0.001 A 
ATOM     16  C   UNL A   1      32.501  25.305  22.703  1.00  0.00    -0.044 A 
ATOM     17  C   UNL A   1      34.287  24.694  24.422  1.00  0.00     0.053 C 
ATOM     18  C   UNL A   1      31.523  26.183  22.202  1.00  0.00     0.004 A 
ATOM     19  C   UNL A   1      32.818  24.078  21.878  1.00  0.00     0.036 C 
ATOM     20  C   UNL A   1      33.883  23.692  25.537  1.00  0.00    -0.034 A 
ATOM     21  C   UNL A   1      34.931  23.970  23.214  1.00  0.00     0.002 C 
ATOM     22  C   UNL A   1      33.874  23.149  22.473  1.00  0.00     0.009 C 
ATOM     23  C   UNL A   1      32.788  23.841  26.440  1.00  0.00    -0.047 A 
ATOM     24  C   UNL A   1      34.724  22.546  25.720  1.00  0.00    -0.040 A 
ATOM     25  C   UNL A   1      36.150  23.176  23.654  1.00  0.00     0.013 C 
ATOM     26  C   UNL A   1      32.580  22.890  27.466  1.00  0.00     0.004 A 
ATOM     27  C   UNL A   1      31.780  24.960  26.443  1.00  0.00     0.044 C 
ATOM     28  C   UNL A   1      34.422  21.588  26.713  1.00  0.00     0.004 A 
ATOM     29  C   UNL A   1      33.377  21.768  27.597  1.00  0.00     0.001 A 
ENDBRANCH   9  10
ENDBRANCH   6   9
ENDBRANCH   4   5
ENDBRANCH   3   4
ENDBRANCH   2   3
ENDBRANCH   1   2
BRANCH   1  30
ATOM     30  C   UNL A   1      44.365  24.071  27.382  1.00  0.00     0.021 C 
BRANCH  30  31
ATOM     31  C   UNL A   1      44.229  25.102  26.263  1.00  0.00     0.116 C 
BRANCH  31  32
ATOM     32  N   UNL A   1      42.999  24.994  25.510  1.00  0.00    -0.352 N 
ATOM     33  C   UNL A   1      41.787  25.598  25.744  1.00  0.00     0.251 C 
ATOM     34  H   UNL A   1      43.035  24.407  24.719  1.00  0.00     0.163 HD
ATOM     35  O   UNL A   1      40.838  25.375  24.996  1.00  0.00    -0.269 OA
BRANCH  33  36
ATOM     36  C   UNL A   1      41.601  26.481  26.918  1.00  0.00     0.039 A 
ATOM     37  C   UNL A   1      40.798  26.021  27.964  1.00  0.00     0.014 A 
ATOM     38  C   UNL A   1      42.167  27.758  26.982  1.00  0.00     0.014 A 
ATOM     39  C   UNL A   1      40.589  26.824  29.088  1.00  0.00     0.010 A 
ATOM     40  C   UNL A   1      41.991  28.547  28.126  1.00  0.00     0.010 A 
ATOM     41  C   UNL A   1      41.189  28.091  29.185  1.00  0.00    -0.014 A 
BRANCH  41  42
ATOM     42  C   UNL A   1      40.930  28.937  30.381  1.00  0.00     0.031 A 
ATOM     43  C   UNL A   1      41.808  28.822  31.597  1.00  0.00     0.074 A 
ATOM     44  C   UNL A   1      39.927  29.836  30.368  1.00  0.00     0.049 A 
ATOM     45  N   UNL A   1      41.800  29.542  32.691  1.00  0.00    -0.248 NA
ATOM     46  C   UNL A   1      42.823  27.758  31.585  1.00  0.00     0.031 C 
ATOM     47  C   UNL A   1      38.985  30.030  29.265  1.00  0.00     0.029 A 
ATOM     48  N   UNL A   1      39.536  30.759  31.306  1.00  0.00    -0.354 N 
ATOM     49  C   UNL A   1      42.813  29.029  33.491  1.00  0.00     0.074 A 
ATOM     50  C   UNL A   1      43.379  27.902  32.781  1.00  0.00     0.031 C 
ATOM     51  C   UNL A   1      38.140  31.025  29.580  1.00  0.00     0.029 A 
ATOM     52  C   UNL A   1      38.467  31.530  30.913  1.00  0.00     0.049 A 
ATOM     53  H   UNL A   1      39.980  30.861  32.179  1.00  0.00     0.167 HD
ATOM     54  C   UNL A   1      43.251  29.472  34.694  1.00  0.00     0.037 A 
ATOM     55  C   UNL A   1      37.826  32.533  31.546  1.00  0.00     0.037 A 
ATOM     56  C   UNL A   1      42.694  30.597  35.399  1.00  0.00     0.049 A 
ATOM     57  C   UNL A   1      38.305  32.987  32.898  1.00  0.00     0.074 A 
ATOM     58  C   UNL A   1      43.115  31.157  36.594  1.00  0.00     0.029 A 
ATOM     59  N   UNL A   1      41.588  31.324  34.986  1.00  0.00    -0.354 N 
ATOM     60  N   UNL A   1      39.320  32.544  33.603  1.00  0.00    -0.248 NA
ATOM     61  C   UNL A   1      37.558  34.078  33.540  1.00  0.00     0.031 C 
ATOM     62  C   UNL A   1      42.233  32.190  36.927  1.00  0.00     0.029 A 
ATOM     63  C   UNL A   1      41.289  32.304  35.919  1.00  0.00     0.049 A 
ATOM     64  H   UNL A   1      41.089  31.169  34.152  1.00  0.00     0.167 HD
ATOM     65  C   UNL A   1      39.339  33.308  34.765  1.00  0.00     0.074 A 
ATOM     66  C   UNL A   1      38.245  34.253  34.663  1.00  0.00     0.031 C 
ATOM     67  C   UNL A   1      40.188  33.231  35.820  1.00  0.00     0.037 A 
BRANCH  54  68
ATOM     68  C   UNL A   1      44.398  28.734  35.327  1.00  0.00     0.058 A 
ATOM     69  C   UNL A   1      44.183  27.670  36.217  1.00  0.00     0.135 A 
ATOM     70  C   UNL A   1      45.724  29.073  35.019  1.00  0.00     0.135 A 
ATOM     71  F   UNL A   1      42.933  27.313  36.555  1.00  0.00    -0.206 F 
ATOM     72  C   UNL A   1      45.243  26.987  36.803  1.00  0.00     0.059 A 
ATOM     73  C   UNL A   1      46.801  28.387  35.575  1.00  0.00     0.059 A 
ATOM     74  F   UNL A   1      45.986  30.083  34.173  1.00  0.00    -0.206 F 
ATOM     75  C   UNL A   1      46.549  27.355  36.477  1.00  0.00     0.060 A 
BRANCH  75  76
ATOM     76  S   UNL A   1      47.913  26.464  37.256  1.00  0.00     0.124 S 
ATOM     77  O   UNL A   1      47.326  26.099  38.541  1.00  0.00    -0.237 OA
ATOM     78  O   UNL A   1      48.137  25.362  36.325  1.00  0.00    -0.237 OA
ATOM     79  O   UNL A   1      48.980  27.458  37.314  1.00  0.00    -0.744 OA
ENDBRANCH  75  76
ENDBRANCH  54  68
BRANCH  55  80
ATOM     80  C   UNL A   1      36.670  33.193  30.884  1.00  0.00     0.058 A 
ATOM     81  C   UNL A   1      35.359  32.977  31.332  1.00  0.00     0.135 A 
ATOM     82  C   UNL A   1      36.861  34.092  29.823  1.00  0.00     0.135 A 
ATOM     83  F   UNL A   1      35.126  32.117  32.334  1.00  0.00    -0.206 F 
ATOM     84  C   UNL A   1      34.276  33.636  30.757  1.00  0.00     0.059 A 
ATOM     85  C   UNL A   1      35.796  34.777  29.246  1.00  0.00     0.059 A 
ATOM     86  F   UNL A   1      38.098  34.338  29.364  1.00  0.00    -0.206 F 
ATOM     87  C   UNL A   1      34.507  34.543  29.722  1.00  0.00     0.060 A 
BRANCH  87  88
ATOM     88  S   UNL A   1      33.104  35.462  29.049  1.00  0.00     0.124 S 
ATOM     89  O   UNL A   1      32.460  34.453  28.218  1.00  0.00    -0.237 OA
ATOM     90  O   UNL A   1      32.386  35.848  30.260  1.00  0.00    -0.237 OA
ATOM     91  O   UNL A   1      33.738  36.563  28.330  1.00  0.00    -0.744 OA
ENDBRANCH  87  88
ENDBRANCH  55  80
BRANCH  67  92
ATOM     92  C   UNL A   1      39.971  34.181  36.966  1.00  0.00     0.058 A 
ATOM     93  C   UNL A   1      40.478  35.489  36.935  1.00  0.00     0.135 A 
ATOM     94  C   UNL A   1      39.180  33.811  38.066  1.00  0.00     0.135 A 
ATOM     95  F   UNL A   1      41.247  35.891  35.910  1.00  0.00    -0.206 F 
ATOM     96  C   UNL A   1      40.216  36.395  37.958  1.00  0.00     0.059 A 
ATOM     97  C   UNL A   1      38.884  34.708  39.088  1.00  0.00     0.059 A 
ATOM     98  F   UNL A   1      38.662  32.575  38.141  1.00  0.00    -0.206 F 
ATOM     99  C   UNL A   1      39.411  35.998  39.028  1.00  0.00     0.060 A 
BRANCH  99 100
ATOM    100  S   UNL A   1      39.034  37.204  40.318  1.00  0.00     0.124 S 
ATOM    101  O   UNL A   1      40.369  37.565  40.782  1.00  0.00    -0.237 OA
ATOM    102  O   UNL A   1      38.318  38.239  39.578  1.00  0.00    -0.237 OA
ATOM    103  O   UNL A   1      38.224  36.445  41.267  1.00  0.00    -0.744 OA
ENDBRANCH  99 100
ENDBRANCH  67  92
ENDBRANCH  41  42
ENDBRANCH  33  36
ENDBRANCH  31  32
ENDBRANCH  30  31
ENDBRANCH   1  30
TORSDOF 17
ENDMDL
