MODEL 1
REMARK VINA RESULT:     -11.0      0.000      0.000
REMARK SMILES CC(C)(C#N)Nc1ccccc1C(=O)NCCCCCCNC(=O)c1ccc(-c2c3nc(c(-c4c(F)cc(S(=O)(=O)[O-])cc4F)c4ccc([nH]4)c(-c4c(F)cc(S(=O)(=O)[O-])cc4F)c4nc(c(-c5c(F)cc(S(=O)(=O)[O-])cc5F)c5ccc2[nH]5)C=C4)C=C3)cc1
REMARK SMILES IDX 18 1 17 2 16 3 15 4 13 5 14 6 12 8 7 9 8 10 9 11 11 12 10 13
REMARK SMILES IDX 6 14 2 16 1 17 3 18 4 19 5 20 19 21 20 22 21 23 22 24 23 25
REMARK SMILES IDX 24 27 25 28 26 29 90 30 27 31 89 32 28 33 29 34 30 35 83 36
REMARK SMILES IDX 31 37 88 38 82 39 84 40 32 41 87 42 81 43 80 44 33 46 67 47
REMARK SMILES IDX 46 48 66 49 47 50 50 51 65 52 85 53 48 54 49 55 64 57 86 58
REMARK SMILES IDX 51 59 34 60 35 61 44 62 36 63 37 64 43 65 45 66 38 67 39 68
REMARK SMILES IDX 40 69 41 70 42 71 68 72 69 73 78 74 70 75 71 76 77 77 79 78
REMARK SMILES IDX 72 79 73 80 74 81 75 82 76 83 52 84 53 85 62 86 54 87 55 88
REMARK SMILES IDX 61 89 63 90 56 91 57 92 58 93 59 94 60 95
REMARK H PARENT 15 7 6 15 22 26 84 45 50 56
REMARK Flexibility Score: inf
ROOT
ATOM      1  C   UNL A   1      38.549  24.026  26.456  1.00  0.00     0.002 C 
ENDROOT
BRANCH   1   2
ATOM      2  C   UNL A   1      37.219  23.847  25.702  1.00  0.00     0.021 C 
BRANCH   2   3
ATOM      3  C   UNL A   1      36.281  22.680  26.038  1.00  0.00     0.116 C 
BRANCH   3   4
ATOM      4  N   UNL A   1      36.770  21.359  25.689  1.00  0.00    -0.352 N 
ATOM      5  C   UNL A   1      36.136  20.326  25.027  1.00  0.00     0.253 C 
ATOM      6  O   UNL A   1      36.757  19.278  24.844  1.00  0.00    -0.269 OA
ATOM      7  H   UNL A   1      37.696  21.171  25.966  1.00  0.00     0.163 HD
BRANCH   5   8
ATOM      8  C   UNL A   1      34.706  20.392  24.617  1.00  0.00     0.062 A 
ATOM      9  C   UNL A   1      33.804  19.315  24.598  1.00  0.00     0.048 A 
ATOM     10  C   UNL A   1      32.576  19.512  23.931  1.00  0.00     0.026 A 
ATOM     11  C   UNL A   1      32.192  20.758  23.430  1.00  0.00     0.002 A 
ATOM     12  C   UNL A   1      34.280  21.666  24.180  1.00  0.00     0.016 A 
ATOM     13  C   UNL A   1      33.024  21.852  23.606  1.00  0.00     0.001 A 
BRANCH   9  14
ATOM     14  N   UNL A   1      33.939  18.108  25.265  1.00  0.00    -0.367 N 
ATOM     15  H   UNL A   1      33.959  18.156  26.248  1.00  0.00     0.162 HD
BRANCH  14  16
ATOM     16  C   UNL A   1      34.060  16.752  24.674  1.00  0.00     0.119 C 
ATOM     17  C   UNL A   1      32.833  15.924  25.024  1.00  0.00     0.051 C 
ATOM     18  C   UNL A   1      34.258  16.744  23.161  1.00  0.00     0.051 C 
BRANCH  16  19
ATOM     19  C   UNL A   1      35.223  16.064  25.320  1.00  0.00     0.090 C 
ATOM     20  N   UNL A   1      36.154  15.581  25.805  1.00  0.00    -0.196 NA
ENDBRANCH  16  19
ENDBRANCH  14  16
ENDBRANCH   9  14
ENDBRANCH   5   8
ENDBRANCH   3   4
ENDBRANCH   2   3
ENDBRANCH   1   2
BRANCH   1  21
ATOM     21  C   UNL A   1      39.292  22.835  27.074  1.00  0.00     0.002 C 
BRANCH  21  22
ATOM     22  C   UNL A   1      40.690  22.511  26.551  1.00  0.00     0.021 C 
BRANCH  22  23
ATOM     23  C   UNL A   1      41.779  23.465  27.020  1.00  0.00     0.116 C 
BRANCH  23  24
ATOM     24  N   UNL A   1      42.327  24.260  25.930  1.00  0.00    -0.352 N 
ATOM     25  C   UNL A   1      42.359  25.622  25.770  1.00  0.00     0.251 C 
ATOM     26  H   UNL A   1      42.735  23.742  25.199  1.00  0.00     0.163 HD
ATOM     27  O   UNL A   1      42.681  26.102  24.687  1.00  0.00    -0.269 OA
BRANCH  25  28
ATOM     28  C   UNL A   1      41.999  26.501  26.900  1.00  0.00     0.039 A 
ATOM     29  C   UNL A   1      41.043  26.070  27.822  1.00  0.00     0.014 A 
ATOM     30  C   UNL A   1      42.601  27.755  27.045  1.00  0.00     0.014 A 
ATOM     31  C   UNL A   1      40.734  26.875  28.919  1.00  0.00     0.010 A 
ATOM     32  C   UNL A   1      42.365  28.508  28.185  1.00  0.00     0.010 A 
ATOM     33  C   UNL A   1      41.418  28.084  29.128  1.00  0.00    -0.014 A 
BRANCH  33  34
ATOM     34  C   UNL A   1      41.147  28.932  30.316  1.00  0.00     0.031 A 
ATOM     35  C   UNL A   1      41.978  28.765  31.560  1.00  0.00     0.074 A 
ATOM     36  C   UNL A   1      40.121  29.806  30.288  1.00  0.00     0.049 A 
ATOM     37  N   UNL A   1      41.853  29.353  32.721  1.00  0.00    -0.248 NA
ATOM     38  C   UNL A   1      43.080  27.788  31.500  1.00  0.00     0.031 C 
ATOM     39  C   UNL A   1      39.223  30.020  29.150  1.00  0.00     0.029 A 
ATOM     40  N   UNL A   1      39.657  30.674  31.243  1.00  0.00    -0.354 N 
ATOM     41  C   UNL A   1      42.855  28.821  33.524  1.00  0.00     0.074 A 
ATOM     42  C   UNL A   1      43.529  27.806  32.746  1.00  0.00     0.031 C 
ATOM     43  C   UNL A   1      38.339  30.982  29.462  1.00  0.00     0.029 A 
ATOM     44  C   UNL A   1      38.573  31.415  30.836  1.00  0.00     0.049 A 
ATOM     45  H   UNL A   1      40.062  30.758  32.136  1.00  0.00     0.167 HD
ATOM     46  C   UNL A   1      43.207  29.174  34.782  1.00  0.00     0.037 A 
ATOM     47  C   UNL A   1      37.844  32.332  31.500  1.00  0.00     0.037 A 
ATOM     48  C   UNL A   1      42.534  30.194  35.543  1.00  0.00     0.049 A 
ATOM     49  C   UNL A   1      38.223  32.666  32.920  1.00  0.00     0.074 A 
ATOM     50  C   UNL A   1      42.820  30.645  36.820  1.00  0.00     0.029 A 
ATOM     51  N   UNL A   1      41.440  30.922  35.098  1.00  0.00    -0.354 N 
ATOM     52  N   UNL A   1      39.209  32.192  33.646  1.00  0.00    -0.248 NA
ATOM     53  C   UNL A   1      37.396  33.666  33.610  1.00  0.00     0.031 C 
ATOM     54  C   UNL A   1      41.868  31.607  37.166  1.00  0.00     0.029 A 
ATOM     55  C   UNL A   1      41.027  31.805  36.082  1.00  0.00     0.049 A 
ATOM     56  H   UNL A   1      41.019  30.824  34.213  1.00  0.00     0.167 HD
ATOM     57  C   UNL A   1      39.144  32.866  34.861  1.00  0.00     0.074 A 
ATOM     58  C   UNL A   1      38.033  33.789  34.766  1.00  0.00     0.031 C 
ATOM     59  C   UNL A   1      39.931  32.733  35.958  1.00  0.00     0.037 A 
BRANCH  46  60
ATOM     60  C   UNL A   1      44.382  28.468  35.407  1.00  0.00     0.058 A 
ATOM     61  C   UNL A   1      45.690  28.960  35.272  1.00  0.00     0.135 A 
ATOM     62  C   UNL A   1      44.197  27.314  36.185  1.00  0.00     0.135 A 
ATOM     63  F   UNL A   1      45.930  30.049  34.524  1.00  0.00    -0.206 F 
ATOM     64  C   UNL A   1      46.773  28.323  35.866  1.00  0.00     0.059 A 
ATOM     65  C   UNL A   1      45.262  26.679  36.817  1.00  0.00     0.059 A 
ATOM     66  F   UNL A   1      42.969  26.795  36.345  1.00  0.00    -0.206 F 
ATOM     67  C   UNL A   1      46.549  27.186  36.642  1.00  0.00     0.060 A 
BRANCH  67  68
ATOM     68  S   UNL A   1      47.967  26.388  37.424  1.00  0.00     0.124 S 
ATOM     69  O   UNL A   1      49.028  27.356  37.160  1.00  0.00    -0.237 OA
ATOM     70  O   UNL A   1      47.535  26.284  38.815  1.00  0.00    -0.237 OA
ATOM     71  O   UNL A   1      48.084  25.121  36.709  1.00  0.00    -0.744 OA
ENDBRANCH  67  68
ENDBRANCH  46  60
BRANCH  47  72
ATOM     72  C   UNL A   1      36.692  33.009  30.841  1.00  0.00     0.058 A 
ATOM     73  C   UNL A   1      36.897  34.030  29.900  1.00  0.00     0.135 A 
ATOM     74  C   UNL A   1      35.366  32.674  31.158  1.00  0.00     0.135 A 
ATOM     75  F   UNL A   1      38.145  34.391  29.563  1.00  0.00    -0.206 F 
ATOM     76  C   UNL A   1      35.834  34.725  29.333  1.00  0.00     0.059 A 
ATOM     77  C   UNL A   1      34.286  33.329  30.577  1.00  0.00     0.059 A 
ATOM     78  F   UNL A   1      35.111  31.691  32.036  1.00  0.00    -0.206 F 
ATOM     79  C   UNL A   1      34.530  34.370  29.681  1.00  0.00     0.060 A 
BRANCH  79  80
ATOM     80  S   UNL A   1      33.159  35.282  28.943  1.00  0.00     0.124 S 
ATOM     81  O   UNL A   1      32.498  34.241  28.165  1.00  0.00    -0.237 OA
ATOM     82  O   UNL A   1      32.437  35.754  30.121  1.00  0.00    -0.237 OA
ATOM     83  O   UNL A   1      33.826  36.322  28.166  1.00  0.00    -0.744 OA
ENDBRANCH  79  80
ENDBRANCH  47  72
BRANCH  59  84
ATOM     84  C   UNL A   1      39.656  33.645  37.123  1.00  0.00     0.058 A 
ATOM     85  C   UNL A   1      38.662  33.362  38.072  1.00  0.00     0.135 A 
ATOM     86  C   UNL A   1      40.442  34.793  37.321  1.00  0.00     0.135 A 
ATOM     87  F   UNL A   1      37.878  32.281  37.929  1.00  0.00    -0.206 F 
ATOM     88  C   UNL A   1      38.437  34.199  39.159  1.00  0.00     0.059 A 
ATOM     89  C   UNL A   1      40.260  35.624  38.421  1.00  0.00     0.059 A 
ATOM     90  F   UNL A   1      41.415  35.105  36.450  1.00  0.00    -0.206 F 
ATOM     91  C   UNL A   1      39.245  35.324  39.329  1.00  0.00     0.060 A 
BRANCH  91  92
ATOM     92  S   UNL A   1      38.968  36.376  40.769  1.00  0.00     0.124 S 
ATOM     93  O   UNL A   1      37.990  35.596  41.519  1.00  0.00    -0.237 OA
ATOM     94  O   UNL A   1      40.302  36.455  41.356  1.00  0.00    -0.237 OA
ATOM     95  O   UNL A   1      38.468  37.620  40.192  1.00  0.00    -0.744 OA
ENDBRANCH  91  92
ENDBRANCH  59  84
ENDBRANCH  33  34
ENDBRANCH  25  28
ENDBRANCH  23  24
ENDBRANCH  22  23
ENDBRANCH  21  22
ENDBRANCH   1  21
TORSDOF 19
ENDMDL
MODEL 2
REMARK VINA RESULT:     -10.8      4.678     10.240
REMARK SMILES CC(C)(C#N)Nc1ccccc1C(=O)NCCCCCCNC(=O)c1ccc(-c2c3nc(c(-c4c(F)cc(S(=O)(=O)[O-])cc4F)c4ccc([nH]4)c(-c4c(F)cc(S(=O)(=O)[O-])cc4F)c4nc(c(-c5c(F)cc(S(=O)(=O)[O-])cc5F)c5ccc2[nH]5)C=C4)C=C3)cc1
REMARK SMILES IDX 18 1 17 2 16 3 15 4 13 5 14 6 12 8 7 9 8 10 9 11 11 12 10 13
REMARK SMILES IDX 6 14 2 16 1 17 3 18 4 19 5 20 19 21 20 22 21 23 22 24 23 25
REMARK SMILES IDX 24 27 25 28 26 29 90 30 27 31 89 32 28 33 29 34 30 35 83 36
REMARK SMILES IDX 31 37 88 38 82 39 84 40 32 41 87 42 81 43 80 44 33 46 67 47
REMARK SMILES IDX 46 48 66 49 47 50 50 51 65 52 85 53 48 54 49 55 64 57 86 58
REMARK SMILES IDX 51 59 34 60 35 61 44 62 36 63 37 64 43 65 45 66 38 67 39 68
REMARK SMILES IDX 40 69 41 70 42 71 68 72 69 73 78 74 70 75 71 76 77 77 79 78
REMARK SMILES IDX 72 79 73 80 74 81 75 82 76 83 52 84 53 85 62 86 54 87 55 88
REMARK SMILES IDX 61 89 63 90 56 91 57 92 58 93 59 94 60 95
REMARK H PARENT 15 7 6 15 22 26 84 45 50 56
REMARK Flexibility Score: inf
ROOT
ATOM      1  C   UNL A   1      31.451  25.680  25.119  1.00  0.00     0.002 C 
ENDROOT
BRANCH   1   2
ATOM      2  C   UNL A   1      31.019  24.207  25.014  1.00  0.00     0.021 C 
BRANCH   2   3
ATOM      3  C   UNL A   1      30.972  23.501  23.651  1.00  0.00     0.116 C 
BRANCH   3   4
ATOM      4  N   UNL A   1      32.203  23.537  22.882  1.00  0.00    -0.352 N 
ATOM      5  C   UNL A   1      33.467  23.088  23.212  1.00  0.00     0.253 C 
ATOM      6  O   UNL A   1      34.372  23.229  22.390  1.00  0.00    -0.269 OA
ATOM      7  H   UNL A   1      32.124  23.943  21.988  1.00  0.00     0.163 HD
BRANCH   5   8
ATOM      8  C   UNL A   1      33.798  22.534  24.554  1.00  0.00     0.062 A 
ATOM      9  C   UNL A   1      33.314  21.329  25.091  1.00  0.00     0.048 A 
ATOM     10  C   UNL A   1      33.522  21.105  26.468  1.00  0.00     0.026 A 
ATOM     11  C   UNL A   1      34.299  21.960  27.253  1.00  0.00     0.002 A 
ATOM     12  C   UNL A   1      34.646  23.353  25.332  1.00  0.00     0.016 A 
ATOM     13  C   UNL A   1      34.909  23.059  26.668  1.00  0.00     0.001 A 
BRANCH   9  14
ATOM     14  N   UNL A   1      32.749  20.276  24.388  1.00  0.00    -0.367 N 
ATOM     15  H   UNL A   1      31.995  20.505  23.798  1.00  0.00     0.162 HD
BRANCH  14  16
ATOM     16  C   UNL A   1      33.145  18.847  24.420  1.00  0.00     0.119 C 
ATOM     17  C   UNL A   1      34.660  18.730  24.475  1.00  0.00     0.051 C 
ATOM     18  C   UNL A   1      32.537  18.054  25.574  1.00  0.00     0.051 C 
BRANCH  16  19
ATOM     19  C   UNL A   1      32.727  18.219  23.126  1.00  0.00     0.090 C 
ATOM     20  N   UNL A   1      32.347  17.743  22.143  1.00  0.00    -0.196 NA
ENDBRANCH  16  19
ENDBRANCH  14  16
ENDBRANCH   9  14
ENDBRANCH   5   8
ENDBRANCH   3   4
ENDBRANCH   2   3
ENDBRANCH   1   2
BRANCH   1  21
ATOM     21  C   UNL A   1      32.765  26.090  25.793  1.00  0.00     0.002 C 
BRANCH  21  22
ATOM     22  C   UNL A   1      33.349  27.461  25.455  1.00  0.00     0.021 C 
BRANCH  22  23
ATOM     23  C   UNL A   1      34.325  28.006  26.489  1.00  0.00     0.116 C 
BRANCH  23  24
ATOM     24  N   UNL A   1      33.989  29.358  26.909  1.00  0.00    -0.352 N 
ATOM     25  C   UNL A   1      34.683  30.222  27.719  1.00  0.00     0.251 C 
ATOM     26  H   UNL A   1      33.136  29.705  26.559  1.00  0.00     0.163 HD
ATOM     27  O   UNL A   1      34.142  31.246  28.125  1.00  0.00    -0.269 OA
BRANCH  25  28
ATOM     28  C   UNL A   1      36.074  29.909  28.103  1.00  0.00     0.039 A 
ATOM     29  C   UNL A   1      36.331  29.398  29.377  1.00  0.00     0.014 A 
ATOM     30  C   UNL A   1      37.124  30.127  27.207  1.00  0.00     0.014 A 
ATOM     31  C   UNL A   1      37.637  29.054  29.729  1.00  0.00     0.010 A 
ATOM     32  C   UNL A   1      38.403  29.695  27.523  1.00  0.00     0.010 A 
ATOM     33  C   UNL A   1      38.677  29.167  28.792  1.00  0.00    -0.014 A 
BRANCH  33  34
ATOM     34  C   UNL A   1      40.065  28.757  29.123  1.00  0.00     0.031 A 
ATOM     35  C   UNL A   1      40.984  29.722  29.822  1.00  0.00     0.074 A 
ATOM     36  C   UNL A   1      40.508  27.542  28.742  1.00  0.00     0.049 A 
ATOM     37  N   UNL A   1      42.247  29.584  30.130  1.00  0.00    -0.248 NA
ATOM     38  C   UNL A   1      40.416  31.028  30.202  1.00  0.00     0.031 C 
ATOM     39  C   UNL A   1      39.717  26.541  28.020  1.00  0.00     0.029 A 
ATOM     40  N   UNL A   1      41.730  26.942  28.904  1.00  0.00    -0.354 N 
ATOM     41  C   UNL A   1      42.621  30.776  30.739  1.00  0.00     0.074 A 
ATOM     42  C   UNL A   1      41.476  31.658  30.685  1.00  0.00     0.031 C 
ATOM     43  C   UNL A   1      40.464  25.441  27.832  1.00  0.00     0.029 A 
ATOM     44  C   UNL A   1      41.799  25.675  28.372  1.00  0.00     0.049 A 
ATOM     45  H   UNL A   1      42.488  27.377  29.357  1.00  0.00     0.167 HD
ATOM     46  C   UNL A   1      43.799  31.094  31.324  1.00  0.00     0.037 A 
ATOM     47  C   UNL A   1      42.827  24.807  28.317  1.00  0.00     0.037 A 
ATOM     48  C   UNL A   1      44.929  30.204  31.379  1.00  0.00     0.049 A 
ATOM     49  C   UNL A   1      44.145  25.208  28.928  1.00  0.00     0.074 A 
ATOM     50  C   UNL A   1      46.164  30.417  31.965  1.00  0.00     0.029 A 
ATOM     51  N   UNL A   1      44.961  28.930  30.830  1.00  0.00    -0.354 N 
ATOM     52  N   UNL A   1      44.465  26.320  29.548  1.00  0.00    -0.248 NA
ATOM     53  C   UNL A   1      45.242  24.235  28.838  1.00  0.00     0.031 C 
ATOM     54  C   UNL A   1      46.960  29.294  31.723  1.00  0.00     0.029 A 
ATOM     55  C   UNL A   1      46.201  28.354  31.045  1.00  0.00     0.049 A 
ATOM     56  H   UNL A   1      44.212  28.500  30.355  1.00  0.00     0.167 HD
ATOM     57  C   UNL A   1      45.785  26.161  29.957  1.00  0.00     0.074 A 
ATOM     58  C   UNL A   1      46.198  24.842  29.527  1.00  0.00     0.031 C 
ATOM     59  C   UNL A   1      46.585  27.028  30.627  1.00  0.00     0.037 A 
BRANCH  46  60
ATOM     60  C   UNL A   1      43.920  32.451  31.966  1.00  0.00     0.058 A 
ATOM     61  C   UNL A   1      44.365  33.569  31.242  1.00  0.00     0.135 A 
ATOM     62  C   UNL A   1      43.544  32.649  33.304  1.00  0.00     0.135 A 
ATOM     63  F   UNL A   1      44.756  33.436  29.964  1.00  0.00    -0.206 F 
ATOM     64  C   UNL A   1      44.456  34.827  31.826  1.00  0.00     0.059 A 
ATOM     65  C   UNL A   1      43.594  33.907  33.900  1.00  0.00     0.059 A 
ATOM     66  F   UNL A   1      43.115  31.617  34.047  1.00  0.00    -0.206 F 
ATOM     67  C   UNL A   1      44.062  34.987  33.155  1.00  0.00     0.060 A 
BRANCH  67  68
ATOM     68  S   UNL A   1      44.165  36.635  33.886  1.00  0.00     0.124 S 
ATOM     69  O   UNL A   1      44.071  36.327  35.310  1.00  0.00    -0.237 OA
ATOM     70  O   UNL A   1      45.469  37.099  33.422  1.00  0.00    -0.237 OA
ATOM     71  O   UNL A   1      43.015  37.332  33.319  1.00  0.00    -0.744 OA
ENDBRANCH  67  68
ENDBRANCH  46  60
BRANCH  47  72
ATOM     72  C   UNL A   1      42.661  23.474  27.674  1.00  0.00     0.058 A 
ATOM     73  C   UNL A   1      42.065  22.407  28.367  1.00  0.00     0.135 A 
ATOM     74  C   UNL A   1      43.120  23.226  26.371  1.00  0.00     0.135 A 
ATOM     75  F   UNL A   1      41.611  22.590  29.617  1.00  0.00    -0.206 F 
ATOM     76  C   UNL A   1      41.972  21.136  27.811  1.00  0.00     0.059 A 
ATOM     77  C   UNL A   1      43.005  21.972  25.780  1.00  0.00     0.059 A 
ATOM     78  F   UNL A   1      43.679  24.214  25.655  1.00  0.00    -0.206 F 
ATOM     79  C   UNL A   1      42.449  20.927  26.516  1.00  0.00     0.060 A 
BRANCH  79  80
ATOM     80  S   UNL A   1      42.327  19.272  25.807  1.00  0.00     0.124 S 
ATOM     81  O   UNL A   1      40.887  19.136  25.623  1.00  0.00    -0.237 OA
ATOM     82  O   UNL A   1      43.117  19.404  24.586  1.00  0.00    -0.237 OA
ATOM     83  O   UNL A   1      42.915  18.421  26.836  1.00  0.00    -0.744 OA
ENDBRANCH  79  80
ENDBRANCH  47  72
BRANCH  59  84
ATOM     84  C   UNL A   1      47.968  26.557  30.988  1.00  0.00     0.058 A 
ATOM     85  C   UNL A   1      49.068  26.762  30.142  1.00  0.00     0.135 A 
ATOM     86  C   UNL A   1      48.203  25.941  32.229  1.00  0.00     0.135 A 
ATOM     87  F   UNL A   1      48.901  27.341  28.942  1.00  0.00    -0.206 F 
ATOM     88  C   UNL A   1      50.346  26.347  30.499  1.00  0.00     0.059 A 
ATOM     89  C   UNL A   1      49.478  25.551  32.623  1.00  0.00     0.059 A 
ATOM     90  F   UNL A   1      47.187  25.730  33.083  1.00  0.00    -0.206 F 
ATOM     91  C   UNL A   1      50.542  25.748  31.745  1.00  0.00     0.060 A 
BRANCH  91  92
ATOM     92  S   UNL A   1      52.215  25.255  32.211  1.00  0.00     0.124 S 
ATOM     93  O   UNL A   1      52.395  25.976  33.466  1.00  0.00    -0.237 OA
ATOM     94  O   UNL A   1      52.090  23.805  32.323  1.00  0.00    -0.237 OA
ATOM     95  O   UNL A   1      53.032  25.724  31.095  1.00  0.00    -0.744 OA
ENDBRANCH  91  92
ENDBRANCH  59  84
ENDBRANCH  33  34
ENDBRANCH  25  28
ENDBRANCH  23  24
ENDBRANCH  22  23
ENDBRANCH  21  22
ENDBRANCH   1  21
TORSDOF 19
ENDMDL
MODEL 3
REMARK VINA RESULT:     -10.8      3.967      5.978
REMARK SMILES CC(C)(C#N)Nc1ccccc1C(=O)NCCCCCCNC(=O)c1ccc(-c2c3nc(c(-c4c(F)cc(S(=O)(=O)[O-])cc4F)c4ccc([nH]4)c(-c4c(F)cc(S(=O)(=O)[O-])cc4F)c4nc(c(-c5c(F)cc(S(=O)(=O)[O-])cc5F)c5ccc2[nH]5)C=C4)C=C3)cc1
REMARK SMILES IDX 18 1 17 2 16 3 15 4 13 5 14 6 12 8 7 9 8 10 9 11 11 12 10 13
REMARK SMILES IDX 6 14 2 16 1 17 3 18 4 19 5 20 19 21 20 22 21 23 22 24 23 25
REMARK SMILES IDX 24 27 25 28 26 29 90 30 27 31 89 32 28 33 29 34 30 35 83 36
REMARK SMILES IDX 31 37 88 38 82 39 84 40 32 41 87 42 81 43 80 44 33 46 67 47
REMARK SMILES IDX 46 48 66 49 47 50 50 51 65 52 85 53 48 54 49 55 64 57 86 58
REMARK SMILES IDX 51 59 34 60 35 61 44 62 36 63 37 64 43 65 45 66 38 67 39 68
REMARK SMILES IDX 40 69 41 70 42 71 68 72 69 73 78 74 70 75 71 76 77 77 79 78
REMARK SMILES IDX 72 79 73 80 74 81 75 82 76 83 52 84 53 85 62 86 54 87 55 88
REMARK SMILES IDX 61 89 63 90 56 91 57 92 58 93 59 94 60 95
REMARK H PARENT 15 7 6 15 22 26 84 45 50 56
REMARK Flexibility Score: inf
ROOT
ATOM      1  C   UNL A   1      43.877  24.494  29.496  1.00  0.00     0.002 C 
ENDROOT
BRANCH   1   2
ATOM      2  C   UNL A   1      44.843  25.142  30.504  1.00  0.00     0.021 C 
BRANCH   2   3
ATOM      3  C   UNL A   1      46.052  25.953  30.019  1.00  0.00     0.116 C 
BRANCH   3   4
ATOM      4  N   UNL A   1      47.050  25.208  29.273  1.00  0.00    -0.352 N 
ATOM      5  C   UNL A   1      47.473  25.357  27.966  1.00  0.00     0.253 C 
ATOM      6  O   UNL A   1      48.343  24.596  27.541  1.00  0.00    -0.269 OA
ATOM      7  H   UNL A   1      47.495  24.487  29.776  1.00  0.00     0.163 HD
BRANCH   5   8
ATOM      8  C   UNL A   1      46.850  26.329  27.026  1.00  0.00     0.062 A 
ATOM      9  C   UNL A   1      45.902  26.025  26.035  1.00  0.00     0.048 A 
ATOM     10  C   UNL A   1      45.630  27.021  25.072  1.00  0.00     0.026 A 
ATOM     11  C   UNL A   1      46.159  28.309  25.165  1.00  0.00     0.002 A 
ATOM     12  C   UNL A   1      47.319  27.655  27.159  1.00  0.00     0.016 A 
ATOM     13  C   UNL A   1      46.962  28.644  26.244  1.00  0.00     0.001 A 
BRANCH   9  14
ATOM     14  N   UNL A   1      45.113  24.887  25.963  1.00  0.00    -0.367 N 
ATOM     15  H   UNL A   1      44.203  24.967  26.330  1.00  0.00     0.162 HD
BRANCH  14  16
ATOM     16  C   UNL A   1      45.477  23.563  25.400  1.00  0.00     0.119 C 
ATOM     17  C   UNL A   1      46.701  23.699  24.508  1.00  0.00     0.051 C 
ATOM     18  C   UNL A   1      45.736  22.487  26.451  1.00  0.00     0.051 C 
BRANCH  16  19
ATOM     19  C   UNL A   1      44.361  23.113  24.509  1.00  0.00     0.090 C 
ATOM     20  N   UNL A   1      43.531  22.718  23.808  1.00  0.00    -0.196 NA
ENDBRANCH  16  19
ENDBRANCH  14  16
ENDBRANCH   9  14
ENDBRANCH   5   8
ENDBRANCH   3   4
ENDBRANCH   2   3
ENDBRANCH   1   2
BRANCH   1  21
ATOM     21  C   UNL A   1      43.396  23.047  29.654  1.00  0.00     0.002 C 
BRANCH  21  22
ATOM     22  C   UNL A   1      42.777  22.359  28.438  1.00  0.00     0.021 C 
BRANCH  22  23
ATOM     23  C   UNL A   1      41.568  23.076  27.853  1.00  0.00     0.116 C 
BRANCH  23  24
ATOM     24  N   UNL A   1      41.880  23.759  26.606  1.00  0.00    -0.352 N 
ATOM     25  C   UNL A   1      41.762  25.087  26.282  1.00  0.00     0.251 C 
ATOM     26  H   UNL A   1      42.229  23.182  25.889  1.00  0.00     0.163 HD
ATOM     27  O   UNL A   1      41.883  25.444  25.114  1.00  0.00    -0.269 OA
BRANCH  25  28
ATOM     28  C   UNL A   1      41.482  26.078  27.341  1.00  0.00     0.039 A 
ATOM     29  C   UNL A   1      40.380  25.889  28.178  1.00  0.00     0.014 A 
ATOM     30  C   UNL A   1      42.304  27.197  27.502  1.00  0.00     0.014 A 
ATOM     31  C   UNL A   1      40.138  26.795  29.211  1.00  0.00     0.010 A 
ATOM     32  C   UNL A   1      42.119  28.040  28.587  1.00  0.00     0.010 A 
ATOM     33  C   UNL A   1      41.027  27.857  29.445  1.00  0.00    -0.014 A 
BRANCH  33  34
ATOM     34  C   UNL A   1      40.823  28.803  30.571  1.00  0.00     0.031 A 
ATOM     35  C   UNL A   1      41.665  28.682  31.813  1.00  0.00     0.074 A 
ATOM     36  C   UNL A   1      39.844  29.727  30.494  1.00  0.00     0.049 A 
ATOM     37  N   UNL A   1      41.592  29.358  32.929  1.00  0.00    -0.248 NA
ATOM     38  C   UNL A   1      42.712  27.644  31.810  1.00  0.00     0.031 C 
ATOM     39  C   UNL A   1      38.938  29.908  29.356  1.00  0.00     0.029 A 
ATOM     40  N   UNL A   1      39.445  30.686  31.388  1.00  0.00    -0.354 N 
ATOM     41  C   UNL A   1      42.579  28.833  33.755  1.00  0.00     0.074 A 
ATOM     42  C   UNL A   1      43.184  27.729  33.045  1.00  0.00     0.031 C 
ATOM     43  C   UNL A   1      38.113  30.936  29.609  1.00  0.00     0.029 A 
ATOM     44  C   UNL A   1      38.394  31.454  30.943  1.00  0.00     0.049 A 
ATOM     45  H   UNL A   1      39.869  30.813  32.268  1.00  0.00     0.167 HD
ATOM     46  C   UNL A   1      42.971  29.256  34.979  1.00  0.00     0.037 A 
ATOM     47  C   UNL A   1      37.727  32.455  31.549  1.00  0.00     0.037 A 
ATOM     48  C   UNL A   1      42.368  30.364  35.673  1.00  0.00     0.049 A 
ATOM     49  C   UNL A   1      38.149  32.871  32.934  1.00  0.00     0.074 A 
ATOM     50  C   UNL A   1      42.700  30.890  36.908  1.00  0.00     0.029 A 
ATOM     51  N   UNL A   1      41.307  31.116  35.190  1.00  0.00    -0.354 N 
ATOM     52  N   UNL A   1      39.121  32.398  33.680  1.00  0.00    -0.248 NA
ATOM     53  C   UNL A   1      37.389  33.961  33.561  1.00  0.00     0.031 C 
ATOM     54  C   UNL A   1      41.807  31.925  37.196  1.00  0.00     0.029 A 
ATOM     55  C   UNL A   1      40.959  32.089  36.112  1.00  0.00     0.049 A 
ATOM     56  H   UNL A   1      40.865  30.978  34.320  1.00  0.00     0.167 HD
ATOM     57  C   UNL A   1      39.113  33.160  34.843  1.00  0.00     0.074 A 
ATOM     58  C   UNL A   1      38.051  34.133  34.696  1.00  0.00     0.031 C 
ATOM     59  C   UNL A   1      39.911  33.064  35.935  1.00  0.00     0.037 A 
BRANCH  46  60
ATOM     60  C   UNL A   1      44.118  28.534  35.637  1.00  0.00     0.058 A 
ATOM     61  C   UNL A   1      43.901  27.450  36.504  1.00  0.00     0.135 A 
ATOM     62  C   UNL A   1      45.447  28.895  35.366  1.00  0.00     0.135 A 
ATOM     63  F   UNL A   1      42.650  27.072  36.816  1.00  0.00    -0.206 F 
ATOM     64  C   UNL A   1      44.957  26.766  37.095  1.00  0.00     0.059 A 
ATOM     65  C   UNL A   1      46.521  28.203  35.919  1.00  0.00     0.059 A 
ATOM     66  F   UNL A   1      45.715  29.925  34.549  1.00  0.00    -0.206 F 
ATOM     67  C   UNL A   1      46.264  27.147  36.792  1.00  0.00     0.060 A 
BRANCH  67  68
ATOM     68  S   UNL A   1      47.622  26.230  37.551  1.00  0.00     0.124 S 
ATOM     69  O   UNL A   1      46.900  25.183  38.269  1.00  0.00    -0.237 OA
ATOM     70  O   UNL A   1      48.386  25.790  36.388  1.00  0.00    -0.237 OA
ATOM     71  O   UNL A   1      48.279  27.227  38.391  1.00  0.00    -0.744 OA
ENDBRANCH  67  68
ENDBRANCH  46  60
BRANCH  47  72
ATOM     72  C   UNL A   1      36.601  33.144  30.858  1.00  0.00     0.058 A 
ATOM     73  C   UNL A   1      36.845  34.120  29.878  1.00  0.00     0.135 A 
ATOM     74  C   UNL A   1      35.264  32.869  31.182  1.00  0.00     0.135 A 
ATOM     75  F   UNL A   1      38.105  34.423  29.532  1.00  0.00    -0.206 F 
ATOM     76  C   UNL A   1      35.808  34.827  29.278  1.00  0.00     0.059 A 
ATOM     77  C   UNL A   1      34.209  33.537  30.569  1.00  0.00     0.059 A 
ATOM     78  F   UNL A   1      34.972  31.931  32.097  1.00  0.00    -0.206 F 
ATOM     79  C   UNL A   1      34.491  34.531  29.634  1.00  0.00     0.060 A 
BRANCH  79  80
ATOM     80  S   UNL A   1      33.155  35.460  28.854  1.00  0.00     0.124 S 
ATOM     81  O   UNL A   1      33.898  36.436  28.065  1.00  0.00    -0.237 OA
ATOM     82  O   UNL A   1      32.463  34.421  28.096  1.00  0.00    -0.237 OA
ATOM     83  O   UNL A   1      32.413  36.000  29.988  1.00  0.00    -0.744 OA
ENDBRANCH  79  80
ENDBRANCH  47  72
BRANCH  59  84
ATOM     84  C   UNL A   1      39.707  34.072  37.034  1.00  0.00     0.058 A 
ATOM     85  C   UNL A   1      38.923  33.793  38.164  1.00  0.00     0.135 A 
ATOM     86  C   UNL A   1      40.354  35.318  36.979  1.00  0.00     0.135 A 
ATOM     87  F   UNL A   1      38.277  32.620  38.266  1.00  0.00    -0.206 F 
ATOM     88  C   UNL A   1      38.764  34.723  39.185  1.00  0.00     0.059 A 
ATOM     89  C   UNL A   1      40.240  36.249  38.005  1.00  0.00     0.059 A 
ATOM     90  F   UNL A   1      41.126  35.633  35.925  1.00  0.00    -0.206 F 
ATOM     91  C   UNL A   1      39.432  35.946  39.100  1.00  0.00     0.060 A 
BRANCH  91  92
ATOM     92  S   UNL A   1      39.250  37.124  40.455  1.00  0.00     0.124 S 
ATOM     93  O   UNL A   1      38.507  36.336  41.432  1.00  0.00    -0.237 OA
ATOM     94  O   UNL A   1      40.638  37.418  40.798  1.00  0.00    -0.237 OA
ATOM     95  O   UNL A   1      38.512  38.230  39.849  1.00  0.00    -0.744 OA
ENDBRANCH  91  92
ENDBRANCH  59  84
ENDBRANCH  33  34
ENDBRANCH  25  28
ENDBRANCH  23  24
ENDBRANCH  22  23
ENDBRANCH  21  22
ENDBRANCH   1  21
TORSDOF 19
ENDMDL
