MODEL 1
REMARK VINA RESULT:     -11.5      0.000      0.000
REMARK SMILES Cc1nc2ncnn2c(O)c1CCC(=O)NCCCCCCNC(=O)c1ccc(-c2c3nc(c(-c4c(F)cc(S(=O)(=O)[O-])cc4F)c4ccc([nH]4)c(-c4c(F)cc(S(=O)(=O)[O-])cc4F)c4nc(c(-c5c(F)cc(S(=O)(=O)[O-])cc5F)c5ccc2[nH]5)C=C4)C=C3)cc1
REMARK SMILES IDX 19 1 18 2 17 3 16 4 14 5 15 6 13 8 12 9 11 10 1 11 2 12 3 13
REMARK SMILES IDX 4 14 9 15 5 16 8 17 6 18 7 19 10 20 20 22 21 23 22 24 23 25
REMARK SMILES IDX 24 26 25 28 26 29 27 30 91 31 28 32 90 33 29 34 30 35 31 36
REMARK SMILES IDX 84 37 32 38 89 39 83 40 85 41 33 42 88 43 82 44 81 45 34 47
REMARK SMILES IDX 68 48 47 49 67 50 48 51 51 52 66 53 86 54 49 55 50 56 65 58
REMARK SMILES IDX 87 59 52 60 35 61 36 62 45 63 37 64 38 65 44 66 46 67 39 68
REMARK SMILES IDX 40 69 41 70 42 71 43 72 69 73 70 74 79 75 71 76 72 77 78 78
REMARK SMILES IDX 80 79 73 80 74 81 75 82 76 83 77 84 53 85 54 86 63 87 55 88
REMARK SMILES IDX 56 89 62 90 64 91 57 92 58 93 59 94 60 95 61 96
REMARK H PARENT 16 7 10 21 23 27 85 46 51 57
REMARK Flexibility Score: inf
ROOT
ATOM      1  C   UNL A   1      39.862  21.464  26.388  1.00  0.00     0.002 C 
ENDROOT
BRANCH   1   2
ATOM      2  C   UNL A   1      39.657  22.988  26.489  1.00  0.00     0.021 C 
BRANCH   2   3
ATOM      3  C   UNL A   1      38.288  23.667  26.308  1.00  0.00     0.116 C 
BRANCH   3   4
ATOM      4  N   UNL A   1      37.844  23.421  24.923  1.00  0.00    -0.356 N 
ATOM      5  C   UNL A   1      36.652  23.126  24.350  1.00  0.00     0.220 C 
ATOM      6  O   UNL A   1      36.669  22.620  23.223  1.00  0.00    -0.275 OA
ATOM      7  H   UNL A   1      38.577  23.483  24.270  1.00  0.00     0.163 HD
BRANCH   5   8
ATOM      8  C   UNL A   1      35.328  23.437  25.012  1.00  0.00     0.105 C 
BRANCH   8   9
ATOM      9  C   UNL A   1      34.895  22.367  26.027  1.00  0.00     0.053 C 
BRANCH   9  10
ATOM     10  C   UNL A   1      34.177  21.255  25.324  1.00  0.00     0.036 A 
ATOM     11  C   UNL A   1      31.911  22.566  25.079  1.00  0.00     0.067 C 
ATOM     12  C   UNL A   1      32.667  21.262  25.171  1.00  0.00     0.050 A 
ATOM     13  N   UNL A   1      31.932  20.208  24.994  1.00  0.00    -0.216 NA
ATOM     14  C   UNL A   1      32.589  19.038  24.835  1.00  0.00     0.255 A 
ATOM     15  C   UNL A   1      34.780  20.108  24.944  1.00  0.00     0.220 A 
ATOM     16  N   UNL A   1      32.094  17.825  24.816  1.00  0.00    -0.197 NA
ATOM     17  N   UNL A   1      33.980  18.986  24.690  1.00  0.00    -0.163 N 
ATOM     18  C   UNL A   1      33.192  17.075  24.599  1.00  0.00     0.249 A 
ATOM     19  N   UNL A   1      34.357  17.699  24.507  1.00  0.00    -0.150 NA
BRANCH  15  20
ATOM     20  O   UNL A   1      36.153  19.912  24.987  1.00  0.00    -0.493 OA
ATOM     21  H   UNL A   1      36.732  20.596  24.714  1.00  0.00     0.295 HD
ENDBRANCH  15  20
ENDBRANCH   9  10
ENDBRANCH   8   9
ENDBRANCH   5   8
ENDBRANCH   3   4
ENDBRANCH   2   3
ENDBRANCH   1   2
BRANCH   1  22
ATOM     22  C   UNL A   1      40.767  20.717  27.370  1.00  0.00     0.002 C 
BRANCH  22  23
ATOM     23  C   UNL A   1      42.230  20.516  26.943  1.00  0.00     0.021 C 
BRANCH  23  24
ATOM     24  C   UNL A   1      42.463  19.611  25.726  1.00  0.00     0.116 C 
BRANCH  24  25
ATOM     25  N   UNL A   1      43.859  19.427  25.324  1.00  0.00    -0.352 N 
ATOM     26  C   UNL A   1      44.804  20.385  24.953  1.00  0.00     0.251 C 
ATOM     27  H   UNL A   1      44.177  18.495  25.313  1.00  0.00     0.163 HD
ATOM     28  O   UNL A   1      45.800  20.048  24.331  1.00  0.00    -0.269 OA
BRANCH  26  29
ATOM     29  C   UNL A   1      44.614  21.811  25.326  1.00  0.00     0.039 A 
ATOM     30  C   UNL A   1      43.764  22.685  24.631  1.00  0.00     0.014 A 
ATOM     31  C   UNL A   1      45.353  22.301  26.387  1.00  0.00     0.014 A 
ATOM     32  C   UNL A   1      43.584  24.004  25.094  1.00  0.00     0.010 A 
ATOM     33  C   UNL A   1      45.065  23.535  26.917  1.00  0.00     0.010 A 
ATOM     34  C   UNL A   1      44.222  24.416  26.273  1.00  0.00    -0.014 A 
BRANCH  34  35
ATOM     35  C   UNL A   1      43.966  25.676  26.979  1.00  0.00     0.031 A 
ATOM     36  C   UNL A   1      44.929  26.761  26.666  1.00  0.00     0.074 A 
ATOM     37  C   UNL A   1      42.810  25.982  27.620  1.00  0.00     0.049 A 
ATOM     38  N   UNL A   1      45.871  27.196  27.430  1.00  0.00    -0.248 NA
ATOM     39  C   UNL A   1      44.950  27.336  25.312  1.00  0.00     0.031 C 
ATOM     40  C   UNL A   1      41.576  25.189  27.737  1.00  0.00     0.029 A 
ATOM     41  N   UNL A   1      42.457  27.147  28.237  1.00  0.00    -0.354 N 
ATOM     42  C   UNL A   1      46.457  28.261  26.757  1.00  0.00     0.074 A 
ATOM     43  C   UNL A   1      45.994  28.167  25.396  1.00  0.00     0.031 C 
ATOM     44  C   UNL A   1      40.566  25.965  28.190  1.00  0.00     0.029 A 
ATOM     45  C   UNL A   1      41.109  27.252  28.576  1.00  0.00     0.049 A 
ATOM     46  H   UNL A   1      43.107  27.861  28.428  1.00  0.00     0.167 HD
ATOM     47  C   UNL A   1      47.094  29.252  27.443  1.00  0.00     0.037 A 
ATOM     48  C   UNL A   1      40.481  28.310  29.155  1.00  0.00     0.037 A 
ATOM     49  C   UNL A   1      47.257  28.887  28.834  1.00  0.00     0.049 A 
ATOM     50  C   UNL A   1      41.539  29.092  29.849  1.00  0.00     0.074 A 
ATOM     51  C   UNL A   1      47.869  27.835  29.489  1.00  0.00     0.029 A 
ATOM     52  N   UNL A   1      46.378  29.433  29.742  1.00  0.00    -0.354 N 
ATOM     53  N   UNL A   1      42.217  28.644  30.872  1.00  0.00    -0.248 NA
ATOM     54  C   UNL A   1      42.170  30.174  29.111  1.00  0.00     0.031 C 
ATOM     55  C   UNL A   1      46.980  27.499  30.552  1.00  0.00     0.029 A 
ATOM     56  C   UNL A   1      45.924  28.412  30.539  1.00  0.00     0.049 A 
ATOM     57  H   UNL A   1      46.122  30.382  29.807  1.00  0.00     0.167 HD
ATOM     58  C   UNL A   1      43.522  29.061  30.641  1.00  0.00     0.074 A 
ATOM     59  C   UNL A   1      43.413  30.076  29.593  1.00  0.00     0.031 C 
ATOM     60  C   UNL A   1      44.592  28.351  31.108  1.00  0.00     0.037 A 
BRANCH  47  61
ATOM     61  C   UNL A   1      47.266  30.678  26.979  1.00  0.00     0.058 A 
ATOM     62  C   UNL A   1      48.549  31.263  27.038  1.00  0.00     0.135 A 
ATOM     63  C   UNL A   1      46.200  31.571  26.739  1.00  0.00     0.135 A 
ATOM     64  F   UNL A   1      49.637  30.508  27.255  1.00  0.00    -0.206 F 
ATOM     65  C   UNL A   1      48.747  32.640  26.956  1.00  0.00     0.059 A 
ATOM     66  C   UNL A   1      46.383  32.943  26.597  1.00  0.00     0.059 A 
ATOM     67  F   UNL A   1      44.923  31.174  26.729  1.00  0.00    -0.206 F 
ATOM     68  C   UNL A   1      47.653  33.473  26.754  1.00  0.00     0.060 A 
BRANCH  68  69
ATOM     69  S   UNL A   1      47.894  35.258  26.771  1.00  0.00     0.124 S 
ATOM     70  O   UNL A   1      49.036  35.388  27.670  1.00  0.00    -0.237 OA
ATOM     71  O   UNL A   1      48.153  35.541  25.364  1.00  0.00    -0.237 OA
ATOM     72  O   UNL A   1      46.625  35.764  27.284  1.00  0.00    -0.744 OA
ENDBRANCH  68  69
ENDBRANCH  47  61
BRANCH  48  73
ATOM     73  C   UNL A   1      39.095  28.816  28.945  1.00  0.00     0.058 A 
ATOM     74  C   UNL A   1      38.198  29.001  30.015  1.00  0.00     0.135 A 
ATOM     75  C   UNL A   1      38.710  29.396  27.718  1.00  0.00     0.135 A 
ATOM     76  F   UNL A   1      38.484  28.505  31.228  1.00  0.00    -0.206 F 
ATOM     77  C   UNL A   1      37.020  29.752  29.889  1.00  0.00     0.059 A 
ATOM     78  C   UNL A   1      37.540  30.142  27.566  1.00  0.00     0.059 A 
ATOM     79  F   UNL A   1      39.512  29.333  26.645  1.00  0.00    -0.206 F 
ATOM     80  C   UNL A   1      36.709  30.339  28.663  1.00  0.00     0.060 A 
BRANCH  80  81
ATOM     81  S   UNL A   1      35.284  31.449  28.531  1.00  0.00     0.124 S 
ATOM     82  O   UNL A   1      35.079  31.851  29.917  1.00  0.00    -0.237 OA
ATOM     83  O   UNL A   1      35.782  32.485  27.632  1.00  0.00    -0.237 OA
ATOM     84  O   UNL A   1      34.239  30.595  27.969  1.00  0.00    -0.744 OA
ENDBRANCH  80  81
ENDBRANCH  48  73
BRANCH  60  85
ATOM     85  C   UNL A   1      44.353  27.260  32.126  1.00  0.00     0.058 A 
ATOM     86  C   UNL A   1      44.234  25.893  31.818  1.00  0.00     0.135 A 
ATOM     87  C   UNL A   1      44.445  27.598  33.485  1.00  0.00     0.135 A 
ATOM     88  F   UNL A   1      44.232  25.468  30.549  1.00  0.00    -0.206 F 
ATOM     89  C   UNL A   1      44.190  24.911  32.812  1.00  0.00     0.059 A 
ATOM     90  C   UNL A   1      44.433  26.636  34.492  1.00  0.00     0.059 A 
ATOM     91  F   UNL A   1      44.616  28.881  33.848  1.00  0.00    -0.206 F 
ATOM     92  C   UNL A   1      44.299  25.293  34.148  1.00  0.00     0.060 A 
BRANCH  92  93
ATOM     93  S   UNL A   1      44.341  24.016  35.427  1.00  0.00     0.124 S 
ATOM     94  O   UNL A   1      43.034  23.386  35.276  1.00  0.00    -0.237 OA
ATOM     95  O   UNL A   1      45.487  23.205  35.026  1.00  0.00    -0.237 OA
ATOM     96  O   UNL A   1      44.528  24.775  36.661  1.00  0.00    -0.744 OA
ENDBRANCH  92  93
ENDBRANCH  60  85
ENDBRANCH  34  35
ENDBRANCH  26  29
ENDBRANCH  24  25
ENDBRANCH  23  24
ENDBRANCH  22  23
ENDBRANCH   1  22
TORSDOF 19
ENDMDL
MODEL 2
REMARK VINA RESULT:     -11.4      3.744      5.016
REMARK SMILES Cc1nc2ncnn2c(O)c1CCC(=O)NCCCCCCNC(=O)c1ccc(-c2c3nc(c(-c4c(F)cc(S(=O)(=O)[O-])cc4F)c4ccc([nH]4)c(-c4c(F)cc(S(=O)(=O)[O-])cc4F)c4nc(c(-c5c(F)cc(S(=O)(=O)[O-])cc5F)c5ccc2[nH]5)C=C4)C=C3)cc1
REMARK SMILES IDX 19 1 18 2 17 3 16 4 14 5 15 6 13 8 12 9 11 10 1 11 2 12 3 13
REMARK SMILES IDX 4 14 9 15 5 16 8 17 6 18 7 19 10 20 20 22 21 23 22 24 23 25
REMARK SMILES IDX 24 26 25 28 26 29 27 30 91 31 28 32 90 33 29 34 30 35 31 36
REMARK SMILES IDX 84 37 32 38 89 39 83 40 85 41 33 42 88 43 82 44 81 45 34 47
REMARK SMILES IDX 68 48 47 49 67 50 48 51 51 52 66 53 86 54 49 55 50 56 65 58
REMARK SMILES IDX 87 59 52 60 35 61 36 62 45 63 37 64 38 65 44 66 46 67 39 68
REMARK SMILES IDX 40 69 41 70 42 71 43 72 69 73 70 74 79 75 71 76 72 77 78 78
REMARK SMILES IDX 80 79 73 80 74 81 75 82 76 83 77 84 53 85 54 86 63 87 55 88
REMARK SMILES IDX 56 89 62 90 64 91 57 92 58 93 59 94 60 95 61 96
REMARK H PARENT 16 7 10 21 23 27 85 46 51 57
REMARK Flexibility Score: inf
ROOT
ATOM      1  C   UNL A   1      37.132  23.743  25.431  1.00  0.00     0.002 C 
ENDROOT
BRANCH   1   2
ATOM      2  C   UNL A   1      35.659  23.635  25.868  1.00  0.00     0.021 C 
BRANCH   2   3
ATOM      3  C   UNL A   1      34.604  24.708  25.549  1.00  0.00     0.116 C 
BRANCH   3   4
ATOM      4  N   UNL A   1      33.341  24.302  26.193  1.00  0.00    -0.356 N 
ATOM      5  C   UNL A   1      32.096  24.834  26.254  1.00  0.00     0.220 C 
ATOM      6  O   UNL A   1      31.356  24.453  27.167  1.00  0.00    -0.275 OA
ATOM      7  H   UNL A   1      33.420  23.456  26.689  1.00  0.00     0.163 HD
BRANCH   5   8
ATOM      8  C   UNL A   1      31.578  25.821  25.232  1.00  0.00     0.105 C 
BRANCH   8   9
ATOM      9  C   UNL A   1      30.324  25.322  24.494  1.00  0.00     0.053 C 
BRANCH   9  10
ATOM     10  C   UNL A   1      29.785  26.407  23.612  1.00  0.00     0.036 A 
ATOM     11  C   UNL A   1      31.979  26.651  22.183  1.00  0.00     0.067 C 
ATOM     12  C   UNL A   1      30.701  27.239  22.732  1.00  0.00     0.050 A 
ATOM     13  N   UNL A   1      30.432  28.429  22.293  1.00  0.00    -0.216 NA
ATOM     14  C   UNL A   1      29.196  28.905  22.566  1.00  0.00     0.255 A 
ATOM     15  C   UNL A   1      28.506  26.838  23.666  1.00  0.00     0.220 A 
ATOM     16  N   UNL A   1      28.738  30.120  22.394  1.00  0.00    -0.197 NA
ATOM     17  N   UNL A   1      28.203  28.098  23.132  1.00  0.00    -0.163 N 
ATOM     18  C   UNL A   1      27.460  30.001  22.804  1.00  0.00     0.249 A 
ATOM     19  N   UNL A   1      27.065  28.819  23.254  1.00  0.00    -0.150 NA
BRANCH  15  20
ATOM     20  O   UNL A   1      27.512  26.202  24.395  1.00  0.00    -0.493 OA
ATOM     21  H   UNL A   1      26.930  26.704  24.930  1.00  0.00     0.295 HD
ENDBRANCH  15  20
ENDBRANCH   9  10
ENDBRANCH   8   9
ENDBRANCH   5   8
ENDBRANCH   3   4
ENDBRANCH   2   3
ENDBRANCH   1   2
BRANCH   1  22
ATOM     22  C   UNL A   1      38.262  23.173  26.291  1.00  0.00     0.002 C 
BRANCH  22  23
ATOM     23  C   UNL A   1      38.938  21.890  25.781  1.00  0.00     0.021 C 
BRANCH  23  24
ATOM     24  C   UNL A   1      40.241  21.485  26.484  1.00  0.00     0.116 C 
BRANCH  24  25
ATOM     25  N   UNL A   1      41.475  21.743  25.740  1.00  0.00    -0.352 N 
ATOM     26  C   UNL A   1      42.167  22.944  25.568  1.00  0.00     0.251 C 
ATOM     27  H   UNL A   1      41.874  20.960  25.297  1.00  0.00     0.163 HD
ATOM     28  O   UNL A   1      42.974  23.056  24.658  1.00  0.00    -0.269 OA
BRANCH  26  29
ATOM     29  C   UNL A   1      41.940  24.081  26.498  1.00  0.00     0.039 A 
ATOM     30  C   UNL A   1      42.418  24.107  27.818  1.00  0.00     0.014 A 
ATOM     31  C   UNL A   1      41.180  25.142  26.043  1.00  0.00     0.014 A 
ATOM     32  C   UNL A   1      42.222  25.255  28.612  1.00  0.00     0.010 A 
ATOM     33  C   UNL A   1      41.119  26.307  26.766  1.00  0.00     0.010 A 
ATOM     34  C   UNL A   1      41.592  26.378  28.060  1.00  0.00    -0.014 A 
BRANCH  34  35
ATOM     35  C   UNL A   1      41.508  27.699  28.691  1.00  0.00     0.031 A 
ATOM     36  C   UNL A   1      42.595  28.633  28.307  1.00  0.00     0.074 A 
ATOM     37  C   UNL A   1      40.408  28.187  29.321  1.00  0.00     0.049 A 
ATOM     38  N   UNL A   1      43.596  28.989  29.038  1.00  0.00    -0.248 NA
ATOM     39  C   UNL A   1      42.669  29.120  26.922  1.00  0.00     0.031 C 
ATOM     40  C   UNL A   1      39.086  27.565  29.493  1.00  0.00     0.029 A 
ATOM     41  N   UNL A   1      40.215  29.421  29.869  1.00  0.00    -0.354 N 
ATOM     42  C   UNL A   1      44.302  29.930  28.298  1.00  0.00     0.074 A 
ATOM     43  C   UNL A   1      43.811  29.815  26.949  1.00  0.00     0.031 C 
ATOM     44  C   UNL A   1      38.189  28.488  29.906  1.00  0.00     0.029 A 
ATOM     45  C   UNL A   1      38.896  29.717  30.211  1.00  0.00     0.049 A 
ATOM     46  H   UNL A   1      40.953  30.057  30.013  1.00  0.00     0.167 HD
ATOM     47  C   UNL A   1      45.068  30.870  28.919  1.00  0.00     0.037 A 
ATOM     48  C   UNL A   1      38.415  30.877  30.729  1.00  0.00     0.037 A 
ATOM     49  C   UNL A   1      45.204  30.569  30.328  1.00  0.00     0.049 A 
ATOM     50  C   UNL A   1      39.573  31.558  31.368  1.00  0.00     0.074 A 
ATOM     51  C   UNL A   1      45.688  29.488  31.041  1.00  0.00     0.029 A 
ATOM     52  N   UNL A   1      44.414  31.275  31.208  1.00  0.00    -0.354 N 
ATOM     53  N   UNL A   1      40.204  31.088  32.411  1.00  0.00    -0.248 NA
ATOM     54  C   UNL A   1      40.325  32.506  30.562  1.00  0.00     0.031 C 
ATOM     55  C   UNL A   1      44.778  29.330  32.128  1.00  0.00     0.029 A 
ATOM     56  C   UNL A   1      43.846  30.368  32.067  1.00  0.00     0.049 A 
ATOM     57  H   UNL A   1      44.281  32.250  31.218  1.00  0.00     0.167 HD
ATOM     58  C   UNL A   1      41.547  31.321  32.147  1.00  0.00     0.074 A 
ATOM     59  C   UNL A   1      41.552  32.279  31.041  1.00  0.00     0.031 C 
ATOM     60  C   UNL A   1      42.525  30.510  32.649  1.00  0.00     0.037 A 
BRANCH  47  61
ATOM     61  C   UNL A   1      45.413  32.233  28.370  1.00  0.00     0.058 A 
ATOM     62  C   UNL A   1      46.772  32.588  28.231  1.00  0.00     0.135 A 
ATOM     63  C   UNL A   1      44.490  33.291  28.230  1.00  0.00     0.135 A 
ATOM     64  F   UNL A   1      47.737  31.661  28.338  1.00  0.00    -0.206 F 
ATOM     65  C   UNL A   1      47.186  33.907  28.058  1.00  0.00     0.059 A 
ATOM     66  C   UNL A   1      44.881  34.607  28.001  1.00  0.00     0.059 A 
ATOM     67  F   UNL A   1      43.175  33.122  28.408  1.00  0.00    -0.206 F 
ATOM     68  C   UNL A   1      46.231  34.912  27.963  1.00  0.00     0.060 A 
BRANCH  68  69
ATOM     69  S   UNL A   1      46.770  36.628  27.863  1.00  0.00     0.124 S 
ATOM     70  O   UNL A   1      48.217  36.484  27.978  1.00  0.00    -0.237 OA
ATOM     71  O   UNL A   1      46.268  37.027  26.553  1.00  0.00    -0.237 OA
ATOM     72  O   UNL A   1      46.105  37.255  29.001  1.00  0.00    -0.744 OA
ENDBRANCH  68  69
ENDBRANCH  47  61
BRANCH  48  73
ATOM     73  C   UNL A   1      37.102  31.542  30.498  1.00  0.00     0.058 A 
ATOM     74  C   UNL A   1      36.327  32.052  31.559  1.00  0.00     0.135 A 
ATOM     75  C   UNL A   1      36.706  31.943  29.206  1.00  0.00     0.135 A 
ATOM     76  F   UNL A   1      36.636  31.746  32.828  1.00  0.00    -0.206 F 
ATOM     77  C   UNL A   1      35.259  32.939  31.354  1.00  0.00     0.059 A 
ATOM     78  C   UNL A   1      35.642  32.819  28.975  1.00  0.00     0.059 A 
ATOM     79  F   UNL A   1      37.403  31.565  28.125  1.00  0.00    -0.206 F 
ATOM     80  C   UNL A   1      34.938  33.335  30.056  1.00  0.00     0.060 A 
BRANCH  80  81
ATOM     81  S   UNL A   1      33.675  34.607  29.789  1.00  0.00     0.124 S 
ATOM     82  O   UNL A   1      32.704  33.906  28.957  1.00  0.00    -0.237 OA
ATOM     83  O   UNL A   1      33.248  34.908  31.152  1.00  0.00    -0.237 OA
ATOM     84  O   UNL A   1      34.409  35.680  29.121  1.00  0.00    -0.744 OA
ENDBRANCH  80  81
ENDBRANCH  48  73
BRANCH  60  85
ATOM     85  C   UNL A   1      42.165  29.519  33.732  1.00  0.00     0.058 A 
ATOM     86  C   UNL A   1      41.630  28.240  33.498  1.00  0.00     0.135 A 
ATOM     87  C   UNL A   1      42.564  29.810  35.046  1.00  0.00     0.135 A 
ATOM     88  F   UNL A   1      41.307  27.841  32.261  1.00  0.00    -0.206 F 
ATOM     89  C   UNL A   1      41.480  27.302  34.523  1.00  0.00     0.059 A 
ATOM     90  C   UNL A   1      42.452  28.881  36.078  1.00  0.00     0.059 A 
ATOM     91  F   UNL A   1      43.134  30.993  35.329  1.00  0.00    -0.206 F 
ATOM     92  C   UNL A   1      41.903  27.629  35.810  1.00  0.00     0.060 A 
BRANCH  92  93
ATOM     93  S   UNL A   1      41.801  26.381  37.113  1.00  0.00     0.124 S 
ATOM     94  O   UNL A   1      42.909  26.756  37.986  1.00  0.00    -0.237 OA
ATOM     95  O   UNL A   1      40.463  26.599  37.656  1.00  0.00    -0.237 OA
ATOM     96  O   UNL A   1      41.974  25.121  36.393  1.00  0.00    -0.744 OA
ENDBRANCH  92  93
ENDBRANCH  60  85
ENDBRANCH  34  35
ENDBRANCH  26  29
ENDBRANCH  24  25
ENDBRANCH  23  24
ENDBRANCH  22  23
ENDBRANCH   1  22
TORSDOF 19
ENDMDL
MODEL 3
REMARK VINA RESULT:     -11.4      3.252      5.166
REMARK SMILES Cc1nc2ncnn2c(O)c1CCC(=O)NCCCCCCNC(=O)c1ccc(-c2c3nc(c(-c4c(F)cc(S(=O)(=O)[O-])cc4F)c4ccc([nH]4)c(-c4c(F)cc(S(=O)(=O)[O-])cc4F)c4nc(c(-c5c(F)cc(S(=O)(=O)[O-])cc5F)c5ccc2[nH]5)C=C4)C=C3)cc1
REMARK SMILES IDX 19 1 18 2 17 3 16 4 14 5 15 6 13 8 12 9 11 10 1 11 2 12 3 13
REMARK SMILES IDX 4 14 9 15 5 16 8 17 6 18 7 19 10 20 20 22 21 23 22 24 23 25
REMARK SMILES IDX 24 26 25 28 26 29 27 30 91 31 28 32 90 33 29 34 30 35 31 36
REMARK SMILES IDX 84 37 32 38 89 39 83 40 85 41 33 42 88 43 82 44 81 45 34 47
REMARK SMILES IDX 68 48 47 49 67 50 48 51 51 52 66 53 86 54 49 55 50 56 65 58
REMARK SMILES IDX 87 59 52 60 35 61 36 62 45 63 37 64 38 65 44 66 46 67 39 68
REMARK SMILES IDX 40 69 41 70 42 71 43 72 69 73 70 74 79 75 71 76 72 77 78 78
REMARK SMILES IDX 80 79 73 80 74 81 75 82 76 83 77 84 53 85 54 86 63 87 55 88
REMARK SMILES IDX 56 89 62 90 64 91 57 92 58 93 59 94 60 95 61 96
REMARK H PARENT 16 7 10 21 23 27 85 46 51 57
REMARK Flexibility Score: inf
ROOT
ATOM      1  C   UNL A   1      34.501  22.442  23.830  1.00  0.00     0.002 C 
ENDROOT
BRANCH   1   2
ATOM      2  C   UNL A   1      33.028  22.027  23.659  1.00  0.00     0.021 C 
BRANCH   2   3
ATOM      3  C   UNL A   1      31.969  22.930  23.004  1.00  0.00     0.116 C 
BRANCH   3   4
ATOM      4  N   UNL A   1      32.625  23.671  21.911  1.00  0.00    -0.356 N 
ATOM      5  C   UNL A   1      32.787  24.986  21.623  1.00  0.00     0.220 C 
ATOM      6  O   UNL A   1      33.062  25.285  20.457  1.00  0.00    -0.275 OA
ATOM      7  H   UNL A   1      33.036  23.079  21.241  1.00  0.00     0.163 HD
BRANCH   5   8
ATOM      8  C   UNL A   1      32.696  26.070  22.674  1.00  0.00     0.105 C 
BRANCH   8   9
ATOM      9  C   UNL A   1      33.885  26.067  23.649  1.00  0.00     0.053 C 
BRANCH   9  10
ATOM     10  C   UNL A   1      33.550  26.874  24.865  1.00  0.00     0.036 A 
ATOM     11  C   UNL A   1      32.708  24.822  26.278  1.00  0.00     0.067 C 
ATOM     12  C   UNL A   1      32.696  26.304  25.983  1.00  0.00     0.050 A 
ATOM     13  N   UNL A   1      32.004  27.007  26.824  1.00  0.00    -0.216 NA
ATOM     14  C   UNL A   1      32.148  28.349  26.746  1.00  0.00     0.255 A 
ATOM     15  C   UNL A   1      33.821  28.193  24.977  1.00  0.00     0.220 A 
ATOM     16  N   UNL A   1      31.445  29.277  27.348  1.00  0.00    -0.197 NA
ATOM     17  N   UNL A   1      33.118  28.941  25.930  1.00  0.00    -0.163 N 
ATOM     18  C   UNL A   1      32.049  30.406  26.928  1.00  0.00     0.249 A 
ATOM     19  N   UNL A   1      33.062  30.284  26.082  1.00  0.00    -0.150 NA
BRANCH  15  20
ATOM     20  O   UNL A   1      34.602  28.895  24.070  1.00  0.00    -0.493 OA
ATOM     21  H   UNL A   1      35.533  28.794  24.078  1.00  0.00     0.295 HD
ENDBRANCH  15  20
ENDBRANCH   9  10
ENDBRANCH   8   9
ENDBRANCH   5   8
ENDBRANCH   3   4
ENDBRANCH   2   3
ENDBRANCH   1   2
BRANCH   1  22
ATOM     22  C   UNL A   1      35.203  22.348  25.187  1.00  0.00     0.002 C 
BRANCH  22  23
ATOM     23  C   UNL A   1      36.050  23.558  25.611  1.00  0.00     0.021 C 
BRANCH  23  24
ATOM     24  C   UNL A   1      37.512  23.559  25.142  1.00  0.00     0.116 C 
BRANCH  24  25
ATOM     25  N   UNL A   1      38.307  22.390  25.526  1.00  0.00    -0.352 N 
ATOM     26  C   UNL A   1      39.500  22.334  26.248  1.00  0.00     0.251 C 
ATOM     27  H   UNL A   1      37.951  21.521  25.233  1.00  0.00     0.163 HD
ATOM     28  O   UNL A   1      40.199  21.334  26.191  1.00  0.00    -0.269 OA
BRANCH  26  29
ATOM     29  C   UNL A   1      39.917  23.478  27.101  1.00  0.00     0.039 A 
ATOM     30  C   UNL A   1      41.232  23.665  27.555  1.00  0.00     0.014 A 
ATOM     31  C   UNL A   1      38.940  24.372  27.499  1.00  0.00     0.014 A 
ATOM     32  C   UNL A   1      41.559  24.816  28.300  1.00  0.00     0.010 A 
ATOM     33  C   UNL A   1      39.291  25.557  28.097  1.00  0.00     0.010 A 
ATOM     34  C   UNL A   1      40.577  25.786  28.542  1.00  0.00    -0.014 A 
BRANCH  34  35
ATOM     35  C   UNL A   1      40.820  27.114  29.114  1.00  0.00     0.031 A 
ATOM     36  C   UNL A   1      41.856  27.906  28.408  1.00  0.00     0.074 A 
ATOM     37  C   UNL A   1      39.999  27.737  29.999  1.00  0.00     0.049 A 
ATOM     38  N   UNL A   1      43.053  28.147  28.821  1.00  0.00    -0.248 NA
ATOM     39  C   UNL A   1      41.599  28.366  27.035  1.00  0.00     0.031 C 
ATOM     40  C   UNL A   1      38.715  27.280  30.553  1.00  0.00     0.029 A 
ATOM     41  N   UNL A   1      40.105  28.991  30.525  1.00  0.00    -0.354 N 
ATOM     42  C   UNL A   1      43.629  28.988  27.876  1.00  0.00     0.074 A 
ATOM     43  C   UNL A   1      42.774  28.919  26.718  1.00  0.00     0.031 C 
ATOM     44  C   UNL A   1      38.076  28.309  31.154  1.00  0.00     0.029 A 
ATOM     45  C   UNL A   1      38.974  29.447  31.201  1.00  0.00     0.049 A 
ATOM     46  H   UNL A   1      40.920  29.536  30.434  1.00  0.00     0.167 HD
ATOM     47  C   UNL A   1      44.637  29.836  28.222  1.00  0.00     0.037 A 
ATOM     48  C   UNL A   1      38.789  30.663  31.780  1.00  0.00     0.037 A 
ATOM     49  C   UNL A   1      45.123  29.537  29.552  1.00  0.00     0.049 A 
ATOM     50  C   UNL A   1      40.147  31.206  32.048  1.00  0.00     0.074 A 
ATOM     51  C   UNL A   1      45.660  28.414  30.152  1.00  0.00     0.029 A 
ATOM     52  N   UNL A   1      44.692  30.342  30.583  1.00  0.00    -0.354 N 
ATOM     53  N   UNL A   1      40.985  30.675  32.898  1.00  0.00    -0.248 NA
ATOM     54  C   UNL A   1      40.749  32.048  31.026  1.00  0.00     0.031 C 
ATOM     55  C   UNL A   1      45.075  28.378  31.452  1.00  0.00     0.029 A 
ATOM     56  C   UNL A   1      44.285  29.519  31.603  1.00  0.00     0.049 A 
ATOM     57  H   UNL A   1      44.677  31.326  30.586  1.00  0.00     0.167 HD
ATOM     58  C   UNL A   1      42.220  30.743  32.267  1.00  0.00     0.074 A 
ATOM     59  C   UNL A   1      42.027  31.681  31.161  1.00  0.00     0.031 C 
ATOM     60  C   UNL A   1      43.201  29.825  32.517  1.00  0.00     0.037 A 
BRANCH  47  61
ATOM     61  C   UNL A   1      44.967  31.142  27.541  1.00  0.00     0.058 A 
ATOM     62  C   UNL A   1      46.165  31.241  26.800  1.00  0.00     0.135 A 
ATOM     63  C   UNL A   1      44.310  32.364  27.800  1.00  0.00     0.135 A 
ATOM     64  F   UNL A   1      46.871  30.142  26.489  1.00  0.00    -0.206 F 
ATOM     65  C   UNL A   1      46.714  32.466  26.425  1.00  0.00     0.059 A 
ATOM     66  C   UNL A   1      44.812  33.593  27.385  1.00  0.00     0.059 A 
ATOM     67  F   UNL A   1      43.205  32.436  28.551  1.00  0.00    -0.206 F 
ATOM     68  C   UNL A   1      46.037  33.638  26.740  1.00  0.00     0.060 A 
BRANCH  68  69
ATOM     69  S   UNL A   1      46.806  35.223  26.364  1.00  0.00     0.124 S 
ATOM     70  O   UNL A   1      47.957  34.806  25.571  1.00  0.00    -0.237 OA
ATOM     71  O   UNL A   1      45.744  35.910  25.639  1.00  0.00    -0.237 OA
ATOM     72  O   UNL A   1      47.112  35.768  27.683  1.00  0.00    -0.744 OA
ENDBRANCH  68  69
ENDBRANCH  47  61
BRANCH  48  73
ATOM     73  C   UNL A   1      37.546  31.478  31.888  1.00  0.00     0.058 A 
ATOM     74  C   UNL A   1      37.017  31.870  33.134  1.00  0.00     0.135 A 
ATOM     75  C   UNL A   1      37.002  32.128  30.762  1.00  0.00     0.135 A 
ATOM     76  F   UNL A   1      37.485  31.325  34.266  1.00  0.00    -0.206 F 
ATOM     77  C   UNL A   1      36.047  32.876  33.257  1.00  0.00     0.059 A 
ATOM     78  C   UNL A   1      36.030  33.127  30.858  1.00  0.00     0.059 A 
ATOM     79  F   UNL A   1      37.467  31.876  29.530  1.00  0.00    -0.206 F 
ATOM     80  C   UNL A   1      35.574  33.515  32.112  1.00  0.00     0.060 A 
BRANCH  80  81
ATOM     81  S   UNL A   1      34.449  34.927  32.268  1.00  0.00     0.124 S 
ATOM     82  O   UNL A   1      35.250  35.873  33.036  1.00  0.00    -0.237 OA
ATOM     83  O   UNL A   1      34.204  35.282  30.874  1.00  0.00    -0.237 OA
ATOM     84  O   UNL A   1      33.298  34.369  32.975  1.00  0.00    -0.744 OA
ENDBRANCH  80  81
ENDBRANCH  48  73
BRANCH  60  85
ATOM     85  C   UNL A   1      43.046  28.897  33.699  1.00  0.00     0.058 A 
ATOM     86  C   UNL A   1      43.311  29.252  35.034  1.00  0.00     0.135 A 
ATOM     87  C   UNL A   1      42.418  27.660  33.485  1.00  0.00     0.135 A 
ATOM     88  F   UNL A   1      43.824  30.450  35.342  1.00  0.00    -0.206 F 
ATOM     89  C   UNL A   1      42.985  28.413  36.102  1.00  0.00     0.059 A 
ATOM     90  C   UNL A   1      42.056  26.820  34.535  1.00  0.00     0.059 A 
ATOM     91  F   UNL A   1      42.086  27.283  32.239  1.00  0.00    -0.206 F 
ATOM     92  C   UNL A   1      42.348  27.200  35.842  1.00  0.00     0.060 A 
BRANCH  92  93
ATOM     93  S   UNL A   1      41.837  26.161  37.229  1.00  0.00     0.124 S 
ATOM     94  O   UNL A   1      42.927  26.357  38.179  1.00  0.00    -0.237 OA
ATOM     95  O   UNL A   1      40.554  26.745  37.608  1.00  0.00    -0.237 OA
ATOM     96  O   UNL A   1      41.754  24.825  36.643  1.00  0.00    -0.744 OA
ENDBRANCH  92  93
ENDBRANCH  60  85
ENDBRANCH  34  35
ENDBRANCH  26  29
ENDBRANCH  24  25
ENDBRANCH  23  24
ENDBRANCH  22  23
ENDBRANCH   1  22
TORSDOF 19
ENDMDL
