MODEL 1
REMARK VINA RESULT:     -12.3      0.000      0.000
REMARK SMILES C[C@@H](C(=O)NCCCCCCNC(=O)c1ccc(-c2c3nc(c(-c4c(F)cc(S(=O)(=O)[O-])cc4F)c4ccc([nH]4)c(-c4c(F)cc(S(=O)(=O)[O-])cc4F)c4nc(c(-c5c(F)cc(S(=O)(=O)[O-])cc5F)c5ccc2[nH]5)C=C4)C=C3)cc1)c1ccccc1-c1ccn(C(F)F)c(=O)c1
REMARK SMILES IDX 8 1 7 2 6 3 5 4 3 5 4 6 2 8 1 9 81 10 82 11 86 12 83 13
REMARK SMILES IDX 85 14 84 15 87 16 88 17 96 18 89 19 94 20 90 21 95 22 91 23
REMARK SMILES IDX 92 24 93 25 9 26 10 27 11 28 12 29 13 30 14 32 15 33 16 34
REMARK SMILES IDX 80 35 17 36 79 37 18 38 19 39 20 40 73 41 21 42 78 43 72 44
REMARK SMILES IDX 74 45 22 46 77 47 71 48 70 49 23 51 57 52 36 53 56 54 37 55
REMARK SMILES IDX 40 56 55 57 75 58 38 59 39 60 54 62 76 63 41 64 24 65 25 66
REMARK SMILES IDX 34 67 26 68 27 69 33 70 35 71 28 72 29 73 30 74 31 75 32 76
REMARK SMILES IDX 58 77 59 78 68 79 60 80 61 81 67 82 69 83 62 84 63 85 64 86
REMARK SMILES IDX 65 87 66 88 42 89 43 90 52 91 44 92 45 93 51 94 53 95 46 96
REMARK SMILES IDX 47 97 48 98 49 99 50 100
REMARK H PARENT 5 7 12 31 74 50 40 61
REMARK Flexibility Score: inf
ROOT
ATOM      1  C   UNL A   1      34.055  32.679  28.270  1.00  0.00     0.002 C 
ENDROOT
BRANCH   1   2
ATOM      2  C   UNL A   1      34.461  31.332  27.654  1.00  0.00     0.021 C 
BRANCH   2   3
ATOM      3  C   UNL A   1      33.282  30.529  27.105  1.00  0.00     0.116 C 
BRANCH   3   4
ATOM      4  N   UNL A   1      33.692  29.731  25.971  1.00  0.00    -0.356 N 
ATOM      5  C   UNL A   1      33.130  28.633  25.393  1.00  0.00     0.227 C 
ATOM      6  O   UNL A   1      33.726  28.180  24.411  1.00  0.00    -0.274 OA
ATOM      7  H   UNL A   1      34.523  30.035  25.540  1.00  0.00     0.163 HD
BRANCH   5   8
ATOM      8  C   UNL A   1      31.769  28.084  25.868  1.00  0.00     0.106 C 
ATOM      9  C   UNL A   1      31.530  28.060  27.380  1.00  0.00     0.023 C 
BRANCH   8  10
ATOM     10  C   UNL A   1      31.461  26.713  25.244  1.00  0.00    -0.028 A 
ATOM     11  C   UNL A   1      32.009  25.582  25.886  1.00  0.00     0.005 A 
ATOM     12  C   UNL A   1      30.644  26.515  24.102  1.00  0.00    -0.014 A 
ATOM     13  C   UNL A   1      31.774  24.294  25.408  1.00  0.00     0.000 A 
ATOM     14  C   UNL A   1      30.433  25.207  23.626  1.00  0.00     0.009 A 
ATOM     15  C   UNL A   1      30.993  24.107  24.275  1.00  0.00     0.001 A 
BRANCH  12  16
ATOM     16  C   UNL A   1      29.951  27.614  23.392  1.00  0.00    -0.011 A 
ATOM     17  C   UNL A   1      30.634  28.582  22.556  1.00  0.00     0.027 A 
ATOM     18  C   UNL A   1      28.620  27.722  23.553  1.00  0.00     0.080 A 
ATOM     19  C   UNL A   1      29.994  29.674  22.124  1.00  0.00     0.095 A 
ATOM     20  C   UNL A   1      27.871  28.876  22.985  1.00  0.00     0.255 A 
ATOM     21  N   UNL A   1      28.647  29.854  22.378  1.00  0.00    -0.258 N 
ATOM     22  O   UNL A   1      26.650  28.907  23.101  1.00  0.00    -0.269 OA
BRANCH  21  23
ATOM     23  C   UNL A   1      27.973  31.054  21.954  1.00  0.00     0.451 C 
ATOM     24  F   UNL A   1      27.454  31.720  23.012  1.00  0.00    -0.185 F 
ATOM     25  F   UNL A   1      28.819  31.890  21.302  1.00  0.00    -0.185 F 
ENDBRANCH  21  23
ENDBRANCH  12  16
ENDBRANCH   8  10
ENDBRANCH   5   8
ENDBRANCH   3   4
ENDBRANCH   2   3
ENDBRANCH   1   2
BRANCH   1  26
ATOM     26  C   UNL A   1      35.146  33.754  28.256  1.00  0.00     0.002 C 
BRANCH  26  27
ATOM     27  C   UNL A   1      36.577  33.229  28.415  1.00  0.00     0.021 C 
BRANCH  27  28
ATOM     28  C   UNL A   1      37.088  33.211  29.853  1.00  0.00     0.116 C 
BRANCH  28  29
ATOM     29  N   UNL A   1      36.434  32.184  30.646  1.00  0.00    -0.352 N 
ATOM     30  C   UNL A   1      36.782  30.868  30.821  1.00  0.00     0.251 C 
ATOM     31  H   UNL A   1      35.626  32.474  31.127  1.00  0.00     0.163 HD
ATOM     32  O   UNL A   1      35.995  30.093  31.354  1.00  0.00    -0.269 OA
BRANCH  30  33
ATOM     33  C   UNL A   1      38.100  30.383  30.353  1.00  0.00     0.039 A 
ATOM     34  C   UNL A   1      38.282  30.128  28.992  1.00  0.00     0.014 A 
ATOM     35  C   UNL A   1      39.143  30.157  31.257  1.00  0.00     0.014 A 
ATOM     36  C   UNL A   1      39.525  29.689  28.530  1.00  0.00     0.010 A 
ATOM     37  C   UNL A   1      40.399  29.781  30.786  1.00  0.00     0.010 A 
ATOM     38  C   UNL A   1      40.601  29.534  29.420  1.00  0.00    -0.014 A 
BRANCH  38  39
ATOM     39  C   UNL A   1      41.938  29.106  28.940  1.00  0.00     0.031 A 
ATOM     40  C   UNL A   1      43.064  30.102  28.850  1.00  0.00     0.074 A 
ATOM     41  C   UNL A   1      42.124  27.835  28.531  1.00  0.00     0.049 A 
ATOM     42  N   UNL A   1      44.280  29.935  28.400  1.00  0.00    -0.248 NA
ATOM     43  C   UNL A   1      42.774  31.472  29.300  1.00  0.00     0.031 C 
ATOM     44  C   UNL A   1      41.099  26.790  28.526  1.00  0.00     0.029 A 
ATOM     45  N   UNL A   1      43.238  27.208  28.032  1.00  0.00    -0.354 N 
ATOM     46  C   UNL A   1      44.896  31.177  28.499  1.00  0.00     0.074 A 
ATOM     47  C   UNL A   1      43.902  32.100  29.004  1.00  0.00     0.031 C 
ATOM     48  C   UNL A   1      41.637  25.648  28.068  1.00  0.00     0.029 A 
ATOM     49  C   UNL A   1      43.034  25.886  27.717  1.00  0.00     0.049 A 
ATOM     50  H   UNL A   1      44.104  27.663  27.912  1.00  0.00     0.167 HD
ATOM     51  C   UNL A   1      46.177  31.513  28.215  1.00  0.00     0.037 A 
ATOM     52  C   UNL A   1      43.877  24.970  27.202  1.00  0.00     0.037 A 
ATOM     53  C   UNL A   1      47.169  30.583  27.741  1.00  0.00     0.049 A 
ATOM     54  C   UNL A   1      45.299  25.363  26.909  1.00  0.00     0.074 A 
ATOM     55  C   UNL A   1      48.509  30.812  27.480  1.00  0.00     0.029 A 
ATOM     56  N   UNL A   1      46.930  29.245  27.461  1.00  0.00    -0.354 N 
ATOM     57  N   UNL A   1      45.878  26.530  27.062  1.00  0.00    -0.248 NA
ATOM     58  C   UNL A   1      46.183  24.314  26.383  1.00  0.00     0.031 C 
ATOM     59  C   UNL A   1      49.072  29.621  27.007  1.00  0.00     0.029 A 
ATOM     60  C   UNL A   1      48.093  28.640  27.015  1.00  0.00     0.049 A 
ATOM     61  H   UNL A   1      46.062  28.793  27.564  1.00  0.00     0.167 HD
ATOM     62  C   UNL A   1      47.202  26.350  26.676  1.00  0.00     0.074 A 
ATOM     63  C   UNL A   1      47.339  24.959  26.293  1.00  0.00     0.031 C 
ATOM     64  C   UNL A   1      48.213  27.252  26.644  1.00  0.00     0.037 A 
BRANCH  51  65
ATOM     65  C   UNL A   1      46.579  32.948  28.417  1.00  0.00     0.058 A 
ATOM     66  C   UNL A   1      47.048  33.415  29.656  1.00  0.00     0.135 A 
ATOM     67  C   UNL A   1      46.521  33.864  27.354  1.00  0.00     0.135 A 
ATOM     68  F   UNL A   1      47.110  32.586  30.710  1.00  0.00    -0.206 F 
ATOM     69  C   UNL A   1      47.411  34.744  29.844  1.00  0.00     0.059 A 
ATOM     70  C   UNL A   1      46.906  35.192  27.511  1.00  0.00     0.059 A 
ATOM     71  F   UNL A   1      46.082  33.472  26.147  1.00  0.00    -0.206 F 
ATOM     72  C   UNL A   1      47.333  35.627  28.765  1.00  0.00     0.060 A 
BRANCH  72  73
ATOM     73  S   UNL A   1      47.804  37.351  29.024  1.00  0.00     0.124 S 
ATOM     74  O   UNL A   1      48.675  37.587  27.877  1.00  0.00    -0.237 OA
ATOM     75  O   UNL A   1      46.516  38.036  28.994  1.00  0.00    -0.237 OA
ATOM     76  O   UNL A   1      48.469  37.328  30.323  1.00  0.00    -0.744 OA
ENDBRANCH  72  73
ENDBRANCH  51  65
BRANCH  52  77
ATOM     77  C   UNL A   1      43.403  23.581  26.959  1.00  0.00     0.058 A 
ATOM     78  C   UNL A   1      43.155  23.125  25.656  1.00  0.00     0.135 A 
ATOM     79  C   UNL A   1      43.205  22.682  28.017  1.00  0.00     0.135 A 
ATOM     80  F   UNL A   1      43.326  23.951  24.613  1.00  0.00    -0.206 F 
ATOM     81  C   UNL A   1      42.712  21.830  25.411  1.00  0.00     0.059 A 
ATOM     82  C   UNL A   1      42.785  21.374  27.795  1.00  0.00     0.059 A 
ATOM     83  F   UNL A   1      43.446  23.066  29.281  1.00  0.00    -0.206 F 
ATOM     84  C   UNL A   1      42.531  20.960  26.488  1.00  0.00     0.060 A 
BRANCH  84  85
ATOM     85  S   UNL A   1      42.006  19.265  26.155  1.00  0.00     0.124 S 
ATOM     86  O   UNL A   1      42.395  18.590  27.388  1.00  0.00    -0.237 OA
ATOM     87  O   UNL A   1      40.571  19.424  25.939  1.00  0.00    -0.237 OA
ATOM     88  O   UNL A   1      42.774  18.904  24.967  1.00  0.00    -0.744 OA
ENDBRANCH  84  85
ENDBRANCH  52  77
BRANCH  64  89
ATOM     89  C   UNL A   1      49.564  26.758  26.210  1.00  0.00     0.058 A 
ATOM     90  C   UNL A   1      49.995  26.861  24.879  1.00  0.00     0.135 A 
ATOM     91  C   UNL A   1      50.457  26.216  27.150  1.00  0.00     0.135 A 
ATOM     92  F   UNL A   1      49.177  27.366  23.942  1.00  0.00    -0.206 F 
ATOM     93  C   UNL A   1      51.255  26.421  24.487  1.00  0.00     0.059 A 
ATOM     94  C   UNL A   1      51.730  25.792  26.785  1.00  0.00     0.059 A 
ATOM     95  F   UNL A   1      50.097  26.105  28.438  1.00  0.00    -0.206 F 
ATOM     96  C   UNL A   1      52.116  25.888  25.448  1.00  0.00     0.060 A 
BRANCH  96  97
ATOM     97  S   UNL A   1      53.760  25.346  24.935  1.00  0.00     0.124 S 
ATOM     98  O   UNL A   1      53.920  26.056  23.670  1.00  0.00    -0.237 OA
ATOM     99  O   UNL A   1      54.601  25.809  26.033  1.00  0.00    -0.237 OA
ATOM    100  O   UNL A   1      53.621  23.897  24.828  1.00  0.00    -0.744 OA
ENDBRANCH  96  97
ENDBRANCH  64  89
ENDBRANCH  38  39
ENDBRANCH  30  33
ENDBRANCH  28  29
ENDBRANCH  27  28
ENDBRANCH  26  27
ENDBRANCH   1  26
TORSDOF 19
ENDMDL
MODEL 2
REMARK VINA RESULT:     -12.2      6.843     12.517
REMARK SMILES C[C@@H](C(=O)NCCCCCCNC(=O)c1ccc(-c2c3nc(c(-c4c(F)cc(S(=O)(=O)[O-])cc4F)c4ccc([nH]4)c(-c4c(F)cc(S(=O)(=O)[O-])cc4F)c4nc(c(-c5c(F)cc(S(=O)(=O)[O-])cc5F)c5ccc2[nH]5)C=C4)C=C3)cc1)c1ccccc1-c1ccn(C(F)F)c(=O)c1
REMARK SMILES IDX 8 1 7 2 6 3 5 4 3 5 4 6 2 8 1 9 81 10 82 11 86 12 83 13
REMARK SMILES IDX 85 14 84 15 87 16 88 17 96 18 89 19 94 20 90 21 95 22 91 23
REMARK SMILES IDX 92 24 93 25 9 26 10 27 11 28 12 29 13 30 14 32 15 33 16 34
REMARK SMILES IDX 80 35 17 36 79 37 18 38 19 39 20 40 73 41 21 42 78 43 72 44
REMARK SMILES IDX 74 45 22 46 77 47 71 48 70 49 23 51 57 52 36 53 56 54 37 55
REMARK SMILES IDX 40 56 55 57 75 58 38 59 39 60 54 62 76 63 41 64 24 65 25 66
REMARK SMILES IDX 34 67 26 68 27 69 33 70 35 71 28 72 29 73 30 74 31 75 32 76
REMARK SMILES IDX 58 77 59 78 68 79 60 80 61 81 67 82 69 83 62 84 63 85 64 86
REMARK SMILES IDX 65 87 66 88 42 89 43 90 52 91 44 92 45 93 51 94 53 95 46 96
REMARK SMILES IDX 47 97 48 98 49 99 50 100
REMARK H PARENT 5 7 12 31 74 50 40 61
REMARK Flexibility Score: inf
ROOT
ATOM      1  C   UNL A   1      40.272  21.347  26.934  1.00  0.00     0.002 C 
ENDROOT
BRANCH   1   2
ATOM      2  C   UNL A   1      39.350  22.482  26.466  1.00  0.00     0.021 C 
BRANCH   2   3
ATOM      3  C   UNL A   1      38.147  21.999  25.655  1.00  0.00     0.116 C 
BRANCH   3   4
ATOM      4  N   UNL A   1      36.914  22.489  26.230  1.00  0.00    -0.356 N 
ATOM      5  C   UNL A   1      35.702  22.751  25.669  1.00  0.00     0.227 C 
ATOM      6  O   UNL A   1      34.828  23.155  26.443  1.00  0.00    -0.274 OA
ATOM      7  H   UNL A   1      36.959  22.663  27.198  1.00  0.00     0.163 HD
BRANCH   5   8
ATOM      8  C   UNL A   1      35.418  22.433  24.186  1.00  0.00     0.106 C 
ATOM      9  C   UNL A   1      36.532  22.765  23.189  1.00  0.00     0.023 C 
BRANCH   8  10
ATOM     10  C   UNL A   1      34.077  23.027  23.724  1.00  0.00    -0.028 A 
ATOM     11  C   UNL A   1      34.084  24.376  23.311  1.00  0.00     0.005 A 
ATOM     12  C   UNL A   1      32.859  22.303  23.655  1.00  0.00    -0.014 A 
ATOM     13  C   UNL A   1      32.923  25.001  22.859  1.00  0.00     0.000 A 
ATOM     14  C   UNL A   1      31.695  22.957  23.212  1.00  0.00     0.009 A 
ATOM     15  C   UNL A   1      31.728  24.295  22.816  1.00  0.00     0.001 A 
BRANCH  12  16
ATOM     16  C   UNL A   1      32.743  20.863  23.984  1.00  0.00    -0.011 A 
ATOM     17  C   UNL A   1      32.833  20.343  25.335  1.00  0.00     0.027 A 
ATOM     18  C   UNL A   1      32.566  20.002  22.968  1.00  0.00     0.080 A 
ATOM     19  C   UNL A   1      32.942  19.027  25.546  1.00  0.00     0.095 A 
ATOM     20  C   UNL A   1      32.575  18.531  23.199  1.00  0.00     0.255 A 
ATOM     21  N   UNL A   1      32.873  18.131  24.495  1.00  0.00    -0.258 N 
ATOM     22  O   UNL A   1      32.349  17.779  22.257  1.00  0.00    -0.269 OA
BRANCH  21  23
ATOM     23  C   UNL A   1      33.042  16.719  24.721  1.00  0.00     0.451 C 
ATOM     24  F   UNL A   1      34.319  16.431  25.064  1.00  0.00    -0.185 F 
ATOM     25  F   UNL A   1      32.229  16.278  25.713  1.00  0.00    -0.185 F 
ENDBRANCH  21  23
ENDBRANCH  12  16
ENDBRANCH   8  10
ENDBRANCH   5   8
ENDBRANCH   3   4
ENDBRANCH   2   3
ENDBRANCH   1   2
BRANCH   1  26
ATOM     26  C   UNL A   1      41.769  21.600  26.728  1.00  0.00     0.002 C 
BRANCH  26  27
ATOM     27  C   UNL A   1      42.501  22.189  27.938  1.00  0.00     0.021 C 
BRANCH  27  28
ATOM     28  C   UNL A   1      43.372  23.401  27.623  1.00  0.00     0.116 C 
BRANCH  28  29
ATOM     29  N   UNL A   1      43.009  24.012  26.355  1.00  0.00    -0.352 N 
ATOM     30  C   UNL A   1      42.311  25.170  26.117  1.00  0.00     0.251 C 
ATOM     31  H   UNL A   1      43.306  23.527  25.552  1.00  0.00     0.163 HD
ATOM     32  O   UNL A   1      41.912  25.422  24.985  1.00  0.00    -0.269 OA
BRANCH  30  33
ATOM     33  C   UNL A   1      42.029  26.105  27.228  1.00  0.00     0.039 A 
ATOM     34  C   UNL A   1      40.981  25.816  28.105  1.00  0.00     0.014 A 
ATOM     35  C   UNL A   1      42.777  27.276  27.389  1.00  0.00     0.014 A 
ATOM     36  C   UNL A   1      40.714  26.677  29.172  1.00  0.00     0.010 A 
ATOM     37  C   UNL A   1      42.550  28.099  28.489  1.00  0.00     0.010 A 
ATOM     38  C   UNL A   1      41.510  27.814  29.386  1.00  0.00    -0.014 A 
BRANCH  38  39
ATOM     39  C   UNL A   1      41.263  28.719  30.537  1.00  0.00     0.031 A 
ATOM     40  C   UNL A   1      42.101  28.604  31.782  1.00  0.00     0.074 A 
ATOM     41  C   UNL A   1      40.248  29.603  30.483  1.00  0.00     0.049 A 
ATOM     42  N   UNL A   1      42.000  29.259  32.909  1.00  0.00    -0.248 NA
ATOM     43  C   UNL A   1      43.178  27.601  31.766  1.00  0.00     0.031 C 
ATOM     44  C   UNL A   1      39.336  29.776  29.351  1.00  0.00     0.029 A 
ATOM     45  N   UNL A   1      39.806  30.518  31.406  1.00  0.00    -0.354 N 
ATOM     46  C   UNL A   1      42.986  28.741  33.740  1.00  0.00     0.074 A 
ATOM     47  C   UNL A   1      43.642  27.682  33.005  1.00  0.00     0.031 C 
ATOM     48  C   UNL A   1      38.459  30.751  29.637  1.00  0.00     0.029 A 
ATOM     49  C   UNL A   1      38.723  31.251  30.983  1.00  0.00     0.049 A 
ATOM     50  H   UNL A   1      40.227  30.638  32.288  1.00  0.00     0.167 HD
ATOM     51  C   UNL A   1      43.328  29.127  34.993  1.00  0.00     0.037 A 
ATOM     52  C   UNL A   1      38.022  32.215  31.610  1.00  0.00     0.037 A 
ATOM     53  C   UNL A   1      42.690  30.202  35.708  1.00  0.00     0.049 A 
ATOM     54  C   UNL A   1      38.429  32.636  32.996  1.00  0.00     0.074 A 
ATOM     55  C   UNL A   1      43.001  30.708  36.958  1.00  0.00     0.029 A 
ATOM     56  N   UNL A   1      41.615  30.939  35.235  1.00  0.00    -0.354 N 
ATOM     57  N   UNL A   1      39.401  32.173  33.744  1.00  0.00    -0.248 NA
ATOM     58  C   UNL A   1      37.652  33.717  33.617  1.00  0.00     0.031 C 
ATOM     59  C   UNL A   1      42.090  31.728  37.256  1.00  0.00     0.029 A 
ATOM     60  C   UNL A   1      41.239  31.885  36.174  1.00  0.00     0.049 A 
ATOM     61  H   UNL A   1      41.182  30.809  34.360  1.00  0.00     0.167 HD
ATOM     62  C   UNL A   1      39.369  32.923  34.915  1.00  0.00     0.074 A 
ATOM     63  C   UNL A   1      38.289  33.876  34.770  1.00  0.00     0.031 C 
ATOM     64  C   UNL A   1      40.164  32.831  36.010  1.00  0.00     0.037 A 
BRANCH  51  65
ATOM     65  C   UNL A   1      44.448  28.383  35.667  1.00  0.00     0.058 A 
ATOM     66  C   UNL A   1      45.792  28.734  35.464  1.00  0.00     0.135 A 
ATOM     67  C   UNL A   1      44.175  27.324  36.547  1.00  0.00     0.135 A 
ATOM     68  F   UNL A   1      46.111  29.730  34.621  1.00  0.00    -0.206 F 
ATOM     69  C   UNL A   1      46.827  28.040  36.081  1.00  0.00     0.059 A 
ATOM     70  C   UNL A   1      45.194  26.632  37.198  1.00  0.00     0.059 A 
ATOM     71  F   UNL A   1      42.908  26.946  36.780  1.00  0.00    -0.206 F 
ATOM     72  C   UNL A   1      46.518  26.988  36.944  1.00  0.00     0.060 A 
BRANCH  72  73
ATOM     73  S   UNL A   1      47.872  26.092  37.735  1.00  0.00     0.124 S 
ATOM     74  O   UNL A   1      48.318  27.064  38.730  1.00  0.00    -0.237 OA
ATOM     75  O   UNL A   1      47.202  24.909  38.262  1.00  0.00    -0.237 OA
ATOM     76  O   UNL A   1      48.802  25.847  36.637  1.00  0.00    -0.744 OA
ENDBRANCH  72  73
ENDBRANCH  51  65
BRANCH  52  77
ATOM     77  C   UNL A   1      36.878  32.868  30.919  1.00  0.00     0.058 A 
ATOM     78  C   UNL A   1      35.556  32.557  31.268  1.00  0.00     0.135 A 
ATOM     79  C   UNL A   1      37.084  33.823  29.913  1.00  0.00     0.135 A 
ATOM     80  F   UNL A   1      35.311  31.646  32.221  1.00  0.00    -0.206 F 
ATOM     81  C   UNL A   1      34.475  33.159  30.632  1.00  0.00     0.059 A 
ATOM     82  C   UNL A   1      36.018  34.455  29.278  1.00  0.00     0.059 A 
ATOM     83  F   UNL A   1      38.331  34.168  29.556  1.00  0.00    -0.206 F 
ATOM     84  C   UNL A   1      34.717  34.109  29.638  1.00  0.00     0.060 A 
BRANCH  84  85
ATOM     85  S   UNL A   1      33.308  34.922  28.855  1.00  0.00     0.124 S 
ATOM     86  O   UNL A   1      32.396  35.078  29.981  1.00  0.00    -0.237 OA
ATOM     87  O   UNL A   1      33.907  36.150  28.342  1.00  0.00    -0.237 OA
ATOM     88  O   UNL A   1      32.894  33.962  27.834  1.00  0.00    -0.744 OA
ENDBRANCH  84  85
ENDBRANCH  52  77
BRANCH  64  89
ATOM     89  C   UNL A   1      39.917  33.809  37.124  1.00  0.00     0.058 A 
ATOM     90  C   UNL A   1      40.532  35.070  37.148  1.00  0.00     0.135 A 
ATOM     91  C   UNL A   1      39.016  33.498  38.156  1.00  0.00     0.135 A 
ATOM     92  F   UNL A   1      41.405  35.413  36.188  1.00  0.00    -0.206 F 
ATOM     93  C   UNL A   1      40.284  35.980  38.171  1.00  0.00     0.059 A 
ATOM     94  C   UNL A   1      38.734  34.401  39.175  1.00  0.00     0.059 A 
ATOM     95  F   UNL A   1      38.393  32.309  38.172  1.00  0.00    -0.206 F 
ATOM     96  C   UNL A   1      39.382  35.636  39.180  1.00  0.00     0.060 A 
BRANCH  96  97
ATOM     97  S   UNL A   1      39.045  36.835  40.487  1.00  0.00     0.124 S 
ATOM     98  O   UNL A   1      40.381  37.062  41.029  1.00  0.00    -0.237 OA
ATOM     99  O   UNL A   1      38.463  37.950  39.747  1.00  0.00    -0.237 OA
ATOM    100  O   UNL A   1      38.122  36.126  41.367  1.00  0.00    -0.744 OA
ENDBRANCH  96  97
ENDBRANCH  64  89
ENDBRANCH  38  39
ENDBRANCH  30  33
ENDBRANCH  28  29
ENDBRANCH  27  28
ENDBRANCH  26  27
ENDBRANCH   1  26
TORSDOF 19
ENDMDL
MODEL 3
REMARK VINA RESULT:     -12.0      7.163     12.737
REMARK SMILES C[C@@H](C(=O)NCCCCCCNC(=O)c1ccc(-c2c3nc(c(-c4c(F)cc(S(=O)(=O)[O-])cc4F)c4ccc([nH]4)c(-c4c(F)cc(S(=O)(=O)[O-])cc4F)c4nc(c(-c5c(F)cc(S(=O)(=O)[O-])cc5F)c5ccc2[nH]5)C=C4)C=C3)cc1)c1ccccc1-c1ccn(C(F)F)c(=O)c1
REMARK SMILES IDX 8 1 7 2 6 3 5 4 3 5 4 6 2 8 1 9 81 10 82 11 86 12 83 13
REMARK SMILES IDX 85 14 84 15 87 16 88 17 96 18 89 19 94 20 90 21 95 22 91 23
REMARK SMILES IDX 92 24 93 25 9 26 10 27 11 28 12 29 13 30 14 32 15 33 16 34
REMARK SMILES IDX 80 35 17 36 79 37 18 38 19 39 20 40 73 41 21 42 78 43 72 44
REMARK SMILES IDX 74 45 22 46 77 47 71 48 70 49 23 51 57 52 36 53 56 54 37 55
REMARK SMILES IDX 40 56 55 57 75 58 38 59 39 60 54 62 76 63 41 64 24 65 25 66
REMARK SMILES IDX 34 67 26 68 27 69 33 70 35 71 28 72 29 73 30 74 31 75 32 76
REMARK SMILES IDX 58 77 59 78 68 79 60 80 61 81 67 82 69 83 62 84 63 85 64 86
REMARK SMILES IDX 65 87 66 88 42 89 43 90 52 91 44 92 45 93 51 94 53 95 46 96
REMARK SMILES IDX 47 97 48 98 49 99 50 100
REMARK H PARENT 5 7 12 31 74 50 40 61
REMARK Flexibility Score: inf
ROOT
ATOM      1  C   UNL A   1      39.659  19.927  25.891  1.00  0.00     0.002 C 
ENDROOT
BRANCH   1   2
ATOM      2  C   UNL A   1      38.275  20.375  25.401  1.00  0.00     0.021 C 
BRANCH   2   3
ATOM      3  C   UNL A   1      38.083  21.892  25.410  1.00  0.00     0.116 C 
BRANCH   3   4
ATOM      4  N   UNL A   1      36.869  22.249  26.110  1.00  0.00    -0.356 N 
ATOM      5  C   UNL A   1      35.615  22.518  25.655  1.00  0.00     0.227 C 
ATOM      6  O   UNL A   1      34.775  22.784  26.522  1.00  0.00    -0.274 OA
ATOM      7  H   UNL A   1      36.968  22.307  27.088  1.00  0.00     0.163 HD
BRANCH   5   8
ATOM      8  C   UNL A   1      35.252  22.369  24.164  1.00  0.00     0.106 C 
ATOM      9  C   UNL A   1      36.291  22.863  23.153  1.00  0.00     0.023 C 
BRANCH   8  10
ATOM     10  C   UNL A   1      33.866  22.958  23.853  1.00  0.00    -0.028 A 
ATOM     11  C   UNL A   1      33.805  24.342  23.587  1.00  0.00     0.005 A 
ATOM     12  C   UNL A   1      32.668  22.201  23.786  1.00  0.00    -0.014 A 
ATOM     13  C   UNL A   1      32.599  24.967  23.279  1.00  0.00     0.000 A 
ATOM     14  C   UNL A   1      31.458  22.855  23.490  1.00  0.00     0.009 A 
ATOM     15  C   UNL A   1      31.425  24.226  23.238  1.00  0.00     0.001 A 
BRANCH  12  16
ATOM     16  C   UNL A   1      32.618  20.732  23.968  1.00  0.00    -0.011 A 
ATOM     17  C   UNL A   1      32.792  20.079  25.250  1.00  0.00     0.027 A 
ATOM     18  C   UNL A   1      32.419  19.973  22.875  1.00  0.00     0.080 A 
ATOM     19  C   UNL A   1      32.956  18.753  25.317  1.00  0.00     0.095 A 
ATOM     20  C   UNL A   1      32.489  18.488  22.951  1.00  0.00     0.255 A 
ATOM     21  N   UNL A   1      32.865  17.968  24.182  1.00  0.00    -0.258 N 
ATOM     22  O   UNL A   1      32.242  17.829  21.946  1.00  0.00    -0.269 OA
BRANCH  21  23
ATOM     23  C   UNL A   1      33.092  16.548  24.251  1.00  0.00     0.451 C 
ATOM     24  F   UNL A   1      34.408  16.259  24.117  1.00  0.00    -0.185 F 
ATOM     25  F   UNL A   1      32.666  16.037  25.432  1.00  0.00    -0.185 F 
ENDBRANCH  21  23
ENDBRANCH  12  16
ENDBRANCH   8  10
ENDBRANCH   5   8
ENDBRANCH   3   4
ENDBRANCH   2   3
ENDBRANCH   1   2
BRANCH   1  26
ATOM     26  C   UNL A   1      40.678  21.056  26.081  1.00  0.00     0.002 C 
BRANCH  26  27
ATOM     27  C   UNL A   1      40.883  21.508  27.530  1.00  0.00     0.021 C 
BRANCH  27  28
ATOM     28  C   UNL A   1      40.729  23.010  27.752  1.00  0.00     0.116 C 
BRANCH  28  29
ATOM     29  N   UNL A   1      41.006  23.766  26.542  1.00  0.00    -0.352 N 
ATOM     30  C   UNL A   1      40.972  25.123  26.339  1.00  0.00     0.251 C 
ATOM     31  H   UNL A   1      41.252  23.228  25.756  1.00  0.00     0.163 HD
ATOM     32  O   UNL A   1      41.026  25.572  25.199  1.00  0.00    -0.269 OA
BRANCH  30  33
ATOM     33  C   UNL A   1      40.858  26.041  27.494  1.00  0.00     0.039 A 
ATOM     34  C   UNL A   1      41.821  27.038  27.662  1.00  0.00     0.014 A 
ATOM     35  C   UNL A   1      39.820  25.903  28.421  1.00  0.00     0.014 A 
ATOM     36  C   UNL A   1      41.718  27.927  28.735  1.00  0.00     0.010 A 
ATOM     37  C   UNL A   1      39.683  26.828  29.452  1.00  0.00     0.010 A 
ATOM     38  C   UNL A   1      40.635  27.844  29.626  1.00  0.00    -0.014 A 
BRANCH  38  39
ATOM     39  C   UNL A   1      40.490  28.804  30.748  1.00  0.00     0.031 A 
ATOM     40  C   UNL A   1      41.347  28.664  31.978  1.00  0.00     0.074 A 
ATOM     41  C   UNL A   1      39.550  29.767  30.685  1.00  0.00     0.049 A 
ATOM     42  N   UNL A   1      41.327  29.363  33.083  1.00  0.00    -0.248 NA
ATOM     43  C   UNL A   1      42.338  27.577  31.974  1.00  0.00     0.031 C 
ATOM     44  C   UNL A   1      38.627  29.976  29.568  1.00  0.00     0.029 A 
ATOM     45  N   UNL A   1      39.206  30.745  31.584  1.00  0.00    -0.354 N 
ATOM     46  C   UNL A   1      42.289  28.794  33.910  1.00  0.00     0.074 A 
ATOM     47  C   UNL A   1      42.839  27.661  33.199  1.00  0.00     0.031 C 
ATOM     48  C   UNL A   1      37.839  31.028  29.838  1.00  0.00     0.029 A 
ATOM     49  C   UNL A   1      38.176  31.550  31.160  1.00  0.00     0.049 A 
ATOM     50  H   UNL A   1      39.657  30.861  32.452  1.00  0.00     0.167 HD
ATOM     51  C   UNL A   1      42.691  29.193  35.140  1.00  0.00     0.037 A 
ATOM     52  C   UNL A   1      37.571  32.589  31.767  1.00  0.00     0.037 A 
ATOM     53  C   UNL A   1      42.161  30.340  35.830  1.00  0.00     0.049 A 
ATOM     54  C   UNL A   1      38.046  33.022  33.127  1.00  0.00     0.074 A 
ATOM     55  C   UNL A   1      42.543  30.861  37.055  1.00  0.00     0.029 A 
ATOM     56  N   UNL A   1      41.137  31.147  35.355  1.00  0.00    -0.354 N 
ATOM     57  N   UNL A   1      38.995  32.506  33.870  1.00  0.00    -0.248 NA
ATOM     58  C   UNL A   1      37.374  34.183  33.727  1.00  0.00     0.031 C 
ATOM     59  C   UNL A   1      41.725  31.962  37.336  1.00  0.00     0.029 A 
ATOM     60  C   UNL A   1      40.863  32.152  36.267  1.00  0.00     0.049 A 
ATOM     61  H   UNL A   1      40.674  31.023  34.495  1.00  0.00     0.167 HD
ATOM     62  C   UNL A   1      39.053  33.295  35.014  1.00  0.00     0.074 A 
ATOM     63  C   UNL A   1      38.050  34.329  34.858  1.00  0.00     0.031 C 
ATOM     64  C   UNL A   1      39.864  33.177  36.093  1.00  0.00     0.037 A 
BRANCH  51  65
ATOM     65  C   UNL A   1      43.764  28.383  35.816  1.00  0.00     0.058 A 
ATOM     66  C   UNL A   1      43.451  27.308  36.662  1.00  0.00     0.135 A 
ATOM     67  C   UNL A   1      45.121  28.668  35.596  1.00  0.00     0.135 A 
ATOM     68  F   UNL A   1      42.169  27.001  36.920  1.00  0.00    -0.206 F 
ATOM     69  C   UNL A   1      44.443  26.565  37.294  1.00  0.00     0.059 A 
ATOM     70  C   UNL A   1      46.132  27.921  36.195  1.00  0.00     0.059 A 
ATOM     71  F   UNL A   1      45.478  29.684  34.795  1.00  0.00    -0.206 F 
ATOM     72  C   UNL A   1      45.782  26.882  37.056  1.00  0.00     0.060 A 
BRANCH  72  73
ATOM     73  S   UNL A   1      47.060  25.913  37.886  1.00  0.00     0.124 S 
ATOM     74  O   UNL A   1      46.258  25.096  38.793  1.00  0.00    -0.237 OA
ATOM     75  O   UNL A   1      47.684  25.200  36.777  1.00  0.00    -0.237 OA
ATOM     76  O   UNL A   1      47.892  26.927  38.525  1.00  0.00    -0.744 OA
ENDBRANCH  72  73
ENDBRANCH  51  65
BRANCH  52  77
ATOM     77  C   UNL A   1      36.467  33.309  31.078  1.00  0.00     0.058 A 
ATOM     78  C   UNL A   1      36.721  34.101  29.949  1.00  0.00     0.135 A 
ATOM     79  C   UNL A   1      35.141  33.209  31.524  1.00  0.00     0.135 A 
ATOM     80  F   UNL A   1      37.975  34.230  29.489  1.00  0.00    -0.206 F 
ATOM     81  C   UNL A   1      35.700  34.781  29.293  1.00  0.00     0.059 A 
ATOM     82  C   UNL A   1      34.100  33.862  30.870  1.00  0.00     0.059 A 
ATOM     83  F   UNL A   1      34.844  32.449  32.590  1.00  0.00    -0.206 F 
ATOM     84  C   UNL A   1      34.391  34.653  29.760  1.00  0.00     0.060 A 
BRANCH  84  85
ATOM     85  S   UNL A   1      33.067  35.499  28.872  1.00  0.00     0.124 S 
ATOM     86  O   UNL A   1      32.234  35.974  29.970  1.00  0.00    -0.237 OA
ATOM     87  O   UNL A   1      33.796  36.523  28.132  1.00  0.00    -0.237 OA
ATOM     88  O   UNL A   1      32.486  34.439  28.052  1.00  0.00    -0.744 OA
ENDBRANCH  84  85
ENDBRANCH  52  77
BRANCH  64  89
ATOM     89  C   UNL A   1      39.725  34.209  37.177  1.00  0.00     0.058 A 
ATOM     90  C   UNL A   1      38.925  33.987  38.307  1.00  0.00     0.135 A 
ATOM     91  C   UNL A   1      40.438  35.417  37.103  1.00  0.00     0.135 A 
ATOM     92  F   UNL A   1      38.218  32.851  38.422  1.00  0.00    -0.206 F 
ATOM     93  C   UNL A   1      38.815  34.938  39.318  1.00  0.00     0.059 A 
ATOM     94  C   UNL A   1      40.364  36.370  38.112  1.00  0.00     0.059 A 
ATOM     95  F   UNL A   1      41.226  35.673  36.047  1.00  0.00    -0.206 F 
ATOM     96  C   UNL A   1      39.539  36.127  39.211  1.00  0.00     0.060 A 
BRANCH  96  97
ATOM     97  S   UNL A   1      39.413  37.341  40.541  1.00  0.00     0.124 S 
ATOM     98  O   UNL A   1      38.382  38.235  40.025  1.00  0.00    -0.237 OA
ATOM     99  O   UNL A   1      39.026  36.518  41.682  1.00  0.00    -0.237 OA
ATOM    100  O   UNL A   1      40.757  37.906  40.612  1.00  0.00    -0.744 OA
ENDBRANCH  96  97
ENDBRANCH  64  89
ENDBRANCH  38  39
ENDBRANCH  30  33
ENDBRANCH  28  29
ENDBRANCH  27  28
ENDBRANCH  26  27
ENDBRANCH   1  26
TORSDOF 19
ENDMDL
