MODEL 1
REMARK VINA RESULT:     -11.0      0.000      0.000
REMARK SMILES CC1=C(C)C(=O)N(C[C@H](CC(C)C)C(=O)NCCCCCCNC(=O)c2ccc(-c3c4nc(c(-c5c(F)cc(S(=O)(=O)[O-])cc5F)c5ccc([nH]5)c(-c5c(F)cc(S(=O)(=O)[O-])cc5F)c5nc(c(-c6c(F)cc(S(=O)(=O)[O-])cc6F)c6ccc3[nH]6)C=C5)C=C4)cc2)C1=O
REMARK SMILES IDX 20 1 19 2 18 3 17 4 16 5 14 6 15 7 9 9 8 10 7 11 1 12 2 13
REMARK SMILES IDX 3 14 92 15 4 16 5 17 93 18 6 19 10 20 11 21 12 22 13 23
REMARK SMILES IDX 21 24 22 25 23 26 24 27 25 29 26 30 27 31 91 32 28 33 90 34
REMARK SMILES IDX 29 35 30 36 31 37 84 38 32 39 89 40 83 41 85 42 33 43 88 44
REMARK SMILES IDX 82 45 81 46 34 48 68 49 47 50 67 51 48 52 51 53 66 54 86 55
REMARK SMILES IDX 49 56 50 57 65 59 87 60 52 61 35 62 36 63 45 64 37 65 38 66
REMARK SMILES IDX 44 67 46 68 39 69 40 70 41 71 42 72 43 73 69 74 70 75 79 76
REMARK SMILES IDX 71 77 72 78 78 79 80 80 73 81 74 82 75 83 76 84 77 85 53 86
REMARK SMILES IDX 54 87 63 88 55 89 56 90 62 91 64 92 57 93 58 94 59 95 60 96
REMARK SMILES IDX 61 97
REMARK H PARENT 16 8 23 28 85 47 51 58
REMARK Flexibility Score: inf
ROOT
ATOM      1  C   UNL A   1      36.692  23.570  25.033  1.00  0.00     0.002 C 
ENDROOT
BRANCH   1   2
ATOM      2  C   UNL A   1      36.576  22.930  23.646  1.00  0.00     0.002 C 
BRANCH   2   3
ATOM      3  C   UNL A   1      35.280  23.275  22.905  1.00  0.00     0.021 C 
BRANCH   3   4
ATOM      4  C   UNL A   1      34.519  24.453  23.510  1.00  0.00     0.116 C 
BRANCH   4   5
ATOM      5  N   UNL A   1      33.490  24.967  22.620  1.00  0.00    -0.356 N 
ATOM      6  C   UNL A   1      32.220  25.389  22.855  1.00  0.00     0.224 C 
ATOM      7  O   UNL A   1      31.585  25.852  21.904  1.00  0.00    -0.275 OA
ATOM      8  H   UNL A   1      33.763  25.019  21.676  1.00  0.00     0.163 HD
BRANCH   6   9
ATOM      9  C   UNL A   1      31.603  25.346  24.241  1.00  0.00     0.099 C 
BRANCH   9  10
ATOM     10  C   UNL A   1      30.904  23.967  24.371  1.00  0.00     0.142 C 
BRANCH  10  11
ATOM     11  N   UNL A   1      31.740  22.949  24.970  1.00  0.00    -0.274 N 
ATOM     12  C   UNL A   1      34.005  20.065  24.778  1.00  0.00     0.051 C 
ATOM     13  C   UNL A   1      33.187  21.217  25.211  1.00  0.00     0.023 C 
ATOM     14  C   UNL A   1      33.183  21.886  26.371  1.00  0.00     0.023 C 
ATOM     15  C   UNL A   1      32.228  21.873  24.306  1.00  0.00     0.256 C 
ATOM     16  C   UNL A   1      34.021  21.686  27.576  1.00  0.00     0.051 C 
ATOM     17  C   UNL A   1      32.247  23.012  26.228  1.00  0.00     0.256 C 
ATOM     18  O   UNL A   1      31.993  21.519  23.168  1.00  0.00    -0.269 OA
ATOM     19  O   UNL A   1      32.043  23.862  27.078  1.00  0.00    -0.269 OA
ENDBRANCH  10  11
ENDBRANCH   9  10
BRANCH   9  20
ATOM     20  C   UNL A   1      30.743  26.575  24.613  1.00  0.00     0.018 C 
BRANCH  20  21
ATOM     21  C   UNL A   1      31.459  27.846  25.131  1.00  0.00    -0.017 C 
ATOM     22  C   UNL A   1      30.936  29.183  24.611  1.00  0.00     0.007 C 
ATOM     23  C   UNL A   1      31.389  27.842  26.666  1.00  0.00     0.007 C 
ENDBRANCH  20  21
ENDBRANCH   9  20
ENDBRANCH   6   9
ENDBRANCH   4   5
ENDBRANCH   3   4
ENDBRANCH   2   3
ENDBRANCH   1   2
BRANCH   1  24
ATOM     24  C   UNL A   1      37.863  23.054  25.871  1.00  0.00     0.021 C 
BRANCH  24  25
ATOM     25  C   UNL A   1      38.706  24.153  26.503  1.00  0.00     0.116 C 
BRANCH  25  26
ATOM     26  N   UNL A   1      40.102  24.043  26.118  1.00  0.00    -0.352 N 
ATOM     27  C   UNL A   1      41.142  24.878  26.440  1.00  0.00     0.251 C 
ATOM     28  H   UNL A   1      40.333  23.271  25.552  1.00  0.00     0.163 HD
ATOM     29  O   UNL A   1      42.212  24.792  25.850  1.00  0.00    -0.269 OA
BRANCH  27  30
ATOM     30  C   UNL A   1      40.948  25.894  27.498  1.00  0.00     0.039 A 
ATOM     31  C   UNL A   1      39.912  25.729  28.417  1.00  0.00     0.014 A 
ATOM     32  C   UNL A   1      41.799  27.002  27.580  1.00  0.00     0.014 A 
ATOM     33  C   UNL A   1      39.753  26.657  29.446  1.00  0.00     0.010 A 
ATOM     34  C   UNL A   1      41.687  27.879  28.653  1.00  0.00     0.010 A 
ATOM     35  C   UNL A   1      40.652  27.727  29.588  1.00  0.00    -0.014 A 
BRANCH  35  36
ATOM     36  C   UNL A   1      40.510  28.709  30.693  1.00  0.00     0.031 A 
ATOM     37  C   UNL A   1      41.374  28.592  31.919  1.00  0.00     0.074 A 
ATOM     38  C   UNL A   1      39.574  29.676  30.611  1.00  0.00     0.049 A 
ATOM     39  N   UNL A   1      41.371  29.323  33.005  1.00  0.00    -0.248 NA
ATOM     40  C   UNL A   1      42.352  27.491  31.943  1.00  0.00     0.031 C 
ATOM     41  C   UNL A   1      38.644  29.862  29.494  1.00  0.00     0.029 A 
ATOM     42  N   UNL A   1      39.245  30.681  31.485  1.00  0.00    -0.354 N 
ATOM     43  C   UNL A   1      42.332  28.766  33.840  1.00  0.00     0.074 A 
ATOM     44  C   UNL A   1      42.856  27.601  33.163  1.00  0.00     0.031 C 
ATOM     45  C   UNL A   1      37.869  30.929  29.740  1.00  0.00     0.029 A 
ATOM     46  C   UNL A   1      38.216  31.481  31.046  1.00  0.00     0.049 A 
ATOM     47  H   UNL A   1      39.702  30.817  32.347  1.00  0.00     0.167 HD
ATOM     48  C   UNL A   1      42.757  29.201  35.050  1.00  0.00     0.037 A 
ATOM     49  C   UNL A   1      37.615  32.535  31.632  1.00  0.00     0.037 A 
ATOM     50  C   UNL A   1      42.245  30.376  35.706  1.00  0.00     0.049 A 
ATOM     51  C   UNL A   1      38.104  32.999  32.979  1.00  0.00     0.074 A 
ATOM     52  C   UNL A   1      42.648  30.934  36.907  1.00  0.00     0.029 A 
ATOM     53  N   UNL A   1      41.217  31.171  35.221  1.00  0.00    -0.354 N 
ATOM     54  N   UNL A   1      39.061  32.500  33.725  1.00  0.00    -0.248 NA
ATOM     55  C   UNL A   1      37.441  34.174  33.558  1.00  0.00     0.031 C 
ATOM     56  C   UNL A   1      41.827  32.034  37.174  1.00  0.00     0.029 A 
ATOM     57  C   UNL A   1      40.955  32.201  36.110  1.00  0.00     0.049 A 
ATOM     58  H   UNL A   1      40.743  31.024  34.371  1.00  0.00     0.167 HD
ATOM     59  C   UNL A   1      39.135  33.319  34.846  1.00  0.00     0.074 A 
ATOM     60  C   UNL A   1      38.135  34.352  34.675  1.00  0.00     0.031 C 
ATOM     61  C   UNL A   1      39.960  33.227  35.920  1.00  0.00     0.037 A 
BRANCH  48  62
ATOM     62  C   UNL A   1      43.831  28.404  35.743  1.00  0.00     0.058 A 
ATOM     63  C   UNL A   1      43.523  27.348  36.615  1.00  0.00     0.135 A 
ATOM     64  C   UNL A   1      45.188  28.675  35.501  1.00  0.00     0.135 A 
ATOM     65  F   UNL A   1      42.244  27.053  36.896  1.00  0.00    -0.206 F 
ATOM     66  C   UNL A   1      44.519  26.610  37.247  1.00  0.00     0.059 A 
ATOM     67  C   UNL A   1      46.201  27.929  36.096  1.00  0.00     0.059 A 
ATOM     68  F   UNL A   1      45.542  29.674  34.677  1.00  0.00    -0.206 F 
ATOM     69  C   UNL A   1      45.857  26.907  36.980  1.00  0.00     0.060 A 
BRANCH  69  70
ATOM     70  S   UNL A   1      47.136  25.933  37.800  1.00  0.00     0.124 S 
ATOM     71  O   UNL A   1      47.510  24.996  36.745  1.00  0.00    -0.237 OA
ATOM     72  O   UNL A   1      48.133  26.945  38.131  1.00  0.00    -0.237 OA
ATOM     73  O   UNL A   1      46.439  25.347  38.940  1.00  0.00    -0.744 OA
ENDBRANCH  69  70
ENDBRANCH  48  62
BRANCH  49  74
ATOM     74  C   UNL A   1      36.501  33.237  30.939  1.00  0.00     0.058 A 
ATOM     75  C   UNL A   1      35.169  33.056  31.341  1.00  0.00     0.135 A 
ATOM     76  C   UNL A   1      36.746  34.111  29.868  1.00  0.00     0.135 A 
ATOM     77  F   UNL A   1      34.881  32.227  32.356  1.00  0.00    -0.206 F 
ATOM     78  C   UNL A   1      34.118  33.700  30.696  1.00  0.00     0.059 A 
ATOM     79  C   UNL A   1      35.715  34.789  29.226  1.00  0.00     0.059 A 
ATOM     80  F   UNL A   1      38.004  34.333  29.454  1.00  0.00    -0.206 F 
ATOM     81  C   UNL A   1      34.403  34.569  29.639  1.00  0.00     0.060 A 
BRANCH  81  82
ATOM     82  S   UNL A   1      33.035  35.434  28.838  1.00  0.00     0.124 S 
ATOM     83  O   UNL A   1      32.396  34.352  28.098  1.00  0.00    -0.237 OA
ATOM     84  O   UNL A   1      32.290  35.954  29.982  1.00  0.00    -0.237 OA
ATOM     85  O   UNL A   1      33.708  36.444  28.027  1.00  0.00    -0.744 OA
ENDBRANCH  81  82
ENDBRANCH  49  74
BRANCH  61  86
ATOM     86  C   UNL A   1      39.849  34.296  36.975  1.00  0.00     0.058 A 
ATOM     87  C   UNL A   1      40.475  35.544  36.838  1.00  0.00     0.135 A 
ATOM     88  C   UNL A   1      39.060  34.081  38.117  1.00  0.00     0.135 A 
ATOM     89  F   UNL A   1      41.245  35.800  35.769  1.00  0.00    -0.206 F 
ATOM     90  C   UNL A   1      40.348  36.531  37.810  1.00  0.00     0.059 A 
ATOM     91  C   UNL A   1      38.892  35.066  39.086  1.00  0.00     0.059 A 
ATOM     92  F   UNL A   1      38.428  32.909  38.294  1.00  0.00    -0.206 F 
ATOM     93  C   UNL A   1      39.551  36.283  38.929  1.00  0.00     0.060 A 
BRANCH  93  94
ATOM     94  S   UNL A   1      39.371  37.584  40.168  1.00  0.00     0.124 S 
ATOM     95  O   UNL A   1      38.976  36.816  41.345  1.00  0.00    -0.237 OA
ATOM     96  O   UNL A   1      40.710  38.163  40.208  1.00  0.00    -0.237 OA
ATOM     97  O   UNL A   1      38.337  38.449  39.606  1.00  0.00    -0.744 OA
ENDBRANCH  93  94
ENDBRANCH  61  86
ENDBRANCH  35  36
ENDBRANCH  27  30
ENDBRANCH  25  26
ENDBRANCH  24  25
ENDBRANCH   1  24
TORSDOF 20
ENDMDL
MODEL 2
REMARK VINA RESULT:     -10.9      2.419      8.986
REMARK SMILES CC1=C(C)C(=O)N(C[C@H](CC(C)C)C(=O)NCCCCCCNC(=O)c2ccc(-c3c4nc(c(-c5c(F)cc(S(=O)(=O)[O-])cc5F)c5ccc([nH]5)c(-c5c(F)cc(S(=O)(=O)[O-])cc5F)c5nc(c(-c6c(F)cc(S(=O)(=O)[O-])cc6F)c6ccc3[nH]6)C=C5)C=C4)cc2)C1=O
REMARK SMILES IDX 20 1 19 2 18 3 17 4 16 5 14 6 15 7 9 9 8 10 7 11 1 12 2 13
REMARK SMILES IDX 3 14 92 15 4 16 5 17 93 18 6 19 10 20 11 21 12 22 13 23
REMARK SMILES IDX 21 24 22 25 23 26 24 27 25 29 26 30 27 31 91 32 28 33 90 34
REMARK SMILES IDX 29 35 30 36 31 37 84 38 32 39 89 40 83 41 85 42 33 43 88 44
REMARK SMILES IDX 82 45 81 46 34 48 68 49 47 50 67 51 48 52 51 53 66 54 86 55
REMARK SMILES IDX 49 56 50 57 65 59 87 60 52 61 35 62 36 63 45 64 37 65 38 66
REMARK SMILES IDX 44 67 46 68 39 69 40 70 41 71 42 72 43 73 69 74 70 75 79 76
REMARK SMILES IDX 71 77 72 78 78 79 80 80 73 81 74 82 75 83 76 84 77 85 53 86
REMARK SMILES IDX 54 87 63 88 55 89 56 90 62 91 64 92 57 93 58 94 59 95 60 96
REMARK SMILES IDX 61 97
REMARK H PARENT 16 8 23 28 85 47 51 58
REMARK Flexibility Score: inf
ROOT
ATOM      1  C   UNL A   1      31.659  30.824  26.477  1.00  0.00     0.002 C 
ENDROOT
BRANCH   1   2
ATOM      2  C   UNL A   1      32.750  30.031  27.203  1.00  0.00     0.002 C 
BRANCH   2   3
ATOM      3  C   UNL A   1      32.334  28.608  27.591  1.00  0.00     0.021 C 
BRANCH   3   4
ATOM      4  C   UNL A   1      32.013  27.712  26.396  1.00  0.00     0.116 C 
BRANCH   4   5
ATOM      5  N   UNL A   1      31.035  26.685  26.719  1.00  0.00    -0.356 N 
ATOM      6  C   UNL A   1      30.744  25.497  26.127  1.00  0.00     0.224 C 
ATOM      7  O   UNL A   1      29.899  24.779  26.668  1.00  0.00    -0.275 OA
ATOM      8  H   UNL A   1      30.484  26.887  27.509  1.00  0.00     0.163 HD
BRANCH   6   9
ATOM      9  C   UNL A   1      31.457  25.029  24.871  1.00  0.00     0.099 C 
BRANCH   9  10
ATOM     10  C   UNL A   1      30.425  25.122  23.717  1.00  0.00     0.142 C 
BRANCH  10  11
ATOM     11  N   UNL A   1      29.957  26.469  23.468  1.00  0.00    -0.274 N 
ATOM     12  C   UNL A   1      30.206  29.760  21.857  1.00  0.00     0.051 C 
ATOM     13  C   UNL A   1      29.780  28.565  22.616  1.00  0.00     0.023 C 
ATOM     14  C   UNL A   1      28.587  28.256  23.142  1.00  0.00     0.023 C 
ATOM     15  C   UNL A   1      30.688  27.431  22.854  1.00  0.00     0.256 C 
ATOM     16  C   UNL A   1      27.316  29.014  23.101  1.00  0.00     0.051 C 
ATOM     17  C   UNL A   1      28.690  26.898  23.699  1.00  0.00     0.256 C 
ATOM     18  O   UNL A   1      31.848  27.384  22.499  1.00  0.00    -0.269 OA
ATOM     19  O   UNL A   1      27.768  26.280  24.204  1.00  0.00    -0.269 OA
ENDBRANCH  10  11
ENDBRANCH   9  10
BRANCH   9  20
ATOM     20  C   UNL A   1      32.199  23.680  25.004  1.00  0.00     0.018 C 
BRANCH  20  21
ATOM     21  C   UNL A   1      33.721  23.700  25.287  1.00  0.00    -0.017 C 
ATOM     22  C   UNL A   1      34.432  25.038  25.098  1.00  0.00     0.007 C 
ATOM     23  C   UNL A   1      33.946  23.211  26.726  1.00  0.00     0.007 C 
ENDBRANCH  20  21
ENDBRANCH   9  20
ENDBRANCH   6   9
ENDBRANCH   4   5
ENDBRANCH   3   4
ENDBRANCH   2   3
ENDBRANCH   1   2
BRANCH   1  24
ATOM     24  C   UNL A   1      31.668  32.325  26.770  1.00  0.00     0.021 C 
BRANCH  24  25
ATOM     25  C   UNL A   1      32.953  32.824  27.418  1.00  0.00     0.116 C 
BRANCH  25  26
ATOM     26  N   UNL A   1      32.824  34.199  27.868  1.00  0.00    -0.352 N 
ATOM     27  C   UNL A   1      33.454  34.812  28.922  1.00  0.00     0.251 C 
ATOM     28  H   UNL A   1      32.205  34.765  27.353  1.00  0.00     0.163 HD
ATOM     29  O   UNL A   1      33.069  35.903  29.326  1.00  0.00    -0.269 OA
BRANCH  27  30
ATOM     30  C   UNL A   1      34.594  34.130  29.573  1.00  0.00     0.039 A 
ATOM     31  C   UNL A   1      35.892  34.443  29.173  1.00  0.00     0.014 A 
ATOM     32  C   UNL A   1      34.372  33.189  30.585  1.00  0.00     0.014 A 
ATOM     33  C   UNL A   1      36.974  33.840  29.816  1.00  0.00     0.010 A 
ATOM     34  C   UNL A   1      35.451  32.651  31.277  1.00  0.00     0.010 A 
ATOM     35  C   UNL A   1      36.764  32.957  30.889  1.00  0.00    -0.014 A 
BRANCH  35  36
ATOM     36  C   UNL A   1      37.906  32.327  31.599  1.00  0.00     0.031 A 
ATOM     37  C   UNL A   1      38.353  32.865  32.931  1.00  0.00     0.074 A 
ATOM     38  C   UNL A   1      38.567  31.302  31.024  1.00  0.00     0.049 A 
ATOM     39  N   UNL A   1      39.351  32.480  33.685  1.00  0.00    -0.248 NA
ATOM     40  C   UNL A   1      37.596  34.004  33.478  1.00  0.00     0.031 C 
ATOM     41  C   UNL A   1      38.259  30.725  29.713  1.00  0.00     0.029 A 
ATOM     42  N   UNL A   1      39.639  30.567  31.464  1.00  0.00    -0.354 N 
ATOM     43  C   UNL A   1      39.349  33.333  34.783  1.00  0.00     0.074 A 
ATOM     44  C   UNL A   1      38.290  34.293  34.569  1.00  0.00     0.031 C 
ATOM     45  C   UNL A   1      39.104  29.712  29.468  1.00  0.00     0.029 A 
ATOM     46  C   UNL A   1      40.039  29.591  30.582  1.00  0.00     0.049 A 
ATOM     47  H   UNL A   1      40.081  30.725  32.330  1.00  0.00     0.167 HD
ATOM     48  C   UNL A   1      40.141  33.302  35.880  1.00  0.00     0.037 A 
ATOM     49  C   UNL A   1      41.051  28.703  30.659  1.00  0.00     0.037 A 
ATOM     50  C   UNL A   1      41.180  32.327  36.095  1.00  0.00     0.049 A 
ATOM     51  C   UNL A   1      41.920  28.691  31.888  1.00  0.00     0.074 A 
ATOM     52  C   UNL A   1      42.000  32.174  37.198  1.00  0.00     0.029 A 
ATOM     53  N   UNL A   1      41.542  31.342  35.187  1.00  0.00    -0.354 N 
ATOM     54  N   UNL A   1      41.861  29.462  32.948  1.00  0.00    -0.248 NA
ATOM     55  C   UNL A   1      42.984  27.680  31.939  1.00  0.00     0.031 C 
ATOM     56  C   UNL A   1      42.896  31.133  36.935  1.00  0.00     0.029 A 
ATOM     57  C   UNL A   1      42.592  30.594  35.695  1.00  0.00     0.049 A 
ATOM     58  H   UNL A   1      41.117  31.197  34.312  1.00  0.00     0.167 HD
ATOM     59  C   UNL A   1      42.859  29.009  33.804  1.00  0.00     0.074 A 
ATOM     60  C   UNL A   1      43.498  27.891  33.143  1.00  0.00     0.031 C 
ATOM     61  C   UNL A   1      43.212  29.476  35.028  1.00  0.00     0.037 A 
BRANCH  48  62
ATOM     62  C   UNL A   1      39.916  34.353  36.936  1.00  0.00     0.058 A 
ATOM     63  C   UNL A   1      40.541  35.609  36.876  1.00  0.00     0.135 A 
ATOM     64  C   UNL A   1      39.033  34.113  38.002  1.00  0.00     0.135 A 
ATOM     65  F   UNL A   1      41.406  35.888  35.888  1.00  0.00    -0.206 F 
ATOM     66  C   UNL A   1      40.323  36.578  37.850  1.00  0.00     0.059 A 
ATOM     67  C   UNL A   1      38.775  35.080  38.970  1.00  0.00     0.059 A 
ATOM     68  F   UNL A   1      38.410  32.930  38.111  1.00  0.00    -0.206 F 
ATOM     69  C   UNL A   1      39.437  36.305  38.893  1.00  0.00     0.060 A 
BRANCH  69  70
ATOM     70  S   UNL A   1      39.159  37.578  40.142  1.00  0.00     0.124 S 
ATOM     71  O   UNL A   1      38.739  36.775  41.288  1.00  0.00    -0.237 OA
ATOM     72  O   UNL A   1      40.475  38.198  40.253  1.00  0.00    -0.237 OA
ATOM     73  O   UNL A   1      38.121  38.415  39.551  1.00  0.00    -0.744 OA
ENDBRANCH  69  70
ENDBRANCH  48  62
BRANCH  49  74
ATOM     74  C   UNL A   1      41.282  27.741  29.547  1.00  0.00     0.058 A 
ATOM     75  C   UNL A   1      42.402  27.854  28.711  1.00  0.00     0.135 A 
ATOM     76  C   UNL A   1      40.393  26.681  29.308  1.00  0.00     0.135 A 
ATOM     77  F   UNL A   1      43.278  28.854  28.895  1.00  0.00    -0.206 F 
ATOM     78  C   UNL A   1      42.624  26.965  27.664  1.00  0.00     0.059 A 
ATOM     79  C   UNL A   1      40.609  25.762  28.286  1.00  0.00     0.059 A 
ATOM     80  F   UNL A   1      39.314  26.516  30.090  1.00  0.00    -0.206 F 
ATOM     81  C   UNL A   1      41.721  25.919  27.462  1.00  0.00     0.060 A 
BRANCH  81  82
ATOM     82  S   UNL A   1      42.043  24.744  26.129  1.00  0.00     0.124 S 
ATOM     83  O   UNL A   1      43.395  24.299  26.449  1.00  0.00    -0.237 OA
ATOM     84  O   UNL A   1      40.982  23.760  26.325  1.00  0.00    -0.237 OA
ATOM     85  O   UNL A   1      41.915  25.560  24.925  1.00  0.00    -0.744 OA
ENDBRANCH  81  82
ENDBRANCH  49  74
BRANCH  61  86
ATOM     86  C   UNL A   1      44.312  28.751  35.757  1.00  0.00     0.058 A 
ATOM     87  C   UNL A   1      44.046  27.716  36.666  1.00  0.00     0.135 A 
ATOM     88  C   UNL A   1      45.657  29.068  35.500  1.00  0.00     0.135 A 
ATOM     89  F   UNL A   1      42.780  27.377  36.952  1.00  0.00    -0.206 F 
ATOM     90  C   UNL A   1      45.072  27.039  37.317  1.00  0.00     0.059 A 
ATOM     91  C   UNL A   1      46.700  28.381  36.115  1.00  0.00     0.059 A 
ATOM     92  F   UNL A   1      45.970  30.041  34.630  1.00  0.00    -0.206 F 
ATOM     93  C   UNL A   1      46.397  27.378  37.032  1.00  0.00     0.060 A 
BRANCH  93  94
ATOM     94  S   UNL A   1      47.718  26.471  37.863  1.00  0.00     0.124 S 
ATOM     95  O   UNL A   1      48.797  26.561  36.884  1.00  0.00    -0.237 OA
ATOM     96  O   UNL A   1      47.906  27.245  39.087  1.00  0.00    -0.237 OA
ATOM     97  O   UNL A   1      47.151  25.139  38.052  1.00  0.00    -0.744 OA
ENDBRANCH  93  94
ENDBRANCH  61  86
ENDBRANCH  35  36
ENDBRANCH  27  30
ENDBRANCH  25  26
ENDBRANCH  24  25
ENDBRANCH   1  24
TORSDOF 20
ENDMDL
MODEL 3
REMARK VINA RESULT:     -10.7      1.218      2.764
REMARK SMILES CC1=C(C)C(=O)N(C[C@H](CC(C)C)C(=O)NCCCCCCNC(=O)c2ccc(-c3c4nc(c(-c5c(F)cc(S(=O)(=O)[O-])cc5F)c5ccc([nH]5)c(-c5c(F)cc(S(=O)(=O)[O-])cc5F)c5nc(c(-c6c(F)cc(S(=O)(=O)[O-])cc6F)c6ccc3[nH]6)C=C5)C=C4)cc2)C1=O
REMARK SMILES IDX 20 1 19 2 18 3 17 4 16 5 14 6 15 7 9 9 8 10 7 11 1 12 2 13
REMARK SMILES IDX 3 14 92 15 4 16 5 17 93 18 6 19 10 20 11 21 12 22 13 23
REMARK SMILES IDX 21 24 22 25 23 26 24 27 25 29 26 30 27 31 91 32 28 33 90 34
REMARK SMILES IDX 29 35 30 36 31 37 84 38 32 39 89 40 83 41 85 42 33 43 88 44
REMARK SMILES IDX 82 45 81 46 34 48 68 49 47 50 67 51 48 52 51 53 66 54 86 55
REMARK SMILES IDX 49 56 50 57 65 59 87 60 52 61 35 62 36 63 45 64 37 65 38 66
REMARK SMILES IDX 44 67 46 68 39 69 40 70 41 71 42 72 43 73 69 74 70 75 79 76
REMARK SMILES IDX 71 77 72 78 78 79 80 80 73 81 74 82 75 83 76 84 77 85 53 86
REMARK SMILES IDX 54 87 63 88 55 89 56 90 62 91 64 92 57 93 58 94 59 95 60 96
REMARK SMILES IDX 61 97
REMARK H PARENT 16 8 23 28 85 47 51 58
REMARK Flexibility Score: inf
ROOT
ATOM      1  C   UNL A   1      39.991  21.140  26.174  1.00  0.00     0.002 C 
ENDROOT
BRANCH   1   2
ATOM      2  C   UNL A   1      38.589  21.730  25.992  1.00  0.00     0.002 C 
BRANCH   2   3
ATOM      3  C   UNL A   1      37.720  20.977  24.979  1.00  0.00     0.021 C 
BRANCH   3   4
ATOM      4  C   UNL A   1      36.296  21.518  24.866  1.00  0.00     0.116 C 
BRANCH   4   5
ATOM      5  N   UNL A   1      35.431  21.034  25.930  1.00  0.00    -0.356 N 
ATOM      6  C   UNL A   1      34.178  21.396  26.310  1.00  0.00     0.224 C 
ATOM      7  O   UNL A   1      33.647  20.752  27.219  1.00  0.00    -0.275 OA
ATOM      8  H   UNL A   1      35.824  20.313  26.472  1.00  0.00     0.163 HD
BRANCH   6   9
ATOM      9  C   UNL A   1      33.422  22.518  25.622  1.00  0.00     0.099 C 
BRANCH   9  10
ATOM     10  C   UNL A   1      33.310  23.672  26.653  1.00  0.00     0.142 C 
BRANCH  10  11
ATOM     11  N   UNL A   1      33.111  24.970  26.046  1.00  0.00    -0.274 N 
ATOM     12  C   UNL A   1      33.957  27.600  23.626  1.00  0.00     0.051 C 
ATOM     13  C   UNL A   1      33.327  26.758  24.664  1.00  0.00     0.023 C 
ATOM     14  C   UNL A   1      32.114  26.844  25.226  1.00  0.00     0.023 C 
ATOM     15  C   UNL A   1      33.999  25.569  25.215  1.00  0.00     0.256 C 
ATOM     16  C   UNL A   1      31.018  27.802  24.957  1.00  0.00     0.051 C 
ATOM     17  C   UNL A   1      31.962  25.689  26.126  1.00  0.00     0.256 C 
ATOM     18  O   UNL A   1      35.115  25.199  24.912  1.00  0.00    -0.269 OA
ATOM     19  O   UNL A   1      30.952  25.424  26.755  1.00  0.00    -0.269 OA
ENDBRANCH  10  11
ENDBRANCH   9  10
BRANCH   9  20
ATOM     20  C   UNL A   1      32.102  22.094  24.939  1.00  0.00     0.018 C 
BRANCH  20  21
ATOM     21  C   UNL A   1      31.828  22.585  23.497  1.00  0.00    -0.017 C 
ATOM     22  C   UNL A   1      30.849  23.747  23.346  1.00  0.00     0.007 C 
ATOM     23  C   UNL A   1      33.171  22.975  22.861  1.00  0.00     0.007 C 
ENDBRANCH  20  21
ENDBRANCH   9  20
ENDBRANCH   6   9
ENDBRANCH   4   5
ENDBRANCH   3   4
ENDBRANCH   2   3
ENDBRANCH   1   2
BRANCH   1  24
ATOM     24  C   UNL A   1      40.740  21.657  27.403  1.00  0.00     0.021 C 
BRANCH  24  25
ATOM     25  C   UNL A   1      40.752  23.174  27.531  1.00  0.00     0.116 C 
BRANCH  25  26
ATOM     26  N   UNL A   1      41.380  23.801  26.381  1.00  0.00    -0.352 N 
ATOM     27  C   UNL A   1      41.560  25.138  26.133  1.00  0.00     0.251 C 
ATOM     28  H   UNL A   1      41.720  23.189  25.689  1.00  0.00     0.163 HD
ATOM     29  O   UNL A   1      41.890  25.524  25.018  1.00  0.00    -0.269 OA
BRANCH  27  30
ATOM     30  C   UNL A   1      41.335  26.109  27.227  1.00  0.00     0.039 A 
ATOM     31  C   UNL A   1      40.192  25.988  28.017  1.00  0.00     0.014 A 
ATOM     32  C   UNL A   1      42.261  27.129  27.470  1.00  0.00     0.014 A 
ATOM     33  C   UNL A   1      39.997  26.870  29.081  1.00  0.00     0.010 A 
ATOM     34  C   UNL A   1      42.104  27.954  28.579  1.00  0.00     0.010 A 
ATOM     35  C   UNL A   1      40.961  27.845  29.386  1.00  0.00    -0.014 A 
BRANCH  35  36
ATOM     36  C   UNL A   1      40.779  28.775  30.530  1.00  0.00     0.031 A 
ATOM     37  C   UNL A   1      41.647  28.643  31.752  1.00  0.00     0.074 A 
ATOM     38  C   UNL A   1      39.805  29.706  30.486  1.00  0.00     0.049 A 
ATOM     39  N   UNL A   1      41.614  29.328  32.867  1.00  0.00    -0.248 NA
ATOM     40  C   UNL A   1      42.669  27.583  31.732  1.00  0.00     0.031 C 
ATOM     41  C   UNL A   1      38.868  29.898  29.376  1.00  0.00     0.029 A 
ATOM     42  N   UNL A   1      39.435  30.660  31.400  1.00  0.00    -0.354 N 
ATOM     43  C   UNL A   1      42.597  28.777  33.680  1.00  0.00     0.074 A 
ATOM     44  C   UNL A   1      43.168  27.663  32.957  1.00  0.00     0.031 C 
ATOM     45  C   UNL A   1      38.050  30.922  29.663  1.00  0.00     0.029 A 
ATOM     46  C   UNL A   1      38.374  31.434  30.991  1.00  0.00     0.049 A 
ATOM     47  H   UNL A   1      39.886  30.778  32.267  1.00  0.00     0.167 HD
ATOM     48  C   UNL A   1      43.004  29.179  34.907  1.00  0.00     0.037 A 
ATOM     49  C   UNL A   1      37.731  32.438  31.619  1.00  0.00     0.037 A 
ATOM     50  C   UNL A   1      42.444  30.305  35.611  1.00  0.00     0.049 A 
ATOM     51  C   UNL A   1      38.201  32.866  32.985  1.00  0.00     0.074 A 
ATOM     52  C   UNL A   1      42.824  30.829  36.833  1.00  0.00     0.029 A 
ATOM     53  N   UNL A   1      41.384  31.076  35.156  1.00  0.00    -0.354 N 
ATOM     54  N   UNL A   1      39.177  32.376  33.712  1.00  0.00    -0.248 NA
ATOM     55  C   UNL A   1      37.489  33.988  33.610  1.00  0.00     0.031 C 
ATOM     56  C   UNL A   1      41.958  31.883  37.144  1.00  0.00     0.029 A 
ATOM     57  C   UNL A   1      41.080  32.057  36.086  1.00  0.00     0.049 A 
ATOM     58  H   UNL A   1      40.917  30.945  34.300  1.00  0.00     0.167 HD
ATOM     59  C   UNL A   1      39.217  33.152  34.866  1.00  0.00     0.074 A 
ATOM     60  C   UNL A   1      38.175  34.149  34.734  1.00  0.00     0.031 C 
ATOM     61  C   UNL A   1      40.045  33.049  35.936  1.00  0.00     0.037 A 
BRANCH  48  62
ATOM     62  C   UNL A   1      44.109  28.399  35.570  1.00  0.00     0.058 A 
ATOM     63  C   UNL A   1      45.461  28.730  35.389  1.00  0.00     0.135 A 
ATOM     64  C   UNL A   1      43.809  27.328  36.428  1.00  0.00     0.135 A 
ATOM     65  F   UNL A   1      45.808  29.734  34.568  1.00  0.00    -0.206 F 
ATOM     66  C   UNL A   1      46.477  28.010  36.009  1.00  0.00     0.059 A 
ATOM     67  C   UNL A   1      44.808  26.615  37.086  1.00  0.00     0.059 A 
ATOM     68  F   UNL A   1      42.534  26.965  36.638  1.00  0.00    -0.206 F 
ATOM     69  C   UNL A   1      46.141  26.955  36.858  1.00  0.00     0.060 A 
BRANCH  69  70
ATOM     70  S   UNL A   1      47.471  26.038  37.662  1.00  0.00     0.124 S 
ATOM     71  O   UNL A   1      47.025  26.037  39.053  1.00  0.00    -0.237 OA
ATOM     72  O   UNL A   1      47.419  24.750  36.980  1.00  0.00    -0.237 OA
ATOM     73  O   UNL A   1      48.655  26.844  37.386  1.00  0.00    -0.744 OA
ENDBRANCH  69  70
ENDBRANCH  48  62
BRANCH  49  74
ATOM     74  C   UNL A   1      36.589  33.122  30.953  1.00  0.00     0.058 A 
ATOM     75  C   UNL A   1      35.275  32.955  31.415  1.00  0.00     0.135 A 
ATOM     76  C   UNL A   1      36.790  33.965  29.849  1.00  0.00     0.135 A 
ATOM     77  F   UNL A   1      35.029  32.154  32.463  1.00  0.00    -0.206 F 
ATOM     78  C   UNL A   1      34.198  33.582  30.795  1.00  0.00     0.059 A 
ATOM     79  C   UNL A   1      35.734  34.626  29.231  1.00  0.00     0.059 A 
ATOM     80  F   UNL A   1      38.030  34.173  29.378  1.00  0.00    -0.206 F 
ATOM     81  C   UNL A   1      34.440  34.420  29.704  1.00  0.00     0.060 A 
BRANCH  81  82
ATOM     82  S   UNL A   1      33.041  35.264  28.936  1.00  0.00     0.124 S 
ATOM     83  O   UNL A   1      32.194  35.541  30.091  1.00  0.00    -0.237 OA
ATOM     84  O   UNL A   1      33.683  36.422  28.321  1.00  0.00    -0.237 OA
ATOM     85  O   UNL A   1      32.524  34.272  27.998  1.00  0.00    -0.744 OA
ENDBRANCH  81  82
ENDBRANCH  49  74
BRANCH  61  86
ATOM     86  C   UNL A   1      39.890  34.068  37.033  1.00  0.00     0.058 A 
ATOM     87  C   UNL A   1      40.465  35.346  36.949  1.00  0.00     0.135 A 
ATOM     88  C   UNL A   1      39.110  33.775  38.165  1.00  0.00     0.135 A 
ATOM     89  F   UNL A   1      41.224  35.676  35.893  1.00  0.00    -0.206 F 
ATOM     90  C   UNL A   1      40.298  36.287  37.960  1.00  0.00     0.059 A 
ATOM     91  C   UNL A   1      38.901  34.712  39.172  1.00  0.00     0.059 A 
ATOM     92  F   UNL A   1      38.526  32.573  38.292  1.00  0.00    -0.206 F 
ATOM     93  C   UNL A   1      39.511  35.960  39.067  1.00  0.00     0.060 A 
BRANCH  93  94
ATOM     94  S   UNL A   1      39.278  37.201  40.357  1.00  0.00     0.124 S 
ATOM     95  O   UNL A   1      40.658  37.538  40.693  1.00  0.00    -0.237 OA
ATOM     96  O   UNL A   1      38.524  38.238  39.660  1.00  0.00    -0.237 OA
ATOM     97  O   UNL A   1      38.538  36.483  41.391  1.00  0.00    -0.744 OA
ENDBRANCH  93  94
ENDBRANCH  61  86
ENDBRANCH  35  36
ENDBRANCH  27  30
ENDBRANCH  25  26
ENDBRANCH  24  25
ENDBRANCH   1  24
TORSDOF 20
ENDMDL
