MODEL 1
REMARK VINA RESULT:     -11.1      0.000      0.000
REMARK SMILES CC[C@H](NC(=O)c1ccc(C)nc1)C(=O)NCCCCCCNC(=O)c1ccc(-c2c3nc(c(-c4c(F)cc(S(=O)(=O)[O-])cc4F)c4ccc([nH]4)c(-c4c(F)cc(S(=O)(=O)[O-])cc4F)c4nc(c(-c5c(F)cc(S(=O)(=O)[O-])cc5F)c5ccc2[nH]5)C=C4)C=C3)cc1
REMARK SMILES IDX 20 1 19 2 18 3 17 4 16 5 14 6 15 7 3 9 2 10 1 11 4 12 5 13
REMARK SMILES IDX 6 15 7 16 8 17 13 18 9 19 12 20 10 21 11 22 21 23 22 24
REMARK SMILES IDX 23 25 24 26 25 28 26 29 27 30 91 31 28 32 90 33 29 34 30 35
REMARK SMILES IDX 31 36 84 37 32 38 89 39 83 40 85 41 33 42 88 43 82 44 81 45
REMARK SMILES IDX 34 47 68 48 47 49 67 50 48 51 51 52 66 53 86 54 49 55 50 56
REMARK SMILES IDX 65 58 87 59 52 60 35 61 36 62 45 63 37 64 38 65 44 66 46 67
REMARK SMILES IDX 39 68 40 69 41 70 42 71 43 72 69 73 70 74 79 75 71 76 72 77
REMARK SMILES IDX 78 78 80 79 73 80 74 81 75 82 76 83 77 84 53 85 54 86 63 87
REMARK SMILES IDX 55 88 56 89 62 90 64 91 57 92 58 93 59 94 60 95 61 96
REMARK H PARENT 16 8 4 14 23 27 85 46 51 57
REMARK Flexibility Score: inf
ROOT
ATOM      1  C   UNL A   1      37.400  23.082  25.490  1.00  0.00     0.002 C 
ENDROOT
BRANCH   1   2
ATOM      2  C   UNL A   1      36.144  23.571  24.760  1.00  0.00     0.002 C 
BRANCH   2   3
ATOM      3  C   UNL A   1      35.603  22.624  23.685  1.00  0.00     0.021 C 
BRANCH   3   4
ATOM      4  C   UNL A   1      34.107  22.764  23.415  1.00  0.00     0.116 C 
BRANCH   4   5
ATOM      5  N   UNL A   1      33.373  21.548  23.715  1.00  0.00    -0.354 N 
ATOM      6  C   UNL A   1      32.676  21.203  24.838  1.00  0.00     0.242 C 
ATOM      7  O   UNL A   1      31.990  20.178  24.797  1.00  0.00    -0.273 OA
ATOM      8  H   UNL A   1      33.379  20.870  23.002  1.00  0.00     0.163 HD
BRANCH   6   9
ATOM      9  C   UNL A   1      32.631  22.141  26.063  1.00  0.00     0.171 C 
BRANCH   9  10
ATOM     10  C   UNL A   1      33.644  21.559  27.076  1.00  0.00     0.032 C 
ATOM     11  C   UNL A   1      34.496  22.567  27.826  1.00  0.00     0.006 C 
ENDBRANCH   9  10
BRANCH   9  12
ATOM     12  N   UNL A   1      31.276  22.302  26.603  1.00  0.00    -0.340 N 
ATOM     13  C   UNL A   1      30.516  23.431  26.790  1.00  0.00     0.253 C 
ATOM     14  H   UNL A   1      30.840  21.463  26.878  1.00  0.00     0.164 HD
ATOM     15  O   UNL A   1      29.472  23.342  27.431  1.00  0.00    -0.269 OA
BRANCH  13  16
ATOM     16  C   UNL A   1      30.918  24.751  26.274  1.00  0.00     0.058 A 
ATOM     17  C   UNL A   1      32.185  25.299  26.446  1.00  0.00     0.017 A 
ATOM     18  C   UNL A   1      30.028  25.444  25.467  1.00  0.00     0.125 A 
ATOM     19  C   UNL A   1      32.477  26.549  25.902  1.00  0.00     0.024 A 
ATOM     20  N   UNL A   1      30.285  26.662  24.920  1.00  0.00    -0.261 NA
ATOM     21  C   UNL A   1      31.499  27.209  25.164  1.00  0.00     0.037 A 
ATOM     22  C   UNL A   1      31.784  28.543  24.543  1.00  0.00     0.066 C 
ENDBRANCH  13  16
ENDBRANCH   9  12
ENDBRANCH   6   9
ENDBRANCH   4   5
ENDBRANCH   3   4
ENDBRANCH   2   3
ENDBRANCH   1   2
BRANCH   1  23
ATOM     23  C   UNL A   1      38.070  24.111  26.404  1.00  0.00     0.021 C 
BRANCH  23  24
ATOM     24  C   UNL A   1      39.458  23.719  26.897  1.00  0.00     0.116 C 
BRANCH  24  25
ATOM     25  N   UNL A   1      40.507  24.208  26.018  1.00  0.00    -0.352 N 
ATOM     26  C   UNL A   1      41.217  25.379  26.080  1.00  0.00     0.251 C 
ATOM     27  H   UNL A   1      40.741  23.612  25.270  1.00  0.00     0.163 HD
ATOM     28  O   UNL A   1      41.922  25.713  25.127  1.00  0.00    -0.269 OA
BRANCH  26  29
ATOM     29  C   UNL A   1      41.122  26.248  27.273  1.00  0.00     0.039 A 
ATOM     30  C   UNL A   1      41.815  27.461  27.281  1.00  0.00     0.014 A 
ATOM     31  C   UNL A   1      40.366  25.868  28.386  1.00  0.00     0.014 A 
ATOM     32  C   UNL A   1      41.708  28.314  28.381  1.00  0.00     0.010 A 
ATOM     33  C   UNL A   1      40.199  26.753  29.450  1.00  0.00     0.010 A 
ATOM     34  C   UNL A   1      40.874  27.983  29.462  1.00  0.00    -0.014 A 
BRANCH  34  35
ATOM     35  C   UNL A   1      40.704  28.912  30.610  1.00  0.00     0.031 A 
ATOM     36  C   UNL A   1      41.553  28.759  31.844  1.00  0.00     0.074 A 
ATOM     37  C   UNL A   1      39.755  29.868  30.556  1.00  0.00     0.049 A 
ATOM     38  N   UNL A   1      41.521  29.443  32.958  1.00  0.00    -0.248 NA
ATOM     39  C   UNL A   1      42.556  27.682  31.833  1.00  0.00     0.031 C 
ATOM     40  C   UNL A   1      38.836  30.087  29.437  1.00  0.00     0.029 A 
ATOM     41  N   UNL A   1      39.401  30.833  31.466  1.00  0.00    -0.354 N 
ATOM     42  C   UNL A   1      42.497  28.885  33.776  1.00  0.00     0.074 A 
ATOM     43  C   UNL A   1      43.056  27.761  33.057  1.00  0.00     0.031 C 
ATOM     44  C   UNL A   1      38.039  31.130  29.718  1.00  0.00     0.029 A 
ATOM     45  C   UNL A   1      38.363  31.634  31.048  1.00  0.00     0.049 A 
ATOM     46  H   UNL A   1      39.849  30.943  32.336  1.00  0.00     0.167 HD
ATOM     47  C   UNL A   1      42.911  29.290  35.001  1.00  0.00     0.037 A 
ATOM     48  C   UNL A   1      37.736  32.650  31.670  1.00  0.00     0.037 A 
ATOM     49  C   UNL A   1      42.356  30.415  35.709  1.00  0.00     0.049 A 
ATOM     50  C   UNL A   1      38.202  33.069  33.040  1.00  0.00     0.074 A 
ATOM     51  C   UNL A   1      42.724  30.921  36.944  1.00  0.00     0.029 A 
ATOM     52  N   UNL A   1      41.319  31.211  35.245  1.00  0.00    -0.354 N 
ATOM     53  N   UNL A   1      39.163  32.561  33.775  1.00  0.00    -0.248 NA
ATOM     54  C   UNL A   1      37.507  34.204  33.661  1.00  0.00     0.031 C 
ATOM     55  C   UNL A   1      41.883  31.998  37.244  1.00  0.00     0.029 A 
ATOM     56  C   UNL A   1      41.025  32.195  36.174  1.00  0.00     0.049 A 
ATOM     57  H   UNL A   1      40.860  31.093  34.383  1.00  0.00     0.167 HD
ATOM     58  C   UNL A   1      39.206  33.333  34.931  1.00  0.00     0.074 A 
ATOM     59  C   UNL A   1      38.187  34.353  34.788  1.00  0.00     0.031 C 
ATOM     60  C   UNL A   1      40.015  33.211  36.013  1.00  0.00     0.037 A 
BRANCH  47  61
ATOM     61  C   UNL A   1      44.033  28.521  35.646  1.00  0.00     0.058 A 
ATOM     62  C   UNL A   1      45.377  28.858  35.418  1.00  0.00     0.135 A 
ATOM     63  C   UNL A   1      43.767  27.467  36.537  1.00  0.00     0.135 A 
ATOM     64  F   UNL A   1      45.690  29.846  34.564  1.00  0.00    -0.206 F 
ATOM     65  C   UNL A   1      46.417  28.162  36.026  1.00  0.00     0.059 A 
ATOM     66  C   UNL A   1      44.792  26.778  37.179  1.00  0.00     0.059 A 
ATOM     67  F   UNL A   1      42.501  27.102  36.793  1.00  0.00    -0.206 F 
ATOM     68  C   UNL A   1      46.114  27.125  36.908  1.00  0.00     0.060 A 
BRANCH  68  69
ATOM     69  S   UNL A   1      47.478  26.244  37.698  1.00  0.00     0.124 S 
ATOM     70  O   UNL A   1      47.150  26.410  39.111  1.00  0.00    -0.237 OA
ATOM     71  O   UNL A   1      47.325  24.895  37.166  1.00  0.00    -0.237 OA
ATOM     72  O   UNL A   1      48.660  26.966  37.240  1.00  0.00    -0.744 OA
ENDBRANCH  68  69
ENDBRANCH  47  61
BRANCH  48  73
ATOM     73  C   UNL A   1      36.605  33.353  31.005  1.00  0.00     0.058 A 
ATOM     74  C   UNL A   1      35.279  33.147  31.414  1.00  0.00     0.135 A 
ATOM     75  C   UNL A   1      36.828  34.235  29.935  1.00  0.00     0.135 A 
ATOM     76  F   UNL A   1      35.012  32.310  32.429  1.00  0.00    -0.206 F 
ATOM     77  C   UNL A   1      34.212  33.762  30.767  1.00  0.00     0.059 A 
ATOM     78  C   UNL A   1      35.779  34.885  29.293  1.00  0.00     0.059 A 
ATOM     79  F   UNL A   1      38.078  34.485  29.517  1.00  0.00    -0.206 F 
ATOM     80  C   UNL A   1      34.473  34.628  29.704  1.00  0.00     0.060 A 
BRANCH  80  81
ATOM     81  S   UNL A   1      33.083  35.437  28.883  1.00  0.00     0.124 S 
ATOM     82  O   UNL A   1      32.325  35.942  30.021  1.00  0.00    -0.237 OA
ATOM     83  O   UNL A   1      33.752  36.441  28.062  1.00  0.00    -0.237 OA
ATOM     84  O   UNL A   1      32.454  34.348  28.139  1.00  0.00    -0.744 OA
ENDBRANCH  80  81
ENDBRANCH  48  73
BRANCH  60  85
ATOM     85  C   UNL A   1      39.860  34.229  37.111  1.00  0.00     0.058 A 
ATOM     86  C   UNL A   1      40.513  35.470  37.068  1.00  0.00     0.135 A 
ATOM     87  C   UNL A   1      39.014  33.971  38.202  1.00  0.00     0.135 A 
ATOM     88  F   UNL A   1      41.337  35.766  36.050  1.00  0.00    -0.206 F 
ATOM     89  C   UNL A   1      40.358  36.407  38.084  1.00  0.00     0.059 A 
ATOM     90  C   UNL A   1      38.820  34.906  39.214  1.00  0.00     0.059 A 
ATOM     91  F   UNL A   1      38.355  32.803  38.287  1.00  0.00    -0.206 F 
ATOM     92  C   UNL A   1      39.509  36.116  39.153  1.00  0.00     0.060 A 
BRANCH  92  93
ATOM     93  S   UNL A   1      39.301  37.350  40.453  1.00  0.00     0.124 S 
ATOM     94  O   UNL A   1      38.770  36.541  41.545  1.00  0.00    -0.237 OA
ATOM     95  O   UNL A   1      40.662  37.846  40.634  1.00  0.00    -0.237 OA
ATOM     96  O   UNL A   1      38.365  38.306  39.868  1.00  0.00    -0.744 OA
ENDBRANCH  92  93
ENDBRANCH  60  85
ENDBRANCH  34  35
ENDBRANCH  26  29
ENDBRANCH  24  25
ENDBRANCH  23  24
ENDBRANCH   1  23
TORSDOF 19
ENDMDL
MODEL 2
REMARK VINA RESULT:     -10.8      5.054      6.549
REMARK SMILES CC[C@H](NC(=O)c1ccc(C)nc1)C(=O)NCCCCCCNC(=O)c1ccc(-c2c3nc(c(-c4c(F)cc(S(=O)(=O)[O-])cc4F)c4ccc([nH]4)c(-c4c(F)cc(S(=O)(=O)[O-])cc4F)c4nc(c(-c5c(F)cc(S(=O)(=O)[O-])cc5F)c5ccc2[nH]5)C=C4)C=C3)cc1
REMARK SMILES IDX 20 1 19 2 18 3 17 4 16 5 14 6 15 7 3 9 2 10 1 11 4 12 5 13
REMARK SMILES IDX 6 15 7 16 8 17 13 18 9 19 12 20 10 21 11 22 21 23 22 24
REMARK SMILES IDX 23 25 24 26 25 28 26 29 27 30 91 31 28 32 90 33 29 34 30 35
REMARK SMILES IDX 31 36 84 37 32 38 89 39 83 40 85 41 33 42 88 43 82 44 81 45
REMARK SMILES IDX 34 47 68 48 47 49 67 50 48 51 51 52 66 53 86 54 49 55 50 56
REMARK SMILES IDX 65 58 87 59 52 60 35 61 36 62 45 63 37 64 38 65 44 66 46 67
REMARK SMILES IDX 39 68 40 69 41 70 42 71 43 72 69 73 70 74 79 75 71 76 72 77
REMARK SMILES IDX 78 78 80 79 73 80 74 81 75 82 76 83 77 84 53 85 54 86 63 87
REMARK SMILES IDX 55 88 56 89 62 90 64 91 57 92 58 93 59 94 60 95 61 96
REMARK H PARENT 16 8 4 14 23 27 85 46 51 57
REMARK Flexibility Score: inf
ROOT
ATOM      1  C   UNL A   1      34.938  21.649  25.884  1.00  0.00     0.002 C 
ENDROOT
BRANCH   1   2
ATOM      2  C   UNL A   1      33.751  21.464  26.835  1.00  0.00     0.002 C 
BRANCH   2   3
ATOM      3  C   UNL A   1      32.872  22.702  27.033  1.00  0.00     0.021 C 
BRANCH   3   4
ATOM      4  C   UNL A   1      31.517  22.633  26.334  1.00  0.00     0.116 C 
BRANCH   4   5
ATOM      5  N   UNL A   1      31.617  22.120  24.979  1.00  0.00    -0.354 N 
ATOM      6  C   UNL A   1      31.775  22.791  23.801  1.00  0.00     0.242 C 
ATOM      7  O   UNL A   1      32.004  22.128  22.786  1.00  0.00    -0.273 OA
ATOM      8  H   UNL A   1      31.564  21.141  24.899  1.00  0.00     0.163 HD
BRANCH   6   9
ATOM      9  C   UNL A   1      31.812  24.334  23.765  1.00  0.00     0.171 C 
BRANCH   9  10
ATOM     10  C   UNL A   1      30.348  24.785  23.553  1.00  0.00     0.032 C 
ATOM     11  C   UNL A   1      29.875  25.948  24.407  1.00  0.00     0.006 C 
ENDBRANCH   9  10
BRANCH   9  12
ATOM     12  N   UNL A   1      32.747  24.856  22.761  1.00  0.00    -0.340 N 
ATOM     13  C   UNL A   1      33.438  26.041  22.713  1.00  0.00     0.253 C 
ATOM     14  H   UNL A   1      32.904  24.257  21.995  1.00  0.00     0.164 HD
ATOM     15  O   UNL A   1      34.027  26.341  21.677  1.00  0.00    -0.269 OA
BRANCH  13  16
ATOM     16  C   UNL A   1      33.479  26.982  23.846  1.00  0.00     0.058 A 
ATOM     17  C   UNL A   1      33.860  26.627  25.136  1.00  0.00     0.017 A 
ATOM     18  C   UNL A   1      33.244  28.326  23.598  1.00  0.00     0.125 A 
ATOM     19  C   UNL A   1      33.887  27.595  26.139  1.00  0.00     0.024 A 
ATOM     20  N   UNL A   1      33.267  29.293  24.553  1.00  0.00    -0.261 NA
ATOM     21  C   UNL A   1      33.566  28.910  25.817  1.00  0.00     0.037 A 
ATOM     22  C   UNL A   1      33.608  29.982  26.863  1.00  0.00     0.066 C 
ENDBRANCH  13  16
ENDBRANCH   9  12
ENDBRANCH   6   9
ENDBRANCH   4   5
ENDBRANCH   3   4
ENDBRANCH   2   3
ENDBRANCH   1   2
BRANCH   1  23
ATOM     23  C   UNL A   1      35.187  23.086  25.418  1.00  0.00     0.021 C 
BRANCH  23  24
ATOM     24  C   UNL A   1      36.528  23.673  25.844  1.00  0.00     0.116 C 
BRANCH  24  25
ATOM     25  N   UNL A   1      37.512  22.641  26.120  1.00  0.00    -0.352 N 
ATOM     26  C   UNL A   1      38.823  22.770  26.499  1.00  0.00     0.251 C 
ATOM     27  H   UNL A   1      37.191  21.716  26.021  1.00  0.00     0.163 HD
ATOM     28  O   UNL A   1      39.559  21.782  26.486  1.00  0.00    -0.269 OA
BRANCH  26  29
ATOM     29  C   UNL A   1      39.359  24.089  26.899  1.00  0.00     0.039 A 
ATOM     30  C   UNL A   1      39.273  24.473  28.239  1.00  0.00     0.014 A 
ATOM     31  C   UNL A   1      39.932  24.951  25.959  1.00  0.00     0.014 A 
ATOM     32  C   UNL A   1      39.807  25.699  28.644  1.00  0.00     0.010 A 
ATOM     33  C   UNL A   1      40.532  26.138  26.378  1.00  0.00     0.010 A 
ATOM     34  C   UNL A   1      40.470  26.528  27.724  1.00  0.00    -0.014 A 
BRANCH  34  35
ATOM     35  C   UNL A   1      41.097  27.804  28.158  1.00  0.00     0.031 A 
ATOM     36  C   UNL A   1      42.590  27.984  28.076  1.00  0.00     0.074 A 
ATOM     37  C   UNL A   1      40.324  28.785  28.665  1.00  0.00     0.049 A 
ATOM     38  N   UNL A   1      43.320  29.004  28.446  1.00  0.00    -0.248 NA
ATOM     39  C   UNL A   1      43.367  26.861  27.526  1.00  0.00     0.031 C 
ATOM     40  C   UNL A   1      38.872  28.713  28.842  1.00  0.00     0.029 A 
ATOM     41  N   UNL A   1      40.651  30.035  29.130  1.00  0.00    -0.354 N 
ATOM     42  C   UNL A   1      44.636  28.651  28.171  1.00  0.00     0.074 A 
ATOM     43  C   UNL A   1      44.611  27.295  27.669  1.00  0.00     0.031 C 
ATOM     44  C   UNL A   1      38.432  29.873  29.357  1.00  0.00     0.029 A 
ATOM     45  C   UNL A   1      39.570  30.757  29.581  1.00  0.00     0.049 A 
ATOM     46  H   UNL A   1      41.572  30.382  29.140  1.00  0.00     0.167 HD
ATOM     47  C   UNL A   1      45.759  29.397  28.296  1.00  0.00     0.037 A 
ATOM     48  C   UNL A   1      39.505  31.988  30.124  1.00  0.00     0.037 A 
ATOM     49  C   UNL A   1      45.778  30.750  28.790  1.00  0.00     0.049 A 
ATOM     50  C   UNL A   1      40.771  32.791  30.271  1.00  0.00     0.074 A 
ATOM     51  C   UNL A   1      46.861  31.600  28.932  1.00  0.00     0.029 A 
ATOM     52  N   UNL A   1      44.661  31.453  29.220  1.00  0.00    -0.354 N 
ATOM     53  N   UNL A   1      42.000  32.458  29.955  1.00  0.00    -0.248 NA
ATOM     54  C   UNL A   1      40.641  34.140  30.838  1.00  0.00     0.031 C 
ATOM     55  C   UNL A   1      46.406  32.802  29.484  1.00  0.00     0.029 A 
ATOM     56  C   UNL A   1      45.031  32.721  29.638  1.00  0.00     0.049 A 
ATOM     57  H   UNL A   1      43.742  31.102  29.226  1.00  0.00     0.167 HD
ATOM     58  C   UNL A   1      42.784  33.567  30.258  1.00  0.00     0.074 A 
ATOM     59  C   UNL A   1      41.886  34.585  30.764  1.00  0.00     0.031 C 
ATOM     60  C   UNL A   1      44.125  33.728  30.129  1.00  0.00     0.037 A 
BRANCH  47  61
ATOM     61  C   UNL A   1      47.062  28.772  27.875  1.00  0.00     0.058 A 
ATOM     62  C   UNL A   1      47.507  28.834  26.545  1.00  0.00     0.135 A 
ATOM     63  C   UNL A   1      47.898  28.144  28.814  1.00  0.00     0.135 A 
ATOM     64  F   UNL A   1      46.741  29.407  25.602  1.00  0.00    -0.206 F 
ATOM     65  C   UNL A   1      48.718  28.274  26.154  1.00  0.00     0.059 A 
ATOM     66  C   UNL A   1      49.129  27.603  28.450  1.00  0.00     0.059 A 
ATOM     67  F   UNL A   1      47.524  28.056  30.100  1.00  0.00    -0.206 F 
ATOM     68  C   UNL A   1      49.524  27.663  27.114  1.00  0.00     0.060 A 
BRANCH  68  69
ATOM     69  S   UNL A   1      51.100  26.955  26.590  1.00  0.00     0.124 S 
ATOM     70  O   UNL A   1      50.663  25.724  25.938  1.00  0.00    -0.237 OA
ATOM     71  O   UNL A   1      51.625  27.988  25.704  1.00  0.00    -0.237 OA
ATOM     72  O   UNL A   1      51.827  26.777  27.842  1.00  0.00    -0.744 OA
ENDBRANCH  68  69
ENDBRANCH  47  61
BRANCH  48  73
ATOM     73  C   UNL A   1      38.196  32.546  30.561  1.00  0.00     0.058 A 
ATOM     74  C   UNL A   1      37.352  33.213  29.661  1.00  0.00     0.135 A 
ATOM     75  C   UNL A   1      37.771  32.437  31.895  1.00  0.00     0.135 A 
ATOM     76  F   UNL A   1      37.715  33.349  28.376  1.00  0.00    -0.206 F 
ATOM     77  C   UNL A   1      36.150  33.780  30.071  1.00  0.00     0.059 A 
ATOM     78  C   UNL A   1      36.558  32.969  32.322  1.00  0.00     0.059 A 
ATOM     79  F   UNL A   1      38.530  31.791  32.794  1.00  0.00    -0.206 F 
ATOM     80  C   UNL A   1      35.763  33.655  31.406  1.00  0.00     0.060 A 
BRANCH  80  81
ATOM     81  S   UNL A   1      34.191  34.377  31.926  1.00  0.00     0.124 S 
ATOM     82  O   UNL A   1      33.512  34.549  30.647  1.00  0.00    -0.237 OA
ATOM     83  O   UNL A   1      33.652  33.343  32.803  1.00  0.00    -0.237 OA
ATOM     84  O   UNL A   1      34.596  35.610  32.596  1.00  0.00    -0.744 OA
ENDBRANCH  80  81
ENDBRANCH  48  73
BRANCH  60  85
ATOM     85  C   UNL A   1      44.698  35.068  30.503  1.00  0.00     0.058 A 
ATOM     86  C   UNL A   1      45.185  35.331  31.793  1.00  0.00     0.135 A 
ATOM     87  C   UNL A   1      44.796  36.091  29.545  1.00  0.00     0.135 A 
ATOM     88  F   UNL A   1      45.112  34.390  32.748  1.00  0.00    -0.206 F 
ATOM     89  C   UNL A   1      45.720  36.570  32.129  1.00  0.00     0.059 A 
ATOM     90  C   UNL A   1      45.355  37.327  29.851  1.00  0.00     0.059 A 
ATOM     91  F   UNL A   1      44.356  35.889  28.293  1.00  0.00    -0.206 F 
ATOM     92  C   UNL A   1      45.801  37.563  31.150  1.00  0.00     0.060 A 
BRANCH  92  93
ATOM     93  S   UNL A   1      46.518  39.159  31.593  1.00  0.00     0.124 S 
ATOM     94  O   UNL A   1      45.325  39.989  31.728  1.00  0.00    -0.237 OA
ATOM     95  O   UNL A   1      47.221  38.851  32.836  1.00  0.00    -0.237 OA
ATOM     96  O   UNL A   1      47.378  39.474  30.456  1.00  0.00    -0.744 OA
ENDBRANCH  92  93
ENDBRANCH  60  85
ENDBRANCH  34  35
ENDBRANCH  26  29
ENDBRANCH  24  25
ENDBRANCH  23  24
ENDBRANCH   1  23
TORSDOF 19
ENDMDL
MODEL 3
REMARK VINA RESULT:     -10.7      6.548     11.880
REMARK SMILES CC[C@H](NC(=O)c1ccc(C)nc1)C(=O)NCCCCCCNC(=O)c1ccc(-c2c3nc(c(-c4c(F)cc(S(=O)(=O)[O-])cc4F)c4ccc([nH]4)c(-c4c(F)cc(S(=O)(=O)[O-])cc4F)c4nc(c(-c5c(F)cc(S(=O)(=O)[O-])cc5F)c5ccc2[nH]5)C=C4)C=C3)cc1
REMARK SMILES IDX 20 1 19 2 18 3 17 4 16 5 14 6 15 7 3 9 2 10 1 11 4 12 5 13
REMARK SMILES IDX 6 15 7 16 8 17 13 18 9 19 12 20 10 21 11 22 21 23 22 24
REMARK SMILES IDX 23 25 24 26 25 28 26 29 27 30 91 31 28 32 90 33 29 34 30 35
REMARK SMILES IDX 31 36 84 37 32 38 89 39 83 40 85 41 33 42 88 43 82 44 81 45
REMARK SMILES IDX 34 47 68 48 47 49 67 50 48 51 51 52 66 53 86 54 49 55 50 56
REMARK SMILES IDX 65 58 87 59 52 60 35 61 36 62 45 63 37 64 38 65 44 66 46 67
REMARK SMILES IDX 39 68 40 69 41 70 42 71 43 72 69 73 70 74 79 75 71 76 72 77
REMARK SMILES IDX 78 78 80 79 73 80 74 81 75 82 76 83 77 84 53 85 54 86 63 87
REMARK SMILES IDX 55 88 56 89 62 90 64 91 57 92 58 93 59 94 60 95 61 96
REMARK H PARENT 16 8 4 14 23 27 85 46 51 57
REMARK Flexibility Score: inf
ROOT
ATOM      1  C   UNL A   1      34.653  28.921  26.854  1.00  0.00     0.002 C 
ENDROOT
BRANCH   1   2
ATOM      2  C   UNL A   1      33.481  27.974  26.571  1.00  0.00     0.002 C 
BRANCH   2   3
ATOM      3  C   UNL A   1      33.801  26.796  25.648  1.00  0.00     0.021 C 
BRANCH   3   4
ATOM      4  C   UNL A   1      33.266  25.451  26.132  1.00  0.00     0.116 C 
BRANCH   4   5
ATOM      5  N   UNL A   1      34.108  24.340  25.726  1.00  0.00    -0.354 N 
ATOM      6  C   UNL A   1      33.982  23.491  24.664  1.00  0.00     0.242 C 
ATOM      7  O   UNL A   1      34.918  22.724  24.425  1.00  0.00    -0.273 OA
ATOM      8  H   UNL A   1      34.888  24.175  26.303  1.00  0.00     0.163 HD
BRANCH   6   9
ATOM      9  C   UNL A   1      32.773  23.590  23.709  1.00  0.00     0.171 C 
BRANCH   9  10
ATOM     10  C   UNL A   1      32.112  22.193  23.720  1.00  0.00     0.032 C 
ATOM     11  C   UNL A   1      32.050  21.470  22.387  1.00  0.00     0.006 C 
ENDBRANCH   9  10
BRANCH   9  12
ATOM     12  N   UNL A   1      33.147  24.060  22.369  1.00  0.00    -0.340 N 
ATOM     13  C   UNL A   1      32.841  25.226  21.712  1.00  0.00     0.253 C 
ATOM     14  H   UNL A   1      33.711  23.436  21.856  1.00  0.00     0.164 HD
ATOM     15  O   UNL A   1      33.117  25.323  20.518  1.00  0.00    -0.269 OA
BRANCH  13  16
ATOM     16  C   UNL A   1      32.168  26.357  22.375  1.00  0.00     0.058 A 
ATOM     17  C   UNL A   1      30.998  26.236  23.116  1.00  0.00     0.017 A 
ATOM     18  C   UNL A   1      32.794  27.594  22.368  1.00  0.00     0.125 A 
ATOM     19  C   UNL A   1      30.446  27.363  23.725  1.00  0.00     0.024 A 
ATOM     20  N   UNL A   1      32.284  28.709  22.955  1.00  0.00    -0.261 NA
ATOM     21  C   UNL A   1      31.104  28.584  23.607  1.00  0.00     0.037 A 
ATOM     22  C   UNL A   1      30.555  29.812  24.268  1.00  0.00     0.066 C 
ENDBRANCH  13  16
ENDBRANCH   9  12
ENDBRANCH   6   9
ENDBRANCH   4   5
ENDBRANCH   3   4
ENDBRANCH   2   3
ENDBRANCH   1   2
BRANCH   1  23
ATOM     23  C   UNL A   1      34.288  30.221  27.573  1.00  0.00     0.021 C 
BRANCH  23  24
ATOM     24  C   UNL A   1      35.476  31.015  28.103  1.00  0.00     0.116 C 
BRANCH  24  25
ATOM     25  N   UNL A   1      35.435  31.158  29.548  1.00  0.00    -0.352 N 
ATOM     26  C   UNL A   1      36.343  30.746  30.488  1.00  0.00     0.251 C 
ATOM     27  H   UNL A   1      34.641  31.618  29.903  1.00  0.00     0.163 HD
ATOM     28  O   UNL A   1      36.037  30.773  31.681  1.00  0.00    -0.269 OA
BRANCH  26  29
ATOM     29  C   UNL A   1      37.674  30.250  30.075  1.00  0.00     0.039 A 
ATOM     30  C   UNL A   1      37.965  30.153  28.713  1.00  0.00     0.014 A 
ATOM     31  C   UNL A   1      38.629  29.868  31.023  1.00  0.00     0.014 A 
ATOM     32  C   UNL A   1      39.229  29.723  28.302  1.00  0.00     0.010 A 
ATOM     33  C   UNL A   1      39.913  29.513  30.613  1.00  0.00     0.010 A 
ATOM     34  C   UNL A   1      40.225  29.430  29.249  1.00  0.00    -0.014 A 
BRANCH  34  35
ATOM     35  C   UNL A   1      41.592  29.032  28.821  1.00  0.00     0.031 A 
ATOM     36  C   UNL A   1      42.695  30.055  28.753  1.00  0.00     0.074 A 
ATOM     37  C   UNL A   1      41.829  27.756  28.455  1.00  0.00     0.049 A 
ATOM     38  N   UNL A   1      43.935  29.907  28.364  1.00  0.00    -0.248 NA
ATOM     39  C   UNL A   1      42.353  31.430  29.153  1.00  0.00     0.031 C 
ATOM     40  C   UNL A   1      40.832  26.683  28.431  1.00  0.00     0.029 A 
ATOM     41  N   UNL A   1      42.981  27.145  28.027  1.00  0.00    -0.354 N 
ATOM     42  C   UNL A   1      44.521  31.163  28.476  1.00  0.00     0.074 A 
ATOM     43  C   UNL A   1      43.483  32.075  28.903  1.00  0.00     0.031 C 
ATOM     44  C   UNL A   1      41.420  25.544  28.031  1.00  0.00     0.029 A 
ATOM     45  C   UNL A   1      42.824  25.810  27.735  1.00  0.00     0.049 A 
ATOM     46  H   UNL A   1      43.841  27.618  27.938  1.00  0.00     0.167 HD
ATOM     47  C   UNL A   1      45.813  31.518  28.273  1.00  0.00     0.037 A 
ATOM     48  C   UNL A   1      43.707  24.905  27.271  1.00  0.00     0.037 A 
ATOM     49  C   UNL A   1      46.845  30.603  27.856  1.00  0.00     0.049 A 
ATOM     50  C   UNL A   1      45.133  25.328  27.034  1.00  0.00     0.074 A 
ATOM     51  C   UNL A   1      48.188  30.860  27.646  1.00  0.00     0.029 A 
ATOM     52  N   UNL A   1      46.649  29.256  27.587  1.00  0.00    -0.354 N 
ATOM     53  N   UNL A   1      45.680  26.510  27.198  1.00  0.00    -0.248 NA
ATOM     54  C   UNL A   1      46.063  24.296  26.560  1.00  0.00     0.031 C 
ATOM     55  C   UNL A   1      48.798  29.677  27.213  1.00  0.00     0.029 A 
ATOM     56  C   UNL A   1      47.844  28.671  27.203  1.00  0.00     0.049 A 
ATOM     57  H   UNL A   1      45.788  28.786  27.661  1.00  0.00     0.167 HD
ATOM     58  C   UNL A   1      47.024  26.354  26.875  1.00  0.00     0.074 A 
ATOM     59  C   UNL A   1      47.209  24.961  26.524  1.00  0.00     0.031 C 
ATOM     60  C   UNL A   1      48.016  27.280  26.868  1.00  0.00     0.037 A 
BRANCH  47  61
ATOM     61  C   UNL A   1      46.187  32.955  28.517  1.00  0.00     0.058 A 
ATOM     62  C   UNL A   1      46.628  33.392  29.777  1.00  0.00     0.135 A 
ATOM     63  C   UNL A   1      46.150  33.898  27.476  1.00  0.00     0.135 A 
ATOM     64  F   UNL A   1      46.668  32.538  30.813  1.00  0.00    -0.206 F 
ATOM     65  C   UNL A   1      46.993  34.715  30.003  1.00  0.00     0.059 A 
ATOM     66  C   UNL A   1      46.539  35.220  27.673  1.00  0.00     0.059 A 
ATOM     67  F   UNL A   1      45.737  33.536  26.251  1.00  0.00    -0.206 F 
ATOM     68  C   UNL A   1      46.948  35.622  28.944  1.00  0.00     0.060 A 
BRANCH  68  69
ATOM     69  S   UNL A   1      47.439  37.331  29.255  1.00  0.00     0.124 S 
ATOM     70  O   UNL A   1      47.680  37.815  27.899  1.00  0.00    -0.237 OA
ATOM     71  O   UNL A   1      46.261  37.876  29.921  1.00  0.00    -0.237 OA
ATOM     72  O   UNL A   1      48.626  37.197  30.093  1.00  0.00    -0.744 OA
ENDBRANCH  68  69
ENDBRANCH  47  61
BRANCH  48  73
ATOM     73  C   UNL A   1      43.277  23.505  27.008  1.00  0.00     0.058 A 
ATOM     74  C   UNL A   1      43.123  23.025  25.699  1.00  0.00     0.135 A 
ATOM     75  C   UNL A   1      42.996  22.621  28.063  1.00  0.00     0.135 A 
ATOM     76  F   UNL A   1      43.374  23.831  24.655  1.00  0.00    -0.206 F 
ATOM     77  C   UNL A   1      42.675  21.733  25.442  1.00  0.00     0.059 A 
ATOM     78  C   UNL A   1      42.576  21.315  27.831  1.00  0.00     0.059 A 
ATOM     79  F   UNL A   1      43.147  23.021  29.335  1.00  0.00    -0.206 F 
ATOM     80  C   UNL A   1      42.401  20.886  26.518  1.00  0.00     0.060 A 
BRANCH  80  81
ATOM     81  S   UNL A   1      41.839  19.204  26.176  1.00  0.00     0.124 S 
ATOM     82  O   UNL A   1      42.290  18.497  27.368  1.00  0.00    -0.237 OA
ATOM     83  O   UNL A   1      40.396  19.382  26.045  1.00  0.00    -0.237 OA
ATOM     84  O   UNL A   1      42.536  18.864  24.938  1.00  0.00    -0.744 OA
ENDBRANCH  80  81
ENDBRANCH  48  73
BRANCH  60  85
ATOM     85  C   UNL A   1      49.399  26.808  26.509  1.00  0.00     0.058 A 
ATOM     86  C   UNL A   1      50.291  26.326  27.479  1.00  0.00     0.135 A 
ATOM     87  C   UNL A   1      49.821  26.803  25.170  1.00  0.00     0.135 A 
ATOM     88  F   UNL A   1      49.940  26.313  28.775  1.00  0.00    -0.206 F 
ATOM     89  C   UNL A   1      51.566  25.885  27.137  1.00  0.00     0.059 A 
ATOM     90  C   UNL A   1      51.080  26.338  24.802  1.00  0.00     0.059 A 
ATOM     91  F   UNL A   1      49.002  27.242  24.200  1.00  0.00    -0.206 F 
ATOM     92  C   UNL A   1      51.951  25.895  25.795  1.00  0.00     0.060 A 
BRANCH  92  93
ATOM     93  S   UNL A   1      53.599  25.300  25.364  1.00  0.00     0.124 S 
ATOM     94  O   UNL A   1      54.393  25.797  26.483  1.00  0.00    -0.237 OA
ATOM     95  O   UNL A   1      53.407  23.853  25.316  1.00  0.00    -0.237 OA
ATOM     96  O   UNL A   1      53.864  25.933  24.075  1.00  0.00    -0.744 OA
ENDBRANCH  92  93
ENDBRANCH  60  85
ENDBRANCH  34  35
ENDBRANCH  26  29
ENDBRANCH  24  25
ENDBRANCH  23  24
ENDBRANCH   1  23
TORSDOF 19
ENDMDL
