MODEL 1
REMARK VINA RESULT:     -11.6      0.000      0.000
REMARK SMILES CC(C)(C)OC(=O)N[C@@H](Cc1c[nH]c2cccc(Cl)c12)C(=O)NCCCCCCNC(=O)c1ccc(-c2c3nc(c(-c4c(F)cc(S(=O)(=O)[O-])cc4F)c4ccc([nH]4)c(-c4c(F)cc(S(=O)(=O)[O-])cc4F)c4nc(c(-c5c(F)cc(S(=O)(=O)[O-])cc5F)c5ccc2[nH]5)C=C4)C=C3)cc1
REMARK SMILES IDX 26 1 25 2 24 3 23 4 21 5 22 6 9 8 8 9 6 10 7 11 5 13 2 14
REMARK SMILES IDX 1 15 3 16 4 17 10 18 11 19 12 20 20 21 13 22 14 23 18 24
REMARK SMILES IDX 15 26 17 27 19 28 16 29 27 30 28 31 29 32 30 33 31 34 32 36
REMARK SMILES IDX 33 37 34 38 98 39 35 40 97 41 36 42 37 43 38 44 91 45 39 46
REMARK SMILES IDX 96 47 90 48 92 49 40 50 95 51 89 52 88 53 41 55 75 56 54 57
REMARK SMILES IDX 74 58 55 59 58 60 73 61 93 62 56 63 57 64 72 66 94 67 59 68
REMARK SMILES IDX 42 69 43 70 52 71 44 72 45 73 51 74 53 75 46 76 47 77 48 78
REMARK SMILES IDX 49 79 50 80 76 81 77 82 86 83 78 84 79 85 85 86 87 87 80 88
REMARK SMILES IDX 81 89 82 90 83 91 84 92 60 93 61 94 70 95 62 96 63 97 69 98
REMARK SMILES IDX 71 99 64 100 65 101 66 102 67 103 68 104
REMARK H PARENT 23 7 8 12 13 25 30 35 92 54 58 65
REMARK Flexibility Score: inf
ROOT
ATOM      1  C   UNL A   1      39.901  21.775  26.523  1.00  0.00     0.002 C 
ENDROOT
BRANCH   1   2
ATOM      2  C   UNL A   1      39.532  23.250  26.704  1.00  0.00     0.021 C 
BRANCH   2   3
ATOM      3  C   UNL A   1      38.164  23.629  26.163  1.00  0.00     0.116 C 
BRANCH   3   4
ATOM      4  N   UNL A   1      37.874  23.154  24.828  1.00  0.00    -0.354 N 
ATOM      5  C   UNL A   1      36.710  23.231  24.111  1.00  0.00     0.243 C 
ATOM      6  O   UNL A   1      36.811  23.132  22.882  1.00  0.00    -0.273 OA
ATOM      7  H   UNL A   1      38.622  22.711  24.368  1.00  0.00     0.163 HD
BRANCH   5   8
ATOM      8  C   UNL A   1      35.329  23.518  24.754  1.00  0.00     0.179 C 
BRANCH   8   9
ATOM      9  N   UNL A   1      34.275  23.708  23.758  1.00  0.00    -0.309 N 
ATOM     10  C   UNL A   1      33.693  24.871  23.358  1.00  0.00     0.408 C 
ATOM     11  O   UNL A   1      32.938  24.870  22.401  1.00  0.00    -0.225 OA
ATOM     12  H   UNL A   1      33.945  22.890  23.322  1.00  0.00     0.167 HD
BRANCH  10  13
ATOM     13  O   UNL A   1      33.992  25.935  24.140  1.00  0.00    -0.444 OA
BRANCH  13  14
ATOM     14  C   UNL A   1      32.970  26.493  25.011  1.00  0.00     0.106 C 
ATOM     15  C   UNL A   1      33.731  27.339  26.043  1.00  0.00     0.056 C 
ATOM     16  C   UNL A   1      32.217  25.387  25.765  1.00  0.00     0.056 C 
ATOM     17  C   UNL A   1      32.015  27.413  24.241  1.00  0.00     0.056 C 
ENDBRANCH  13  14
ENDBRANCH  10  13
ENDBRANCH   8   9
BRANCH   8  18
ATOM     18  C   UNL A   1      34.921  22.575  25.907  1.00  0.00     0.073 C 
BRANCH  18  19
ATOM     19  C   UNL A   1      33.851  21.553  25.629  1.00  0.00    -0.019 A 
ATOM     20  C   UNL A   1      32.494  21.788  25.771  1.00  0.00     0.087 A 
ATOM     21  C   UNL A   1      33.989  20.188  25.161  1.00  0.00     0.021 A 
ATOM     22  N   UNL A   1      31.808  20.678  25.366  1.00  0.00    -0.361 N 
ATOM     23  C   UNL A   1      32.687  19.699  24.969  1.00  0.00     0.047 A 
ATOM     24  C   UNL A   1      35.041  19.309  24.800  1.00  0.00     0.050 A 
ATOM     25  H   UNL A   1      30.828  20.593  25.359  1.00  0.00     0.166 HD
ATOM     26  C   UNL A   1      32.412  18.434  24.422  1.00  0.00     0.027 A 
ATOM     27  C   UNL A   1      34.792  18.057  24.229  1.00  0.00     0.021 A 
ATOM     28  Cl  UNL A   1      36.652  19.817  25.047  1.00  0.00    -0.084 Cl
ATOM     29  C   UNL A   1      33.485  17.632  24.030  1.00  0.00     0.004 A 
ENDBRANCH  18  19
ENDBRANCH   8  18
ENDBRANCH   5   8
ENDBRANCH   3   4
ENDBRANCH   2   3
ENDBRANCH   1   2
BRANCH   1  30
ATOM     30  C   UNL A   1      40.796  21.145  27.605  1.00  0.00     0.002 C 
BRANCH  30  31
ATOM     31  C   UNL A   1      41.653  19.940  27.193  1.00  0.00     0.021 C 
BRANCH  31  32
ATOM     32  C   UNL A   1      41.939  19.841  25.707  1.00  0.00     0.116 C 
BRANCH  32  33
ATOM     33  N   UNL A   1      43.362  19.860  25.411  1.00  0.00    -0.352 N 
ATOM     34  C   UNL A   1      44.195  20.952  25.303  1.00  0.00     0.251 C 
ATOM     35  H   UNL A   1      43.784  18.982  25.271  1.00  0.00     0.163 HD
ATOM     36  O   UNL A   1      45.249  20.855  24.681  1.00  0.00    -0.269 OA
BRANCH  34  37
ATOM     37  C   UNL A   1      43.804  22.232  25.930  1.00  0.00     0.039 A 
ATOM     38  C   UNL A   1      44.184  22.521  27.242  1.00  0.00     0.014 A 
ATOM     39  C   UNL A   1      43.026  23.139  25.209  1.00  0.00     0.014 A 
ATOM     40  C   UNL A   1      43.821  23.747  27.790  1.00  0.00     0.010 A 
ATOM     41  C   UNL A   1      42.789  24.403  25.696  1.00  0.00     0.010 A 
ATOM     42  C   UNL A   1      43.139  24.695  27.003  1.00  0.00    -0.014 A 
BRANCH  42  43
ATOM     43  C   UNL A   1      42.902  26.041  27.513  1.00  0.00     0.031 A 
ATOM     44  C   UNL A   1      43.916  27.021  27.052  1.00  0.00     0.074 A 
ATOM     45  C   UNL A   1      41.822  26.421  28.231  1.00  0.00     0.049 A 
ATOM     46  N   UNL A   1      44.955  27.410  27.709  1.00  0.00    -0.248 NA
ATOM     47  C   UNL A   1      43.906  27.458  25.649  1.00  0.00     0.031 C 
ATOM     48  C   UNL A   1      40.612  25.649  28.537  1.00  0.00     0.029 A 
ATOM     49  N   UNL A   1      41.562  27.628  28.811  1.00  0.00    -0.354 N 
ATOM     50  C   UNL A   1      45.576  28.361  26.910  1.00  0.00     0.074 A 
ATOM     51  C   UNL A   1      45.028  28.182  25.591  1.00  0.00     0.031 C 
ATOM     52  C   UNL A   1      39.671  26.462  29.073  1.00  0.00     0.029 A 
ATOM     53  C   UNL A   1      40.270  27.762  29.317  1.00  0.00     0.049 A 
ATOM     54  H   UNL A   1      42.232  28.347  28.868  1.00  0.00     0.167 HD
ATOM     55  C   UNL A   1      46.255  29.392  27.486  1.00  0.00     0.037 A 
ATOM     56  C   UNL A   1      39.751  28.843  29.953  1.00  0.00     0.037 A 
ATOM     57  C   UNL A   1      46.434  29.140  28.898  1.00  0.00     0.049 A 
ATOM     58  C   UNL A   1      40.898  29.563  30.554  1.00  0.00     0.074 A 
ATOM     59  C   UNL A   1      47.181  28.284  29.676  1.00  0.00     0.029 A 
ATOM     60  N   UNL A   1      45.401  29.603  29.676  1.00  0.00    -0.354 N 
ATOM     61  N   UNL A   1      41.636  29.066  31.509  1.00  0.00    -0.248 NA
ATOM     62  C   UNL A   1      41.470  30.703  29.849  1.00  0.00     0.031 C 
ATOM     63  C   UNL A   1      46.419  28.067  30.863  1.00  0.00     0.029 A 
ATOM     64  C   UNL A   1      45.257  28.835  30.800  1.00  0.00     0.049 A 
ATOM     65  H   UNL A   1      44.841  30.381  29.455  1.00  0.00     0.167 HD
ATOM     66  C   UNL A   1      42.908  29.532  31.237  1.00  0.00     0.074 A 
ATOM     67  C   UNL A   1      42.716  30.655  30.326  1.00  0.00     0.031 C 
ATOM     68  C   UNL A   1      44.006  28.778  31.530  1.00  0.00     0.037 A 
BRANCH  55  69
ATOM     69  C   UNL A   1      46.316  30.810  26.951  1.00  0.00     0.058 A 
ATOM     70  C   UNL A   1      47.559  31.485  26.960  1.00  0.00     0.135 A 
ATOM     71  C   UNL A   1      45.188  31.631  26.732  1.00  0.00     0.135 A 
ATOM     72  F   UNL A   1      48.703  30.809  27.152  1.00  0.00    -0.206 F 
ATOM     73  C   UNL A   1      47.662  32.872  26.852  1.00  0.00     0.059 A 
ATOM     74  C   UNL A   1      45.274  33.011  26.575  1.00  0.00     0.059 A 
ATOM     75  F   UNL A   1      43.939  31.158  26.752  1.00  0.00    -0.206 F 
ATOM     76  C   UNL A   1      46.509  33.629  26.676  1.00  0.00     0.060 A 
BRANCH  76  77
ATOM     77  S   UNL A   1      46.625  35.425  26.630  1.00  0.00     0.124 S 
ATOM     78  O   UNL A   1      45.220  35.811  26.673  1.00  0.00    -0.237 OA
ATOM     79  O   UNL A   1      47.405  35.705  27.832  1.00  0.00    -0.237 OA
ATOM     80  O   UNL A   1      47.314  35.682  25.369  1.00  0.00    -0.744 OA
ENDBRANCH  76  77
ENDBRANCH  55  69
BRANCH  56  81
ATOM     81  C   UNL A   1      38.400  29.456  29.856  1.00  0.00     0.058 A 
ATOM     82  C   UNL A   1      37.621  29.677  31.009  1.00  0.00     0.135 A 
ATOM     83  C   UNL A   1      37.997  30.141  28.694  1.00  0.00     0.135 A 
ATOM     84  F   UNL A   1      37.934  29.067  32.162  1.00  0.00    -0.206 F 
ATOM     85  C   UNL A   1      36.559  30.588  31.032  1.00  0.00     0.059 A 
ATOM     86  C   UNL A   1      36.939  31.053  28.693  1.00  0.00     0.059 A 
ATOM     87  F   UNL A   1      38.689  30.015  27.552  1.00  0.00    -0.206 F 
ATOM     88  C   UNL A   1      36.246  31.297  29.874  1.00  0.00     0.060 A 
BRANCH  88  89
ATOM     89  S   UNL A   1      35.010  32.620  29.957  1.00  0.00     0.124 S 
ATOM     90  O   UNL A   1      34.150  32.302  28.822  1.00  0.00    -0.237 OA
ATOM     91  O   UNL A   1      34.426  32.411  31.277  1.00  0.00    -0.237 OA
ATOM     92  O   UNL A   1      35.806  33.836  29.816  1.00  0.00    -0.744 OA
ENDBRANCH  88  89
ENDBRANCH  56  81
BRANCH  68  93
ATOM     93  C   UNL A   1      43.865  27.726  32.593  1.00  0.00     0.058 A 
ATOM     94  C   UNL A   1      43.722  27.972  33.969  1.00  0.00     0.135 A 
ATOM     95  C   UNL A   1      43.775  26.393  32.165  1.00  0.00     0.135 A 
ATOM     96  F   UNL A   1      43.725  29.223  34.450  1.00  0.00    -0.206 F 
ATOM     97  C   UNL A   1      43.522  26.932  34.880  1.00  0.00     0.059 A 
ATOM     98  C   UNL A   1      43.546  25.345  33.050  1.00  0.00     0.059 A 
ATOM     99  F   UNL A   1      43.862  26.099  30.857  1.00  0.00    -0.206 F 
ATOM    100  C   UNL A   1      43.430  25.621  34.410  1.00  0.00     0.060 A 
BRANCH 100 101
ATOM    101  S   UNL A   1      43.097  24.283  35.576  1.00  0.00     0.124 S 
ATOM    102  O   UNL A   1      43.603  23.117  34.860  1.00  0.00    -0.237 OA
ATOM    103  O   UNL A   1      43.864  24.689  36.750  1.00  0.00    -0.237 OA
ATOM    104  O   UNL A   1      41.646  24.328  35.745  1.00  0.00    -0.744 OA
ENDBRANCH 100 101
ENDBRANCH  68  93
ENDBRANCH  42  43
ENDBRANCH  34  37
ENDBRANCH  32  33
ENDBRANCH  31  32
ENDBRANCH  30  31
ENDBRANCH   1  30
TORSDOF 21
ENDMDL
MODEL 2
REMARK VINA RESULT:     -11.5      1.572      3.188
REMARK SMILES CC(C)(C)OC(=O)N[C@@H](Cc1c[nH]c2cccc(Cl)c12)C(=O)NCCCCCCNC(=O)c1ccc(-c2c3nc(c(-c4c(F)cc(S(=O)(=O)[O-])cc4F)c4ccc([nH]4)c(-c4c(F)cc(S(=O)(=O)[O-])cc4F)c4nc(c(-c5c(F)cc(S(=O)(=O)[O-])cc5F)c5ccc2[nH]5)C=C4)C=C3)cc1
REMARK SMILES IDX 26 1 25 2 24 3 23 4 21 5 22 6 9 8 8 9 6 10 7 11 5 13 2 14
REMARK SMILES IDX 1 15 3 16 4 17 10 18 11 19 12 20 20 21 13 22 14 23 18 24
REMARK SMILES IDX 15 26 17 27 19 28 16 29 27 30 28 31 29 32 30 33 31 34 32 36
REMARK SMILES IDX 33 37 34 38 98 39 35 40 97 41 36 42 37 43 38 44 91 45 39 46
REMARK SMILES IDX 96 47 90 48 92 49 40 50 95 51 89 52 88 53 41 55 75 56 54 57
REMARK SMILES IDX 74 58 55 59 58 60 73 61 93 62 56 63 57 64 72 66 94 67 59 68
REMARK SMILES IDX 42 69 43 70 52 71 44 72 45 73 51 74 53 75 46 76 47 77 48 78
REMARK SMILES IDX 49 79 50 80 76 81 77 82 86 83 78 84 79 85 85 86 87 87 80 88
REMARK SMILES IDX 81 89 82 90 83 91 84 92 60 93 61 94 70 95 62 96 63 97 69 98
REMARK SMILES IDX 71 99 64 100 65 101 66 102 67 103 68 104
REMARK H PARENT 23 7 8 12 13 25 30 35 92 54 58 65
REMARK Flexibility Score: inf
ROOT
ATOM      1  C   UNL A   1      39.892  22.150  26.024  1.00  0.00     0.002 C 
ENDROOT
BRANCH   1   2
ATOM      2  C   UNL A   1      38.963  23.073  26.817  1.00  0.00     0.021 C 
BRANCH   2   3
ATOM      3  C   UNL A   1      37.868  23.727  25.990  1.00  0.00     0.116 C 
BRANCH   3   4
ATOM      4  N   UNL A   1      37.630  23.127  24.696  1.00  0.00    -0.354 N 
ATOM      5  C   UNL A   1      36.497  23.139  23.927  1.00  0.00     0.243 C 
ATOM      6  O   UNL A   1      36.647  22.922  22.718  1.00  0.00    -0.273 OA
ATOM      7  H   UNL A   1      38.393  22.640  24.312  1.00  0.00     0.163 HD
BRANCH   5   8
ATOM      8  C   UNL A   1      35.093  23.491  24.482  1.00  0.00     0.179 C 
BRANCH   8   9
ATOM      9  N   UNL A   1      34.727  22.675  25.639  1.00  0.00    -0.309 N 
ATOM     10  C   UNL A   1      33.529  22.091  25.915  1.00  0.00     0.408 C 
ATOM     11  O   UNL A   1      33.438  21.311  26.847  1.00  0.00    -0.225 OA
ATOM     12  H   UNL A   1      35.438  22.530  26.304  1.00  0.00     0.167 HD
BRANCH  10  13
ATOM     13  O   UNL A   1      32.517  22.505  25.116  1.00  0.00    -0.444 OA
BRANCH  13  14
ATOM     14  C   UNL A   1      31.424  23.275  25.688  1.00  0.00     0.106 C 
ATOM     15  C   UNL A   1      30.771  24.000  24.501  1.00  0.00     0.056 C 
ATOM     16  C   UNL A   1      31.944  24.339  26.667  1.00  0.00     0.056 C 
ATOM     17  C   UNL A   1      30.374  22.366  26.336  1.00  0.00     0.056 C 
ENDBRANCH  13  14
ENDBRANCH  10  13
ENDBRANCH   8   9
BRANCH   8  18
ATOM     18  C   UNL A   1      34.811  24.997  24.680  1.00  0.00     0.073 C 
BRANCH  18  19
ATOM     19  C   UNL A   1      33.851  25.659  23.728  1.00  0.00    -0.019 A 
ATOM     20  C   UNL A   1      33.611  25.224  22.436  1.00  0.00     0.087 A 
ATOM     21  C   UNL A   1      33.003  26.816  23.941  1.00  0.00     0.021 A 
ATOM     22  N   UNL A   1      32.636  26.003  21.881  1.00  0.00    -0.361 N 
ATOM     23  C   UNL A   1      32.232  26.964  22.777  1.00  0.00     0.047 A 
ATOM     24  C   UNL A   1      32.723  27.726  24.991  1.00  0.00     0.050 A 
ATOM     25  H   UNL A   1      32.275  25.893  20.972  1.00  0.00     0.166 HD
ATOM     26  C   UNL A   1      31.214  27.923  22.646  1.00  0.00     0.027 A 
ATOM     27  C   UNL A   1      31.698  28.671  24.893  1.00  0.00     0.021 A 
ATOM     28  Cl  UNL A   1      33.653  27.637  26.421  1.00  0.00    -0.084 Cl
ATOM     29  C   UNL A   1      30.941  28.756  23.732  1.00  0.00     0.004 A 
ENDBRANCH  18  19
ENDBRANCH   8  18
ENDBRANCH   5   8
ENDBRANCH   3   4
ENDBRANCH   2   3
ENDBRANCH   1   2
BRANCH   1  30
ATOM     30  C   UNL A   1      39.999  20.692  26.506  1.00  0.00     0.002 C 
BRANCH  30  31
ATOM     31  C   UNL A   1      41.108  19.828  25.889  1.00  0.00     0.021 C 
BRANCH  31  32
ATOM     32  C   UNL A   1      42.368  19.719  26.725  1.00  0.00     0.116 C 
BRANCH  32  33
ATOM     33  N   UNL A   1      43.567  19.596  25.911  1.00  0.00    -0.352 N 
ATOM     34  C   UNL A   1      44.250  20.592  25.248  1.00  0.00     0.251 C 
ATOM     35  H   UNL A   1      43.938  18.689  25.823  1.00  0.00     0.163 HD
ATOM     36  O   UNL A   1      44.988  20.304  24.310  1.00  0.00    -0.269 OA
BRANCH  34  37
ATOM     37  C   UNL A   1      44.081  21.998  25.669  1.00  0.00     0.039 A 
ATOM     38  C   UNL A   1      43.307  22.876  24.908  1.00  0.00     0.014 A 
ATOM     39  C   UNL A   1      44.726  22.452  26.821  1.00  0.00     0.014 A 
ATOM     40  C   UNL A   1      43.147  24.186  25.349  1.00  0.00     0.010 A 
ATOM     41  C   UNL A   1      44.456  23.700  27.333  1.00  0.00     0.010 A 
ATOM     42  C   UNL A   1      43.709  24.588  26.576  1.00  0.00    -0.014 A 
BRANCH  42  43
ATOM     43  C   UNL A   1      43.409  25.905  27.127  1.00  0.00     0.031 A 
ATOM     44  C   UNL A   1      44.403  26.934  26.739  1.00  0.00     0.074 A 
ATOM     45  C   UNL A   1      42.293  26.220  27.820  1.00  0.00     0.049 A 
ATOM     46  N   UNL A   1      45.407  27.331  27.446  1.00  0.00    -0.248 NA
ATOM     47  C   UNL A   1      44.426  27.424  25.353  1.00  0.00     0.031 C 
ATOM     48  C   UNL A   1      41.100  25.398  28.055  1.00  0.00     0.029 A 
ATOM     49  N   UNL A   1      41.972  27.395  28.436  1.00  0.00    -0.354 N 
ATOM     50  C   UNL A   1      46.020  28.332  26.704  1.00  0.00     0.074 A 
ATOM     51  C   UNL A   1      45.524  28.186  25.362  1.00  0.00     0.031 C 
ATOM     52  C   UNL A   1      40.114  26.159  28.588  1.00  0.00     0.029 A 
ATOM     53  C   UNL A   1      40.660  27.467  28.901  1.00  0.00     0.049 A 
ATOM     54  H   UNL A   1      42.615  28.133  28.543  1.00  0.00     0.167 HD
ATOM     55  C   UNL A   1      46.645  29.362  27.343  1.00  0.00     0.037 A 
ATOM     56  C   UNL A   1      40.084  28.505  29.558  1.00  0.00     0.037 A 
ATOM     57  C   UNL A   1      46.784  29.062  28.749  1.00  0.00     0.049 A 
ATOM     58  C   UNL A   1      41.185  29.239  30.226  1.00  0.00     0.074 A 
ATOM     59  C   UNL A   1      47.534  28.202  29.520  1.00  0.00     0.029 A 
ATOM     60  N   UNL A   1      45.711  29.460  29.508  1.00  0.00    -0.354 N 
ATOM     61  N   UNL A   1      41.907  28.730  31.186  1.00  0.00    -0.248 NA
ATOM     62  C   UNL A   1      41.741  30.423  29.584  1.00  0.00     0.031 C 
ATOM     63  C   UNL A   1      46.740  27.914  30.672  1.00  0.00     0.029 A 
ATOM     64  C   UNL A   1      45.555  28.646  30.597  1.00  0.00     0.049 A 
ATOM     65  H   UNL A   1      45.132  30.228  29.297  1.00  0.00     0.167 HD
ATOM     66  C   UNL A   1      43.171  29.248  30.977  1.00  0.00     0.074 A 
ATOM     67  C   UNL A   1      42.971  30.398  30.102  1.00  0.00     0.031 C 
ATOM     68  C   UNL A   1      44.283  28.519  31.280  1.00  0.00     0.037 A 
BRANCH  55  69
ATOM     69  C   UNL A   1      46.676  30.801  26.863  1.00  0.00     0.058 A 
ATOM     70  C   UNL A   1      47.896  31.511  26.931  1.00  0.00     0.135 A 
ATOM     71  C   UNL A   1      45.528  31.595  26.645  1.00  0.00     0.135 A 
ATOM     72  F   UNL A   1      49.055  30.863  27.128  1.00  0.00    -0.206 F 
ATOM     73  C   UNL A   1      47.959  32.904  26.878  1.00  0.00     0.059 A 
ATOM     74  C   UNL A   1      45.575  32.982  26.543  1.00  0.00     0.059 A 
ATOM     75  F   UNL A   1      44.294  31.084  26.613  1.00  0.00    -0.206 F 
ATOM     76  C   UNL A   1      46.787  33.632  26.700  1.00  0.00     0.060 A 
BRANCH  76  77
ATOM     77  S   UNL A   1      46.849  35.431  26.725  1.00  0.00     0.124 S 
ATOM     78  O   UNL A   1      45.431  35.773  26.729  1.00  0.00    -0.237 OA
ATOM     79  O   UNL A   1      47.575  35.689  27.965  1.00  0.00    -0.237 OA
ATOM     80  O   UNL A   1      47.575  35.758  25.501  1.00  0.00    -0.744 OA
ENDBRANCH  76  77
ENDBRANCH  55  69
BRANCH  56  81
ATOM     81  C   UNL A   1      38.717  29.077  29.438  1.00  0.00     0.058 A 
ATOM     82  C   UNL A   1      37.913  29.278  30.577  1.00  0.00     0.135 A 
ATOM     83  C   UNL A   1      38.312  29.746  28.267  1.00  0.00     0.135 A 
ATOM     84  F   UNL A   1      38.224  28.681  31.737  1.00  0.00    -0.206 F 
ATOM     85  C   UNL A   1      36.823  30.156  30.579  1.00  0.00     0.059 A 
ATOM     86  C   UNL A   1      37.227  30.626  28.245  1.00  0.00     0.059 A 
ATOM     87  F   UNL A   1      39.026  29.638  27.136  1.00  0.00    -0.206 F 
ATOM     88  C   UNL A   1      36.508  30.853  29.414  1.00  0.00     0.060 A 
BRANCH  88  89
ATOM     89  S   UNL A   1      35.232  32.137  29.472  1.00  0.00     0.124 S 
ATOM     90  O   UNL A   1      34.876  32.149  30.886  1.00  0.00    -0.237 OA
ATOM     91  O   UNL A   1      35.954  33.309  28.988  1.00  0.00    -0.237 OA
ATOM     92  O   UNL A   1      34.200  31.630  28.572  1.00  0.00    -0.744 OA
ENDBRANCH  88  89
ENDBRANCH  56  81
BRANCH  68  93
ATOM     93  C   UNL A   1      44.142  27.423  32.297  1.00  0.00     0.058 A 
ATOM     94  C   UNL A   1      44.091  26.048  32.013  1.00  0.00     0.135 A 
ATOM     95  C   UNL A   1      44.159  27.801  33.649  1.00  0.00     0.135 A 
ATOM     96  F   UNL A   1      44.143  25.603  30.750  1.00  0.00    -0.206 F 
ATOM     97  C   UNL A   1      44.034  25.093  33.032  1.00  0.00     0.059 A 
ATOM     98  C   UNL A   1      44.134  26.867  34.679  1.00  0.00     0.059 A 
ATOM     99  F   UNL A   1      44.249  29.099  33.984  1.00  0.00    -0.206 F 
ATOM    100  C   UNL A   1      44.061  25.513  34.362  1.00  0.00     0.060 A 
BRANCH 100 101
ATOM    101  S   UNL A   1      44.063  24.278  35.680  1.00  0.00     0.124 S 
ATOM    102  O   UNL A   1      44.107  25.107  36.880  1.00  0.00    -0.237 OA
ATOM    103  O   UNL A   1      42.811  23.565  35.447  1.00  0.00    -0.237 OA
ATOM    104  O   UNL A   1      45.271  23.499  35.418  1.00  0.00    -0.744 OA
ENDBRANCH 100 101
ENDBRANCH  68  93
ENDBRANCH  42  43
ENDBRANCH  34  37
ENDBRANCH  32  33
ENDBRANCH  31  32
ENDBRANCH  30  31
ENDBRANCH   1  30
TORSDOF 21
ENDMDL
MODEL 3
REMARK VINA RESULT:     -11.0      3.025      9.679
REMARK SMILES CC(C)(C)OC(=O)N[C@@H](Cc1c[nH]c2cccc(Cl)c12)C(=O)NCCCCCCNC(=O)c1ccc(-c2c3nc(c(-c4c(F)cc(S(=O)(=O)[O-])cc4F)c4ccc([nH]4)c(-c4c(F)cc(S(=O)(=O)[O-])cc4F)c4nc(c(-c5c(F)cc(S(=O)(=O)[O-])cc5F)c5ccc2[nH]5)C=C4)C=C3)cc1
REMARK SMILES IDX 26 1 25 2 24 3 23 4 21 5 22 6 9 8 8 9 6 10 7 11 5 13 2 14
REMARK SMILES IDX 1 15 3 16 4 17 10 18 11 19 12 20 20 21 13 22 14 23 18 24
REMARK SMILES IDX 15 26 17 27 19 28 16 29 27 30 28 31 29 32 30 33 31 34 32 36
REMARK SMILES IDX 33 37 34 38 98 39 35 40 97 41 36 42 37 43 38 44 91 45 39 46
REMARK SMILES IDX 96 47 90 48 92 49 40 50 95 51 89 52 88 53 41 55 75 56 54 57
REMARK SMILES IDX 74 58 55 59 58 60 73 61 93 62 56 63 57 64 72 66 94 67 59 68
REMARK SMILES IDX 42 69 43 70 52 71 44 72 45 73 51 74 53 75 46 76 47 77 48 78
REMARK SMILES IDX 49 79 50 80 76 81 77 82 86 83 78 84 79 85 85 86 87 87 80 88
REMARK SMILES IDX 81 89 82 90 83 91 84 92 60 93 61 94 70 95 62 96 63 97 69 98
REMARK SMILES IDX 71 99 64 100 65 101 66 102 67 103 68 104
REMARK H PARENT 23 7 8 12 13 25 30 35 92 54 58 65
REMARK Flexibility Score: inf
ROOT
ATOM      1  C   UNL A   1      35.205  30.695  27.483  1.00  0.00     0.002 C 
ENDROOT
BRANCH   1   2
ATOM      2  C   UNL A   1      34.968  29.184  27.466  1.00  0.00     0.021 C 
BRANCH   2   3
ATOM      3  C   UNL A   1      34.011  28.707  26.386  1.00  0.00     0.116 C 
BRANCH   3   4
ATOM      4  N   UNL A   1      32.623  28.621  26.784  1.00  0.00    -0.354 N 
ATOM      5  C   UNL A   1      31.797  27.531  26.829  1.00  0.00     0.243 C 
ATOM      6  O   UNL A   1      30.808  27.616  27.569  1.00  0.00    -0.273 OA
ATOM      7  H   UNL A   1      32.213  29.471  27.064  1.00  0.00     0.163 HD
BRANCH   5   8
ATOM      8  C   UNL A   1      32.093  26.205  26.083  1.00  0.00     0.179 C 
BRANCH   8   9
ATOM      9  N   UNL A   1      31.562  25.036  26.784  1.00  0.00    -0.309 N 
ATOM     10  C   UNL A   1      31.889  23.727  26.610  1.00  0.00     0.408 C 
ATOM     11  O   UNL A   1      31.466  22.890  27.388  1.00  0.00    -0.225 OA
ATOM     12  H   UNL A   1      30.879  25.220  27.469  1.00  0.00     0.167 HD
BRANCH  10  13
ATOM     13  O   UNL A   1      32.640  23.489  25.508  1.00  0.00    -0.444 OA
BRANCH  13  14
ATOM     14  C   UNL A   1      34.017  23.049  25.663  1.00  0.00     0.106 C 
ATOM     15  C   UNL A   1      34.043  21.601  25.149  1.00  0.00     0.056 C 
ATOM     16  C   UNL A   1      34.435  23.036  27.140  1.00  0.00     0.056 C 
ATOM     17  C   UNL A   1      34.975  23.884  24.804  1.00  0.00     0.056 C 
ENDBRANCH  13  14
ENDBRANCH  10  13
ENDBRANCH   8   9
BRANCH   8  18
ATOM     18  C   UNL A   1      31.781  26.207  24.570  1.00  0.00     0.073 C 
BRANCH  18  19
ATOM     19  C   UNL A   1      30.383  26.568  24.145  1.00  0.00    -0.019 A 
ATOM     20  C   UNL A   1      29.260  25.813  24.439  1.00  0.00     0.087 A 
ATOM     21  C   UNL A   1      29.923  27.722  23.397  1.00  0.00     0.021 A 
ATOM     22  N   UNL A   1      28.154  26.464  23.970  1.00  0.00    -0.361 N 
ATOM     23  C   UNL A   1      28.522  27.635  23.352  1.00  0.00     0.047 A 
ATOM     24  C   UNL A   1      30.492  28.877  22.805  1.00  0.00     0.050 A 
ATOM     25  H   UNL A   1      27.229  26.142  24.062  1.00  0.00     0.166 HD
ATOM     26  C   UNL A   1      27.707  28.634  22.794  1.00  0.00     0.027 A 
ATOM     27  C   UNL A   1      29.700  29.897  22.268  1.00  0.00     0.021 A 
ATOM     28  Cl  UNL A   1      32.193  29.030  22.780  1.00  0.00    -0.084 Cl
ATOM     29  C   UNL A   1      28.317  29.778  22.277  1.00  0.00     0.004 A 
ENDBRANCH  18  19
ENDBRANCH   8  18
ENDBRANCH   5   8
ENDBRANCH   3   4
ENDBRANCH   2   3
ENDBRANCH   1   2
BRANCH   1  30
ATOM     30  C   UNL A   1      34.019  31.580  27.909  1.00  0.00     0.002 C 
BRANCH  30  31
ATOM     31  C   UNL A   1      34.266  33.092  27.995  1.00  0.00     0.021 C 
BRANCH  31  32
ATOM     32  C   UNL A   1      35.370  33.503  28.952  1.00  0.00     0.116 C 
BRANCH  32  33
ATOM     33  N   UNL A   1      34.984  33.350  30.345  1.00  0.00    -0.352 N 
ATOM     34  C   UNL A   1      35.371  32.370  31.233  1.00  0.00     0.251 C 
ATOM     35  H   UNL A   1      34.369  34.032  30.700  1.00  0.00     0.163 HD
ATOM     36  O   UNL A   1      34.686  32.142  32.225  1.00  0.00    -0.269 OA
BRANCH  34  37
ATOM     37  C   UNL A   1      36.604  31.597  30.974  1.00  0.00     0.039 A 
ATOM     38  C   UNL A   1      37.836  32.245  30.875  1.00  0.00     0.014 A 
ATOM     39  C   UNL A   1      36.523  30.214  30.801  1.00  0.00     0.014 A 
ATOM     40  C   UNL A   1      38.979  31.483  30.658  1.00  0.00     0.010 A 
ATOM     41  C   UNL A   1      37.662  29.447  30.728  1.00  0.00     0.010 A 
ATOM     42  C   UNL A   1      38.889  30.078  30.605  1.00  0.00    -0.014 A 
BRANCH  42  43
ATOM     43  C   UNL A   1      40.098  29.264  30.545  1.00  0.00     0.031 A 
ATOM     44  C   UNL A   1      40.680  28.994  31.882  1.00  0.00     0.074 A 
ATOM     45  C   UNL A   1      40.597  28.698  29.425  1.00  0.00     0.049 A 
ATOM     46  N   UNL A   1      41.648  29.639  32.438  1.00  0.00    -0.248 NA
ATOM     47  C   UNL A   1      39.994  28.062  32.789  1.00  0.00     0.031 C 
ATOM     48  C   UNL A   1      40.001  28.643  28.085  1.00  0.00     0.029 A 
ATOM     49  N   UNL A   1      41.756  27.995  29.266  1.00  0.00    -0.354 N 
ATOM     50  C   UNL A   1      41.881  29.004  33.651  1.00  0.00     0.074 A 
ATOM     51  C   UNL A   1      40.710  28.210  33.908  1.00  0.00     0.031 C 
ATOM     52  C   UNL A   1      40.700  27.784  27.305  1.00  0.00     0.029 A 
ATOM     53  C   UNL A   1      41.891  27.373  28.025  1.00  0.00     0.049 A 
ATOM     54  H   UNL A   1      42.441  27.931  29.969  1.00  0.00     0.167 HD
ATOM     55  C   UNL A   1      43.142  28.971  34.166  1.00  0.00     0.037 A 
ATOM     56  C   UNL A   1      42.942  26.628  27.597  1.00  0.00     0.037 A 
ATOM     57  C   UNL A   1      43.999  29.881  33.441  1.00  0.00     0.049 A 
ATOM     58  C   UNL A   1      44.121  27.089  28.366  1.00  0.00     0.074 A 
ATOM     59  C   UNL A   1      44.141  31.246  33.327  1.00  0.00     0.029 A 
ATOM     60  N   UNL A   1      44.609  29.314  32.349  1.00  0.00    -0.354 N 
ATOM     61  N   UNL A   1      44.627  28.287  28.255  1.00  0.00    -0.248 NA
ATOM     62  C   UNL A   1      44.536  26.342  29.546  1.00  0.00     0.031 C 
ATOM     63  C   UNL A   1      44.641  31.480  32.010  1.00  0.00     0.029 A 
ATOM     64  C   UNL A   1      44.839  30.251  31.379  1.00  0.00     0.049 A 
ATOM     65  H   UNL A   1      44.847  28.362  32.275  1.00  0.00     0.167 HD
ATOM     66  C   UNL A   1      45.056  28.600  29.530  1.00  0.00     0.074 A 
ATOM     67  C   UNL A   1      45.134  27.321  30.230  1.00  0.00     0.031 C 
ATOM     68  C   UNL A   1      45.012  29.883  29.988  1.00  0.00     0.037 A 
BRANCH  55  69
ATOM     69  C   UNL A   1      43.742  27.813  34.942  1.00  0.00     0.058 A 
ATOM     70  C   UNL A   1      44.318  28.071  36.207  1.00  0.00     0.135 A 
ATOM     71  C   UNL A   1      44.057  26.555  34.382  1.00  0.00     0.135 A 
ATOM     72  F   UNL A   1      44.084  29.230  36.842  1.00  0.00    -0.206 F 
ATOM     73  C   UNL A   1      45.207  27.188  36.822  1.00  0.00     0.059 A 
ATOM     74  C   UNL A   1      44.905  25.641  35.001  1.00  0.00     0.059 A 
ATOM     75  F   UNL A   1      43.640  26.182  33.168  1.00  0.00    -0.206 F 
ATOM     76  C   UNL A   1      45.507  25.981  36.200  1.00  0.00     0.060 A 
BRANCH  76  77
ATOM     77  S   UNL A   1      46.724  24.880  36.942  1.00  0.00     0.124 S 
ATOM     78  O   UNL A   1      47.258  24.200  35.768  1.00  0.00    -0.237 OA
ATOM     79  O   UNL A   1      47.620  25.826  37.599  1.00  0.00    -0.237 OA
ATOM     80  O   UNL A   1      45.923  24.055  37.842  1.00  0.00    -0.744 OA
ENDBRANCH  76  77
ENDBRANCH  55  69
BRANCH  56  81
ATOM     81  C   UNL A   1      42.967  25.379  26.791  1.00  0.00     0.058 A 
ATOM     82  C   UNL A   1      43.545  25.357  25.507  1.00  0.00     0.135 A 
ATOM     83  C   UNL A   1      42.740  24.126  27.392  1.00  0.00     0.135 A 
ATOM     84  F   UNL A   1      43.798  26.505  24.861  1.00  0.00    -0.206 F 
ATOM     85  C   UNL A   1      43.954  24.169  24.890  1.00  0.00     0.059 A 
ATOM     86  C   UNL A   1      43.138  22.928  26.794  1.00  0.00     0.059 A 
ATOM     87  F   UNL A   1      42.217  24.043  28.624  1.00  0.00    -0.206 F 
ATOM     88  C   UNL A   1      43.776  22.959  25.558  1.00  0.00     0.060 A 
BRANCH  88  89
ATOM     89  S   UNL A   1      44.487  21.449  24.853  1.00  0.00     0.124 S 
ATOM     90  O   UNL A   1      43.469  20.455  25.175  1.00  0.00    -0.237 OA
ATOM     91  O   UNL A   1      44.612  21.799  23.443  1.00  0.00    -0.237 OA
ATOM     92  O   UNL A   1      45.751  21.303  25.570  1.00  0.00    -0.744 OA
ENDBRANCH  88  89
ENDBRANCH  56  81
BRANCH  68  93
ATOM     93  C   UNL A   1      45.009  30.986  28.968  1.00  0.00     0.058 A 
ATOM     94  C   UNL A   1      43.863  31.581  28.413  1.00  0.00     0.135 A 
ATOM     95  C   UNL A   1      46.253  31.531  28.612  1.00  0.00     0.135 A 
ATOM     96  F   UNL A   1      42.636  31.166  28.757  1.00  0.00    -0.206 F 
ATOM     97  C   UNL A   1      43.955  32.655  27.524  1.00  0.00     0.059 A 
ATOM     98  C   UNL A   1      46.366  32.618  27.753  1.00  0.00     0.059 A 
ATOM     99  F   UNL A   1      47.382  31.032  29.142  1.00  0.00    -0.206 F 
ATOM    100  C   UNL A   1      45.212  33.170  27.204  1.00  0.00     0.060 A 
BRANCH 100 101
ATOM    101  S   UNL A   1      45.330  34.605  26.114  1.00  0.00     0.124 S 
ATOM    102  O   UNL A   1      45.666  35.675  27.047  1.00  0.00    -0.237 OA
ATOM    103  O   UNL A   1      46.389  34.213  25.190  1.00  0.00    -0.237 OA
ATOM    104  O   UNL A   1      43.998  34.694  25.520  1.00  0.00    -0.744 OA
ENDBRANCH 100 101
ENDBRANCH  68  93
ENDBRANCH  42  43
ENDBRANCH  34  37
ENDBRANCH  32  33
ENDBRANCH  31  32
ENDBRANCH  30  31
ENDBRANCH   1  30
TORSDOF 21
ENDMDL
