MODEL 1
REMARK VINA RESULT:     -10.8      0.000      0.000
REMARK SMILES CC1(C)CCC[C@@]1(CC(=O)NCCCCCCNC(=O)c1ccc(-c2c3nc(c(-c4c(F)cc(S(=O)(=O)[O-])cc4F)c4ccc([nH]4)c(-c4c(F)cc(S(=O)(=O)[O-])cc4F)c4nc(c(-c5c(F)cc(S(=O)(=O)[O-])cc5F)c5ccc2[nH]5)C=C4)C=C3)cc1)[NH+]1CCCCC1
REMARK SMILES IDX 15 1 14 2 13 3 12 4 11 5 9 6 10 7 8 9 7 10 1 11 2 12 3 13
REMARK SMILES IDX 4 14 5 15 6 16 87 17 88 18 92 19 89 21 91 22 90 23 16 24
REMARK SMILES IDX 17 25 18 26 19 27 20 29 21 30 22 31 86 32 23 33 85 34 24 35
REMARK SMILES IDX 25 36 26 37 79 38 27 39 84 40 78 41 80 42 28 43 83 44 77 45
REMARK SMILES IDX 76 46 29 48 63 49 42 50 62 51 43 52 46 53 61 54 81 55 44 56
REMARK SMILES IDX 45 57 60 59 82 60 47 61 30 62 31 63 40 64 32 65 33 66 39 67
REMARK SMILES IDX 41 68 34 69 35 70 36 71 37 72 38 73 64 74 65 75 74 76 66 77
REMARK SMILES IDX 67 78 73 79 75 80 68 81 69 82 70 83 71 84 72 85 48 86 49 87
REMARK SMILES IDX 58 88 50 89 51 90 57 91 59 92 52 93 53 94 54 95 55 96 56 97
REMARK H PARENT 11 8 87 20 18 28 80 47 46 58
REMARK Flexibility Score: inf
ROOT
ATOM      1  C   UNL A   1      32.987  28.438  24.277  1.00  0.00     0.002 C 
ENDROOT
BRANCH   1   2
ATOM      2  C   UNL A   1      31.740  27.556  24.268  1.00  0.00     0.002 C 
BRANCH   2   3
ATOM      3  C   UNL A   1      31.556  26.751  22.987  1.00  0.00     0.021 C 
BRANCH   3   4
ATOM      4  C   UNL A   1      31.154  25.287  23.216  1.00  0.00     0.116 C 
BRANCH   4   5
ATOM      5  N   UNL A   1      31.960  24.429  22.371  1.00  0.00    -0.356 N 
ATOM      6  C   UNL A   1      33.274  24.076  22.431  1.00  0.00     0.226 C 
ATOM      7  O   UNL A   1      33.687  23.381  21.498  1.00  0.00    -0.275 OA
ATOM      8  H   UNL A   1      31.469  24.028  21.617  1.00  0.00     0.163 HD
BRANCH   6   9
ATOM      9  C   UNL A   1      34.144  24.388  23.656  1.00  0.00     0.169 C 
BRANCH   9  10
ATOM     10  C   UNL A   1      34.499  23.315  24.778  1.00  0.00     0.112 C 
ATOM     11  C   UNL A   1      37.050  23.780  25.402  1.00  0.00     0.018 C 
ATOM     12  C   UNL A   1      36.069  22.898  24.615  1.00  0.00     0.020 C 
ATOM     13  C   UNL A   1      36.602  22.895  23.147  1.00  0.00     0.018 C 
ATOM     14  C   UNL A   1      36.126  21.425  25.074  1.00  0.00     0.013 C 
ATOM     15  C   UNL A   1      34.847  20.824  24.535  1.00  0.00     0.007 C 
ATOM     16  C   UNL A   1      33.824  21.949  24.521  1.00  0.00     0.070 C 
BRANCH  10  17
ATOM     17  N   UNL A   1      34.177  23.851  26.158  1.00  0.00    -0.329 N 
ATOM     18  C   UNL A   1      34.212  22.979  27.342  1.00  0.00     0.262 C 
ATOM     19  C   UNL A   1      32.988  24.707  26.306  1.00  0.00     0.262 C 
ATOM     20  H   UNL A   1      35.037  24.400  26.165  1.00  0.00     0.348 HD
ATOM     21  C   UNL A   1      32.975  22.111  27.584  1.00  0.00     0.062 C 
ATOM     22  C   UNL A   1      31.671  23.935  26.305  1.00  0.00     0.062 C 
ATOM     23  C   UNL A   1      31.647  22.846  27.381  1.00  0.00     0.012 C 
ENDBRANCH  10  17
ENDBRANCH   9  10
ENDBRANCH   6   9
ENDBRANCH   4   5
ENDBRANCH   3   4
ENDBRANCH   2   3
ENDBRANCH   1   2
BRANCH   1  24
ATOM     24  C   UNL A   1      34.076  27.999  25.260  1.00  0.00     0.021 C 
BRANCH  24  25
ATOM     25  C   UNL A   1      33.707  28.177  26.729  1.00  0.00     0.116 C 
BRANCH  25  26
ATOM     26  N   UNL A   1      33.499  29.579  27.057  1.00  0.00    -0.352 N 
ATOM     27  C   UNL A   1      34.295  30.409  27.802  1.00  0.00     0.251 C 
ATOM     28  H   UNL A   1      32.677  29.985  26.698  1.00  0.00     0.163 HD
ATOM     29  O   UNL A   1      33.861  31.480  28.218  1.00  0.00    -0.269 OA
BRANCH  27  30
ATOM     30  C   UNL A   1      35.680  29.994  28.098  1.00  0.00     0.039 A 
ATOM     31  C   UNL A   1      36.646  30.055  27.092  1.00  0.00     0.014 A 
ATOM     32  C   UNL A   1      36.016  29.556  29.383  1.00  0.00     0.014 A 
ATOM     33  C   UNL A   1      37.968  29.717  27.389  1.00  0.00     0.010 A 
ATOM     34  C   UNL A   1      37.344  29.294  29.694  1.00  0.00     0.010 A 
ATOM     35  C   UNL A   1      38.330  29.357  28.698  1.00  0.00    -0.014 A 
BRANCH  35  36
ATOM     36  C   UNL A   1      39.727  29.000  29.050  1.00  0.00     0.031 A 
ATOM     37  C   UNL A   1      40.628  30.048  29.648  1.00  0.00     0.074 A 
ATOM     38  C   UNL A   1      40.204  27.773  28.762  1.00  0.00     0.049 A 
ATOM     39  N   UNL A   1      41.909  29.990  29.902  1.00  0.00    -0.248 NA
ATOM     40  C   UNL A   1      40.011  31.345  29.973  1.00  0.00     0.031 C 
ATOM     41  C   UNL A   1      39.435  26.685  28.154  1.00  0.00     0.029 A 
ATOM     42  N   UNL A   1      41.459  27.240  28.925  1.00  0.00    -0.354 N 
ATOM     43  C   UNL A   1      42.254  31.243  30.393  1.00  0.00     0.074 A 
ATOM     44  C   UNL A   1      41.061  32.058  30.355  1.00  0.00     0.031 C 
ATOM     45  C   UNL A   1      40.231  25.613  28.005  1.00  0.00     0.029 A 
ATOM     46  C   UNL A   1      41.576  25.949  28.461  1.00  0.00     0.049 A 
ATOM     47  H   UNL A   1      42.205  27.734  29.335  1.00  0.00     0.167 HD
ATOM     48  C   UNL A   1      43.453  31.668  30.856  1.00  0.00     0.037 A 
ATOM     49  C   UNL A   1      42.650  25.138  28.394  1.00  0.00     0.037 A 
ATOM     50  C   UNL A   1      44.626  30.837  30.921  1.00  0.00     0.049 A 
ATOM     51  C   UNL A   1      43.977  25.638  28.907  1.00  0.00     0.074 A 
ATOM     52  C   UNL A   1      45.875  31.155  31.423  1.00  0.00     0.029 A 
ATOM     53  N   UNL A   1      44.693  29.525  30.476  1.00  0.00    -0.354 N 
ATOM     54  N   UNL A   1      44.274  26.811  29.415  1.00  0.00    -0.248 NA
ATOM     55  C   UNL A   1      45.111  24.707  28.843  1.00  0.00     0.031 C 
ATOM     56  C   UNL A   1      46.713  30.053  31.232  1.00  0.00     0.029 A 
ATOM     57  C   UNL A   1      45.968  29.026  30.674  1.00  0.00     0.049 A 
ATOM     58  H   UNL A   1      43.945  29.024  30.077  1.00  0.00     0.167 HD
ATOM     59  C   UNL A   1      45.616  26.741  29.774  1.00  0.00     0.074 A 
ATOM     60  C   UNL A   1      46.073  25.413  29.422  1.00  0.00     0.031 C 
ATOM     61  C   UNL A   1      46.397  27.688  30.348  1.00  0.00     0.037 A 
BRANCH  48  62
ATOM     62  C   UNL A   1      43.561  33.091  31.332  1.00  0.00     0.058 A 
ATOM     63  C   UNL A   1      43.302  33.447  32.665  1.00  0.00     0.135 A 
ATOM     64  C   UNL A   1      43.985  34.104  30.455  1.00  0.00     0.135 A 
ATOM     65  F   UNL A   1      42.877  32.522  33.542  1.00  0.00    -0.206 F 
ATOM     66  C   UNL A   1      43.439  34.758  33.108  1.00  0.00     0.059 A 
ATOM     67  C   UNL A   1      44.158  35.416  30.884  1.00  0.00     0.059 A 
ATOM     68  F   UNL A   1      44.242  33.821  29.169  1.00  0.00    -0.206 F 
ATOM     69  C   UNL A   1      43.872  35.735  32.210  1.00  0.00     0.060 A 
BRANCH  69  70
ATOM     70  S   UNL A   1      44.069  37.426  32.809  1.00  0.00     0.124 S 
ATOM     71  O   UNL A   1      45.444  37.402  33.302  1.00  0.00    -0.237 OA
ATOM     72  O   UNL A   1      43.845  38.213  31.600  1.00  0.00    -0.237 OA
ATOM     73  O   UNL A   1      43.038  37.548  33.834  1.00  0.00    -0.744 OA
ENDBRANCH  69  70
ENDBRANCH  48  62
BRANCH  49  74
ATOM     74  C   UNL A   1      42.520  23.768  27.829  1.00  0.00     0.058 A 
ATOM     75  C   UNL A   1      42.451  23.561  26.442  1.00  0.00     0.135 A 
ATOM     76  C   UNL A   1      42.453  22.638  28.659  1.00  0.00     0.135 A 
ATOM     77  F   UNL A   1      42.507  24.608  25.605  1.00  0.00    -0.206 F 
ATOM     78  C   UNL A   1      42.290  22.290  25.900  1.00  0.00     0.059 A 
ATOM     79  C   UNL A   1      42.322  21.354  28.140  1.00  0.00     0.059 A 
ATOM     80  F   UNL A   1      42.534  22.777  29.992  1.00  0.00    -0.206 F 
ATOM     81  C   UNL A   1      42.226  21.191  26.758  1.00  0.00     0.060 A 
BRANCH  81  82
ATOM     82  S   UNL A   1      42.040  19.544  26.043  1.00  0.00     0.124 S 
ATOM     83  O   UNL A   1      42.495  18.696  27.137  1.00  0.00    -0.237 OA
ATOM     84  O   UNL A   1      40.610  19.498  25.750  1.00  0.00    -0.237 OA
ATOM     85  O   UNL A   1      42.911  19.587  24.872  1.00  0.00    -0.744 OA
ENDBRANCH  81  82
ENDBRANCH  49  74
BRANCH  61  86
ATOM     86  C   UNL A   1      47.809  27.314  30.709  1.00  0.00     0.058 A 
ATOM     87  C   UNL A   1      48.138  26.767  31.958  1.00  0.00     0.135 A 
ATOM     88  C   UNL A   1      48.828  27.421  29.748  1.00  0.00     0.135 A 
ATOM     89  F   UNL A   1      47.203  26.650  32.914  1.00  0.00    -0.206 F 
ATOM     90  C   UNL A   1      49.433  26.346  32.245  1.00  0.00     0.059 A 
ATOM     91  C   UNL A   1      50.122  26.978  30.003  1.00  0.00     0.059 A 
ATOM     92  F   UNL A   1      48.563  27.929  28.534  1.00  0.00    -0.206 F 
ATOM     93  C   UNL A   1      50.415  26.446  31.256  1.00  0.00     0.060 A 
BRANCH  93  94
ATOM     94  S   UNL A   1      52.074  25.833  31.620  1.00  0.00     0.124 S 
ATOM     95  O   UNL A   1      52.746  26.024  30.340  1.00  0.00    -0.237 OA
ATOM     96  O   UNL A   1      52.502  26.715  32.700  1.00  0.00    -0.237 OA
ATOM     97  O   UNL A   1      51.845  24.443  32.007  1.00  0.00    -0.744 OA
ENDBRANCH  93  94
ENDBRANCH  61  86
ENDBRANCH  35  36
ENDBRANCH  27  30
ENDBRANCH  25  26
ENDBRANCH  24  25
ENDBRANCH   1  24
TORSDOF 18
ENDMDL
MODEL 2
REMARK VINA RESULT:     -10.7      2.879      3.812
REMARK SMILES CC1(C)CCC[C@@]1(CC(=O)NCCCCCCNC(=O)c1ccc(-c2c3nc(c(-c4c(F)cc(S(=O)(=O)[O-])cc4F)c4ccc([nH]4)c(-c4c(F)cc(S(=O)(=O)[O-])cc4F)c4nc(c(-c5c(F)cc(S(=O)(=O)[O-])cc5F)c5ccc2[nH]5)C=C4)C=C3)cc1)[NH+]1CCCCC1
REMARK SMILES IDX 15 1 14 2 13 3 12 4 11 5 9 6 10 7 8 9 7 10 1 11 2 12 3 13
REMARK SMILES IDX 4 14 5 15 6 16 87 17 88 18 92 19 89 21 91 22 90 23 16 24
REMARK SMILES IDX 17 25 18 26 19 27 20 29 21 30 22 31 86 32 23 33 85 34 24 35
REMARK SMILES IDX 25 36 26 37 79 38 27 39 84 40 78 41 80 42 28 43 83 44 77 45
REMARK SMILES IDX 76 46 29 48 63 49 42 50 62 51 43 52 46 53 61 54 81 55 44 56
REMARK SMILES IDX 45 57 60 59 82 60 47 61 30 62 31 63 40 64 32 65 33 66 39 67
REMARK SMILES IDX 41 68 34 69 35 70 36 71 37 72 38 73 64 74 65 75 74 76 66 77
REMARK SMILES IDX 67 78 73 79 75 80 68 81 69 82 70 83 71 84 72 85 48 86 49 87
REMARK SMILES IDX 58 88 50 89 51 90 57 91 59 92 52 93 53 94 54 95 55 96 56 97
REMARK H PARENT 11 8 87 20 18 28 80 47 46 58
REMARK Flexibility Score: inf
ROOT
ATOM      1  C   UNL A   1      33.393  29.314  26.001  1.00  0.00     0.002 C 
ENDROOT
BRANCH   1   2
ATOM      2  C   UNL A   1      31.928  28.938  25.778  1.00  0.00     0.002 C 
BRANCH   2   3
ATOM      3  C   UNL A   1      31.442  27.789  26.653  1.00  0.00     0.021 C 
BRANCH   3   4
ATOM      4  C   UNL A   1      30.649  26.714  25.896  1.00  0.00     0.116 C 
BRANCH   4   5
ATOM      5  N   UNL A   1      30.614  25.497  26.683  1.00  0.00    -0.356 N 
ATOM      6  C   UNL A   1      30.718  24.187  26.326  1.00  0.00     0.226 C 
ATOM      7  O   UNL A   1      30.564  23.369  27.238  1.00  0.00    -0.275 OA
ATOM      8  H   UNL A   1      30.493  25.644  27.649  1.00  0.00     0.163 HD
BRANCH   6   9
ATOM      9  C   UNL A   1      31.156  23.759  24.919  1.00  0.00     0.169 C 
BRANCH   9  10
ATOM     10  C   UNL A   1      32.618  23.230  24.575  1.00  0.00     0.112 C 
ATOM     11  C   UNL A   1      34.275  25.063  25.578  1.00  0.00     0.018 C 
ATOM     12  C   UNL A   1      33.587  24.519  24.317  1.00  0.00     0.020 C 
ATOM     13  C   UNL A   1      32.885  25.752  23.665  1.00  0.00     0.018 C 
ATOM     14  C   UNL A   1      34.610  24.028  23.271  1.00  0.00     0.013 C 
ATOM     15  C   UNL A   1      33.793  23.161  22.339  1.00  0.00     0.007 C 
ATOM     16  C   UNL A   1      32.688  22.552  23.188  1.00  0.00     0.070 C 
BRANCH  10  17
ATOM     17  N   UNL A   1      33.133  22.320  25.671  1.00  0.00    -0.329 N 
ATOM     18  C   UNL A   1      34.575  22.108  25.870  1.00  0.00     0.262 C 
ATOM     19  C   UNL A   1      32.491  21.005  25.837  1.00  0.00     0.262 C 
ATOM     20  H   UNL A   1      32.826  22.980  26.387  1.00  0.00     0.348 HD
ATOM     21  C   UNL A   1      35.244  21.083  24.950  1.00  0.00     0.062 C 
ATOM     22  C   UNL A   1      32.918  19.978  24.792  1.00  0.00     0.062 C 
ATOM     23  C   UNL A   1      34.438  19.797  24.757  1.00  0.00     0.012 C 
ENDBRANCH  10  17
ENDBRANCH   9  10
ENDBRANCH   6   9
ENDBRANCH   4   5
ENDBRANCH   3   4
ENDBRANCH   2   3
ENDBRANCH   1   2
BRANCH   1  24
ATOM     24  C   UNL A   1      34.024  28.714  27.260  1.00  0.00     0.021 C 
BRANCH  24  25
ATOM     25  C   UNL A   1      35.374  29.317  27.636  1.00  0.00     0.116 C 
BRANCH  25  26
ATOM     26  N   UNL A   1      35.267  30.171  28.808  1.00  0.00    -0.352 N 
ATOM     27  C   UNL A   1      36.213  30.431  29.764  1.00  0.00     0.251 C 
ATOM     28  H   UNL A   1      34.400  30.621  28.931  1.00  0.00     0.163 HD
ATOM     29  O   UNL A   1      35.894  30.951  30.831  1.00  0.00    -0.269 OA
BRANCH  27  30
ATOM     30  C   UNL A   1      37.619  30.075  29.494  1.00  0.00     0.039 A 
ATOM     31  C   UNL A   1      38.453  29.716  30.554  1.00  0.00     0.014 A 
ATOM     32  C   UNL A   1      38.101  30.087  28.181  1.00  0.00     0.014 A 
ATOM     33  C   UNL A   1      39.767  29.325  30.290  1.00  0.00     0.010 A 
ATOM     34  C   UNL A   1      39.383  29.624  27.915  1.00  0.00     0.010 A 
ATOM     35  C   UNL A   1      40.233  29.252  28.967  1.00  0.00    -0.014 A 
BRANCH  35  36
ATOM     36  C   UNL A   1      41.621  28.832  28.650  1.00  0.00     0.031 A 
ATOM     37  C   UNL A   1      42.714  29.866  28.606  1.00  0.00     0.074 A 
ATOM     38  C   UNL A   1      41.881  27.549  28.326  1.00  0.00     0.049 A 
ATOM     39  N   UNL A   1      43.957  29.740  28.222  1.00  0.00    -0.248 NA
ATOM     40  C   UNL A   1      42.351  31.232  29.020  1.00  0.00     0.031 C 
ATOM     41  C   UNL A   1      40.898  26.464  28.303  1.00  0.00     0.029 A 
ATOM     42  N   UNL A   1      43.050  26.945  27.935  1.00  0.00    -0.354 N 
ATOM     43  C   UNL A   1      44.515  31.009  28.326  1.00  0.00     0.074 A 
ATOM     44  C   UNL A   1      43.464  31.901  28.759  1.00  0.00     0.031 C 
ATOM     45  C   UNL A   1      41.507  25.327  27.929  1.00  0.00     0.029 A 
ATOM     46  C   UNL A   1      42.909  25.608  27.639  1.00  0.00     0.049 A 
ATOM     47  H   UNL A   1      43.908  27.422  27.872  1.00  0.00     0.167 HD
ATOM     48  C   UNL A   1      45.794  31.389  28.101  1.00  0.00     0.037 A 
ATOM     49  C   UNL A   1      43.805  24.717  27.170  1.00  0.00     0.037 A 
ATOM     50  C   UNL A   1      46.840  30.485  27.702  1.00  0.00     0.049 A 
ATOM     51  C   UNL A   1      45.221  25.168  26.918  1.00  0.00     0.074 A 
ATOM     52  C   UNL A   1      48.180  30.760  27.500  1.00  0.00     0.029 A 
ATOM     53  N   UNL A   1      46.664  29.133  27.448  1.00  0.00    -0.354 N 
ATOM     54  N   UNL A   1      45.744  26.362  27.069  1.00  0.00    -0.248 NA
ATOM     55  C   UNL A   1      46.170  24.154  26.438  1.00  0.00     0.031 C 
ATOM     56  C   UNL A   1      48.806  29.585  27.073  1.00  0.00     0.029 A 
ATOM     57  C   UNL A   1      47.869  28.564  27.073  1.00  0.00     0.049 A 
ATOM     58  H   UNL A   1      45.810  28.650  27.522  1.00  0.00     0.167 HD
ATOM     59  C   UNL A   1      47.092  26.231  26.748  1.00  0.00     0.074 A 
ATOM     60  C   UNL A   1      47.302  24.843  26.391  1.00  0.00     0.031 C 
ATOM     61  C   UNL A   1      48.066  27.172  26.754  1.00  0.00     0.037 A 
BRANCH  48  62
ATOM     62  C   UNL A   1      46.140  32.842  28.283  1.00  0.00     0.058 A 
ATOM     63  C   UNL A   1      46.608  33.343  29.508  1.00  0.00     0.135 A 
ATOM     64  C   UNL A   1      46.057  33.734  27.201  1.00  0.00     0.135 A 
ATOM     65  F   UNL A   1      46.691  32.539  30.581  1.00  0.00    -0.206 F 
ATOM     66  C   UNL A   1      46.960  34.680  29.660  1.00  0.00     0.059 A 
ATOM     67  C   UNL A   1      46.434  35.068  27.323  1.00  0.00     0.059 A 
ATOM     68  F   UNL A   1      45.612  33.310  26.007  1.00  0.00    -0.206 F 
ATOM     69  C   UNL A   1      46.874  35.533  28.560  1.00  0.00     0.060 A 
BRANCH  69  70
ATOM     70  S   UNL A   1      47.361  37.259  28.770  1.00  0.00     0.124 S 
ATOM     71  O   UNL A   1      47.326  37.396  30.223  1.00  0.00    -0.237 OA
ATOM     72  O   UNL A   1      48.688  37.283  28.163  1.00  0.00    -0.237 OA
ATOM     73  O   UNL A   1      46.330  37.995  28.047  1.00  0.00    -0.744 OA
ENDBRANCH  69  70
ENDBRANCH  48  62
BRANCH  49  74
ATOM     74  C   UNL A   1      43.398  23.309  26.913  1.00  0.00     0.058 A 
ATOM     75  C   UNL A   1      43.168  22.418  27.973  1.00  0.00     0.135 A 
ATOM     76  C   UNL A   1      43.239  22.821  25.607  1.00  0.00     0.135 A 
ATOM     77  F   UNL A   1      43.309  22.833  29.241  1.00  0.00    -0.206 F 
ATOM     78  C   UNL A   1      42.824  21.088  27.748  1.00  0.00     0.059 A 
ATOM     79  C   UNL A   1      42.868  21.503  25.357  1.00  0.00     0.059 A 
ATOM     80  F   UNL A   1      43.428  23.636  24.557  1.00  0.00    -0.206 F 
ATOM     81  C   UNL A   1      42.678  20.640  26.434  1.00  0.00     0.060 A 
BRANCH  81  82
ATOM     82  S   UNL A   1      42.211  18.919  26.155  1.00  0.00     0.124 S 
ATOM     83  O   UNL A   1      42.466  18.329  27.463  1.00  0.00    -0.237 OA
ATOM     84  O   UNL A   1      40.809  19.040  25.769  1.00  0.00    -0.237 OA
ATOM     85  O   UNL A   1      43.113  18.497  25.086  1.00  0.00    -0.744 OA
ENDBRANCH  81  82
ENDBRANCH  49  74
BRANCH  61  86
ATOM     86  C   UNL A   1      49.471  26.734  26.440  1.00  0.00     0.058 A 
ATOM     87  C   UNL A   1      50.310  26.169  27.411  1.00  0.00     0.135 A 
ATOM     88  C   UNL A   1      49.944  26.798  25.118  1.00  0.00     0.135 A 
ATOM     89  F   UNL A   1      49.908  26.090  28.690  1.00  0.00    -0.206 F 
ATOM     90  C   UNL A   1      51.575  25.689  27.085  1.00  0.00     0.059 A 
ATOM     91  C   UNL A   1      51.193  26.297  24.765  1.00  0.00     0.059 A 
ATOM     92  F   UNL A   1      49.177  27.322  24.150  1.00  0.00    -0.206 F 
ATOM     93  C   UNL A   1      52.003  25.749  25.757  1.00  0.00     0.060 A 
BRANCH  93  94
ATOM     94  S   UNL A   1      53.618  25.060  25.337  1.00  0.00     0.124 S 
ATOM     95  O   UNL A   1      54.443  25.552  26.436  1.00  0.00    -0.237 OA
ATOM     96  O   UNL A   1      53.353  23.625  25.335  1.00  0.00    -0.237 OA
ATOM     97  O   UNL A   1      53.906  25.641  24.028  1.00  0.00    -0.744 OA
ENDBRANCH  93  94
ENDBRANCH  61  86
ENDBRANCH  35  36
ENDBRANCH  27  30
ENDBRANCH  25  26
ENDBRANCH  24  25
ENDBRANCH   1  24
TORSDOF 18
ENDMDL
MODEL 3
REMARK VINA RESULT:     -10.6      4.630     10.263
REMARK SMILES CC1(C)CCC[C@@]1(CC(=O)NCCCCCCNC(=O)c1ccc(-c2c3nc(c(-c4c(F)cc(S(=O)(=O)[O-])cc4F)c4ccc([nH]4)c(-c4c(F)cc(S(=O)(=O)[O-])cc4F)c4nc(c(-c5c(F)cc(S(=O)(=O)[O-])cc5F)c5ccc2[nH]5)C=C4)C=C3)cc1)[NH+]1CCCCC1
REMARK SMILES IDX 15 1 14 2 13 3 12 4 11 5 9 6 10 7 8 9 7 10 1 11 2 12 3 13
REMARK SMILES IDX 4 14 5 15 6 16 87 17 88 18 92 19 89 21 91 22 90 23 16 24
REMARK SMILES IDX 17 25 18 26 19 27 20 29 21 30 22 31 86 32 23 33 85 34 24 35
REMARK SMILES IDX 25 36 26 37 79 38 27 39 84 40 78 41 80 42 28 43 83 44 77 45
REMARK SMILES IDX 76 46 29 48 63 49 42 50 62 51 43 52 46 53 61 54 81 55 44 56
REMARK SMILES IDX 45 57 60 59 82 60 47 61 30 62 31 63 40 64 32 65 33 66 39 67
REMARK SMILES IDX 41 68 34 69 35 70 36 71 37 72 38 73 64 74 65 75 74 76 66 77
REMARK SMILES IDX 67 78 73 79 75 80 68 81 69 82 70 83 71 84 72 85 48 86 49 87
REMARK SMILES IDX 58 88 50 89 51 90 57 91 59 92 52 93 53 94 54 95 55 96 56 97
REMARK H PARENT 11 8 87 20 18 28 80 47 46 58
REMARK Flexibility Score: inf
ROOT
ATOM      1  C   UNL A   1      37.364  21.974  25.598  1.00  0.00     0.002 C 
ENDROOT
BRANCH   1   2
ATOM      2  C   UNL A   1      36.004  21.339  25.306  1.00  0.00     0.002 C 
BRANCH   2   3
ATOM      3  C   UNL A   1      34.840  22.003  26.029  1.00  0.00     0.021 C 
BRANCH   3   4
ATOM      4  C   UNL A   1      33.505  21.257  25.891  1.00  0.00     0.116 C 
BRANCH   4   5
ATOM      5  N   UNL A   1      32.524  21.856  26.774  1.00  0.00    -0.356 N 
ATOM      6  C   UNL A   1      31.676  22.908  26.602  1.00  0.00     0.226 C 
ATOM      7  O   UNL A   1      31.011  23.229  27.592  1.00  0.00    -0.275 OA
ATOM      8  H   UNL A   1      32.460  21.427  27.658  1.00  0.00     0.163 HD
BRANCH   6   9
ATOM      9  C   UNL A   1      31.444  23.549  25.227  1.00  0.00     0.169 C 
BRANCH   9  10
ATOM     10  C   UNL A   1      32.087  24.937  24.784  1.00  0.00     0.112 C 
ATOM     11  C   UNL A   1      31.787  25.030  22.136  1.00  0.00     0.018 C 
ATOM     12  C   UNL A   1      32.747  24.751  23.302  1.00  0.00     0.020 C 
ATOM     13  C   UNL A   1      33.342  23.336  23.018  1.00  0.00     0.018 C 
ATOM     14  C   UNL A   1      33.954  25.713  23.294  1.00  0.00     0.013 C 
ATOM     15  C   UNL A   1      34.526  25.594  24.690  1.00  0.00     0.007 C 
ATOM     16  C   UNL A   1      33.349  25.289  25.604  1.00  0.00     0.070 C 
BRANCH  10  17
ATOM     17  N   UNL A   1      31.059  26.048  24.832  1.00  0.00    -0.329 N 
ATOM     18  C   UNL A   1      31.284  27.325  24.139  1.00  0.00     0.262 C 
ATOM     19  C   UNL A   1      30.461  26.380  26.136  1.00  0.00     0.262 C 
ATOM     20  H   UNL A   1      30.418  25.503  24.254  1.00  0.00     0.348 HD
ATOM     21  C   UNL A   1      32.161  28.348  24.866  1.00  0.00     0.062 C 
ATOM     22  C   UNL A   1      31.377  27.199  27.040  1.00  0.00     0.062 C 
ATOM     23  C   UNL A   1      31.851  28.486  26.359  1.00  0.00     0.012 C 
ENDBRANCH  10  17
ENDBRANCH   9  10
ENDBRANCH   6   9
ENDBRANCH   4   5
ENDBRANCH   3   4
ENDBRANCH   2   3
ENDBRANCH   1   2
BRANCH   1  24
ATOM     24  C   UNL A   1      37.384  23.503  25.532  1.00  0.00     0.021 C 
BRANCH  24  25
ATOM     25  C   UNL A   1      38.305  24.165  26.552  1.00  0.00     0.116 C 
BRANCH  25  26
ATOM     26  N   UNL A   1      39.704  23.910  26.247  1.00  0.00    -0.352 N 
ATOM     27  C   UNL A   1      40.801  24.666  26.570  1.00  0.00     0.251 C 
ATOM     28  H   UNL A   1      39.888  23.085  25.742  1.00  0.00     0.163 HD
ATOM     29  O   UNL A   1      41.880  24.467  26.017  1.00  0.00    -0.269 OA
BRANCH  27  30
ATOM     30  C   UNL A   1      40.664  25.723  27.590  1.00  0.00     0.039 A 
ATOM     31  C   UNL A   1      39.673  25.612  28.567  1.00  0.00     0.014 A 
ATOM     32  C   UNL A   1      41.531  26.820  27.577  1.00  0.00     0.014 A 
ATOM     33  C   UNL A   1      39.582  26.584  29.565  1.00  0.00     0.010 A 
ATOM     34  C   UNL A   1      41.487  27.743  28.613  1.00  0.00     0.010 A 
ATOM     35  C   UNL A   1      40.504  27.644  29.609  1.00  0.00    -0.014 A 
BRANCH  35  36
ATOM     36  C   UNL A   1      40.441  28.689  30.660  1.00  0.00     0.031 A 
ATOM     37  C   UNL A   1      41.328  28.573  31.871  1.00  0.00     0.074 A 
ATOM     38  C   UNL A   1      39.541  29.688  30.567  1.00  0.00     0.049 A 
ATOM     39  N   UNL A   1      41.339  29.294  32.961  1.00  0.00    -0.248 NA
ATOM     40  C   UNL A   1      42.315  27.478  31.867  1.00  0.00     0.031 C 
ATOM     41  C   UNL A   1      38.606  29.887  29.457  1.00  0.00     0.029 A 
ATOM     42  N   UNL A   1      39.250  30.715  31.432  1.00  0.00    -0.354 N 
ATOM     43  C   UNL A   1      42.310  28.729  33.778  1.00  0.00     0.074 A 
ATOM     44  C   UNL A   1      42.834  27.575  33.082  1.00  0.00     0.031 C 
ATOM     45  C   UNL A   1      37.855  30.973  29.703  1.00  0.00     0.029 A 
ATOM     46  C   UNL A   1      38.219  31.521  31.006  1.00  0.00     0.049 A 
ATOM     47  H   UNL A   1      39.734  30.860  32.276  1.00  0.00     0.167 HD
ATOM     48  C   UNL A   1      42.743  29.149  34.990  1.00  0.00     0.037 A 
ATOM     49  C   UNL A   1      37.623  32.568  31.609  1.00  0.00     0.037 A 
ATOM     50  C   UNL A   1      42.238  30.319  35.659  1.00  0.00     0.049 A 
ATOM     51  C   UNL A   1      38.116  33.011  32.963  1.00  0.00     0.074 A 
ATOM     52  C   UNL A   1      42.646  30.860  36.864  1.00  0.00     0.029 A 
ATOM     53  N   UNL A   1      41.219  31.128  35.178  1.00  0.00    -0.354 N 
ATOM     54  N   UNL A   1      39.070  32.495  33.700  1.00  0.00    -0.248 NA
ATOM     55  C   UNL A   1      37.457  34.177  33.566  1.00  0.00     0.031 C 
ATOM     56  C   UNL A   1      41.838  31.968  37.139  1.00  0.00     0.029 A 
ATOM     57  C   UNL A   1      40.973  32.155  36.073  1.00  0.00     0.049 A 
ATOM     58  H   UNL A   1      40.742  30.992  34.328  1.00  0.00     0.167 HD
ATOM     59  C   UNL A   1      39.158  33.302  34.830  1.00  0.00     0.074 A 
ATOM     60  C   UNL A   1      38.157  34.337  34.681  1.00  0.00     0.031 C 
ATOM     61  C   UNL A   1      39.994  33.198  35.891  1.00  0.00     0.037 A 
BRANCH  48  62
ATOM     62  C   UNL A   1      43.815  28.346  35.673  1.00  0.00     0.058 A 
ATOM     63  C   UNL A   1      43.506  27.311  36.570  1.00  0.00     0.135 A 
ATOM     64  C   UNL A   1      45.171  28.576  35.383  1.00  0.00     0.135 A 
ATOM     65  F   UNL A   1      42.229  27.059  36.898  1.00  0.00    -0.206 F 
ATOM     66  C   UNL A   1      44.502  26.548  37.172  1.00  0.00     0.059 A 
ATOM     67  C   UNL A   1      46.181  27.804  35.949  1.00  0.00     0.059 A 
ATOM     68  F   UNL A   1      45.524  29.555  34.535  1.00  0.00    -0.206 F 
ATOM     69  C   UNL A   1      45.836  26.799  36.851  1.00  0.00     0.060 A 
BRANCH  69  70
ATOM     70  S   UNL A   1      47.112  25.781  37.620  1.00  0.00     0.124 S 
ATOM     71  O   UNL A   1      47.042  26.227  39.009  1.00  0.00    -0.237 OA
ATOM     72  O   UNL A   1      46.627  24.428  37.365  1.00  0.00    -0.237 OA
ATOM     73  O   UNL A   1      48.327  26.155  36.904  1.00  0.00    -0.744 OA
ENDBRANCH  69  70
ENDBRANCH  48  62
BRANCH  49  74
ATOM     74  C   UNL A   1      36.500  33.279  30.938  1.00  0.00     0.058 A 
ATOM     75  C   UNL A   1      36.733  34.141  29.856  1.00  0.00     0.135 A 
ATOM     76  C   UNL A   1      35.174  33.121  31.370  1.00  0.00     0.135 A 
ATOM     77  F   UNL A   1      37.983  34.330  29.406  1.00  0.00    -0.206 F 
ATOM     78  C   UNL A   1      35.698  34.842  29.244  1.00  0.00     0.059 A 
ATOM     79  C   UNL A   1      34.118  33.788  30.756  1.00  0.00     0.059 A 
ATOM     80  F   UNL A   1      34.892  32.294  32.389  1.00  0.00    -0.206 F 
ATOM     81  C   UNL A   1      34.393  34.659  29.703  1.00  0.00     0.060 A 
BRANCH  81  82
ATOM     82  S   UNL A   1      33.056  35.557  28.888  1.00  0.00     0.124 S 
ATOM     83  O   UNL A   1      33.796  36.536  28.102  1.00  0.00    -0.237 OA
ATOM     84  O   UNL A   1      32.392  34.499  28.133  1.00  0.00    -0.237 OA
ATOM     85  O   UNL A   1      32.286  36.097  30.005  1.00  0.00    -0.744 OA
ENDBRANCH  81  82
ENDBRANCH  49  74
BRANCH  61  86
ATOM     86  C   UNL A   1      39.929  34.268  36.947  1.00  0.00     0.058 A 
ATOM     87  C   UNL A   1      40.632  35.475  36.829  1.00  0.00     0.135 A 
ATOM     88  C   UNL A   1      39.070  34.111  38.049  1.00  0.00     0.135 A 
ATOM     89  F   UNL A   1      41.470  35.672  35.800  1.00  0.00    -0.206 F 
ATOM     90  C   UNL A   1      40.492  36.489  37.772  1.00  0.00     0.059 A 
ATOM     91  C   UNL A   1      38.893  35.124  38.986  1.00  0.00     0.059 A 
ATOM     92  F   UNL A   1      38.368  32.978  38.203  1.00  0.00    -0.206 F 
ATOM     93  C   UNL A   1      39.612  36.307  38.841  1.00  0.00     0.060 A 
BRANCH  93  94
ATOM     94  S   UNL A   1      39.391  37.659  40.018  1.00  0.00     0.124 S 
ATOM     95  O   UNL A   1      40.643  38.392  39.864  1.00  0.00    -0.237 OA
ATOM     96  O   UNL A   1      38.198  38.324  39.505  1.00  0.00    -0.237 OA
ATOM     97  O   UNL A   1      39.218  36.972  41.295  1.00  0.00    -0.744 OA
ENDBRANCH  93  94
ENDBRANCH  61  86
ENDBRANCH  35  36
ENDBRANCH  27  30
ENDBRANCH  25  26
ENDBRANCH  24  25
ENDBRANCH   1  24
TORSDOF 18
ENDMDL
