MODEL 1
REMARK VINA RESULT:     -11.8      0.000      0.000
REMARK SMILES O=C(CCCN1C(=O)/C(=C/c2cc(Br)ccc2O)SC1=S)NCCCCCCNC(=O)c1ccc(-c2c3nc(c(-c4c(F)cc(S(=O)(=O)[O-])cc4F)c4ccc([nH]4)c(-c4c(F)cc(S(=O)(=O)[O-])cc4F)c4nc(c(-c5c(F)cc(S(=O)(=O)[O-])cc5F)c5ccc2[nH]5)C=C4)C=C3)cc1
REMARK SMILES IDX 24 1 23 2 22 3 1 4 2 5 3 7 4 8 5 9 6 10 7 11 20 12 8 13 9 14
REMARK SMILES IDX 19 15 21 16 10 17 11 18 12 19 17 20 13 21 16 22 14 23 15 24
REMARK SMILES IDX 18 25 25 27 26 28 27 29 28 30 29 31 30 32 31 34 32 35 33 36
REMARK SMILES IDX 97 37 34 38 96 39 35 40 36 41 37 42 90 43 38 44 95 45 89 46
REMARK SMILES IDX 91 47 39 48 94 49 88 50 87 51 40 53 74 54 53 55 73 56 54 57
REMARK SMILES IDX 57 58 72 59 92 60 55 61 56 62 71 64 93 65 58 66 41 67 42 68
REMARK SMILES IDX 51 69 43 70 44 71 50 72 52 73 45 74 46 75 47 76 48 77 49 78
REMARK SMILES IDX 75 79 76 80 85 81 77 82 78 83 84 84 86 85 79 86 80 87 81 88
REMARK SMILES IDX 82 89 83 90 59 91 60 92 69 93 61 94 62 95 68 96 70 97 63 98
REMARK SMILES IDX 64 99 65 100 66 101 67 102
REMARK H PARENT 22 6 18 26 29 33 91 52 57 63
REMARK Flexibility Score: inf
ROOT
ATOM      1  C   UNL A   1      31.552  31.121  26.444  1.00  0.00     0.021 C 
ENDROOT
BRANCH   1   2
ATOM      2  C   UNL A   1      30.509  31.470  25.384  1.00  0.00     0.116 C 
BRANCH   2   3
ATOM      3  N   UNL A   1      30.574  30.540  24.277  1.00  0.00    -0.356 N 
ATOM      4  O   UNL A   1      28.409  30.825  23.564  1.00  0.00    -0.275 OA
ATOM      5  C   UNL A   1      29.496  30.269  23.475  1.00  0.00     0.220 C 
ATOM      6  H   UNL A   1      31.426  30.084  24.093  1.00  0.00     0.163 HD
BRANCH   5   7
ATOM      7  C   UNL A   1      29.751  29.154  22.488  1.00  0.00     0.102 C 
BRANCH   7   8
ATOM      8  C   UNL A   1      30.419  27.924  23.098  1.00  0.00     0.032 C 
BRANCH   8   9
ATOM      9  C   UNL A   1      31.951  27.833  23.011  1.00  0.00     0.128 C 
BRANCH   9  10
ATOM     10  N   UNL A   1      32.637  26.707  23.659  1.00  0.00    -0.293 N 
ATOM     11  C   UNL A   1      33.485  25.932  22.869  1.00  0.00     0.266 C 
ATOM     12  C   UNL A   1      32.377  26.174  24.906  1.00  0.00     0.148 C 
ATOM     13  O   UNL A   1      33.747  26.124  21.688  1.00  0.00    -0.268 OA
ATOM     14  C   UNL A   1      34.004  24.776  23.647  1.00  0.00     0.081 C 
ATOM     15  S   UNL A   1      33.638  25.024  25.309  1.00  0.00    -0.054 SA
ATOM     16  S   UNL A   1      31.104  26.447  25.947  1.00  0.00    -0.052 S 
ATOM     17  C   UNL A   1      34.573  23.693  23.094  1.00  0.00     0.033 C 
BRANCH  17  18
ATOM     18  C   UNL A   1      35.010  22.523  23.876  1.00  0.00     0.019 A 
ATOM     19  C   UNL A   1      34.063  21.549  24.211  1.00  0.00     0.027 A 
ATOM     20  C   UNL A   1      36.358  22.307  24.218  1.00  0.00     0.122 A 
ATOM     21  C   UNL A   1      34.476  20.357  24.808  1.00  0.00     0.018 A 
ATOM     22  C   UNL A   1      36.769  21.108  24.798  1.00  0.00     0.048 A 
ATOM     23  Br  UNL A   1      33.199  19.024  25.219  1.00  0.00    -0.051 Br
ATOM     24  C   UNL A   1      35.822  20.124  25.082  1.00  0.00     0.019 A 
BRANCH  20  25
ATOM     25  O   UNL A   1      37.284  23.282  23.952  1.00  0.00    -0.507 OA
ATOM     26  H   UNL A   1      37.280  24.078  24.447  1.00  0.00     0.293 HD
ENDBRANCH  20  25
ENDBRANCH  17  18
ENDBRANCH   9  10
ENDBRANCH   8   9
ENDBRANCH   7   8
ENDBRANCH   5   7
ENDBRANCH   2   3
ENDBRANCH   1   2
BRANCH   1  27
ATOM     27  C   UNL A   1      32.508  29.985  26.052  1.00  0.00     0.002 C 
BRANCH  27  28
ATOM     28  C   UNL A   1      33.728  29.819  26.962  1.00  0.00     0.002 C 
BRANCH  28  29
ATOM     29  C   UNL A   1      34.150  31.086  27.710  1.00  0.00     0.021 C 
BRANCH  29  30
ATOM     30  C   UNL A   1      35.553  31.038  28.307  1.00  0.00     0.116 C 
BRANCH  30  31
ATOM     31  N   UNL A   1      35.539  31.124  29.757  1.00  0.00    -0.352 N 
ATOM     32  C   UNL A   1      36.466  30.678  30.667  1.00  0.00     0.251 C 
ATOM     33  H   UNL A   1      34.750  31.568  30.145  1.00  0.00     0.163 HD
ATOM     34  O   UNL A   1      36.196  30.688  31.864  1.00  0.00    -0.269 OA
BRANCH  32  35
ATOM     35  C   UNL A   1      37.776  30.164  30.205  1.00  0.00     0.039 A 
ATOM     36  C   UNL A   1      38.041  30.142  28.833  1.00  0.00     0.014 A 
ATOM     37  C   UNL A   1      38.735  29.698  31.109  1.00  0.00     0.014 A 
ATOM     38  C   UNL A   1      39.286  29.706  28.375  1.00  0.00     0.010 A 
ATOM     39  C   UNL A   1      40.003  29.339  30.656  1.00  0.00     0.010 A 
ATOM     40  C   UNL A   1      40.292  29.333  29.284  1.00  0.00    -0.014 A 
BRANCH  40  41
ATOM     41  C   UNL A   1      41.649  28.959  28.803  1.00  0.00     0.031 A 
ATOM     42  C   UNL A   1      42.758  29.975  28.755  1.00  0.00     0.074 A 
ATOM     43  C   UNL A   1      41.871  27.701  28.372  1.00  0.00     0.049 A 
ATOM     44  N   UNL A   1      44.005  29.819  28.391  1.00  0.00    -0.248 NA
ATOM     45  C   UNL A   1      42.418  31.352  29.145  1.00  0.00     0.031 C 
ATOM     46  C   UNL A   1      40.864  26.638  28.316  1.00  0.00     0.029 A 
ATOM     47  N   UNL A   1      43.013  27.099  27.907  1.00  0.00    -0.354 N 
ATOM     48  C   UNL A   1      44.594  31.076  28.493  1.00  0.00     0.074 A 
ATOM     49  C   UNL A   1      43.552  31.993  28.903  1.00  0.00     0.031 C 
ATOM     50  C   UNL A   1      41.444  25.504  27.891  1.00  0.00     0.029 A 
ATOM     51  C   UNL A   1      42.851  25.767  27.605  1.00  0.00     0.049 A 
ATOM     52  H   UNL A   1      43.868  27.575  27.799  1.00  0.00     0.167 HD
ATOM     53  C   UNL A   1      45.885  31.428  28.285  1.00  0.00     0.037 A 
ATOM     54  C   UNL A   1      43.736  24.856  27.155  1.00  0.00     0.037 A 
ATOM     55  C   UNL A   1      46.920  30.504  27.890  1.00  0.00     0.049 A 
ATOM     56  C   UNL A   1      45.164  25.272  26.931  1.00  0.00     0.074 A 
ATOM     57  C   UNL A   1      48.273  30.746  27.728  1.00  0.00     0.029 A 
ATOM     58  N   UNL A   1      46.715  29.166  27.582  1.00  0.00    -0.354 N 
ATOM     59  N   UNL A   1      45.722  26.445  27.118  1.00  0.00    -0.248 NA
ATOM     60  C   UNL A   1      46.082  24.238  26.437  1.00  0.00     0.031 C 
ATOM     61  C   UNL A   1      48.874  29.571  27.259  1.00  0.00     0.029 A 
ATOM     62  C   UNL A   1      47.910  28.580  27.193  1.00  0.00     0.049 A 
ATOM     63  H   UNL A   1      45.849  28.702  27.632  1.00  0.00     0.167 HD
ATOM     64  C   UNL A   1      47.064  26.282  26.792  1.00  0.00     0.074 A 
ATOM     65  C   UNL A   1      47.235  24.893  26.416  1.00  0.00     0.031 C 
ATOM     66  C   UNL A   1      48.066  27.198  26.806  1.00  0.00     0.037 A 
BRANCH  53  67
ATOM     67  C   UNL A   1      46.250  32.879  28.463  1.00  0.00     0.058 A 
ATOM     68  C   UNL A   1      46.723  33.386  29.686  1.00  0.00     0.135 A 
ATOM     69  C   UNL A   1      46.144  33.777  27.387  1.00  0.00     0.135 A 
ATOM     70  F   UNL A   1      46.835  32.579  30.754  1.00  0.00    -0.206 F 
ATOM     71  C   UNL A   1      47.033  34.733  29.848  1.00  0.00     0.059 A 
ATOM     72  C   UNL A   1      46.482  35.122  27.517  1.00  0.00     0.059 A 
ATOM     73  F   UNL A   1      45.704  33.351  26.193  1.00  0.00    -0.206 F 
ATOM     74  C   UNL A   1      46.906  35.594  28.758  1.00  0.00     0.060 A 
BRANCH  74  75
ATOM     75  S   UNL A   1      47.295  37.341  28.989  1.00  0.00     0.124 S 
ATOM     76  O   UNL A   1      48.254  37.571  27.913  1.00  0.00    -0.237 OA
ATOM     77  O   UNL A   1      45.991  37.976  28.821  1.00  0.00    -0.237 OA
ATOM     78  O   UNL A   1      47.844  37.393  30.341  1.00  0.00    -0.744 OA
ENDBRANCH  74  75
ENDBRANCH  53  67
BRANCH  54  79
ATOM     79  C   UNL A   1      43.306  23.448  26.936  1.00  0.00     0.058 A 
ATOM     80  C   UNL A   1      43.073  22.962  25.640  1.00  0.00     0.135 A 
ATOM     81  C   UNL A   1      43.137  22.558  28.007  1.00  0.00     0.135 A 
ATOM     82  F   UNL A   1      43.213  23.777  24.584  1.00  0.00    -0.206 F 
ATOM     83  C   UNL A   1      42.678  21.648  25.414  1.00  0.00     0.059 A 
ATOM     84  C   UNL A   1      42.769  21.231  27.804  1.00  0.00     0.059 A 
ATOM     85  F   UNL A   1      43.360  22.968  29.265  1.00  0.00    -0.206 F 
ATOM     86  C   UNL A   1      42.536  20.787  26.503  1.00  0.00     0.060 A 
BRANCH  86  87
ATOM     87  S   UNL A   1      42.082  19.068  26.190  1.00  0.00     0.124 S 
ATOM     88  O   UNL A   1      42.972  18.723  25.088  1.00  0.00    -0.237 OA
ATOM     89  O   UNL A   1      42.379  18.437  27.473  1.00  0.00    -0.237 OA
ATOM     90  O   UNL A   1      40.664  19.151  25.855  1.00  0.00    -0.744 OA
ENDBRANCH  86  87
ENDBRANCH  54  79
BRANCH  66  91
ATOM     91  C   UNL A   1      49.441  26.717  26.423  1.00  0.00     0.058 A 
ATOM     92  C   UNL A   1      49.956  26.894  25.129  1.00  0.00     0.135 A 
ATOM     93  C   UNL A   1      50.260  26.076  27.368  1.00  0.00     0.135 A 
ATOM     94  F   UNL A   1      49.216  27.496  24.183  1.00  0.00    -0.206 F 
ATOM     95  C   UNL A   1      51.211  26.410  24.771  1.00  0.00     0.059 A 
ATOM     96  C   UNL A   1      51.532  25.616  27.042  1.00  0.00     0.059 A 
ATOM     97  F   UNL A   1      49.826  25.892  28.626  1.00  0.00    -0.206 F 
ATOM     98  C   UNL A   1      51.990  25.768  25.736  1.00  0.00     0.060 A 
BRANCH  98  99
ATOM     99  S   UNL A   1      53.614  25.140  25.258  1.00  0.00     0.124 S 
ATOM    100  O   UNL A   1      53.757  25.688  23.914  1.00  0.00    -0.237 OA
ATOM    101  O   UNL A   1      54.485  25.720  26.275  1.00  0.00    -0.237 OA
ATOM    102  O   UNL A   1      53.452  23.690  25.331  1.00  0.00    -0.744 OA
ENDBRANCH  98  99
ENDBRANCH  66  91
ENDBRANCH  40  41
ENDBRANCH  32  35
ENDBRANCH  30  31
ENDBRANCH  29  30
ENDBRANCH  28  29
ENDBRANCH  27  28
ENDBRANCH   1  27
TORSDOF 21
ENDMDL
MODEL 2
REMARK VINA RESULT:     -11.6      0.694      8.008
REMARK SMILES O=C(CCCN1C(=O)/C(=C/c2cc(Br)ccc2O)SC1=S)NCCCCCCNC(=O)c1ccc(-c2c3nc(c(-c4c(F)cc(S(=O)(=O)[O-])cc4F)c4ccc([nH]4)c(-c4c(F)cc(S(=O)(=O)[O-])cc4F)c4nc(c(-c5c(F)cc(S(=O)(=O)[O-])cc5F)c5ccc2[nH]5)C=C4)C=C3)cc1
REMARK SMILES IDX 24 1 23 2 22 3 1 4 2 5 3 7 4 8 5 9 6 10 7 11 20 12 8 13 9 14
REMARK SMILES IDX 19 15 21 16 10 17 11 18 12 19 17 20 13 21 16 22 14 23 15 24
REMARK SMILES IDX 18 25 25 27 26 28 27 29 28 30 29 31 30 32 31 34 32 35 33 36
REMARK SMILES IDX 97 37 34 38 96 39 35 40 36 41 37 42 90 43 38 44 95 45 89 46
REMARK SMILES IDX 91 47 39 48 94 49 88 50 87 51 40 53 74 54 53 55 73 56 54 57
REMARK SMILES IDX 57 58 72 59 92 60 55 61 56 62 71 64 93 65 58 66 41 67 42 68
REMARK SMILES IDX 51 69 43 70 44 71 50 72 52 73 45 74 46 75 47 76 48 77 49 78
REMARK SMILES IDX 75 79 76 80 85 81 77 82 78 83 84 84 86 85 79 86 80 87 81 88
REMARK SMILES IDX 82 89 83 90 59 91 60 92 69 93 61 94 62 95 68 96 70 97 63 98
REMARK SMILES IDX 64 99 65 100 66 101 67 102
REMARK H PARENT 22 6 18 26 29 33 91 52 57 63
REMARK Flexibility Score: inf
ROOT
ATOM      1  C   UNL A   1      31.830  31.150  26.671  1.00  0.00     0.021 C 
ENDROOT
BRANCH   1   2
ATOM      2  C   UNL A   1      30.755  31.524  25.653  1.00  0.00     0.116 C 
BRANCH   2   3
ATOM      3  N   UNL A   1      30.650  30.511  24.625  1.00  0.00    -0.356 N 
ATOM      4  O   UNL A   1      28.745  31.331  23.637  1.00  0.00    -0.275 OA
ATOM      5  C   UNL A   1      29.623  30.481  23.717  1.00  0.00     0.220 C 
ATOM      6  H   UNL A   1      31.343  29.813  24.576  1.00  0.00     0.163 HD
BRANCH   5   7
ATOM      7  C   UNL A   1      29.633  29.250  22.844  1.00  0.00     0.102 C 
BRANCH   7   8
ATOM      8  C   UNL A   1      31.031  28.735  22.509  1.00  0.00     0.032 C 
BRANCH   8   9
ATOM      9  C   UNL A   1      31.153  27.286  22.011  1.00  0.00     0.128 C 
BRANCH   9  10
ATOM     10  N   UNL A   1      31.885  26.310  22.830  1.00  0.00    -0.293 N 
ATOM     11  C   UNL A   1      32.929  25.615  22.218  1.00  0.00     0.266 C 
ATOM     12  C   UNL A   1      31.529  25.823  24.071  1.00  0.00     0.148 C 
ATOM     13  O   UNL A   1      33.323  25.769  21.068  1.00  0.00    -0.268 OA
ATOM     14  C   UNL A   1      33.484  24.593  23.145  1.00  0.00     0.081 C 
ATOM     15  S   UNL A   1      32.863  24.888  24.722  1.00  0.00    -0.054 SA
ATOM     16  S   UNL A   1      30.101  25.976  24.916  1.00  0.00    -0.052 S 
ATOM     17  C   UNL A   1      34.260  23.569  22.757  1.00  0.00     0.033 C 
BRANCH  17  18
ATOM     18  C   UNL A   1      34.736  22.523  23.679  1.00  0.00     0.019 A 
ATOM     19  C   UNL A   1      33.832  21.543  24.104  1.00  0.00     0.027 A 
ATOM     20  C   UNL A   1      36.084  22.422  24.072  1.00  0.00     0.122 A 
ATOM     21  C   UNL A   1      34.290  20.452  24.844  1.00  0.00     0.018 A 
ATOM     22  C   UNL A   1      36.540  21.322  24.796  1.00  0.00     0.048 A 
ATOM     23  Br  UNL A   1      33.074  19.107  25.379  1.00  0.00    -0.051 Br
ATOM     24  C   UNL A   1      35.639  20.326  25.172  1.00  0.00     0.019 A 
BRANCH  20  25
ATOM     25  O   UNL A   1      36.964  23.410  23.715  1.00  0.00    -0.507 OA
ATOM     26  H   UNL A   1      37.742  23.548  24.220  1.00  0.00     0.293 HD
ENDBRANCH  20  25
ENDBRANCH  17  18
ENDBRANCH   9  10
ENDBRANCH   8   9
ENDBRANCH   7   8
ENDBRANCH   5   7
ENDBRANCH   2   3
ENDBRANCH   1   2
BRANCH   1  27
ATOM     27  C   UNL A   1      32.890  30.168  26.152  1.00  0.00     0.002 C 
BRANCH  27  28
ATOM     28  C   UNL A   1      33.357  29.119  27.165  1.00  0.00     0.002 C 
BRANCH  28  29
ATOM     29  C   UNL A   1      34.876  28.970  27.282  1.00  0.00     0.021 C 
BRANCH  29  30
ATOM     30  C   UNL A   1      35.589  30.166  27.905  1.00  0.00     0.116 C 
BRANCH  30  31
ATOM     31  N   UNL A   1      35.504  30.166  29.355  1.00  0.00    -0.352 N 
ATOM     32  C   UNL A   1      36.473  29.881  30.286  1.00  0.00     0.251 C 
ATOM     33  H   UNL A   1      34.624  30.405  29.726  1.00  0.00     0.163 HD
ATOM     34  O   UNL A   1      36.164  29.765  31.469  1.00  0.00    -0.269 OA
BRANCH  32  35
ATOM     35  C   UNL A   1      37.880  29.690  29.863  1.00  0.00     0.039 A 
ATOM     36  C   UNL A   1      38.821  29.306  30.822  1.00  0.00     0.014 A 
ATOM     37  C   UNL A   1      38.275  29.893  28.539  1.00  0.00     0.014 A 
ATOM     38  C   UNL A   1      40.143  29.073  30.440  1.00  0.00     0.010 A 
ATOM     39  C   UNL A   1      39.577  29.584  28.144  1.00  0.00     0.010 A 
ATOM     40  C   UNL A   1      40.528  29.176  29.091  1.00  0.00    -0.014 A 
BRANCH  40  41
ATOM     41  C   UNL A   1      41.912  28.838  28.668  1.00  0.00     0.031 A 
ATOM     42  C   UNL A   1      42.260  27.448  28.206  1.00  0.00     0.074 A 
ATOM     43  C   UNL A   1      42.871  29.783  28.737  1.00  0.00     0.049 A 
ATOM     44  N   UNL A   1      43.405  26.983  27.777  1.00  0.00    -0.248 NA
ATOM     45  C   UNL A   1      41.188  26.442  28.253  1.00  0.00     0.031 C 
ATOM     46  C   UNL A   1      42.674  31.152  29.219  1.00  0.00     0.029 A 
ATOM     47  N   UNL A   1      44.199  29.742  28.393  1.00  0.00    -0.354 N 
ATOM     48  C   UNL A   1      43.198  25.632  27.517  1.00  0.00     0.074 A 
ATOM     49  C   UNL A   1      41.829  25.342  27.888  1.00  0.00     0.031 C 
ATOM     50  C   UNL A   1      43.825  31.833  29.096  1.00  0.00     0.029 A 
ATOM     51  C   UNL A   1      44.851  30.941  28.565  1.00  0.00     0.049 A 
ATOM     52  H   UNL A   1      44.644  28.931  28.057  1.00  0.00     0.167 HD
ATOM     53  C   UNL A   1      44.060  24.725  26.999  1.00  0.00     0.037 A 
ATOM     54  C   UNL A   1      46.129  31.288  28.317  1.00  0.00     0.037 A 
ATOM     55  C   UNL A   1      45.417  25.027  26.620  1.00  0.00     0.049 A 
ATOM     56  C   UNL A   1      47.067  30.261  27.743  1.00  0.00     0.074 A 
ATOM     57  C   UNL A   1      46.347  24.198  26.016  1.00  0.00     0.029 A 
ATOM     58  N   UNL A   1      46.045  26.249  26.820  1.00  0.00    -0.354 N 
ATOM     59  N   UNL A   1      46.828  29.012  27.420  1.00  0.00    -0.248 NA
ATOM     60  C   UNL A   1      48.448  30.695  27.496  1.00  0.00     0.031 C 
ATOM     61  C   UNL A   1      47.555  24.898  25.910  1.00  0.00     0.029 A 
ATOM     62  C   UNL A   1      47.361  26.183  26.387  1.00  0.00     0.049 A 
ATOM     63  H   UNL A   1      45.619  27.044  27.212  1.00  0.00     0.167 HD
ATOM     64  C   UNL A   1      48.022  28.518  26.906  1.00  0.00     0.074 A 
ATOM     65  C   UNL A   1      48.974  29.611  26.942  1.00  0.00     0.031 C 
ATOM     66  C   UNL A   1      48.305  27.274  26.441  1.00  0.00     0.037 A 
BRANCH  53  67
ATOM     67  C   UNL A   1      43.565  23.311  26.828  1.00  0.00     0.058 A 
ATOM     68  C   UNL A   1      43.344  22.460  27.924  1.00  0.00     0.135 A 
ATOM     69  C   UNL A   1      43.288  22.804  25.547  1.00  0.00     0.135 A 
ATOM     70  F   UNL A   1      43.601  22.884  29.173  1.00  0.00    -0.206 F 
ATOM     71  C   UNL A   1      42.912  21.148  27.755  1.00  0.00     0.059 A 
ATOM     72  C   UNL A   1      42.822  21.506  25.357  1.00  0.00     0.059 A 
ATOM     73  F   UNL A   1      43.475  23.571  24.462  1.00  0.00    -0.206 F 
ATOM     74  C   UNL A   1      42.656  20.679  26.466  1.00  0.00     0.060 A 
BRANCH  74  75
ATOM     75  S   UNL A   1      42.113  18.970  26.262  1.00  0.00     0.124 S 
ATOM     76  O   UNL A   1      43.048  18.485  25.252  1.00  0.00    -0.237 OA
ATOM     77  O   UNL A   1      42.291  18.423  27.605  1.00  0.00    -0.237 OA
ATOM     78  O   UNL A   1      40.727  19.102  25.822  1.00  0.00    -0.744 OA
ENDBRANCH  74  75
ENDBRANCH  53  67
BRANCH  54  79
ATOM     79  C   UNL A   1      46.581  32.684  28.564  1.00  0.00     0.058 A 
ATOM     80  C   UNL A   1      46.489  33.657  27.557  1.00  0.00     0.135 A 
ATOM     81  C   UNL A   1      47.093  33.079  29.809  1.00  0.00     0.135 A 
ATOM     82  F   UNL A   1      46.013  33.327  26.347  1.00  0.00    -0.206 F 
ATOM     83  C   UNL A   1      46.898  34.969  27.771  1.00  0.00     0.059 A 
ATOM     84  C   UNL A   1      47.483  34.392  30.055  1.00  0.00     0.059 A 
ATOM     85  F   UNL A   1      47.188  32.191  30.810  1.00  0.00    -0.206 F 
ATOM     86  C   UNL A   1      47.388  35.328  29.027  1.00  0.00     0.060 A 
BRANCH  86  87
ATOM     87  S   UNL A   1      47.859  37.049  29.310  1.00  0.00     0.124 S 
ATOM     88  O   UNL A   1      49.161  37.109  28.658  1.00  0.00    -0.237 OA
ATOM     89  O   UNL A   1      46.778  37.772  28.648  1.00  0.00    -0.237 OA
ATOM     90  O   UNL A   1      47.874  37.157  30.766  1.00  0.00    -0.744 OA
ENDBRANCH  86  87
ENDBRANCH  54  79
BRANCH  66  91
ATOM     91  C   UNL A   1      49.696  27.039  25.914  1.00  0.00     0.058 A 
ATOM     92  C   UNL A   1      50.008  27.179  24.552  1.00  0.00     0.135 A 
ATOM     93  C   UNL A   1      50.737  26.677  26.786  1.00  0.00     0.135 A 
ATOM     94  F   UNL A   1      49.052  27.519  23.672  1.00  0.00    -0.206 F 
ATOM     95  C   UNL A   1      51.285  26.920  24.067  1.00  0.00     0.059 A 
ATOM     96  C   UNL A   1      52.031  26.448  26.328  1.00  0.00     0.059 A 
ATOM     97  F   UNL A   1      50.501  26.543  28.102  1.00  0.00    -0.206 F 
ATOM     98  C   UNL A   1      52.290  26.551  24.963  1.00  0.00     0.060 A 
BRANCH  98  99
ATOM     99  S   UNL A   1      53.942  26.213  24.320  1.00  0.00     0.124 S 
ATOM    100  O   UNL A   1      54.725  27.269  24.952  1.00  0.00    -0.237 OA
ATOM    101  O   UNL A   1      54.196  24.860  24.804  1.00  0.00    -0.237 OA
ATOM    102  O   UNL A   1      53.776  26.335  22.873  1.00  0.00    -0.744 OA
ENDBRANCH  98  99
ENDBRANCH  66  91
ENDBRANCH  40  41
ENDBRANCH  32  35
ENDBRANCH  30  31
ENDBRANCH  29  30
ENDBRANCH  28  29
ENDBRANCH  27  28
ENDBRANCH   1  27
TORSDOF 21
ENDMDL
MODEL 3
REMARK VINA RESULT:     -11.2      4.742      8.189
REMARK SMILES O=C(CCCN1C(=O)/C(=C/c2cc(Br)ccc2O)SC1=S)NCCCCCCNC(=O)c1ccc(-c2c3nc(c(-c4c(F)cc(S(=O)(=O)[O-])cc4F)c4ccc([nH]4)c(-c4c(F)cc(S(=O)(=O)[O-])cc4F)c4nc(c(-c5c(F)cc(S(=O)(=O)[O-])cc5F)c5ccc2[nH]5)C=C4)C=C3)cc1
REMARK SMILES IDX 24 1 23 2 22 3 1 4 2 5 3 7 4 8 5 9 6 10 7 11 20 12 8 13 9 14
REMARK SMILES IDX 19 15 21 16 10 17 11 18 12 19 17 20 13 21 16 22 14 23 15 24
REMARK SMILES IDX 18 25 25 27 26 28 27 29 28 30 29 31 30 32 31 34 32 35 33 36
REMARK SMILES IDX 97 37 34 38 96 39 35 40 36 41 37 42 90 43 38 44 95 45 89 46
REMARK SMILES IDX 91 47 39 48 94 49 88 50 87 51 40 53 74 54 53 55 73 56 54 57
REMARK SMILES IDX 57 58 72 59 92 60 55 61 56 62 71 64 93 65 58 66 41 67 42 68
REMARK SMILES IDX 51 69 43 70 44 71 50 72 52 73 45 74 46 75 47 76 48 77 49 78
REMARK SMILES IDX 75 79 76 80 85 81 77 82 78 83 84 84 86 85 79 86 80 87 81 88
REMARK SMILES IDX 82 89 83 90 59 91 60 92 69 93 61 94 62 95 68 96 70 97 63 98
REMARK SMILES IDX 64 99 65 100 66 101 67 102
REMARK H PARENT 22 6 18 26 29 33 91 52 57 63
REMARK Flexibility Score: inf
ROOT
ATOM      1  C   UNL A   1      37.029  31.424  33.147  1.00  0.00     0.021 C 
ENDROOT
BRANCH   1   2
ATOM      2  C   UNL A   1      38.290  31.832  33.906  1.00  0.00     0.116 C 
BRANCH   2   3
ATOM      3  N   UNL A   1      39.440  31.103  33.418  1.00  0.00    -0.356 N 
ATOM      4  O   UNL A   1      39.730  29.786  35.278  1.00  0.00    -0.275 OA
ATOM      5  C   UNL A   1      40.089  30.156  34.167  1.00  0.00     0.220 C 
ATOM      6  H   UNL A   1      39.770  31.294  32.510  1.00  0.00     0.163 HD
BRANCH   5   7
ATOM      7  C   UNL A   1      41.351  29.642  33.518  1.00  0.00     0.102 C 
BRANCH   7   8
ATOM      8  C   UNL A   1      42.140  28.659  34.381  1.00  0.00     0.032 C 
BRANCH   8   9
ATOM      9  C   UNL A   1      41.939  27.159  34.111  1.00  0.00     0.128 C 
BRANCH   9  10
ATOM     10  N   UNL A   1      42.898  26.199  34.673  1.00  0.00    -0.293 N 
ATOM     11  C   UNL A   1      43.874  25.690  33.816  1.00  0.00     0.266 C 
ATOM     12  C   UNL A   1      42.822  25.556  35.893  1.00  0.00     0.148 C 
ATOM     13  O   UNL A   1      44.035  25.999  32.641  1.00  0.00    -0.268 OA
ATOM     14  C   UNL A   1      44.683  24.654  34.510  1.00  0.00     0.081 C 
ATOM     15  S   UNL A   1      44.336  24.722  36.193  1.00  0.00    -0.054 SA
ATOM     16  S   UNL A   1      41.564  25.463  36.982  1.00  0.00    -0.052 S 
ATOM     17  C   UNL A   1      45.470  23.768  33.879  1.00  0.00     0.033 C 
BRANCH  17  18
ATOM     18  C   UNL A   1      46.204  22.699  34.578  1.00  0.00     0.019 A 
ATOM     19  C   UNL A   1      45.541  21.495  34.843  1.00  0.00     0.027 A 
ATOM     20  C   UNL A   1      47.568  22.811  34.906  1.00  0.00     0.122 A 
ATOM     21  C   UNL A   1      46.254  20.410  35.356  1.00  0.00     0.018 A 
ATOM     22  C   UNL A   1      48.279  21.720  35.402  1.00  0.00     0.048 A 
ATOM     23  Br  UNL A   1      45.366  18.770  35.671  1.00  0.00    -0.051 Br
ATOM     24  C   UNL A   1      47.620  20.510  35.616  1.00  0.00     0.019 A 
BRANCH  20  25
ATOM     25  O   UNL A   1      48.210  24.006  34.711  1.00  0.00    -0.507 OA
ATOM     26  H   UNL A   1      48.378  24.310  33.841  1.00  0.00     0.293 HD
ENDBRANCH  20  25
ENDBRANCH  17  18
ENDBRANCH   9  10
ENDBRANCH   8   9
ENDBRANCH   7   8
ENDBRANCH   5   7
ENDBRANCH   2   3
ENDBRANCH   1   2
BRANCH   1  27
ATOM     27  C   UNL A   1      36.049  32.572  32.868  1.00  0.00     0.002 C 
BRANCH  27  28
ATOM     28  C   UNL A   1      35.998  33.045  31.413  1.00  0.00     0.002 C 
BRANCH  28  29
ATOM     29  C   UNL A   1      34.682  32.755  30.688  1.00  0.00     0.021 C 
BRANCH  29  30
ATOM     30  C   UNL A   1      34.780  32.741  29.165  1.00  0.00     0.116 C 
BRANCH  30  31
ATOM     31  N   UNL A   1      34.017  31.656  28.573  1.00  0.00    -0.352 N 
ATOM     32  C   UNL A   1      34.449  30.439  28.106  1.00  0.00     0.251 C 
ATOM     33  H   UNL A   1      33.048  31.816  28.495  1.00  0.00     0.163 HD
ATOM     34  O   UNL A   1      33.677  29.719  27.479  1.00  0.00    -0.269 OA
BRANCH  32  35
ATOM     35  C   UNL A   1      35.847  30.006  28.335  1.00  0.00     0.039 A 
ATOM     36  C   UNL A   1      36.753  30.075  27.273  1.00  0.00     0.014 A 
ATOM     37  C   UNL A   1      36.265  29.527  29.580  1.00  0.00     0.014 A 
ATOM     38  C   UNL A   1      38.087  29.717  27.476  1.00  0.00     0.010 A 
ATOM     39  C   UNL A   1      37.613  29.247  29.801  1.00  0.00     0.010 A 
ATOM     40  C   UNL A   1      38.539  29.333  28.751  1.00  0.00    -0.014 A 
BRANCH  40  41
ATOM     41  C   UNL A   1      39.977  29.042  28.991  1.00  0.00     0.031 A 
ATOM     42  C   UNL A   1      40.877  30.071  29.622  1.00  0.00     0.074 A 
ATOM     43  C   UNL A   1      40.482  27.853  28.604  1.00  0.00     0.049 A 
ATOM     44  N   UNL A   1      42.146  29.980  29.928  1.00  0.00    -0.248 NA
ATOM     45  C   UNL A   1      40.281  31.381  29.926  1.00  0.00     0.031 C 
ATOM     46  C   UNL A   1      39.726  26.793  27.933  1.00  0.00     0.029 A 
ATOM     47  N   UNL A   1      41.746  27.332  28.726  1.00  0.00    -0.354 N 
ATOM     48  C   UNL A   1      42.504  31.220  30.447  1.00  0.00     0.074 A 
ATOM     49  C   UNL A   1      41.330  32.063  30.363  1.00  0.00     0.031 C 
ATOM     50  C   UNL A   1      40.527  25.732  27.746  1.00  0.00     0.029 A 
ATOM     51  C   UNL A   1      41.861  26.049  28.245  1.00  0.00     0.049 A 
ATOM     52  H   UNL A   1      42.499  27.830  29.118  1.00  0.00     0.167 HD
ATOM     53  C   UNL A   1      43.693  31.614  30.963  1.00  0.00     0.037 A 
ATOM     54  C   UNL A   1      42.920  25.215  28.216  1.00  0.00     0.037 A 
ATOM     55  C   UNL A   1      44.853  30.763  31.056  1.00  0.00     0.049 A 
ATOM     56  C   UNL A   1      44.230  25.676  28.794  1.00  0.00     0.074 A 
ATOM     57  C   UNL A   1      46.081  31.042  31.631  1.00  0.00     0.029 A 
ATOM     58  N   UNL A   1      44.936  29.474  30.548  1.00  0.00    -0.354 N 
ATOM     59  N   UNL A   1      44.525  26.822  29.361  1.00  0.00    -0.248 NA
ATOM     60  C   UNL A   1      45.349  24.727  28.731  1.00  0.00     0.031 C 
ATOM     61  C   UNL A   1      46.926  29.946  31.413  1.00  0.00     0.029 A 
ATOM     62  C   UNL A   1      46.206  28.959  30.762  1.00  0.00     0.049 A 
ATOM     63  H   UNL A   1      44.201  28.996  30.101  1.00  0.00     0.167 HD
ATOM     64  C   UNL A   1      45.857  26.721  29.748  1.00  0.00     0.074 A 
ATOM     65  C   UNL A   1      46.301  25.395  29.368  1.00  0.00     0.031 C 
ATOM     66  C   UNL A   1      46.642  27.641  30.366  1.00  0.00     0.037 A 
BRANCH  53  67
ATOM     67  C   UNL A   1      43.805  33.035  31.454  1.00  0.00     0.058 A 
ATOM     68  C   UNL A   1      44.281  34.072  30.634  1.00  0.00     0.135 A 
ATOM     69  C   UNL A   1      43.411  33.370  32.760  1.00  0.00     0.135 A 
ATOM     70  F   UNL A   1      44.683  33.813  29.379  1.00  0.00    -0.206 F 
ATOM     71  C   UNL A   1      44.405  35.377  31.103  1.00  0.00     0.059 A 
ATOM     72  C   UNL A   1      43.494  34.675  33.240  1.00  0.00     0.059 A 
ATOM     73  F   UNL A   1      42.943  32.423  33.588  1.00  0.00    -0.206 F 
ATOM     74  C   UNL A   1      44.011  35.667  32.410  1.00  0.00     0.060 A 
BRANCH  74  75
ATOM     75  S   UNL A   1      44.194  37.360  33.010  1.00  0.00     0.124 S 
ATOM     76  O   UNL A   1      43.737  38.128  31.856  1.00  0.00    -0.237 OA
ATOM     77  O   UNL A   1      43.311  37.376  34.172  1.00  0.00    -0.237 OA
ATOM     78  O   UNL A   1      45.620  37.464  33.309  1.00  0.00    -0.744 OA
ENDBRANCH  74  75
ENDBRANCH  53  67
BRANCH  54  79
ATOM     79  C   UNL A   1      42.769  23.843  27.661  1.00  0.00     0.058 A 
ATOM     80  C   UNL A   1      42.892  23.607  26.283  1.00  0.00     0.135 A 
ATOM     81  C   UNL A   1      42.519  22.740  28.493  1.00  0.00     0.135 A 
ATOM     82  F   UNL A   1      43.122  24.630  25.447  1.00  0.00    -0.206 F 
ATOM     83  C   UNL A   1      42.762  22.331  25.747  1.00  0.00     0.059 A 
ATOM     84  C   UNL A   1      42.413  21.450  27.983  1.00  0.00     0.059 A 
ATOM     85  F   UNL A   1      42.408  22.908  29.819  1.00  0.00    -0.206 F 
ATOM     86  C   UNL A   1      42.530  21.256  26.607  1.00  0.00     0.060 A 
BRANCH  86  87
ATOM     87  S   UNL A   1      42.424  19.596  25.904  1.00  0.00     0.124 S 
ATOM     88  O   UNL A   1      43.457  19.644  24.877  1.00  0.00    -0.237 OA
ATOM     89  O   UNL A   1      42.713  18.757  27.063  1.00  0.00    -0.237 OA
ATOM     90  O   UNL A   1      41.050  19.525  25.416  1.00  0.00    -0.744 OA
ENDBRANCH  86  87
ENDBRANCH  54  79
BRANCH  66  91
ATOM     91  C   UNL A   1      48.055  27.232  30.688  1.00  0.00     0.058 A 
ATOM     92  C   UNL A   1      49.143  27.634  29.897  1.00  0.00     0.135 A 
ATOM     93  C   UNL A   1      48.326  26.432  31.811  1.00  0.00     0.135 A 
ATOM     94  F   UNL A   1      48.943  28.396  28.810  1.00  0.00    -0.206 F 
ATOM     95  C   UNL A   1      50.441  27.219  30.178  1.00  0.00     0.059 A 
ATOM     96  C   UNL A   1      49.621  26.034  32.131  1.00  0.00     0.059 A 
ATOM     97  F   UNL A   1      47.327  26.029  32.612  1.00  0.00    -0.206 F 
ATOM     98  C   UNL A   1      50.668  26.414  31.295  1.00  0.00     0.060 A 
BRANCH  98  99
ATOM     99  S   UNL A   1      52.356  25.877  31.645  1.00  0.00     0.124 S 
ATOM    100  O   UNL A   1      52.967  25.949  30.323  1.00  0.00    -0.237 OA
ATOM    101  O   UNL A   1      52.809  26.876  32.609  1.00  0.00    -0.237 OA
ATOM    102  O   UNL A   1      52.179  24.530  32.183  1.00  0.00    -0.744 OA
ENDBRANCH  98  99
ENDBRANCH  66  91
ENDBRANCH  40  41
ENDBRANCH  32  35
ENDBRANCH  30  31
ENDBRANCH  29  30
ENDBRANCH  28  29
ENDBRANCH  27  28
ENDBRANCH   1  27
TORSDOF 21
ENDMDL
