MODEL 1
REMARK VINA RESULT:     -11.5      0.000      0.000
REMARK SMILES NS(=O)(=O)c1ccc(-n2nc(NC(=O)NCCCC(=O)NCCCCCCNC(=O)c3ccc(-c4c5nc(c(-c6c(F)cc(S(=O)(=O)[O-])cc6F)c6ccc([nH]6)c(-c6c(F)cc(S(=O)(=O)[O-])cc6F)c6nc(c(-c7c(F)cc(S(=O)(=O)[O-])cc7F)c7ccc4[nH]7)C=C6)C=C5)cc3)cc2-c2ccccc2)cc1
REMARK SMILES IDX 22 1 21 2 19 3 20 4 18 6 17 7 16 8 15 9 12 10 13 11 14 13
REMARK SMILES IDX 11 15 9 16 10 17 98 18 97 19 8 20 5 21 6 22 106 23 7 24
REMARK SMILES IDX 105 25 2 26 3 27 4 28 1 29 99 32 100 33 104 34 101 35 103 36
REMARK SMILES IDX 102 37 23 38 24 39 25 40 26 41 27 42 28 43 29 44 30 46 31 47
REMARK SMILES IDX 32 48 96 49 33 50 95 51 34 52 35 53 36 54 89 55 37 56 94 57
REMARK SMILES IDX 88 58 90 59 38 60 93 61 87 62 86 63 39 65 73 66 52 67 72 68
REMARK SMILES IDX 53 69 56 70 71 71 91 72 54 73 55 74 70 76 92 77 57 78 40 79
REMARK SMILES IDX 41 80 50 81 42 82 43 83 49 84 51 85 44 86 45 87 46 88 47 89
REMARK SMILES IDX 48 90 74 91 75 92 84 93 76 94 77 95 83 96 85 97 78 98 79 99
REMARK SMILES IDX 80 100 81 101 82 102 58 103 59 104 68 105 60 106 61 107
REMARK SMILES IDX 67 108 69 109 62 110 63 111 64 112 65 113 66 114
REMARK H PARENT 21 5 12 12 15 14 1 30 1 31 28 45 90 64 56 75
REMARK Flexibility Score: inf
ROOT
ATOM      1  C   UNL A   1      33.072  30.816  27.134  1.00  0.00     0.116 C 
ENDROOT
BRANCH   1   2
ATOM      2  N   UNL A   1      33.641  29.990  26.081  1.00  0.00    -0.356 N 
ATOM      3  C   UNL A   1      33.210  28.801  25.576  1.00  0.00     0.220 C 
ATOM      4  O   UNL A   1      33.945  28.193  24.795  1.00  0.00    -0.275 OA
ATOM      5  H   UNL A   1      34.463  30.345  25.672  1.00  0.00     0.163 HD
BRANCH   3   6
ATOM      6  C   UNL A   1      31.833  28.264  25.928  1.00  0.00     0.102 C 
BRANCH   6   7
ATOM      7  C   UNL A   1      31.847  26.934  26.681  1.00  0.00     0.031 C 
BRANCH   7   8
ATOM      8  C   UNL A   1      30.996  25.831  26.063  1.00  0.00     0.118 C 
BRANCH   8   9
ATOM      9  N   UNL A   1      29.762  26.280  25.439  1.00  0.00    -0.338 N 
ATOM     10  N   UNL A   1      30.190  26.012  23.106  1.00  0.00    -0.291 N 
ATOM     11  C   UNL A   1      29.391  26.358  24.139  1.00  0.00     0.320 C 
ATOM     12  H   UNL A   1      29.956  26.429  22.246  1.00  0.00     0.173 HD
ATOM     13  O   UNL A   1      28.300  26.888  23.902  1.00  0.00    -0.248 OA
ATOM     14  H   UNL A   1      29.073  26.581  26.074  1.00  0.00     0.165 HD
BRANCH  10  15
ATOM     15  C   UNL A   1      31.277  25.173  23.062  1.00  0.00     0.157 A 
ATOM     16  N   UNL A   1      32.356  23.364  23.161  1.00  0.00    -0.231 N 
ATOM     17  N   UNL A   1      31.232  23.906  22.653  1.00  0.00    -0.149 NA
ATOM     18  C   UNL A   1      33.280  24.338  23.501  1.00  0.00     0.076 A 
ATOM     19  C   UNL A   1      32.600  25.537  23.406  1.00  0.00     0.078 A 
BRANCH  16  20
ATOM     20  C   UNL A   1      32.430  21.970  23.411  1.00  0.00     0.065 A 
ATOM     21  C   UNL A   1      32.824  19.256  23.849  1.00  0.00     0.082 A 
ATOM     22  C   UNL A   1      33.047  20.154  24.893  1.00  0.00     0.024 A 
ATOM     23  C   UNL A   1      32.359  19.700  22.604  1.00  0.00     0.024 A 
ATOM     24  C   UNL A   1      32.841  21.511  24.673  1.00  0.00     0.030 A 
ATOM     25  C   UNL A   1      32.147  21.063  22.386  1.00  0.00     0.030 A 
BRANCH  21  26
ATOM     26  S   UNL A   1      33.164  17.545  24.105  1.00  0.00     0.238 S 
ATOM     27  O   UNL A   1      34.290  17.390  24.983  1.00  0.00    -0.207 OA
ATOM     28  O   UNL A   1      33.059  16.855  22.832  1.00  0.00    -0.207 OA
BRANCH  26  29
ATOM     29  N   UNL A   1      31.837  17.042  25.004  1.00  0.00    -0.225 NA
ATOM     30  H   UNL A   1      32.000  17.241  25.991  1.00  0.00     0.137 HD
ATOM     31  H   UNL A   1      31.702  16.039  24.878  1.00  0.00     0.137 HD
ENDBRANCH  26  29
ENDBRANCH  21  26
ENDBRANCH  16  20
BRANCH  18  32
ATOM     32  C   UNL A   1      34.625  23.980  23.934  1.00  0.00     0.000 A 
ATOM     33  C   UNL A   1      35.456  23.266  23.056  1.00  0.00     0.010 A 
ATOM     34  C   UNL A   1      34.984  24.100  25.277  1.00  0.00     0.010 A 
ATOM     35  C   UNL A   1      36.599  22.625  23.526  1.00  0.00     0.001 A 
ATOM     36  C   UNL A   1      36.117  23.433  25.750  1.00  0.00     0.001 A 
ATOM     37  C   UNL A   1      36.920  22.696  24.879  1.00  0.00     0.000 A 
ENDBRANCH  18  32
ENDBRANCH  10  15
ENDBRANCH   8   9
ENDBRANCH   7   8
ENDBRANCH   6   7
ENDBRANCH   3   6
ENDBRANCH   1   2
BRANCH   1  38
ATOM     38  C   UNL A   1      34.130  31.153  28.181  1.00  0.00     0.021 C 
BRANCH  38  39
ATOM     39  C   UNL A   1      35.260  32.060  27.694  1.00  0.00     0.002 C 
BRANCH  39  40
ATOM     40  C   UNL A   1      35.347  33.421  28.393  1.00  0.00     0.002 C 
BRANCH  40  41
ATOM     41  C   UNL A   1      34.015  34.031  28.849  1.00  0.00     0.021 C 
BRANCH  41  42
ATOM     42  C   UNL A   1      34.149  35.418  29.466  1.00  0.00     0.116 C 
BRANCH  42  43
ATOM     43  N   UNL A   1      33.500  35.495  30.773  1.00  0.00    -0.352 N 
ATOM     44  C   UNL A   1      33.660  34.666  31.862  1.00  0.00     0.251 C 
ATOM     45  H   UNL A   1      32.865  36.238  30.891  1.00  0.00     0.163 HD
ATOM     46  O   UNL A   1      32.800  34.628  32.736  1.00  0.00    -0.269 OA
BRANCH  44  47
ATOM     47  C   UNL A   1      34.868  33.827  31.959  1.00  0.00     0.039 A 
ATOM     48  C   UNL A   1      34.785  32.445  31.773  1.00  0.00     0.014 A 
ATOM     49  C   UNL A   1      36.095  34.429  32.239  1.00  0.00     0.014 A 
ATOM     50  C   UNL A   1      35.957  31.692  31.794  1.00  0.00     0.010 A 
ATOM     51  C   UNL A   1      37.264  33.705  32.140  1.00  0.00     0.010 A 
ATOM     52  C   UNL A   1      37.201  32.330  31.952  1.00  0.00    -0.014 A 
BRANCH  52  53
ATOM     53  C   UNL A   1      38.433  31.558  31.811  1.00  0.00     0.031 A 
ATOM     54  C   UNL A   1      39.141  31.277  33.093  1.00  0.00     0.074 A 
ATOM     55  C   UNL A   1      38.866  30.984  30.668  1.00  0.00     0.049 A 
ATOM     56  N   UNL A   1      40.237  31.806  33.522  1.00  0.00    -0.248 NA
ATOM     57  C   UNL A   1      38.478  30.403  34.072  1.00  0.00     0.031 C 
ATOM     58  C   UNL A   1      38.186  30.857  29.374  1.00  0.00     0.029 A 
ATOM     59  N   UNL A   1      40.038  30.323  30.452  1.00  0.00    -0.354 N 
ATOM     60  C   UNL A   1      40.522  31.181  34.734  1.00  0.00     0.074 A 
ATOM     61  C   UNL A   1      39.330  30.459  35.097  1.00  0.00     0.031 C 
ATOM     62  C   UNL A   1      38.869  29.997  28.583  1.00  0.00     0.029 A 
ATOM     63  C   UNL A   1      40.118  29.655  29.238  1.00  0.00     0.049 A 
ATOM     64  H   UNL A   1      40.773  30.319  31.108  1.00  0.00     0.167 HD
ATOM     65  C   UNL A   1      41.790  31.147  35.234  1.00  0.00     0.037 A 
ATOM     66  C   UNL A   1      41.146  28.892  28.787  1.00  0.00     0.037 A 
ATOM     67  C   UNL A   1      42.639  32.105  34.570  1.00  0.00     0.049 A 
ATOM     68  C   UNL A   1      42.349  29.257  29.564  1.00  0.00     0.074 A 
ATOM     69  C   UNL A   1      42.624  33.479  34.419  1.00  0.00     0.029 A 
ATOM     70  N   UNL A   1      43.493  31.640  33.600  1.00  0.00    -0.354 N 
ATOM     71  N   UNL A   1      42.955  30.404  29.456  1.00  0.00    -0.248 NA
ATOM     72  C   UNL A   1      42.619  28.513  30.783  1.00  0.00     0.031 C 
ATOM     73  C   UNL A   1      43.055  33.709  33.079  1.00  0.00     0.029 A 
ATOM     74  C   UNL A   1      43.366  32.471  32.515  1.00  0.00     0.049 A 
ATOM     75  H   UNL A   1      44.084  30.856  33.669  1.00  0.00     0.167 HD
ATOM     76  C   UNL A   1      43.322  30.725  30.752  1.00  0.00     0.074 A 
ATOM     77  C   UNL A   1      43.173  29.486  31.511  1.00  0.00     0.031 C 
ATOM     78  C   UNL A   1      43.451  32.025  31.144  1.00  0.00     0.037 A 
BRANCH  65  79
ATOM     79  C   UNL A   1      42.356  30.026  36.078  1.00  0.00     0.058 A 
ATOM     80  C   UNL A   1      43.223  30.332  37.148  1.00  0.00     0.135 A 
ATOM     81  C   UNL A   1      42.304  28.662  35.714  1.00  0.00     0.135 A 
ATOM     82  F   UNL A   1      43.360  31.596  37.579  1.00  0.00    -0.206 F 
ATOM     83  C   UNL A   1      44.033  29.372  37.757  1.00  0.00     0.059 A 
ATOM     84  C   UNL A   1      43.061  27.679  36.343  1.00  0.00     0.059 A 
ATOM     85  F   UNL A   1      41.592  28.228  34.666  1.00  0.00    -0.206 F 
ATOM     86  C   UNL A   1      43.955  28.048  37.334  1.00  0.00     0.060 A 
BRANCH  86  87
ATOM     87  S   UNL A   1      45.073  26.825  38.040  1.00  0.00     0.124 S 
ATOM     88  O   UNL A   1      46.292  27.608  38.206  1.00  0.00    -0.237 OA
ATOM     89  O   UNL A   1      44.378  26.453  39.268  1.00  0.00    -0.237 OA
ATOM     90  O   UNL A   1      45.123  25.787  37.016  1.00  0.00    -0.744 OA
ENDBRANCH  86  87
ENDBRANCH  65  79
BRANCH  66  91
ATOM     91  C   UNL A   1      41.035  27.558  28.162  1.00  0.00     0.058 A 
ATOM     92  C   UNL A   1      41.953  27.082  27.214  1.00  0.00     0.135 A 
ATOM     93  C   UNL A   1      40.184  26.608  28.751  1.00  0.00     0.135 A 
ATOM     94  F   UNL A   1      42.863  27.914  26.686  1.00  0.00    -0.206 F 
ATOM     95  C   UNL A   1      41.986  25.737  26.828  1.00  0.00     0.059 A 
ATOM     96  C   UNL A   1      40.226  25.260  28.410  1.00  0.00     0.059 A 
ATOM     97  F   UNL A   1      39.347  26.968  29.738  1.00  0.00    -0.206 F 
ATOM     98  C   UNL A   1      41.112  24.831  27.430  1.00  0.00     0.060 A 
BRANCH  98  99
ATOM     99  S   UNL A   1      41.102  23.099  26.911  1.00  0.00     0.124 S 
ATOM    100  O   UNL A   1      39.675  22.812  26.807  1.00  0.00    -0.237 OA
ATOM    101  O   UNL A   1      41.838  23.155  25.655  1.00  0.00    -0.237 OA
ATOM    102  O   UNL A   1      41.782  22.410  28.007  1.00  0.00    -0.744 OA
ENDBRANCH  98  99
ENDBRANCH  66  91
BRANCH  78 103
ATOM    103  C   UNL A   1      43.468  33.086  30.074  1.00  0.00     0.058 A 
ATOM    104  C   UNL A   1      44.590  33.417  29.290  1.00  0.00     0.135 A 
ATOM    105  C   UNL A   1      42.255  33.705  29.746  1.00  0.00     0.135 A 
ATOM    106  F   UNL A   1      45.767  32.806  29.478  1.00  0.00    -0.206 F 
ATOM    107  C   UNL A   1      44.512  34.346  28.250  1.00  0.00     0.059 A 
ATOM    108  C   UNL A   1      42.147  34.611  28.695  1.00  0.00     0.059 A 
ATOM    109  F   UNL A   1      41.136  33.392  30.423  1.00  0.00    -0.206 F 
ATOM    110  C   UNL A   1      43.282  34.937  27.958  1.00  0.00     0.060 A 
BRANCH 110 111
ATOM    111  S   UNL A   1      43.160  36.079  26.564  1.00  0.00     0.124 S 
ATOM    112  O   UNL A   1      44.467  36.728  26.583  1.00  0.00    -0.237 OA
ATOM    113  O   UNL A   1      42.914  35.183  25.439  1.00  0.00    -0.237 OA
ATOM    114  O   UNL A   1      42.033  36.937  26.924  1.00  0.00    -0.744 OA
ENDBRANCH 110 111
ENDBRANCH  78 103
ENDBRANCH  52  53
ENDBRANCH  44  47
ENDBRANCH  42  43
ENDBRANCH  41  42
ENDBRANCH  40  41
ENDBRANCH  39  40
ENDBRANCH  38  39
ENDBRANCH   1  38
TORSDOF 24
ENDMDL
MODEL 2
REMARK VINA RESULT:     -10.8      1.846      6.798
REMARK SMILES NS(=O)(=O)c1ccc(-n2nc(NC(=O)NCCCC(=O)NCCCCCCNC(=O)c3ccc(-c4c5nc(c(-c6c(F)cc(S(=O)(=O)[O-])cc6F)c6ccc([nH]6)c(-c6c(F)cc(S(=O)(=O)[O-])cc6F)c6nc(c(-c7c(F)cc(S(=O)(=O)[O-])cc7F)c7ccc4[nH]7)C=C6)C=C5)cc3)cc2-c2ccccc2)cc1
REMARK SMILES IDX 22 1 21 2 19 3 20 4 18 6 17 7 16 8 15 9 12 10 13 11 14 13
REMARK SMILES IDX 11 15 9 16 10 17 98 18 97 19 8 20 5 21 6 22 106 23 7 24
REMARK SMILES IDX 105 25 2 26 3 27 4 28 1 29 99 32 100 33 104 34 101 35 103 36
REMARK SMILES IDX 102 37 23 38 24 39 25 40 26 41 27 42 28 43 29 44 30 46 31 47
REMARK SMILES IDX 32 48 96 49 33 50 95 51 34 52 35 53 36 54 89 55 37 56 94 57
REMARK SMILES IDX 88 58 90 59 38 60 93 61 87 62 86 63 39 65 73 66 52 67 72 68
REMARK SMILES IDX 53 69 56 70 71 71 91 72 54 73 55 74 70 76 92 77 57 78 40 79
REMARK SMILES IDX 41 80 50 81 42 82 43 83 49 84 51 85 44 86 45 87 46 88 47 89
REMARK SMILES IDX 48 90 74 91 75 92 84 93 76 94 77 95 83 96 85 97 78 98 79 99
REMARK SMILES IDX 80 100 81 101 82 102 58 103 59 104 68 105 60 106 61 107
REMARK SMILES IDX 67 108 69 109 62 110 63 111 64 112 65 113 66 114
REMARK H PARENT 21 5 12 12 15 14 1 30 1 31 28 45 90 64 56 75
REMARK Flexibility Score: inf
ROOT
ATOM      1  C   UNL A   1      32.871  30.824  26.962  1.00  0.00     0.116 C 
ENDROOT
BRANCH   1   2
ATOM      2  N   UNL A   1      33.544  30.054  25.929  1.00  0.00    -0.356 N 
ATOM      3  C   UNL A   1      33.230  28.838  25.403  1.00  0.00     0.220 C 
ATOM      4  O   UNL A   1      34.041  28.297  24.649  1.00  0.00    -0.275 OA
ATOM      5  H   UNL A   1      34.350  30.476  25.553  1.00  0.00     0.163 HD
BRANCH   3   6
ATOM      6  C   UNL A   1      31.888  28.191  25.700  1.00  0.00     0.102 C 
BRANCH   6   7
ATOM      7  C   UNL A   1      31.975  26.900  26.514  1.00  0.00     0.031 C 
BRANCH   7   8
ATOM      8  C   UNL A   1      31.009  25.800  26.090  1.00  0.00     0.118 C 
BRANCH   8   9
ATOM      9  N   UNL A   1      29.791  26.264  25.444  1.00  0.00    -0.338 N 
ATOM     10  N   UNL A   1      30.266  26.009  23.118  1.00  0.00    -0.291 N 
ATOM     11  C   UNL A   1      29.448  26.353  24.137  1.00  0.00     0.320 C 
ATOM     12  H   UNL A   1      30.053  26.434  22.257  1.00  0.00     0.173 HD
ATOM     13  O   UNL A   1      28.366  26.894  23.882  1.00  0.00    -0.248 OA
ATOM     14  H   UNL A   1      29.092  26.566  26.067  1.00  0.00     0.165 HD
BRANCH  10  15
ATOM     15  C   UNL A   1      31.347  25.161  23.090  1.00  0.00     0.157 A 
ATOM     16  N   UNL A   1      32.430  23.367  23.314  1.00  0.00    -0.231 N 
ATOM     17  N   UNL A   1      31.272  23.857  22.830  1.00  0.00    -0.149 NA
ATOM     18  C   UNL A   1      33.377  24.364  23.476  1.00  0.00     0.076 A 
ATOM     19  C   UNL A   1      32.691  25.551  23.297  1.00  0.00     0.078 A 
BRANCH  16  20
ATOM     20  C   UNL A   1      32.523  22.008  23.712  1.00  0.00     0.065 A 
ATOM     21  C   UNL A   1      32.952  19.363  24.442  1.00  0.00     0.082 A 
ATOM     22  C   UNL A   1      33.137  20.370  25.390  1.00  0.00     0.024 A 
ATOM     23  C   UNL A   1      32.506  19.664  23.149  1.00  0.00     0.024 A 
ATOM     24  C   UNL A   1      32.914  21.693  25.023  1.00  0.00     0.030 A 
ATOM     25  C   UNL A   1      32.277  20.992  22.783  1.00  0.00     0.030 A 
BRANCH  21  26
ATOM     26  S   UNL A   1      33.315  17.696  24.886  1.00  0.00     0.238 S 
ATOM     27  O   UNL A   1      32.605  17.336  26.081  1.00  0.00    -0.207 OA
ATOM     28  O   UNL A   1      34.740  17.471  24.720  1.00  0.00    -0.207 OA
BRANCH  26  29
ATOM     29  N   UNL A   1      32.573  16.823  23.657  1.00  0.00    -0.225 NA
ATOM     30  H   UNL A   1      31.606  17.133  23.557  1.00  0.00     0.137 HD
ATOM     31  H   UNL A   1      32.589  15.830  23.888  1.00  0.00     0.137 HD
ENDBRANCH  26  29
ENDBRANCH  21  26
ENDBRANCH  16  20
BRANCH  18  32
ATOM     32  C   UNL A   1      34.749  24.046  23.849  1.00  0.00     0.000 A 
ATOM     33  C   UNL A   1      35.498  23.192  23.024  1.00  0.00     0.010 A 
ATOM     34  C   UNL A   1      35.219  24.357  25.126  1.00  0.00     0.010 A 
ATOM     35  C   UNL A   1      36.670  22.603  23.493  1.00  0.00     0.001 A 
ATOM     36  C   UNL A   1      36.380  23.744  25.602  1.00  0.00     0.001 A 
ATOM     37  C   UNL A   1      37.101  22.868  24.789  1.00  0.00     0.000 A 
ENDBRANCH  18  32
ENDBRANCH  10  15
ENDBRANCH   8   9
ENDBRANCH   7   8
ENDBRANCH   6   7
ENDBRANCH   3   6
ENDBRANCH   1   2
BRANCH   1  38
ATOM     38  C   UNL A   1      33.840  31.173  28.088  1.00  0.00     0.021 C 
BRANCH  38  39
ATOM     39  C   UNL A   1      35.043  32.020  27.671  1.00  0.00     0.002 C 
BRANCH  39  40
ATOM     40  C   UNL A   1      34.968  33.497  28.076  1.00  0.00     0.002 C 
BRANCH  40  41
ATOM     41  C   UNL A   1      33.637  33.963  28.681  1.00  0.00     0.021 C 
BRANCH  41  42
ATOM     42  C   UNL A   1      33.722  35.300  29.407  1.00  0.00     0.116 C 
BRANCH  42  43
ATOM     43  N   UNL A   1      33.243  35.202  30.783  1.00  0.00    -0.352 N 
ATOM     44  C   UNL A   1      33.723  34.414  31.806  1.00  0.00     0.251 C 
ATOM     45  H   UNL A   1      32.476  35.775  31.010  1.00  0.00     0.163 HD
ATOM     46  O   UNL A   1      33.012  34.161  32.773  1.00  0.00    -0.269 OA
BRANCH  44  47
ATOM     47  C   UNL A   1      35.093  33.875  31.721  1.00  0.00     0.039 A 
ATOM     48  C   UNL A   1      35.304  32.502  31.571  1.00  0.00     0.014 A 
ATOM     49  C   UNL A   1      36.175  34.752  31.791  1.00  0.00     0.014 A 
ATOM     50  C   UNL A   1      36.607  32.035  31.414  1.00  0.00     0.010 A 
ATOM     51  C   UNL A   1      37.450  34.306  31.517  1.00  0.00     0.010 A 
ATOM     52  C   UNL A   1      37.680  32.945  31.361  1.00  0.00    -0.014 A 
BRANCH  52  53
ATOM     53  C   UNL A   1      39.021  32.465  31.036  1.00  0.00     0.031 A 
ATOM     54  C   UNL A   1      39.064  31.099  30.440  1.00  0.00     0.074 A 
ATOM     55  C   UNL A   1      40.148  33.205  31.097  1.00  0.00     0.049 A 
ATOM     56  N   UNL A   1      39.467  30.007  30.999  1.00  0.00    -0.248 NA
ATOM     57  C   UNL A   1      38.463  30.903  29.112  1.00  0.00     0.031 C 
ATOM     58  C   UNL A   1      40.306  34.642  31.345  1.00  0.00     0.029 A 
ATOM     59  N   UNL A   1      41.432  32.798  30.886  1.00  0.00    -0.354 N 
ATOM     60  C   UNL A   1      39.370  29.014  30.026  1.00  0.00     0.074 A 
ATOM     61  C   UNL A   1      38.596  29.584  28.953  1.00  0.00     0.031 C 
ATOM     62  C   UNL A   1      41.579  35.014  31.072  1.00  0.00     0.029 A 
ATOM     63  C   UNL A   1      42.365  33.823  30.808  1.00  0.00     0.049 A 
ATOM     64  H   UNL A   1      41.678  31.849  30.795  1.00  0.00     0.167 HD
ATOM     65  C   UNL A   1      40.111  27.873  30.100  1.00  0.00     0.037 A 
ATOM     66  C   UNL A   1      43.695  33.704  30.567  1.00  0.00     0.037 A 
ATOM     67  C   UNL A   1      40.667  27.697  31.419  1.00  0.00     0.049 A 
ATOM     68  C   UNL A   1      44.082  32.310  30.865  1.00  0.00     0.074 A 
ATOM     69  C   UNL A   1      40.136  27.558  32.689  1.00  0.00     0.029 A 
ATOM     70  N   UNL A   1      41.986  28.029  31.609  1.00  0.00    -0.354 N 
ATOM     71  N   UNL A   1      44.103  31.810  32.067  1.00  0.00    -0.248 NA
ATOM     72  C   UNL A   1      44.021  31.343  29.781  1.00  0.00     0.031 C 
ATOM     73  C   UNL A   1      41.011  28.298  33.538  1.00  0.00     0.029 A 
ATOM     74  C   UNL A   1      42.053  28.787  32.750  1.00  0.00     0.049 A 
ATOM     75  H   UNL A   1      42.741  27.771  31.033  1.00  0.00     0.167 HD
ATOM     76  C   UNL A   1      43.621  30.520  31.915  1.00  0.00     0.074 A 
ATOM     77  C   UNL A   1      43.675  30.259  30.478  1.00  0.00     0.031 C 
ATOM     78  C   UNL A   1      42.970  29.889  32.933  1.00  0.00     0.037 A 
BRANCH  65  79
ATOM     79  C   UNL A   1      40.620  27.094  28.907  1.00  0.00     0.058 A 
ATOM     80  C   UNL A   1      40.072  25.825  28.622  1.00  0.00     0.135 A 
ATOM     81  C   UNL A   1      41.801  27.414  28.202  1.00  0.00     0.135 A 
ATOM     82  F   UNL A   1      38.954  25.407  29.236  1.00  0.00    -0.206 F 
ATOM     83  C   UNL A   1      40.692  24.915  27.763  1.00  0.00     0.059 A 
ATOM     84  C   UNL A   1      42.406  26.546  27.299  1.00  0.00     0.059 A 
ATOM     85  F   UNL A   1      42.482  28.545  28.425  1.00  0.00    -0.206 F 
ATOM     86  C   UNL A   1      41.870  25.281  27.118  1.00  0.00     0.060 A 
BRANCH  86  87
ATOM     87  S   UNL A   1      42.731  24.076  26.092  1.00  0.00     0.124 S 
ATOM     88  O   UNL A   1      41.776  22.975  26.076  1.00  0.00    -0.237 OA
ATOM     89  O   UNL A   1      42.891  24.805  24.839  1.00  0.00    -0.237 OA
ATOM     90  O   UNL A   1      43.966  23.831  26.831  1.00  0.00    -0.744 OA
ENDBRANCH  86  87
ENDBRANCH  65  79
BRANCH  66  91
ATOM     91  C   UNL A   1      44.486  34.513  29.617  1.00  0.00     0.058 A 
ATOM     92  C   UNL A   1      44.109  34.702  28.279  1.00  0.00     0.135 A 
ATOM     93  C   UNL A   1      45.468  35.381  30.126  1.00  0.00     0.135 A 
ATOM     94  F   UNL A   1      43.108  33.978  27.757  1.00  0.00    -0.206 F 
ATOM     95  C   UNL A   1      44.717  35.669  27.469  1.00  0.00     0.059 A 
ATOM     96  C   UNL A   1      46.057  36.373  29.350  1.00  0.00     0.059 A 
ATOM     97  F   UNL A   1      45.810  35.329  31.424  1.00  0.00    -0.206 F 
ATOM     98  C   UNL A   1      45.697  36.499  28.014  1.00  0.00     0.060 A 
BRANCH  98  99
ATOM     99  S   UNL A   1      46.532  37.720  26.975  1.00  0.00     0.124 S 
ATOM    100  O   UNL A   1      45.434  38.593  26.573  1.00  0.00    -0.237 OA
ATOM    101  O   UNL A   1      47.501  38.294  27.900  1.00  0.00    -0.237 OA
ATOM    102  O   UNL A   1      47.099  36.917  25.892  1.00  0.00    -0.744 OA
ENDBRANCH  98  99
ENDBRANCH  66  91
BRANCH  78 103
ATOM    103  C   UNL A   1      43.041  30.506  34.306  1.00  0.00     0.058 A 
ATOM    104  C   UNL A   1      42.177  31.512  34.778  1.00  0.00     0.135 A 
ATOM    105  C   UNL A   1      43.947  29.959  35.224  1.00  0.00     0.135 A 
ATOM    106  F   UNL A   1      41.221  32.026  33.992  1.00  0.00    -0.206 F 
ATOM    107  C   UNL A   1      42.238  31.974  36.095  1.00  0.00     0.059 A 
ATOM    108  C   UNL A   1      44.005  30.383  36.548  1.00  0.00     0.059 A 
ATOM    109  F   UNL A   1      44.763  28.959  34.848  1.00  0.00    -0.206 F 
ATOM    110  C   UNL A   1      43.155  31.400  36.975  1.00  0.00     0.060 A 
BRANCH 110 111
ATOM    111  S   UNL A   1      43.183  31.940  38.699  1.00  0.00     0.124 S 
ATOM    112  O   UNL A   1      43.747  33.281  38.592  1.00  0.00    -0.237 OA
ATOM    113  O   UNL A   1      41.774  31.872  39.076  1.00  0.00    -0.237 OA
ATOM    114  O   UNL A   1      44.040  30.952  39.351  1.00  0.00    -0.744 OA
ENDBRANCH 110 111
ENDBRANCH  78 103
ENDBRANCH  52  53
ENDBRANCH  44  47
ENDBRANCH  42  43
ENDBRANCH  41  42
ENDBRANCH  40  41
ENDBRANCH  39  40
ENDBRANCH  38  39
ENDBRANCH   1  38
TORSDOF 24
ENDMDL
MODEL 3
REMARK VINA RESULT:     -10.5      2.514      7.348
REMARK SMILES NS(=O)(=O)c1ccc(-n2nc(NC(=O)NCCCC(=O)NCCCCCCNC(=O)c3ccc(-c4c5nc(c(-c6c(F)cc(S(=O)(=O)[O-])cc6F)c6ccc([nH]6)c(-c6c(F)cc(S(=O)(=O)[O-])cc6F)c6nc(c(-c7c(F)cc(S(=O)(=O)[O-])cc7F)c7ccc4[nH]7)C=C6)C=C5)cc3)cc2-c2ccccc2)cc1
REMARK SMILES IDX 22 1 21 2 19 3 20 4 18 6 17 7 16 8 15 9 12 10 13 11 14 13
REMARK SMILES IDX 11 15 9 16 10 17 98 18 97 19 8 20 5 21 6 22 106 23 7 24
REMARK SMILES IDX 105 25 2 26 3 27 4 28 1 29 99 32 100 33 104 34 101 35 103 36
REMARK SMILES IDX 102 37 23 38 24 39 25 40 26 41 27 42 28 43 29 44 30 46 31 47
REMARK SMILES IDX 32 48 96 49 33 50 95 51 34 52 35 53 36 54 89 55 37 56 94 57
REMARK SMILES IDX 88 58 90 59 38 60 93 61 87 62 86 63 39 65 73 66 52 67 72 68
REMARK SMILES IDX 53 69 56 70 71 71 91 72 54 73 55 74 70 76 92 77 57 78 40 79
REMARK SMILES IDX 41 80 50 81 42 82 43 83 49 84 51 85 44 86 45 87 46 88 47 89
REMARK SMILES IDX 48 90 74 91 75 92 84 93 76 94 77 95 83 96 85 97 78 98 79 99
REMARK SMILES IDX 80 100 81 101 82 102 58 103 59 104 68 105 60 106 61 107
REMARK SMILES IDX 67 108 69 109 62 110 63 111 64 112 65 113 66 114
REMARK H PARENT 21 5 12 12 15 14 1 30 1 31 28 45 90 64 56 75
REMARK Flexibility Score: inf
ROOT
ATOM      1  C   UNL A   1      32.990  30.791  27.073  1.00  0.00     0.116 C 
ENDROOT
BRANCH   1   2
ATOM      2  N   UNL A   1      33.476  30.045  25.924  1.00  0.00    -0.356 N 
ATOM      3  C   UNL A   1      33.041  28.864  25.402  1.00  0.00     0.220 C 
ATOM      4  O   UNL A   1      33.713  28.330  24.518  1.00  0.00    -0.275 OA
ATOM      5  H   UNL A   1      34.235  30.456  25.451  1.00  0.00     0.163 HD
BRANCH   3   6
ATOM      6  C   UNL A   1      31.731  28.251  25.865  1.00  0.00     0.102 C 
BRANCH   6   7
ATOM      7  C   UNL A   1      31.887  26.960  26.669  1.00  0.00     0.031 C 
BRANCH   7   8
ATOM      8  C   UNL A   1      31.107  25.764  26.133  1.00  0.00     0.118 C 
BRANCH   8   9
ATOM      9  N   UNL A   1      29.777  26.070  25.630  1.00  0.00    -0.338 N 
ATOM     10  N   UNL A   1      29.983  25.736  23.276  1.00  0.00    -0.291 N 
ATOM     11  C   UNL A   1      29.266  26.054  24.376  1.00  0.00     0.320 C 
ATOM     12  H   UNL A   1      29.621  26.090  22.432  1.00  0.00     0.173 HD
ATOM     13  O   UNL A   1      28.111  26.472  24.241  1.00  0.00    -0.248 OA
ATOM     14  H   UNL A   1      29.133  26.336  26.326  1.00  0.00     0.165 HD
BRANCH  10  15
ATOM     15  C   UNL A   1      31.134  24.999  23.144  1.00  0.00     0.157 A 
ATOM     16  N   UNL A   1      32.381  23.298  23.172  1.00  0.00    -0.231 N 
ATOM     17  N   UNL A   1      31.169  23.723  22.761  1.00  0.00    -0.149 NA
ATOM     18  C   UNL A   1      33.238  24.360  23.408  1.00  0.00     0.076 A 
ATOM     19  C   UNL A   1      32.444  25.489  23.359  1.00  0.00     0.078 A 
BRANCH  16  20
ATOM     20  C   UNL A   1      32.607  21.923  23.435  1.00  0.00     0.065 A 
ATOM     21  C   UNL A   1      32.811  19.220  24.038  1.00  0.00     0.082 A 
ATOM     22  C   UNL A   1      32.282  19.605  22.807  1.00  0.00     0.024 A 
ATOM     23  C   UNL A   1      33.285  20.173  24.948  1.00  0.00     0.024 A 
ATOM     24  C   UNL A   1      32.188  20.959  22.505  1.00  0.00     0.030 A 
ATOM     25  C   UNL A   1      33.195  21.533  24.642  1.00  0.00     0.030 A 
BRANCH  21  26
ATOM     26  S   UNL A   1      32.854  17.506  24.452  1.00  0.00     0.238 S 
ATOM     27  O   UNL A   1      33.123  16.721  23.281  1.00  0.00    -0.207 OA
ATOM     28  O   UNL A   1      31.753  17.220  25.354  1.00  0.00    -0.207 OA
BRANCH  26  29
ATOM     29  N   UNL A   1      34.245  17.392  25.386  1.00  0.00    -0.225 NA
ATOM     30  H   UNL A   1      33.988  17.293  26.368  1.00  0.00     0.137 HD
ATOM     31  H   UNL A   1      34.806  18.236  25.265  1.00  0.00     0.137 HD
ENDBRANCH  26  29
ENDBRANCH  21  26
ENDBRANCH  16  20
BRANCH  18  32
ATOM     32  C   UNL A   1      34.644  24.136  23.720  1.00  0.00     0.000 A 
ATOM     33  C   UNL A   1      35.429  23.389  22.828  1.00  0.00     0.010 A 
ATOM     34  C   UNL A   1      35.133  24.419  24.996  1.00  0.00     0.010 A 
ATOM     35  C   UNL A   1      36.661  22.875  23.226  1.00  0.00     0.001 A 
ATOM     36  C   UNL A   1      36.355  23.880  25.401  1.00  0.00     0.001 A 
ATOM     37  C   UNL A   1      37.115  23.108  24.521  1.00  0.00     0.000 A 
ENDBRANCH  18  32
ENDBRANCH  10  15
ENDBRANCH   8   9
ENDBRANCH   7   8
ENDBRANCH   6   7
ENDBRANCH   3   6
ENDBRANCH   1   2
BRANCH   1  38
ATOM     38  C   UNL A   1      34.068  30.882  28.149  1.00  0.00     0.021 C 
BRANCH  38  39
ATOM     39  C   UNL A   1      35.484  30.548  27.679  1.00  0.00     0.002 C 
BRANCH  39  40
ATOM     40  C   UNL A   1      36.514  31.666  27.875  1.00  0.00     0.002 C 
BRANCH  40  41
ATOM     41  C   UNL A   1      35.953  33.032  28.296  1.00  0.00     0.021 C 
BRANCH  41  42
ATOM     42  C   UNL A   1      36.549  33.573  29.590  1.00  0.00     0.116 C 
BRANCH  42  43
ATOM     43  N   UNL A   1      35.803  33.119  30.762  1.00  0.00    -0.352 N 
ATOM     44  C   UNL A   1      36.032  32.014  31.552  1.00  0.00     0.251 C 
ATOM     45  H   UNL A   1      35.035  33.678  31.021  1.00  0.00     0.163 HD
ATOM     46  O   UNL A   1      35.132  31.563  32.252  1.00  0.00    -0.269 OA
BRANCH  44  47
ATOM     47  C   UNL A   1      37.364  31.381  31.539  1.00  0.00     0.039 A 
ATOM     48  C   UNL A   1      37.611  30.274  30.725  1.00  0.00     0.014 A 
ATOM     49  C   UNL A   1      38.372  31.900  32.350  1.00  0.00     0.014 A 
ATOM     50  C   UNL A   1      38.900  29.748  30.677  1.00  0.00     0.010 A 
ATOM     51  C   UNL A   1      39.671  31.459  32.213  1.00  0.00     0.010 A 
ATOM     52  C   UNL A   1      39.938  30.361  31.404  1.00  0.00    -0.014 A 
BRANCH  52  53
ATOM     53  C   UNL A   1      41.314  29.906  31.225  1.00  0.00     0.031 A 
ATOM     54  C   UNL A   1      42.148  30.779  30.350  1.00  0.00     0.074 A 
ATOM     55  C   UNL A   1      41.889  28.881  31.890  1.00  0.00     0.049 A 
ATOM     56  N   UNL A   1      42.552  30.537  29.148  1.00  0.00    -0.248 NA
ATOM     57  C   UNL A   1      42.455  32.138  30.819  1.00  0.00     0.031 C 
ATOM     58  C   UNL A   1      41.369  28.093  33.013  1.00  0.00     0.029 A 
ATOM     59  N   UNL A   1      43.135  28.359  31.714  1.00  0.00    -0.354 N 
ATOM     60  C   UNL A   1      43.344  31.622  28.777  1.00  0.00     0.074 A 
ATOM     61  C   UNL A   1      43.110  32.639  29.770  1.00  0.00     0.031 C 
ATOM     62  C   UNL A   1      42.363  27.338  33.538  1.00  0.00     0.029 A 
ATOM     63  C   UNL A   1      43.532  27.451  32.685  1.00  0.00     0.049 A 
ATOM     64  H   UNL A   1      43.710  28.608  30.954  1.00  0.00     0.167 HD
ATOM     65  C   UNL A   1      44.283  31.513  27.795  1.00  0.00     0.037 A 
ATOM     66  C   UNL A   1      44.727  26.814  32.774  1.00  0.00     0.037 A 
ATOM     67  C   UNL A   1      44.077  30.322  27.008  1.00  0.00     0.049 A 
ATOM     68  C   UNL A   1      45.364  26.868  31.443  1.00  0.00     0.074 A 
ATOM     69  C   UNL A   1      43.048  29.841  26.220  1.00  0.00     0.029 A 
ATOM     70  N   UNL A   1      44.877  29.236  27.267  1.00  0.00    -0.354 N 
ATOM     71  N   UNL A   1      44.923  26.215  30.406  1.00  0.00    -0.248 NA
ATOM     72  C   UNL A   1      46.233  27.997  31.153  1.00  0.00     0.031 C 
ATOM     73  C   UNL A   1      43.011  28.438  26.475  1.00  0.00     0.029 A 
ATOM     74  C   UNL A   1      44.056  28.139  27.349  1.00  0.00     0.049 A 
ATOM     75  H   UNL A   1      45.855  29.244  27.376  1.00  0.00     0.167 HD
ATOM     76  C   UNL A   1      45.090  27.090  29.347  1.00  0.00     0.074 A 
ATOM     77  C   UNL A   1      45.983  28.132  29.848  1.00  0.00     0.031 C 
ATOM     78  C   UNL A   1      44.276  27.035  28.254  1.00  0.00     0.037 A 
BRANCH  65  79
ATOM     79  C   UNL A   1      45.582  32.287  27.752  1.00  0.00     0.058 A 
ATOM     80  C   UNL A   1      45.874  33.090  26.629  1.00  0.00     0.135 A 
ATOM     81  C   UNL A   1      46.664  32.060  28.631  1.00  0.00     0.135 A 
ATOM     82  F   UNL A   1      44.926  33.369  25.720  1.00  0.00    -0.206 F 
ATOM     83  C   UNL A   1      47.159  33.565  26.360  1.00  0.00     0.059 A 
ATOM     84  C   UNL A   1      47.939  32.570  28.412  1.00  0.00     0.059 A 
ATOM     85  F   UNL A   1      46.564  31.253  29.694  1.00  0.00    -0.206 F 
ATOM     86  C   UNL A   1      48.190  33.285  27.251  1.00  0.00     0.060 A 
BRANCH  86  87
ATOM     87  S   UNL A   1      49.869  33.803  26.857  1.00  0.00     0.124 S 
ATOM     88  O   UNL A   1      50.025  33.277  25.506  1.00  0.00    -0.237 OA
ATOM     89  O   UNL A   1      49.773  35.254  26.973  1.00  0.00    -0.237 OA
ATOM     90  O   UNL A   1      50.671  33.149  27.887  1.00  0.00    -0.744 OA
ENDBRANCH  86  87
ENDBRANCH  65  79
BRANCH  66  91
ATOM     91  C   UNL A   1      45.551  26.669  33.992  1.00  0.00     0.058 A 
ATOM     92  C   UNL A   1      45.946  27.761  34.778  1.00  0.00     0.135 A 
ATOM     93  C   UNL A   1      45.682  25.394  34.569  1.00  0.00     0.135 A 
ATOM     94  F   UNL A   1      45.755  29.012  34.333  1.00  0.00    -0.206 F 
ATOM     95  C   UNL A   1      46.498  27.593  36.054  1.00  0.00     0.059 A 
ATOM     96  C   UNL A   1      46.192  25.207  35.849  1.00  0.00     0.059 A 
ATOM     97  F   UNL A   1      45.233  24.309  33.919  1.00  0.00    -0.206 F 
ATOM     98  C   UNL A   1      46.621  26.307  36.581  1.00  0.00     0.060 A 
BRANCH  98  99
ATOM     99  S   UNL A   1      47.378  26.060  38.205  1.00  0.00     0.124 S 
ATOM    100  O   UNL A   1      48.245  27.227  38.326  1.00  0.00    -0.237 OA
ATOM    101  O   UNL A   1      46.213  26.033  39.080  1.00  0.00    -0.237 OA
ATOM    102  O   UNL A   1      48.085  24.788  38.063  1.00  0.00    -0.744 OA
ENDBRANCH  98  99
ENDBRANCH  66  91
BRANCH  78 103
ATOM    103  C   UNL A   1      43.387  25.828  28.098  1.00  0.00     0.058 A 
ATOM    104  C   UNL A   1      42.090  25.713  28.634  1.00  0.00     0.135 A 
ATOM    105  C   UNL A   1      43.825  24.796  27.258  1.00  0.00     0.135 A 
ATOM    106  F   UNL A   1      41.559  26.697  29.374  1.00  0.00    -0.206 F 
ATOM    107  C   UNL A   1      41.282  24.604  28.372  1.00  0.00     0.059 A 
ATOM    108  C   UNL A   1      43.026  23.697  26.959  1.00  0.00     0.059 A 
ATOM    109  F   UNL A   1      45.033  24.872  26.674  1.00  0.00    -0.206 F 
ATOM    110  C   UNL A   1      41.759  23.601  27.529  1.00  0.00     0.060 A 
BRANCH 110 111
ATOM    111  S   UNL A   1      40.688  22.203  27.125  1.00  0.00     0.124 S 
ATOM    112  O   UNL A   1      40.828  21.356  28.304  1.00  0.00    -0.237 OA
ATOM    113  O   UNL A   1      39.386  22.840  26.953  1.00  0.00    -0.237 OA
ATOM    114  O   UNL A   1      41.275  21.668  25.898  1.00  0.00    -0.744 OA
ENDBRANCH 110 111
ENDBRANCH  78 103
ENDBRANCH  52  53
ENDBRANCH  44  47
ENDBRANCH  42  43
ENDBRANCH  41  42
ENDBRANCH  40  41
ENDBRANCH  39  40
ENDBRANCH  38  39
ENDBRANCH   1  38
TORSDOF 24
ENDMDL
