MODEL 1
REMARK VINA RESULT:     -11.8      0.000      0.000
REMARK SMILES Cc1nc2scc(-c3cccs3)c2c(=O)n1CC(=O)NCCCCCCNC(=O)c1ccc(-c2c3nc(c(-c4c(F)cc(S(=O)(=O)[O-])cc4F)c4ccc([nH]4)c(-c4c(F)cc(S(=O)(=O)[O-])cc4F)c4nc(c(-c5c(F)cc(S(=O)(=O)[O-])cc5F)c5ccc2[nH]5)C=C4)C=C3)cc1
REMARK SMILES IDX 24 1 23 2 22 3 21 4 20 5 18 6 19 7 17 9 16 10 1 11 2 12 3 13
REMARK SMILES IDX 4 14 14 15 5 16 13 17 15 18 6 19 7 20 8 21 9 22 12 23 10 24
REMARK SMILES IDX 11 25 25 26 26 27 27 28 28 29 29 31 30 32 31 33 95 34 32 35
REMARK SMILES IDX 94 36 33 37 34 38 35 39 88 40 36 41 93 42 87 43 89 44 37 45
REMARK SMILES IDX 92 46 86 47 85 48 38 50 72 51 51 52 71 53 52 54 55 55 70 56
REMARK SMILES IDX 90 57 53 58 54 59 69 61 91 62 56 63 39 64 40 65 49 66 41 67
REMARK SMILES IDX 42 68 48 69 50 70 43 71 44 72 45 73 46 74 47 75 73 76 74 77
REMARK SMILES IDX 83 78 75 79 76 80 82 81 84 82 77 83 78 84 79 85 80 86 81 87
REMARK SMILES IDX 57 88 58 89 67 90 59 91 60 92 66 93 68 94 61 95 62 96 63 97
REMARK SMILES IDX 64 98 65 99
REMARK H PARENT 20 8 27 30 89 49 55 60
REMARK Flexibility Score: inf
ROOT
ATOM      1  C   UNL A   1      39.104  22.560  26.552  1.00  0.00     0.002 C 
ENDROOT
BRANCH   1   2
ATOM      2  C   UNL A   1      38.102  22.377  25.399  1.00  0.00     0.002 C 
BRANCH   2   3
ATOM      3  C   UNL A   1      37.731  20.929  25.074  1.00  0.00     0.021 C 
BRANCH   3   4
ATOM      4  C   UNL A   1      36.240  20.642  25.190  1.00  0.00     0.116 C 
BRANCH   4   5
ATOM      5  N   UNL A   1      35.598  21.423  26.223  1.00  0.00    -0.355 N 
ATOM      6  C   UNL A   1      34.854  22.561  26.128  1.00  0.00     0.240 C 
ATOM      7  O   UNL A   1      34.136  22.840  27.095  1.00  0.00    -0.273 OA
ATOM      8  H   UNL A   1      35.716  21.079  27.137  1.00  0.00     0.163 HD
BRANCH   6   9
ATOM      9  C   UNL A   1      34.738  23.352  24.815  1.00  0.00     0.227 C 
BRANCH   9  10
ATOM     10  N   UNL A   1      33.406  23.890  24.537  1.00  0.00    -0.287 N 
ATOM     11  C   UNL A   1      32.571  21.679  23.699  1.00  0.00     0.088 C 
ATOM     12  C   UNL A   1      32.366  23.153  23.984  1.00  0.00     0.110 A 
ATOM     13  N   UNL A   1      31.201  23.643  23.697  1.00  0.00    -0.224 NA
ATOM     14  C   UNL A   1      31.008  24.940  24.037  1.00  0.00     0.131 A 
ATOM     15  C   UNL A   1      33.218  25.218  24.957  1.00  0.00     0.263 A 
ATOM     16  S   UNL A   1      29.501  25.697  23.787  1.00  0.00    -0.123 S 
ATOM     17  C   UNL A   1      31.915  25.775  24.651  1.00  0.00     0.085 A 
ATOM     18  O   UNL A   1      34.096  25.839  25.550  1.00  0.00    -0.268 OA
ATOM     19  C   UNL A   1      30.012  27.115  24.597  1.00  0.00     0.077 A 
ATOM     20  C   UNL A   1      31.340  27.047  24.974  1.00  0.00     0.017 A 
BRANCH  20  21
ATOM     21  C   UNL A   1      32.010  28.186  25.683  1.00  0.00     0.036 A 
ATOM     22  C   UNL A   1      31.884  28.461  27.029  1.00  0.00     0.020 A 
ATOM     23  S   UNL A   1      33.032  29.312  24.902  1.00  0.00    -0.144 S 
ATOM     24  C   UNL A   1      32.601  29.634  27.409  1.00  0.00     0.012 A 
ATOM     25  C   UNL A   1      33.231  30.223  26.336  1.00  0.00     0.065 A 
ENDBRANCH  20  21
ENDBRANCH   9  10
ENDBRANCH   6   9
ENDBRANCH   4   5
ENDBRANCH   3   4
ENDBRANCH   2   3
ENDBRANCH   1   2
BRANCH   1  26
ATOM     26  C   UNL A   1      40.194  21.484  26.682  1.00  0.00     0.021 C 
BRANCH  26  27
ATOM     27  C   UNL A   1      41.487  22.030  27.251  1.00  0.00     0.116 C 
BRANCH  27  28
ATOM     28  N   UNL A   1      42.516  22.216  26.219  1.00  0.00    -0.352 N 
ATOM     29  C   UNL A   1      42.877  23.383  25.558  1.00  0.00     0.251 C 
ATOM     30  H   UNL A   1      43.017  21.408  25.965  1.00  0.00     0.163 HD
ATOM     31  O   UNL A   1      43.507  23.356  24.518  1.00  0.00    -0.269 OA
BRANCH  29  32
ATOM     32  C   UNL A   1      42.495  24.658  26.190  1.00  0.00     0.039 A 
ATOM     33  C   UNL A   1      41.392  25.427  25.807  1.00  0.00     0.014 A 
ATOM     34  C   UNL A   1      43.291  25.039  27.258  1.00  0.00     0.014 A 
ATOM     35  C   UNL A   1      41.119  26.586  26.536  1.00  0.00     0.010 A 
ATOM     36  C   UNL A   1      42.806  25.927  28.157  1.00  0.00     0.010 A 
ATOM     37  C   UNL A   1      41.858  26.824  27.699  1.00  0.00    -0.014 A 
BRANCH  37  38
ATOM     38  C   UNL A   1      41.773  28.024  28.512  1.00  0.00     0.031 A 
ATOM     39  C   UNL A   1      42.849  29.016  28.257  1.00  0.00     0.074 A 
ATOM     40  C   UNL A   1      40.599  28.308  29.127  1.00  0.00     0.049 A 
ATOM     41  N   UNL A   1      43.744  29.452  29.078  1.00  0.00    -0.248 NA
ATOM     42  C   UNL A   1      43.057  29.461  26.865  1.00  0.00     0.031 C 
ATOM     43  C   UNL A   1      39.337  27.541  29.117  1.00  0.00     0.029 A 
ATOM     44  N   UNL A   1      40.239  29.432  29.799  1.00  0.00    -0.354 N 
ATOM     45  C   UNL A   1      44.490  30.387  28.364  1.00  0.00     0.074 A 
ATOM     46  C   UNL A   1      44.171  30.185  26.977  1.00  0.00     0.031 C 
ATOM     47  C   UNL A   1      38.318  28.319  29.548  1.00  0.00     0.029 A 
ATOM     48  C   UNL A   1      38.867  29.571  30.022  1.00  0.00     0.049 A 
ATOM     49  H   UNL A   1      40.896  30.099  30.106  1.00  0.00     0.167 HD
ATOM     50  C   UNL A   1      45.142  31.413  28.981  1.00  0.00     0.037 A 
ATOM     51  C   UNL A   1      38.259  30.678  30.527  1.00  0.00     0.037 A 
ATOM     52  C   UNL A   1      45.200  31.202  30.406  1.00  0.00     0.049 A 
ATOM     53  C   UNL A   1      39.333  31.471  31.191  1.00  0.00     0.074 A 
ATOM     54  C   UNL A   1      45.805  30.259  31.212  1.00  0.00     0.029 A 
ATOM     55  N   UNL A   1      44.209  31.771  31.172  1.00  0.00    -0.354 N 
ATOM     56  N   UNL A   1      40.010  31.043  32.226  1.00  0.00    -0.248 NA
ATOM     57  C   UNL A   1      40.001  32.482  30.386  1.00  0.00     0.031 C 
ATOM     58  C   UNL A   1      44.845  29.970  32.227  1.00  0.00     0.029 A 
ATOM     59  C   UNL A   1      43.746  30.811  32.041  1.00  0.00     0.049 A 
ATOM     60  H   UNL A   1      43.889  32.700  31.109  1.00  0.00     0.167 HD
ATOM     61  C   UNL A   1      41.325  31.423  31.985  1.00  0.00     0.074 A 
ATOM     62  C   UNL A   1      41.246  32.347  30.853  1.00  0.00     0.031 C 
ATOM     63  C   UNL A   1      42.379  30.734  32.520  1.00  0.00     0.037 A 
BRANCH  50  64
ATOM     64  C   UNL A   1      45.456  32.740  28.339  1.00  0.00     0.058 A 
ATOM     65  C   UNL A   1      46.797  33.122  28.144  1.00  0.00     0.135 A 
ATOM     66  C   UNL A   1      44.497  33.753  28.112  1.00  0.00     0.135 A 
ATOM     67  F   UNL A   1      47.794  32.245  28.346  1.00  0.00    -0.206 F 
ATOM     68  C   UNL A   1      47.161  34.424  27.792  1.00  0.00     0.059 A 
ATOM     69  C   UNL A   1      44.832  35.040  27.704  1.00  0.00     0.059 A 
ATOM     70  F   UNL A   1      43.194  33.572  28.365  1.00  0.00    -0.206 F 
ATOM     71  C   UNL A   1      46.169  35.378  27.581  1.00  0.00     0.060 A 
BRANCH  71  72
ATOM     72  S   UNL A   1      46.640  37.077  27.211  1.00  0.00     0.124 S 
ATOM     73  O   UNL A   1      47.768  37.273  28.115  1.00  0.00    -0.237 OA
ATOM     74  O   UNL A   1      46.964  36.998  25.791  1.00  0.00    -0.237 OA
ATOM     75  O   UNL A   1      45.436  37.839  27.531  1.00  0.00    -0.744 OA
ENDBRANCH  71  72
ENDBRANCH  50  64
BRANCH  51  76
ATOM     76  C   UNL A   1      36.958  31.279  30.115  1.00  0.00     0.058 A 
ATOM     77  C   UNL A   1      36.105  31.899  31.047  1.00  0.00     0.135 A 
ATOM     78  C   UNL A   1      36.667  31.523  28.756  1.00  0.00     0.135 A 
ATOM     79  F   UNL A   1      36.316  31.736  32.362  1.00  0.00    -0.206 F 
ATOM     80  C   UNL A   1      35.063  32.754  30.659  1.00  0.00     0.059 A 
ATOM     81  C   UNL A   1      35.633  32.365  28.346  1.00  0.00     0.059 A 
ATOM     82  F   UNL A   1      37.444  31.021  27.784  1.00  0.00    -0.206 F 
ATOM     83  C   UNL A   1      34.852  33.002  29.303  1.00  0.00     0.060 A 
BRANCH  83  84
ATOM     84  S   UNL A   1      33.644  34.254  28.797  1.00  0.00     0.124 S 
ATOM     85  O   UNL A   1      34.494  35.260  28.171  1.00  0.00    -0.237 OA
ATOM     86  O   UNL A   1      32.780  33.499  27.896  1.00  0.00    -0.237 OA
ATOM     87  O   UNL A   1      33.025  34.652  30.060  1.00  0.00    -0.744 OA
ENDBRANCH  83  84
ENDBRANCH  51  76
BRANCH  63  88
ATOM     88  C   UNL A   1      42.081  29.661  33.548  1.00  0.00     0.058 A 
ATOM     89  C   UNL A   1      41.911  28.294  33.252  1.00  0.00     0.135 A 
ATOM     90  C   UNL A   1      42.141  30.004  34.905  1.00  0.00     0.135 A 
ATOM     91  F   UNL A   1      41.944  27.857  31.988  1.00  0.00    -0.206 F 
ATOM     92  C   UNL A   1      41.771  27.324  34.248  1.00  0.00     0.059 A 
ATOM     93  C   UNL A   1      42.034  29.051  35.918  1.00  0.00     0.059 A 
ATOM     94  F   UNL A   1      42.367  31.277  35.264  1.00  0.00    -0.206 F 
ATOM     95  C   UNL A   1      41.835  27.714  35.583  1.00  0.00     0.060 A 
BRANCH  95  96
ATOM     96  S   UNL A   1      41.710  26.457  36.874  1.00  0.00     0.124 S 
ATOM     97  O   UNL A   1      41.719  25.219  36.101  1.00  0.00    -0.237 OA
ATOM     98  O   UNL A   1      42.902  26.709  37.679  1.00  0.00    -0.237 OA
ATOM     99  O   UNL A   1      40.445  26.770  37.534  1.00  0.00    -0.744 OA
ENDBRANCH  95  96
ENDBRANCH  63  88
ENDBRANCH  37  38
ENDBRANCH  29  32
ENDBRANCH  27  28
ENDBRANCH  26  27
ENDBRANCH   1  26
TORSDOF 18
ENDMDL
MODEL 2
REMARK VINA RESULT:     -11.1      2.977      9.306
REMARK SMILES Cc1nc2scc(-c3cccs3)c2c(=O)n1CC(=O)NCCCCCCNC(=O)c1ccc(-c2c3nc(c(-c4c(F)cc(S(=O)(=O)[O-])cc4F)c4ccc([nH]4)c(-c4c(F)cc(S(=O)(=O)[O-])cc4F)c4nc(c(-c5c(F)cc(S(=O)(=O)[O-])cc5F)c5ccc2[nH]5)C=C4)C=C3)cc1
REMARK SMILES IDX 24 1 23 2 22 3 21 4 20 5 18 6 19 7 17 9 16 10 1 11 2 12 3 13
REMARK SMILES IDX 4 14 14 15 5 16 13 17 15 18 6 19 7 20 8 21 9 22 12 23 10 24
REMARK SMILES IDX 11 25 25 26 26 27 27 28 28 29 29 31 30 32 31 33 95 34 32 35
REMARK SMILES IDX 94 36 33 37 34 38 35 39 88 40 36 41 93 42 87 43 89 44 37 45
REMARK SMILES IDX 92 46 86 47 85 48 38 50 72 51 51 52 71 53 52 54 55 55 70 56
REMARK SMILES IDX 90 57 53 58 54 59 69 61 91 62 56 63 39 64 40 65 49 66 41 67
REMARK SMILES IDX 42 68 48 69 50 70 43 71 44 72 45 73 46 74 47 75 73 76 74 77
REMARK SMILES IDX 83 78 75 79 76 80 82 81 84 82 77 83 78 84 79 85 80 86 81 87
REMARK SMILES IDX 57 88 58 89 67 90 59 91 60 92 66 93 68 94 61 95 62 96 63 97
REMARK SMILES IDX 64 98 65 99
REMARK H PARENT 20 8 27 30 89 49 55 60
REMARK Flexibility Score: inf
ROOT
ATOM      1  C   UNL A   1      36.484  31.928  28.081  1.00  0.00     0.002 C 
ENDROOT
BRANCH   1   2
ATOM      2  C   UNL A   1      35.902  30.504  28.055  1.00  0.00     0.002 C 
BRANCH   2   3
ATOM      3  C   UNL A   1      34.611  30.335  27.250  1.00  0.00     0.021 C 
BRANCH   3   4
ATOM      4  C   UNL A   1      34.455  28.952  26.632  1.00  0.00     0.116 C 
BRANCH   4   5
ATOM      5  N   UNL A   1      33.991  28.998  25.264  1.00  0.00    -0.355 N 
ATOM      6  C   UNL A   1      32.882  28.448  24.695  1.00  0.00     0.240 C 
ATOM      7  O   UNL A   1      32.527  28.910  23.605  1.00  0.00    -0.273 OA
ATOM      8  H   UNL A   1      34.566  29.506  24.647  1.00  0.00     0.163 HD
BRANCH   6   9
ATOM      9  C   UNL A   1      31.984  27.456  25.452  1.00  0.00     0.227 C 
BRANCH   9  10
ATOM     10  N   UNL A   1      31.785  26.171  24.781  1.00  0.00    -0.287 N 
ATOM     11  C   UNL A   1      29.548  26.865  23.885  1.00  0.00     0.088 C 
ATOM     12  C   UNL A   1      30.646  25.835  24.060  1.00  0.00     0.110 A 
ATOM     13  N   UNL A   1      30.453  24.680  23.504  1.00  0.00    -0.224 NA
ATOM     14  C   UNL A   1      31.480  23.802  23.599  1.00  0.00     0.131 A 
ATOM     15  C   UNL A   1      32.892  25.306  24.844  1.00  0.00     0.263 A 
ATOM     16  S   UNL A   1      31.398  22.272  22.853  1.00  0.00    -0.123 S 
ATOM     17  C   UNL A   1      32.693  24.015  24.217  1.00  0.00     0.085 A 
ATOM     18  O   UNL A   1      33.944  25.642  25.382  1.00  0.00    -0.268 OA
ATOM     19  C   UNL A   1      33.023  21.921  23.256  1.00  0.00     0.077 A 
ATOM     20  C   UNL A   1      33.593  22.917  24.024  1.00  0.00     0.017 A 
BRANCH  20  21
ATOM     21  C   UNL A   1      35.008  22.815  24.511  1.00  0.00     0.036 A 
ATOM     22  C   UNL A   1      36.128  22.977  23.722  1.00  0.00     0.020 A 
ATOM     23  S   UNL A   1      35.424  22.478  26.135  1.00  0.00    -0.144 S 
ATOM     24  C   UNL A   1      37.337  22.778  24.452  1.00  0.00     0.012 A 
ATOM     25  C   UNL A   1      37.095  22.451  25.768  1.00  0.00     0.065 A 
ENDBRANCH  20  21
ENDBRANCH   9  10
ENDBRANCH   6   9
ENDBRANCH   4   5
ENDBRANCH   3   4
ENDBRANCH   2   3
ENDBRANCH   1   2
BRANCH   1  26
ATOM     26  C   UNL A   1      35.671  32.980  28.852  1.00  0.00     0.021 C 
BRANCH  26  27
ATOM     27  C   UNL A   1      34.623  32.362  29.754  1.00  0.00     0.116 C 
BRANCH  27  28
ATOM     28  N   UNL A   1      34.693  32.878  31.127  1.00  0.00    -0.352 N 
ATOM     29  C   UNL A   1      35.392  32.361  32.211  1.00  0.00     0.251 C 
ATOM     30  H   UNL A   1      34.177  33.698  31.302  1.00  0.00     0.163 HD
ATOM     31  O   UNL A   1      35.124  32.683  33.352  1.00  0.00    -0.269 OA
BRANCH  29  32
ATOM     32  C   UNL A   1      36.497  31.434  31.915  1.00  0.00     0.039 A 
ATOM     33  C   UNL A   1      36.330  30.074  31.634  1.00  0.00     0.014 A 
ATOM     34  C   UNL A   1      37.753  32.016  31.880  1.00  0.00     0.014 A 
ATOM     35  C   UNL A   1      37.466  29.328  31.315  1.00  0.00     0.010 A 
ATOM     36  C   UNL A   1      38.754  31.387  31.221  1.00  0.00     0.010 A 
ATOM     37  C   UNL A   1      38.674  30.009  31.136  1.00  0.00    -0.014 A 
BRANCH  37  38
ATOM     38  C   UNL A   1      39.961  29.379  30.904  1.00  0.00     0.031 A 
ATOM     39  C   UNL A   1      40.761  29.147  32.134  1.00  0.00     0.074 A 
ATOM     40  C   UNL A   1      40.172  28.748  29.723  1.00  0.00     0.049 A 
ATOM     41  N   UNL A   1      41.918  29.631  32.438  1.00  0.00    -0.248 NA
ATOM     42  C   UNL A   1      40.121  28.408  33.240  1.00  0.00     0.031 C 
ATOM     43  C   UNL A   1      39.260  28.611  28.570  1.00  0.00     0.029 A 
ATOM     44  N   UNL A   1      41.219  27.969  29.347  1.00  0.00    -0.354 N 
ATOM     45  C   UNL A   1      42.244  29.084  33.677  1.00  0.00     0.074 A 
ATOM     46  C   UNL A   1      41.028  28.533  34.209  1.00  0.00     0.031 C 
ATOM     47  C   UNL A   1      39.697  27.630  27.747  1.00  0.00     0.029 A 
ATOM     48  C   UNL A   1      40.993  27.187  28.212  1.00  0.00     0.049 A 
ATOM     49  H   UNL A   1      42.072  27.956  29.839  1.00  0.00     0.167 HD
ATOM     50  C   UNL A   1      43.538  28.919  34.074  1.00  0.00     0.037 A 
ATOM     51  C   UNL A   1      41.826  26.220  27.743  1.00  0.00     0.037 A 
ATOM     52  C   UNL A   1      44.437  29.645  33.212  1.00  0.00     0.049 A 
ATOM     53  C   UNL A   1      43.153  26.480  28.371  1.00  0.00     0.074 A 
ATOM     54  C   UNL A   1      44.634  30.983  32.941  1.00  0.00     0.029 A 
ATOM     55  N   UNL A   1      44.992  28.961  32.156  1.00  0.00    -0.354 N 
ATOM     56  N   UNL A   1      43.854  27.564  28.153  1.00  0.00    -0.248 NA
ATOM     57  C   UNL A   1      43.435  25.798  29.625  1.00  0.00     0.031 C 
ATOM     58  C   UNL A   1      44.846  31.046  31.531  1.00  0.00     0.029 A 
ATOM     59  C   UNL A   1      44.857  29.742  31.032  1.00  0.00     0.049 A 
ATOM     60  H   UNL A   1      45.412  28.072  32.197  1.00  0.00     0.167 HD
ATOM     61  C   UNL A   1      44.367  27.922  29.394  1.00  0.00     0.074 A 
ATOM     62  C   UNL A   1      44.109  26.767  30.255  1.00  0.00     0.031 C 
ATOM     63  C   UNL A   1      44.682  29.220  29.690  1.00  0.00     0.037 A 
BRANCH  50  64
ATOM     64  C   UNL A   1      44.009  27.868  35.047  1.00  0.00     0.058 A 
ATOM     65  C   UNL A   1      44.538  28.257  36.293  1.00  0.00     0.135 A 
ATOM     66  C   UNL A   1      44.175  26.504  34.716  1.00  0.00     0.135 A 
ATOM     67  F   UNL A   1      44.452  29.532  36.705  1.00  0.00    -0.206 F 
ATOM     68  C   UNL A   1      45.216  27.366  37.129  1.00  0.00     0.059 A 
ATOM     69  C   UNL A   1      44.795  25.587  35.558  1.00  0.00     0.059 A 
ATOM     70  F   UNL A   1      43.826  26.013  33.520  1.00  0.00    -0.206 F 
ATOM     71  C   UNL A   1      45.345  26.034  36.748  1.00  0.00     0.060 A 
BRANCH  71  72
ATOM     72  S   UNL A   1      46.293  24.904  37.783  1.00  0.00     0.124 S 
ATOM     73  O   UNL A   1      46.455  25.688  39.002  1.00  0.00    -0.237 OA
ATOM     74  O   UNL A   1      45.398  23.756  37.875  1.00  0.00    -0.237 OA
ATOM     75  O   UNL A   1      47.512  24.681  37.011  1.00  0.00    -0.744 OA
ENDBRANCH  71  72
ENDBRANCH  50  64
BRANCH  51  76
ATOM     76  C   UNL A   1      41.460  24.895  27.163  1.00  0.00     0.058 A 
ATOM     77  C   UNL A   1      42.257  24.277  26.181  1.00  0.00     0.135 A 
ATOM     78  C   UNL A   1      40.488  24.076  27.775  1.00  0.00     0.135 A 
ATOM     79  F   UNL A   1      43.217  24.975  25.558  1.00  0.00    -0.206 F 
ATOM     80  C   UNL A   1      42.137  22.915  25.865  1.00  0.00     0.059 A 
ATOM     81  C   UNL A   1      40.347  22.721  27.474  1.00  0.00     0.059 A 
ATOM     82  F   UNL A   1      39.708  24.550  28.757  1.00  0.00    -0.206 F 
ATOM     83  C   UNL A   1      41.195  22.138  26.539  1.00  0.00     0.060 A 
BRANCH  83  84
ATOM     84  S   UNL A   1      41.165  20.345  26.286  1.00  0.00     0.124 S 
ATOM     85  O   UNL A   1      39.836  20.140  25.721  1.00  0.00    -0.237 OA
ATOM     86  O   UNL A   1      42.284  20.145  25.371  1.00  0.00    -0.237 OA
ATOM     87  O   UNL A   1      41.363  19.812  27.632  1.00  0.00    -0.744 OA
ENDBRANCH  83  84
ENDBRANCH  51  76
BRANCH  63  88
ATOM     88  C   UNL A   1      44.646  30.237  28.567  1.00  0.00     0.058 A 
ATOM     89  C   UNL A   1      43.524  31.021  28.234  1.00  0.00     0.135 A 
ATOM     90  C   UNL A   1      45.846  30.553  27.916  1.00  0.00     0.135 A 
ATOM     91  F   UNL A   1      42.361  30.863  28.875  1.00  0.00    -0.206 F 
ATOM     92  C   UNL A   1      43.580  32.039  27.277  1.00  0.00     0.059 A 
ATOM     93  C   UNL A   1      45.935  31.583  26.980  1.00  0.00     0.059 A 
ATOM     94  F   UNL A   1      46.971  29.892  28.230  1.00  0.00    -0.206 F 
ATOM     95  C   UNL A   1      44.795  32.314  26.655  1.00  0.00     0.060 A 
BRANCH  95  96
ATOM     96  S   UNL A   1      44.886  33.665  25.460  1.00  0.00     0.124 S 
ATOM     97  O   UNL A   1      46.323  33.904  25.373  1.00  0.00    -0.237 OA
ATOM     98  O   UNL A   1      44.268  33.081  24.272  1.00  0.00    -0.237 OA
ATOM     99  O   UNL A   1      44.114  34.733  26.092  1.00  0.00    -0.744 OA
ENDBRANCH  95  96
ENDBRANCH  63  88
ENDBRANCH  37  38
ENDBRANCH  29  32
ENDBRANCH  27  28
ENDBRANCH  26  27
ENDBRANCH   1  26
TORSDOF 18
ENDMDL
MODEL 3
REMARK VINA RESULT:     -11.1      2.730      9.218
REMARK SMILES Cc1nc2scc(-c3cccs3)c2c(=O)n1CC(=O)NCCCCCCNC(=O)c1ccc(-c2c3nc(c(-c4c(F)cc(S(=O)(=O)[O-])cc4F)c4ccc([nH]4)c(-c4c(F)cc(S(=O)(=O)[O-])cc4F)c4nc(c(-c5c(F)cc(S(=O)(=O)[O-])cc5F)c5ccc2[nH]5)C=C4)C=C3)cc1
REMARK SMILES IDX 24 1 23 2 22 3 21 4 20 5 18 6 19 7 17 9 16 10 1 11 2 12 3 13
REMARK SMILES IDX 4 14 14 15 5 16 13 17 15 18 6 19 7 20 8 21 9 22 12 23 10 24
REMARK SMILES IDX 11 25 25 26 26 27 27 28 28 29 29 31 30 32 31 33 95 34 32 35
REMARK SMILES IDX 94 36 33 37 34 38 35 39 88 40 36 41 93 42 87 43 89 44 37 45
REMARK SMILES IDX 92 46 86 47 85 48 38 50 72 51 51 52 71 53 52 54 55 55 70 56
REMARK SMILES IDX 90 57 53 58 54 59 69 61 91 62 56 63 39 64 40 65 49 66 41 67
REMARK SMILES IDX 42 68 48 69 50 70 43 71 44 72 45 73 46 74 47 75 73 76 74 77
REMARK SMILES IDX 83 78 75 79 76 80 82 81 84 82 77 83 78 84 79 85 80 86 81 87
REMARK SMILES IDX 57 88 58 89 67 90 59 91 60 92 66 93 68 94 61 95 62 96 63 97
REMARK SMILES IDX 64 98 65 99
REMARK H PARENT 20 8 27 30 89 49 55 60
REMARK Flexibility Score: inf
ROOT
ATOM      1  C   UNL A   1      34.129  32.536  27.642  1.00  0.00     0.002 C 
ENDROOT
BRANCH   1   2
ATOM      2  C   UNL A   1      34.689  31.375  28.481  1.00  0.00     0.002 C 
BRANCH   2   3
ATOM      3  C   UNL A   1      35.614  30.410  27.734  1.00  0.00     0.021 C 
BRANCH   3   4
ATOM      4  C   UNL A   1      34.917  29.140  27.265  1.00  0.00     0.116 C 
BRANCH   4   5
ATOM      5  N   UNL A   1      33.531  29.079  27.670  1.00  0.00    -0.355 N 
ATOM      6  C   UNL A   1      32.409  28.848  26.931  1.00  0.00     0.240 C 
ATOM      7  O   UNL A   1      31.396  28.505  27.548  1.00  0.00    -0.273 OA
ATOM      8  H   UNL A   1      33.372  29.226  28.630  1.00  0.00     0.163 HD
BRANCH   6   9
ATOM      9  C   UNL A   1      32.442  28.804  25.395  1.00  0.00     0.227 C 
BRANCH   9  10
ATOM     10  N   UNL A   1      31.955  27.556  24.806  1.00  0.00    -0.287 N 
ATOM     11  C   UNL A   1      29.881  28.656  23.924  1.00  0.00     0.088 C 
ATOM     12  C   UNL A   1      30.746  27.428  24.134  1.00  0.00     0.110 A 
ATOM     13  N   UNL A   1      30.295  26.312  23.653  1.00  0.00    -0.224 NA
ATOM     14  C   UNL A   1      31.120  25.244  23.775  1.00  0.00     0.131 A 
ATOM     15  C   UNL A   1      32.858  26.482  24.895  1.00  0.00     0.263 A 
ATOM     16  S   UNL A   1      30.693  23.728  23.124  1.00  0.00    -0.123 S 
ATOM     17  C   UNL A   1      32.371  25.230  24.350  1.00  0.00     0.085 A 
ATOM     18  O   UNL A   1      33.976  26.617  25.386  1.00  0.00    -0.268 OA
ATOM     19  C   UNL A   1      32.222  23.065  23.508  1.00  0.00     0.077 A 
ATOM     20  C   UNL A   1      33.016  23.958  24.202  1.00  0.00     0.017 A 
BRANCH  20  21
ATOM     21  C   UNL A   1      34.395  23.587  24.660  1.00  0.00     0.036 A 
ATOM     22  C   UNL A   1      35.511  23.547  23.850  1.00  0.00     0.020 A 
ATOM     23  S   UNL A   1      34.768  23.156  26.272  1.00  0.00    -0.144 S 
ATOM     24  C   UNL A   1      36.673  23.114  24.555  1.00  0.00     0.012 A 
ATOM     25  C   UNL A   1      36.397  22.822  25.871  1.00  0.00     0.065 A 
ENDBRANCH  20  21
ENDBRANCH   9  10
ENDBRANCH   6   9
ENDBRANCH   4   5
ENDBRANCH   3   4
ENDBRANCH   2   3
ENDBRANCH   1   2
BRANCH   1  26
ATOM     26  C   UNL A   1      33.806  33.832  28.404  1.00  0.00     0.021 C 
BRANCH  26  27
ATOM     27  C   UNL A   1      35.039  34.484  28.993  1.00  0.00     0.116 C 
BRANCH  27  28
ATOM     28  N   UNL A   1      34.831  34.923  30.379  1.00  0.00    -0.352 N 
ATOM     29  C   UNL A   1      35.206  34.284  31.555  1.00  0.00     0.251 C 
ATOM     30  H   UNL A   1      34.367  35.784  30.490  1.00  0.00     0.163 HD
ATOM     31  O   UNL A   1      34.709  34.578  32.625  1.00  0.00    -0.269 OA
BRANCH  29  32
ATOM     32  C   UNL A   1      36.260  33.260  31.454  1.00  0.00     0.039 A 
ATOM     33  C   UNL A   1      36.019  31.883  31.421  1.00  0.00     0.014 A 
ATOM     34  C   UNL A   1      37.548  33.758  31.340  1.00  0.00     0.014 A 
ATOM     35  C   UNL A   1      37.114  31.031  31.265  1.00  0.00     0.010 A 
ATOM     36  C   UNL A   1      38.518  32.967  30.826  1.00  0.00     0.010 A 
ATOM     37  C   UNL A   1      38.361  31.602  30.991  1.00  0.00    -0.014 A 
BRANCH  37  38
ATOM     38  C   UNL A   1      39.613  30.872  30.903  1.00  0.00     0.031 A 
ATOM     39  C   UNL A   1      40.275  30.632  32.211  1.00  0.00     0.074 A 
ATOM     40  C   UNL A   1      39.883  30.181  29.768  1.00  0.00     0.049 A 
ATOM     41  N   UNL A   1      41.432  31.042  32.608  1.00  0.00    -0.248 NA
ATOM     42  C   UNL A   1      39.482  29.985  33.274  1.00  0.00     0.031 C 
ATOM     43  C   UNL A   1      39.074  30.065  28.539  1.00  0.00     0.029 A 
ATOM     44  N   UNL A   1      40.898  29.314  29.520  1.00  0.00    -0.354 N 
ATOM     45  C   UNL A   1      41.600  30.523  33.889  1.00  0.00     0.074 A 
ATOM     46  C   UNL A   1      40.301  30.082  34.320  1.00  0.00     0.031 C 
ATOM     47  C   UNL A   1      39.510  29.024  27.794  1.00  0.00     0.029 A 
ATOM     48  C   UNL A   1      40.721  28.507  28.394  1.00  0.00     0.049 A 
ATOM     49  H   UNL A   1      41.699  29.259  30.091  1.00  0.00     0.167 HD
ATOM     50  C   UNL A   1      42.835  30.280  34.413  1.00  0.00     0.037 A 
ATOM     51  C   UNL A   1      41.518  27.464  28.038  1.00  0.00     0.037 A 
ATOM     52  C   UNL A   1      43.863  30.905  33.618  1.00  0.00     0.049 A 
ATOM     53  C   UNL A   1      42.797  27.652  28.782  1.00  0.00     0.074 A 
ATOM     54  C   UNL A   1      44.184  32.214  33.323  1.00  0.00     0.029 A 
ATOM     55  N   UNL A   1      44.460  30.142  32.641  1.00  0.00    -0.354 N 
ATOM     56  N   UNL A   1      43.595  28.673  28.596  1.00  0.00    -0.248 NA
ATOM     57  C   UNL A   1      42.909  27.002  30.078  1.00  0.00     0.031 C 
ATOM     58  C   UNL A   1      44.530  32.206  31.938  1.00  0.00     0.029 A 
ATOM     59  C   UNL A   1      44.489  30.885  31.486  1.00  0.00     0.049 A 
ATOM     60  H   UNL A   1      44.805  29.226  32.751  1.00  0.00     0.167 HD
ATOM     61  C   UNL A   1      44.017  29.042  29.868  1.00  0.00     0.074 A 
ATOM     62  C   UNL A   1      43.592  27.944  30.737  1.00  0.00     0.031 C 
ATOM     63  C   UNL A   1      44.400  30.325  30.151  1.00  0.00     0.037 A 
BRANCH  50  64
ATOM     64  C   UNL A   1      43.134  29.238  35.460  1.00  0.00     0.058 A 
ATOM     65  C   UNL A   1      43.855  29.594  36.616  1.00  0.00     0.135 A 
ATOM     66  C   UNL A   1      42.938  27.851  35.271  1.00  0.00     0.135 A 
ATOM     67  F   UNL A   1      44.115  30.883  36.890  1.00  0.00    -0.206 F 
ATOM     68  C   UNL A   1      44.378  28.642  37.495  1.00  0.00     0.059 A 
ATOM     69  C   UNL A   1      43.399  26.889  36.163  1.00  0.00     0.059 A 
ATOM     70  F   UNL A   1      42.370  27.356  34.163  1.00  0.00    -0.206 F 
ATOM     71  C   UNL A   1      44.150  27.291  37.254  1.00  0.00     0.060 A 
BRANCH  71  72
ATOM     72  S   UNL A   1      44.897  26.060  38.338  1.00  0.00     0.124 S 
ATOM     73  O   UNL A   1      46.312  26.399  38.236  1.00  0.00    -0.237 OA
ATOM     74  O   UNL A   1      44.258  26.357  39.615  1.00  0.00    -0.237 OA
ATOM     75  O   UNL A   1      44.507  24.792  37.729  1.00  0.00    -0.744 OA
ENDBRANCH  71  72
ENDBRANCH  50  64
BRANCH  51  76
ATOM     76  C   UNL A   1      41.108  26.147  27.469  1.00  0.00     0.058 A 
ATOM     77  C   UNL A   1      41.876  25.502  26.483  1.00  0.00     0.135 A 
ATOM     78  C   UNL A   1      40.120  25.359  28.096  1.00  0.00     0.135 A 
ATOM     79  F   UNL A   1      42.848  26.169  25.845  1.00  0.00    -0.206 F 
ATOM     80  C   UNL A   1      41.713  24.142  26.175  1.00  0.00     0.059 A 
ATOM     81  C   UNL A   1      39.937  24.007  27.805  1.00  0.00     0.059 A 
ATOM     82  F   UNL A   1      39.364  25.860  29.085  1.00  0.00    -0.206 F 
ATOM     83  C   UNL A   1      40.757  23.396  26.864  1.00  0.00     0.060 A 
BRANCH  83  84
ATOM     84  S   UNL A   1      40.674  21.603  26.620  1.00  0.00     0.124 S 
ATOM     85  O   UNL A   1      39.376  21.445  25.973  1.00  0.00    -0.237 OA
ATOM     86  O   UNL A   1      41.840  21.353  25.780  1.00  0.00    -0.237 OA
ATOM     87  O   UNL A   1      40.765  21.075  27.980  1.00  0.00    -0.744 OA
ENDBRANCH  83  84
ENDBRANCH  51  76
BRANCH  63  88
ATOM     88  C   UNL A   1      44.545  31.296  28.997  1.00  0.00     0.058 A 
ATOM     89  C   UNL A   1      43.598  32.282  28.657  1.00  0.00     0.135 A 
ATOM     90  C   UNL A   1      45.769  31.344  28.316  1.00  0.00     0.135 A 
ATOM     91  F   UNL A   1      42.441  32.381  29.323  1.00  0.00    -0.206 F 
ATOM     92  C   UNL A   1      43.837  33.241  27.668  1.00  0.00     0.059 A 
ATOM     93  C   UNL A   1      46.043  32.309  27.347  1.00  0.00     0.059 A 
ATOM     94  F   UNL A   1      46.744  30.478  28.632  1.00  0.00    -0.206 F 
ATOM     95  C   UNL A   1      45.068  33.247  27.018  1.00  0.00     0.060 A 
BRANCH  95  96
ATOM     96  S   UNL A   1      45.403  34.518  25.779  1.00  0.00     0.124 S 
ATOM     97  O   UNL A   1      45.174  35.749  26.530  1.00  0.00    -0.237 OA
ATOM     98  O   UNL A   1      46.791  34.248  25.415  1.00  0.00    -0.237 OA
ATOM     99  O   UNL A   1      44.427  34.238  24.729  1.00  0.00    -0.744 OA
ENDBRANCH  95  96
ENDBRANCH  63  88
ENDBRANCH  37  38
ENDBRANCH  29  32
ENDBRANCH  27  28
ENDBRANCH  26  27
ENDBRANCH   1  26
TORSDOF 18
ENDMDL
