MODEL 1
REMARK VINA RESULT:     -11.9      0.000      0.000
REMARK SMILES O=C(NCCCCCCNC(=O)[C@H]1CCCCN1c1ccnc2ccccc12)c1ccc(-c2c3nc(c(-c4c(F)cc(S(=O)(=O)[O-])cc4F)c4ccc([nH]4)c(-c4c(F)cc(S(=O)(=O)[O-])cc4F)c4nc(c(-c5c(F)cc(S(=O)(=O)[O-])cc5F)c5ccc2[nH]5)C=C4)C=C3)cc1
REMARK SMILES IDX 5 1 4 2 3 3 1 4 2 5 29 7 30 8 94 9 31 10 93 11 32 12 33 13
REMARK SMILES IDX 34 14 87 15 35 16 92 17 86 18 88 19 36 20 91 21 85 22 84 23
REMARK SMILES IDX 37 25 71 26 50 27 70 28 51 29 54 30 69 31 89 32 52 33 53 34
REMARK SMILES IDX 68 36 90 37 55 38 38 39 39 40 48 41 40 42 41 43 47 44 49 45
REMARK SMILES IDX 42 46 43 47 44 48 45 49 46 50 72 51 73 52 82 53 74 54 75 55
REMARK SMILES IDX 81 56 83 57 76 58 77 59 78 60 79 61 80 62 56 63 57 64 66 65
REMARK SMILES IDX 58 66 59 67 65 68 67 69 60 70 61 71 62 72 63 73 64 74 6 75
REMARK SMILES IDX 7 76 8 77 9 78 10 79 11 80 12 82 13 83 14 84 18 85 15 86
REMARK SMILES IDX 17 87 16 88 19 89 20 90 28 91 21 92 23 93 27 94 22 95 24 96
REMARK SMILES IDX 26 97 25 98
REMARK H PARENT 3 6 88 24 54 35 10 81
REMARK Flexibility Score: inf
ROOT
ATOM      1  C   UNL A   1      41.531  21.909  26.850  1.00  0.00     0.021 C 
ENDROOT
BRANCH   1   2
ATOM      2  C   UNL A   1      42.285  23.216  27.061  1.00  0.00     0.116 C 
BRANCH   2   3
ATOM      3  N   UNL A   1      42.239  24.097  25.909  1.00  0.00    -0.352 N 
ATOM      4  O   UNL A   1      41.870  26.009  24.776  1.00  0.00    -0.269 OA
ATOM      5  C   UNL A   1      41.983  25.449  25.856  1.00  0.00     0.251 C 
ATOM      6  H   UNL A   1      42.418  23.667  25.041  1.00  0.00     0.163 HD
BRANCH   5   7
ATOM      7  C   UNL A   1      41.808  26.212  27.115  1.00  0.00     0.039 A 
ATOM      8  C   UNL A   1      40.784  25.895  28.012  1.00  0.00     0.014 A 
ATOM      9  C   UNL A   1      42.681  27.266  27.394  1.00  0.00     0.014 A 
ATOM     10  C   UNL A   1      40.541  26.725  29.102  1.00  0.00     0.010 A 
ATOM     11  C   UNL A   1      42.486  28.048  28.537  1.00  0.00     0.010 A 
ATOM     12  C   UNL A   1      41.390  27.809  29.380  1.00  0.00    -0.014 A 
BRANCH  12  13
ATOM     13  C   UNL A   1      41.127  28.656  30.573  1.00  0.00     0.031 A 
ATOM     14  C   UNL A   1      41.999  28.568  31.798  1.00  0.00     0.074 A 
ATOM     15  C   UNL A   1      40.109  29.538  30.533  1.00  0.00     0.049 A 
ATOM     16  N   UNL A   1      41.935  29.260  32.907  1.00  0.00    -0.248 NA
ATOM     17  C   UNL A   1      43.079  27.569  31.780  1.00  0.00     0.031 C 
ATOM     18  C   UNL A   1      39.185  29.704  29.408  1.00  0.00     0.029 A 
ATOM     19  N   UNL A   1      39.690  30.471  31.446  1.00  0.00    -0.354 N 
ATOM     20  C   UNL A   1      42.940  28.764  33.729  1.00  0.00     0.074 A 
ATOM     21  C   UNL A   1      43.590  27.698  32.997  1.00  0.00     0.031 C 
ATOM     22  C   UNL A   1      38.345  30.715  29.674  1.00  0.00     0.029 A 
ATOM     23  C   UNL A   1      38.632  31.231  31.008  1.00  0.00     0.049 A 
ATOM     24  H   UNL A   1      40.108  30.587  32.330  1.00  0.00     0.167 HD
ATOM     25  C   UNL A   1      43.292  29.164  34.976  1.00  0.00     0.037 A 
ATOM     26  C   UNL A   1      37.962  32.230  31.612  1.00  0.00     0.037 A 
ATOM     27  C   UNL A   1      42.656  30.244  35.688  1.00  0.00     0.049 A 
ATOM     28  C   UNL A   1      38.378  32.662  32.989  1.00  0.00     0.074 A 
ATOM     29  C   UNL A   1      42.966  30.753  36.938  1.00  0.00     0.029 A 
ATOM     30  N   UNL A   1      41.578  30.980  35.216  1.00  0.00    -0.354 N 
ATOM     31  N   UNL A   1      39.353  32.202  33.735  1.00  0.00    -0.248 NA
ATOM     32  C   UNL A   1      37.603  33.746  33.605  1.00  0.00     0.031 C 
ATOM     33  C   UNL A   1      42.054  31.771  37.237  1.00  0.00     0.029 A 
ATOM     34  C   UNL A   1      41.203  31.928  36.155  1.00  0.00     0.049 A 
ATOM     35  H   UNL A   1      41.144  30.848  34.343  1.00  0.00     0.167 HD
ATOM     36  C   UNL A   1      39.327  32.959  34.901  1.00  0.00     0.074 A 
ATOM     37  C   UNL A   1      38.245  33.912  34.754  1.00  0.00     0.031 C 
ATOM     38  C   UNL A   1      40.128  32.875  35.991  1.00  0.00     0.037 A 
BRANCH  25  39
ATOM     39  C   UNL A   1      44.404  28.417  35.662  1.00  0.00     0.058 A 
ATOM     40  C   UNL A   1      44.157  27.307  36.483  1.00  0.00     0.135 A 
ATOM     41  C   UNL A   1      45.741  28.802  35.469  1.00  0.00     0.135 A 
ATOM     42  F   UNL A   1      42.897  26.903  36.713  1.00  0.00    -0.206 F 
ATOM     43  C   UNL A   1      45.191  26.624  37.116  1.00  0.00     0.059 A 
ATOM     44  C   UNL A   1      46.794  28.119  36.073  1.00  0.00     0.059 A 
ATOM     45  F   UNL A   1      46.037  29.855  34.691  1.00  0.00    -0.206 F 
ATOM     46  C   UNL A   1      46.507  27.041  36.909  1.00  0.00     0.060 A 
BRANCH  46  47
ATOM     47  S   UNL A   1      47.839  26.155  37.748  1.00  0.00     0.124 S 
ATOM     48  O   UNL A   1      48.337  25.298  36.676  1.00  0.00    -0.237 OA
ATOM     49  O   UNL A   1      48.727  27.239  38.156  1.00  0.00    -0.237 OA
ATOM     50  O   UNL A   1      47.154  25.466  38.838  1.00  0.00    -0.744 OA
ENDBRANCH  46  47
ENDBRANCH  25  39
BRANCH  26  51
ATOM     51  C   UNL A   1      36.844  32.903  30.900  1.00  0.00     0.058 A 
ATOM     52  C   UNL A   1      35.510  32.589  31.197  1.00  0.00     0.135 A 
ATOM     53  C   UNL A   1      37.086  33.895  29.938  1.00  0.00     0.135 A 
ATOM     54  F   UNL A   1      35.229  31.646  32.108  1.00  0.00    -0.206 F 
ATOM     55  C   UNL A   1      34.453  33.229  30.558  1.00  0.00     0.059 A 
ATOM     56  C   UNL A   1      36.047  34.567  29.303  1.00  0.00     0.059 A 
ATOM     57  F   UNL A   1      38.347  34.243  29.633  1.00  0.00    -0.206 F 
ATOM     58  C   UNL A   1      34.733  34.220  29.615  1.00  0.00     0.060 A 
BRANCH  58  59
ATOM     59  S   UNL A   1      33.355  35.088  28.835  1.00  0.00     0.124 S 
ATOM     60  O   UNL A   1      32.776  34.035  28.008  1.00  0.00    -0.237 OA
ATOM     61  O   UNL A   1      32.562  35.506  29.987  1.00  0.00    -0.237 OA
ATOM     62  O   UNL A   1      34.012  36.173  28.111  1.00  0.00    -0.744 OA
ENDBRANCH  58  59
ENDBRANCH  26  51
BRANCH  38  63
ATOM     63  C   UNL A   1      39.891  33.869  37.092  1.00  0.00     0.058 A 
ATOM     64  C   UNL A   1      40.555  35.105  37.130  1.00  0.00     0.135 A 
ATOM     65  C   UNL A   1      38.969  33.587  38.113  1.00  0.00     0.135 A 
ATOM     66  F   UNL A   1      41.452  35.419  36.182  1.00  0.00    -0.206 F 
ATOM     67  C   UNL A   1      40.336  36.016  38.159  1.00  0.00     0.059 A 
ATOM     68  C   UNL A   1      38.716  34.493  39.138  1.00  0.00     0.059 A 
ATOM     69  F   UNL A   1      38.300  32.423  38.118  1.00  0.00    -0.206 F 
ATOM     70  C   UNL A   1      39.416  35.698  39.160  1.00  0.00     0.060 A 
BRANCH  70  71
ATOM     71  S   UNL A   1      39.128  36.890  40.485  1.00  0.00     0.124 S 
ATOM     72  O   UNL A   1      38.383  36.085  41.446  1.00  0.00    -0.237 OA
ATOM     73  O   UNL A   1      40.485  37.257  40.880  1.00  0.00    -0.237 OA
ATOM     74  O   UNL A   1      38.367  37.949  39.828  1.00  0.00    -0.744 OA
ENDBRANCH  70  71
ENDBRANCH  38  63
ENDBRANCH  12  13
ENDBRANCH   5   7
ENDBRANCH   2   3
ENDBRANCH   1   2
BRANCH   1  75
ATOM     75  C   UNL A   1      40.054  21.919  27.243  1.00  0.00     0.002 C 
BRANCH  75  76
ATOM     76  C   UNL A   1      39.061  22.315  26.148  1.00  0.00     0.002 C 
BRANCH  76  77
ATOM     77  C   UNL A   1      38.434  23.707  26.264  1.00  0.00     0.021 C 
BRANCH  77  78
ATOM     78  C   UNL A   1      36.979  23.830  25.826  1.00  0.00     0.116 C 
BRANCH  78  79
ATOM     79  N   UNL A   1      36.102  22.941  26.552  1.00  0.00    -0.354 N 
ATOM     80  C   UNL A   1      34.979  22.258  26.215  1.00  0.00     0.242 C 
ATOM     81  H   UNL A   1      36.377  22.801  27.486  1.00  0.00     0.163 HD
ATOM     82  O   UNL A   1      34.531  21.554  27.135  1.00  0.00    -0.273 OA
BRANCH  80  83
ATOM     83  C   UNL A   1      34.225  22.341  24.835  1.00  0.00     0.171 C 
ATOM     84  C   UNL A   1      33.410  21.152  24.311  1.00  0.00     0.035 C 
ATOM     85  N   UNL A   1      33.276  23.482  24.901  1.00  0.00    -0.359 N 
ATOM     86  C   UNL A   1      32.200  20.850  25.192  1.00  0.00     0.004 C 
ATOM     87  C   UNL A   1      32.093  23.319  25.751  1.00  0.00     0.117 C 
ATOM     88  C   UNL A   1      31.305  22.084  25.308  1.00  0.00     0.022 C 
BRANCH  85  89
ATOM     89  C   UNL A   1      33.357  24.561  24.030  1.00  0.00     0.048 A 
ATOM     90  C   UNL A   1      33.235  24.354  22.654  1.00  0.00     0.046 A 
ATOM     91  C   UNL A   1      33.528  25.897  24.487  1.00  0.00     0.024 A 
ATOM     92  C   UNL A   1      33.233  25.442  21.803  1.00  0.00     0.114 A 
ATOM     93  C   UNL A   1      33.501  26.937  23.528  1.00  0.00     0.072 A 
ATOM     94  C   UNL A   1      33.759  26.238  25.841  1.00  0.00     0.012 A 
ATOM     95  N   UNL A   1      33.349  26.719  22.212  1.00  0.00    -0.256 NA
ATOM     96  C   UNL A   1      33.645  28.251  23.956  1.00  0.00     0.029 A 
ATOM     97  C   UNL A   1      33.909  27.564  26.245  1.00  0.00     0.001 A 
ATOM     98  C   UNL A   1      33.841  28.576  25.299  1.00  0.00     0.002 A 
ENDBRANCH  85  89
ENDBRANCH  80  83
ENDBRANCH  78  79
ENDBRANCH  77  78
ENDBRANCH  76  77
ENDBRANCH  75  76
ENDBRANCH   1  75
TORSDOF 17
ENDMDL
MODEL 2
REMARK VINA RESULT:     -11.7      0.928      1.745
REMARK SMILES O=C(NCCCCCCNC(=O)[C@H]1CCCCN1c1ccnc2ccccc12)c1ccc(-c2c3nc(c(-c4c(F)cc(S(=O)(=O)[O-])cc4F)c4ccc([nH]4)c(-c4c(F)cc(S(=O)(=O)[O-])cc4F)c4nc(c(-c5c(F)cc(S(=O)(=O)[O-])cc5F)c5ccc2[nH]5)C=C4)C=C3)cc1
REMARK SMILES IDX 5 1 4 2 3 3 1 4 2 5 29 7 30 8 94 9 31 10 93 11 32 12 33 13
REMARK SMILES IDX 34 14 87 15 35 16 92 17 86 18 88 19 36 20 91 21 85 22 84 23
REMARK SMILES IDX 37 25 71 26 50 27 70 28 51 29 54 30 69 31 89 32 52 33 53 34
REMARK SMILES IDX 68 36 90 37 55 38 38 39 39 40 48 41 40 42 41 43 47 44 49 45
REMARK SMILES IDX 42 46 43 47 44 48 45 49 46 50 72 51 73 52 82 53 74 54 75 55
REMARK SMILES IDX 81 56 83 57 76 58 77 59 78 60 79 61 80 62 56 63 57 64 66 65
REMARK SMILES IDX 58 66 59 67 65 68 67 69 60 70 61 71 62 72 63 73 64 74 6 75
REMARK SMILES IDX 7 76 8 77 9 78 10 79 11 80 12 82 13 83 14 84 18 85 15 86
REMARK SMILES IDX 17 87 16 88 19 89 20 90 28 91 21 92 23 93 27 94 22 95 24 96
REMARK SMILES IDX 26 97 25 98
REMARK H PARENT 3 6 88 24 54 35 10 81
REMARK Flexibility Score: inf
ROOT
ATOM      1  C   UNL A   1      40.266  21.959  26.822  1.00  0.00     0.021 C 
ENDROOT
BRANCH   1   2
ATOM      2  C   UNL A   1      41.265  23.050  27.187  1.00  0.00     0.116 C 
BRANCH   2   3
ATOM      3  N   UNL A   1      41.621  23.899  26.065  1.00  0.00    -0.352 N 
ATOM      4  O   UNL A   1      41.932  25.827  24.943  1.00  0.00    -0.269 OA
ATOM      5  C   UNL A   1      41.734  25.271  26.012  1.00  0.00     0.251 C 
ATOM      6  H   UNL A   1      41.810  23.427  25.222  1.00  0.00     0.163 HD
BRANCH   5   7
ATOM      7  C   UNL A   1      41.576  26.067  27.253  1.00  0.00     0.039 A 
ATOM      8  C   UNL A   1      40.474  25.883  28.091  1.00  0.00     0.014 A 
ATOM      9  C   UNL A   1      42.547  27.020  27.572  1.00  0.00     0.014 A 
ATOM     10  C   UNL A   1      40.266  26.752  29.158  1.00  0.00     0.010 A 
ATOM     11  C   UNL A   1      42.378  27.835  28.695  1.00  0.00     0.010 A 
ATOM     12  C   UNL A   1      41.216  27.736  29.475  1.00  0.00    -0.014 A 
BRANCH  12  13
ATOM     13  C   UNL A   1      40.985  28.626  30.644  1.00  0.00     0.031 A 
ATOM     14  C   UNL A   1      41.883  28.574  31.851  1.00  0.00     0.074 A 
ATOM     15  C   UNL A   1      39.972  29.513  30.595  1.00  0.00     0.049 A 
ATOM     16  N   UNL A   1      41.847  29.304  32.937  1.00  0.00    -0.248 NA
ATOM     17  C   UNL A   1      42.956  27.567  31.845  1.00  0.00     0.031 C 
ATOM     18  C   UNL A   1      39.024  29.646  29.486  1.00  0.00     0.029 A 
ATOM     19  N   UNL A   1      39.578  30.480  31.484  1.00  0.00    -0.354 N 
ATOM     20  C   UNL A   1      42.867  28.830  33.754  1.00  0.00     0.074 A 
ATOM     21  C   UNL A   1      43.495  27.735  33.045  1.00  0.00     0.031 C 
ATOM     22  C   UNL A   1      38.196  30.671  29.735  1.00  0.00     0.029 A 
ATOM     23  C   UNL A   1      38.515  31.231  31.043  1.00  0.00     0.049 A 
ATOM     24  H   UNL A   1      40.016  30.623  32.355  1.00  0.00     0.167 HD
ATOM     25  C   UNL A   1      43.249  29.271  34.978  1.00  0.00     0.037 A 
ATOM     26  C   UNL A   1      37.865  32.255  31.627  1.00  0.00     0.037 A 
ATOM     27  C   UNL A   1      42.636  30.378  35.666  1.00  0.00     0.049 A 
ATOM     28  C   UNL A   1      38.314  32.731  32.978  1.00  0.00     0.074 A 
ATOM     29  C   UNL A   1      42.976  30.928  36.891  1.00  0.00     0.029 A 
ATOM     30  N   UNL A   1      41.552  31.105  35.193  1.00  0.00    -0.354 N 
ATOM     31  N   UNL A   1      39.303  32.291  33.719  1.00  0.00    -0.248 NA
ATOM     32  C   UNL A   1      37.560  33.841  33.573  1.00  0.00     0.031 C 
ATOM     33  C   UNL A   1      42.077  31.963  37.174  1.00  0.00     0.029 A 
ATOM     34  C   UNL A   1      41.203  32.088  36.106  1.00  0.00     0.049 A 
ATOM     35  H   UNL A   1      41.098  30.946  34.334  1.00  0.00     0.167 HD
ATOM     36  C   UNL A   1      39.307  33.088  34.858  1.00  0.00     0.074 A 
ATOM     37  C   UNL A   1      38.227  34.043  34.701  1.00  0.00     0.031 C 
ATOM     38  C   UNL A   1      40.131  33.036  35.933  1.00  0.00     0.037 A 
BRANCH  25  39
ATOM     39  C   UNL A   1      44.371  28.540  35.665  1.00  0.00     0.058 A 
ATOM     40  C   UNL A   1      45.716  28.895  35.474  1.00  0.00     0.135 A 
ATOM     41  C   UNL A   1      44.094  27.487  36.552  1.00  0.00     0.135 A 
ATOM     42  F   UNL A   1      46.040  29.885  34.627  1.00  0.00    -0.206 F 
ATOM     43  C   UNL A   1      46.747  28.212  36.111  1.00  0.00     0.059 A 
ATOM     44  C   UNL A   1      45.109  26.805  37.219  1.00  0.00     0.059 A 
ATOM     45  F   UNL A   1      42.827  27.107  36.776  1.00  0.00    -0.206 F 
ATOM     46  C   UNL A   1      46.434  27.164  36.978  1.00  0.00     0.060 A 
BRANCH  46  47
ATOM     47  S   UNL A   1      47.783  26.276  37.787  1.00  0.00     0.124 S 
ATOM     48  O   UNL A   1      48.852  26.417  36.802  1.00  0.00    -0.237 OA
ATOM     49  O   UNL A   1      47.959  27.031  39.023  1.00  0.00    -0.237 OA
ATOM     50  O   UNL A   1      47.252  24.927  37.950  1.00  0.00    -0.744 OA
ENDBRANCH  46  47
ENDBRANCH  25  39
BRANCH  26  51
ATOM     51  C   UNL A   1      36.736  32.911  30.917  1.00  0.00     0.058 A 
ATOM     52  C   UNL A   1      35.409  32.668  31.299  1.00  0.00     0.135 A 
ATOM     53  C   UNL A   1      36.963  33.816  29.869  1.00  0.00     0.135 A 
ATOM     54  F   UNL A   1      35.143  31.808  32.292  1.00  0.00    -0.206 F 
ATOM     55  C   UNL A   1      34.343  33.295  30.660  1.00  0.00     0.059 A 
ATOM     56  C   UNL A   1      35.916  34.474  29.233  1.00  0.00     0.059 A 
ATOM     57  F   UNL A   1      38.217  34.095  29.480  1.00  0.00    -0.206 F 
ATOM     58  C   UNL A   1      34.608  34.200  29.631  1.00  0.00     0.060 A 
BRANCH  58  59
ATOM     59  S   UNL A   1      33.222  35.054  28.849  1.00  0.00     0.124 S 
ATOM     60  O   UNL A   1      32.737  34.037  27.923  1.00  0.00    -0.237 OA
ATOM     61  O   UNL A   1      32.359  35.346  29.988  1.00  0.00    -0.237 OA
ATOM     62  O   UNL A   1      33.853  36.220  28.236  1.00  0.00    -0.744 OA
ENDBRANCH  58  59
ENDBRANCH  26  51
BRANCH  38  63
ATOM     63  C   UNL A   1      39.924  34.069  37.003  1.00  0.00     0.058 A 
ATOM     64  C   UNL A   1      39.165  33.803  38.153  1.00  0.00     0.135 A 
ATOM     65  C   UNL A   1      40.514  35.338  36.885  1.00  0.00     0.135 A 
ATOM     66  F   UNL A   1      38.574  32.608  38.310  1.00  0.00    -0.206 F 
ATOM     67  C   UNL A   1      38.971  34.769  39.135  1.00  0.00     0.059 A 
ATOM     68  C   UNL A   1      40.355  36.311  37.866  1.00  0.00     0.059 A 
ATOM     69  F   UNL A   1      41.258  35.640  35.808  1.00  0.00    -0.206 F 
ATOM     70  C   UNL A   1      39.568  36.022  38.980  1.00  0.00     0.060 A 
BRANCH  70  71
ATOM     71  S   UNL A   1      39.324  37.266  40.265  1.00  0.00     0.124 S 
ATOM     72  O   UNL A   1      38.555  38.279  39.550  1.00  0.00    -0.237 OA
ATOM     73  O   UNL A   1      38.595  36.522  41.289  1.00  0.00    -0.237 OA
ATOM     74  O   UNL A   1      40.685  37.649  40.628  1.00  0.00    -0.744 OA
ENDBRANCH  70  71
ENDBRANCH  38  63
ENDBRANCH  12  13
ENDBRANCH   5   7
ENDBRANCH   2   3
ENDBRANCH   1   2
BRANCH   1  75
ATOM     75  C   UNL A   1      38.935  22.438  26.243  1.00  0.00     0.002 C 
BRANCH  75  76
ATOM     76  C   UNL A   1      38.182  21.444  25.354  1.00  0.00     0.002 C 
BRANCH  76  77
ATOM     77  C   UNL A   1      36.902  21.955  24.688  1.00  0.00     0.021 C 
BRANCH  77  78
ATOM     78  C   UNL A   1      35.592  21.376  25.210  1.00  0.00     0.116 C 
BRANCH  78  79
ATOM     79  N   UNL A   1      34.847  22.319  26.010  1.00  0.00    -0.354 N 
ATOM     80  C   UNL A   1      34.149  23.445  25.717  1.00  0.00     0.242 C 
ATOM     81  H   UNL A   1      34.844  22.099  26.969  1.00  0.00     0.163 HD
ATOM     82  O   UNL A   1      33.606  23.965  26.706  1.00  0.00    -0.273 OA
BRANCH  80  83
ATOM     83  C   UNL A   1      34.041  24.123  24.300  1.00  0.00     0.171 C 
ATOM     84  C   UNL A   1      33.849  23.277  23.035  1.00  0.00     0.035 C 
ATOM     85  N   UNL A   1      32.894  25.067  24.331  1.00  0.00    -0.359 N 
ATOM     86  C   UNL A   1      32.503  22.555  23.023  1.00  0.00     0.004 C 
ATOM     87  C   UNL A   1      31.550  24.484  24.361  1.00  0.00     0.117 C 
ATOM     88  C   UNL A   1      31.360  23.561  23.156  1.00  0.00     0.022 C 
BRANCH  85  89
ATOM     89  C   UNL A   1      33.053  26.428  24.101  1.00  0.00     0.048 A 
ATOM     90  C   UNL A   1      33.568  26.872  22.882  1.00  0.00     0.046 A 
ATOM     91  C   UNL A   1      32.674  27.410  25.058  1.00  0.00     0.024 A 
ATOM     92  C   UNL A   1      33.642  28.228  22.631  1.00  0.00     0.114 A 
ATOM     93  C   UNL A   1      32.783  28.773  24.693  1.00  0.00     0.072 A 
ATOM     94  C   UNL A   1      32.229  27.100  26.365  1.00  0.00     0.012 A 
ATOM     95  N   UNL A   1      33.251  29.178  23.501  1.00  0.00    -0.256 NA
ATOM     96  C   UNL A   1      32.398  29.747  25.605  1.00  0.00     0.029 A 
ATOM     97  C   UNL A   1      31.856  28.096  27.266  1.00  0.00     0.001 A 
ATOM     98  C   UNL A   1      31.931  29.426  26.880  1.00  0.00     0.002 A 
ENDBRANCH  85  89
ENDBRANCH  80  83
ENDBRANCH  78  79
ENDBRANCH  77  78
ENDBRANCH  76  77
ENDBRANCH  75  76
ENDBRANCH   1  75
TORSDOF 17
ENDMDL
MODEL 3
REMARK VINA RESULT:     -11.7      5.986      8.341
REMARK SMILES O=C(NCCCCCCNC(=O)[C@H]1CCCCN1c1ccnc2ccccc12)c1ccc(-c2c3nc(c(-c4c(F)cc(S(=O)(=O)[O-])cc4F)c4ccc([nH]4)c(-c4c(F)cc(S(=O)(=O)[O-])cc4F)c4nc(c(-c5c(F)cc(S(=O)(=O)[O-])cc5F)c5ccc2[nH]5)C=C4)C=C3)cc1
REMARK SMILES IDX 5 1 4 2 3 3 1 4 2 5 29 7 30 8 94 9 31 10 93 11 32 12 33 13
REMARK SMILES IDX 34 14 87 15 35 16 92 17 86 18 88 19 36 20 91 21 85 22 84 23
REMARK SMILES IDX 37 25 71 26 50 27 70 28 51 29 54 30 69 31 89 32 52 33 53 34
REMARK SMILES IDX 68 36 90 37 55 38 38 39 39 40 48 41 40 42 41 43 47 44 49 45
REMARK SMILES IDX 42 46 43 47 44 48 45 49 46 50 72 51 73 52 82 53 74 54 75 55
REMARK SMILES IDX 81 56 83 57 76 58 77 59 78 60 79 61 80 62 56 63 57 64 66 65
REMARK SMILES IDX 58 66 59 67 65 68 67 69 60 70 61 71 62 72 63 73 64 74 6 75
REMARK SMILES IDX 7 76 8 77 9 78 10 79 11 80 12 82 13 83 14 84 18 85 15 86
REMARK SMILES IDX 17 87 16 88 19 89 20 90 28 91 21 92 23 93 27 94 22 95 24 96
REMARK SMILES IDX 26 97 25 98
REMARK H PARENT 3 6 88 24 54 35 10 81
REMARK Flexibility Score: inf
ROOT
ATOM      1  C   UNL A   1      38.197  20.213  25.055  1.00  0.00     0.021 C 
ENDROOT
BRANCH   1   2
ATOM      2  C   UNL A   1      39.333  20.436  26.045  1.00  0.00     0.116 C 
BRANCH   2   3
ATOM      3  N   UNL A   1      40.319  19.371  26.036  1.00  0.00    -0.352 N 
ATOM      4  O   UNL A   1      42.375  18.452  26.007  1.00  0.00    -0.269 OA
ATOM      5  C   UNL A   1      41.689  19.452  26.155  1.00  0.00     0.251 C 
ATOM      6  H   UNL A   1      39.957  18.462  25.930  1.00  0.00     0.163 HD
BRANCH   5   7
ATOM      7  C   UNL A   1      42.325  20.763  26.425  1.00  0.00     0.039 A 
ATOM      8  C   UNL A   1      42.606  21.170  27.732  1.00  0.00     0.014 A 
ATOM      9  C   UNL A   1      42.635  21.599  25.350  1.00  0.00     0.014 A 
ATOM     10  C   UNL A   1      43.052  22.467  27.969  1.00  0.00     0.010 A 
ATOM     11  C   UNL A   1      43.164  22.872  25.587  1.00  0.00     0.010 A 
ATOM     12  C   UNL A   1      43.339  23.332  26.902  1.00  0.00    -0.014 A 
BRANCH  12  13
ATOM     13  C   UNL A   1      43.849  24.700  27.185  1.00  0.00     0.031 A 
ATOM     14  C   UNL A   1      45.290  25.061  26.934  1.00  0.00     0.074 A 
ATOM     15  C   UNL A   1      42.990  25.632  27.641  1.00  0.00     0.049 A 
ATOM     16  N   UNL A   1      45.889  26.214  27.089  1.00  0.00    -0.248 NA
ATOM     17  C   UNL A   1      46.175  23.987  26.455  1.00  0.00     0.031 C 
ATOM     18  C   UNL A   1      41.575  25.398  27.937  1.00  0.00     0.029 A 
ATOM     19  N   UNL A   1      43.170  26.963  27.918  1.00  0.00    -0.354 N 
ATOM     20  C   UNL A   1      47.223  26.002  26.757  1.00  0.00     0.074 A 
ATOM     21  C   UNL A   1      47.349  24.602  26.410  1.00  0.00     0.031 C 
ATOM     22  C   UNL A   1      41.003  26.556  28.300  1.00  0.00     0.029 A 
ATOM     23  C   UNL A   1      42.020  27.601  28.318  1.00  0.00     0.049 A 
ATOM     24  H   UNL A   1      44.040  27.418  27.837  1.00  0.00     0.167 HD
ATOM     25  C   UNL A   1      48.245  26.892  26.740  1.00  0.00     0.037 A 
ATOM     26  C   UNL A   1      41.806  28.884  28.665  1.00  0.00     0.037 A 
ATOM     27  C   UNL A   1      48.106  28.290  27.063  1.00  0.00     0.049 A 
ATOM     28  C   UNL A   1      42.953  29.853  28.627  1.00  0.00     0.074 A 
ATOM     29  C   UNL A   1      49.071  29.282  27.034  1.00  0.00     0.029 A 
ATOM     30  N   UNL A   1      46.927  28.895  27.477  1.00  0.00    -0.354 N 
ATOM     31  N   UNL A   1      44.199  29.639  28.277  1.00  0.00    -0.248 NA
ATOM     32  C   UNL A   1      42.665  31.235  29.028  1.00  0.00     0.031 C 
ATOM     33  C   UNL A   1      48.486  30.478  27.466  1.00  0.00     0.029 A 
ATOM     34  C   UNL A   1      47.144  30.242  27.720  1.00  0.00     0.049 A 
ATOM     35  H   UNL A   1      46.063  28.435  27.583  1.00  0.00     0.167 HD
ATOM     36  C   UNL A   1      44.840  30.867  28.393  1.00  0.00     0.074 A 
ATOM     37  C   UNL A   1      43.840  31.819  28.835  1.00  0.00     0.031 C 
ATOM     38  C   UNL A   1      46.137  31.179  28.152  1.00  0.00     0.037 A 
BRANCH  25  39
ATOM     39  C   UNL A   1      49.612  26.379  26.378  1.00  0.00     0.058 A 
ATOM     40  C   UNL A   1      50.141  26.520  25.085  1.00  0.00     0.135 A 
ATOM     41  C   UNL A   1      50.419  25.762  27.349  1.00  0.00     0.135 A 
ATOM     42  F   UNL A   1      49.409  27.089  24.114  1.00  0.00    -0.206 F 
ATOM     43  C   UNL A   1      51.405  26.040  24.759  1.00  0.00     0.059 A 
ATOM     44  C   UNL A   1      51.697  25.296  27.051  1.00  0.00     0.059 A 
ATOM     45  F   UNL A   1      49.966  25.604  28.603  1.00  0.00    -0.206 F 
ATOM     46  C   UNL A   1      52.174  25.424  25.748  1.00  0.00     0.060 A 
BRANCH  46  47
ATOM     47  S   UNL A   1      53.808  24.791  25.307  1.00  0.00     0.124 S 
ATOM     48  O   UNL A   1      54.119  25.592  24.127  1.00  0.00    -0.237 OA
ATOM     49  O   UNL A   1      54.593  25.091  26.500  1.00  0.00    -0.237 OA
ATOM     50  O   UNL A   1      53.567  23.373  25.059  1.00  0.00    -0.744 OA
ENDBRANCH  46  47
ENDBRANCH  25  39
BRANCH  26  51
ATOM     51  C   UNL A   1      40.441  29.323  29.053  1.00  0.00     0.058 A 
ATOM     52  C   UNL A   1      40.123  29.582  30.395  1.00  0.00     0.135 A 
ATOM     53  C   UNL A   1      39.440  29.527  28.091  1.00  0.00     0.135 A 
ATOM     54  F   UNL A   1      41.046  29.399  31.350  1.00  0.00    -0.206 F 
ATOM     55  C   UNL A   1      38.857  30.018  30.770  1.00  0.00     0.059 A 
ATOM     56  C   UNL A   1      38.175  29.987  28.439  1.00  0.00     0.059 A 
ATOM     57  F   UNL A   1      39.702  29.311  26.792  1.00  0.00    -0.206 F 
ATOM     58  C   UNL A   1      37.891  30.222  29.783  1.00  0.00     0.060 A 
BRANCH  58  59
ATOM     59  S   UNL A   1      36.269  30.848  30.274  1.00  0.00     0.124 S 
ATOM     60  O   UNL A   1      35.523  30.735  29.026  1.00  0.00    -0.237 OA
ATOM     61  O   UNL A   1      35.888  29.918  31.333  1.00  0.00    -0.237 OA
ATOM     62  O   UNL A   1      36.558  32.208  30.719  1.00  0.00    -0.744 OA
ENDBRANCH  58  59
ENDBRANCH  26  51
BRANCH  38  63
ATOM     63  C   UNL A   1      46.537  32.617  28.319  1.00  0.00     0.058 A 
ATOM     64  C   UNL A   1      47.086  33.099  29.517  1.00  0.00     0.135 A 
ATOM     65  C   UNL A   1      46.388  33.520  27.254  1.00  0.00     0.135 A 
ATOM     66  F   UNL A   1      47.241  32.278  30.567  1.00  0.00    -0.206 F 
ATOM     67  C   UNL A   1      47.445  34.435  29.665  1.00  0.00     0.059 A 
ATOM     68  C   UNL A   1      46.764  34.854  27.371  1.00  0.00     0.059 A 
ATOM     69  F   UNL A   1      45.877  33.107  26.083  1.00  0.00    -0.206 F 
ATOM     70  C   UNL A   1      47.277  35.306  28.586  1.00  0.00     0.060 A 
BRANCH  70  71
ATOM     71  S   UNL A   1      47.757  37.034  28.782  1.00  0.00     0.124 S 
ATOM     72  O   UNL A   1      46.603  37.725  28.218  1.00  0.00    -0.237 OA
ATOM     73  O   UNL A   1      47.926  37.154  30.227  1.00  0.00    -0.237 OA
ATOM     74  O   UNL A   1      48.990  37.133  28.004  1.00  0.00    -0.744 OA
ENDBRANCH  70  71
ENDBRANCH  38  63
ENDBRANCH  12  13
ENDBRANCH   5   7
ENDBRANCH   2   3
ENDBRANCH   1   2
BRANCH   1  75
ATOM     75  C   UNL A   1      37.392  21.455  24.671  1.00  0.00     0.002 C 
BRANCH  75  76
ATOM     76  C   UNL A   1      35.868  21.315  24.706  1.00  0.00     0.002 C 
BRANCH  76  77
ATOM     77  C   UNL A   1      35.207  21.365  26.085  1.00  0.00     0.021 C 
BRANCH  77  78
ATOM     78  C   UNL A   1      33.762  20.882  26.159  1.00  0.00     0.116 C 
BRANCH  78  79
ATOM     79  N   UNL A   1      32.916  21.772  26.919  1.00  0.00    -0.354 N 
ATOM     80  C   UNL A   1      32.451  23.029  26.704  1.00  0.00     0.242 C 
ATOM     81  H   UNL A   1      32.614  21.387  27.773  1.00  0.00     0.163 HD
ATOM     82  O   UNL A   1      31.700  23.441  27.603  1.00  0.00    -0.273 OA
BRANCH  80  83
ATOM     83  C   UNL A   1      32.827  23.958  25.489  1.00  0.00     0.171 C 
ATOM     84  C   UNL A   1      33.009  23.378  24.081  1.00  0.00     0.035 C 
ATOM     85  N   UNL A   1      31.771  24.996  25.364  1.00  0.00    -0.359 N 
ATOM     86  C   UNL A   1      31.706  22.814  23.517  1.00  0.00     0.004 C 
ATOM     87  C   UNL A   1      30.462  24.560  24.868  1.00  0.00     0.117 C 
ATOM     88  C   UNL A   1      30.624  23.894  23.500  1.00  0.00     0.022 C 
BRANCH  85  89
ATOM     89  C   UNL A   1      32.052  26.351  25.475  1.00  0.00     0.048 A 
ATOM     90  C   UNL A   1      31.736  27.032  26.652  1.00  0.00     0.046 A 
ATOM     91  C   UNL A   1      32.693  27.083  24.438  1.00  0.00     0.024 A 
ATOM     92  C   UNL A   1      32.096  28.359  26.785  1.00  0.00     0.114 A 
ATOM     93  C   UNL A   1      33.025  28.436  24.684  1.00  0.00     0.072 A 
ATOM     94  C   UNL A   1      32.982  26.543  23.162  1.00  0.00     0.012 A 
ATOM     95  N   UNL A   1      32.741  29.063  25.837  1.00  0.00    -0.256 NA
ATOM     96  C   UNL A   1      33.670  29.163  23.691  1.00  0.00     0.029 A 
ATOM     97  C   UNL A   1      33.623  27.295  22.178  1.00  0.00     0.001 A 
ATOM     98  C   UNL A   1      33.978  28.608  22.448  1.00  0.00     0.002 A 
ENDBRANCH  85  89
ENDBRANCH  80  83
ENDBRANCH  78  79
ENDBRANCH  77  78
ENDBRANCH  76  77
ENDBRANCH  75  76
ENDBRANCH   1  75
TORSDOF 17
ENDMDL
