MODEL 1
REMARK VINA RESULT:     -11.1      0.000      0.000
REMARK SMILES O=C(NCCCCCCNC(=O)c1ccccc1OCC[S@@](=O)c1cccc(F)c1)c1ccc(-c2c3nc(c(-c4c(F)cc(S(=O)(=O)[O-])cc4F)c4ccc([nH]4)c(-c4c(F)cc(S(=O)(=O)[O-])cc4F)c4nc(c(-c5c(F)cc(S(=O)(=O)[O-])cc5F)c5ccc2[nH]5)C=C4)C=C3)cc1
REMARK SMILES IDX 7 1 6 2 5 3 4 4 3 5 1 6 2 7 31 9 32 10 96 11 33 12 95 13
REMARK SMILES IDX 34 14 35 15 36 16 89 17 37 18 94 19 88 20 90 21 38 22 93 23
REMARK SMILES IDX 87 24 86 25 39 27 73 28 52 29 72 30 53 31 56 32 71 33 91 34
REMARK SMILES IDX 54 35 55 36 70 38 92 39 57 40 40 41 41 42 50 43 42 44 43 45
REMARK SMILES IDX 49 46 51 47 44 48 45 49 46 50 47 51 48 52 74 53 75 54 84 55
REMARK SMILES IDX 76 56 77 57 83 58 85 59 78 60 79 61 80 62 81 63 82 64 58 65
REMARK SMILES IDX 59 66 68 67 60 68 61 69 67 70 69 71 62 72 63 73 64 74 65 75
REMARK SMILES IDX 66 76 8 77 9 78 10 79 11 80 12 82 13 83 14 84 18 85 15 86
REMARK SMILES IDX 17 87 16 88 19 89 20 90 21 91 22 92 23 93 24 94 25 95 30 96
REMARK SMILES IDX 26 97 28 98 27 99 29 100
REMARK H PARENT 3 8 90 26 56 37 10 81
REMARK Flexibility Score: inf
ROOT
ATOM      1  C   UNL A   1      33.040  28.499  25.618  1.00  0.00     0.002 C 
ENDROOT
BRANCH   1   2
ATOM      2  C   UNL A   1      33.748  28.494  26.981  1.00  0.00     0.002 C 
BRANCH   2   3
ATOM      3  C   UNL A   1      34.581  29.746  27.268  1.00  0.00     0.021 C 
BRANCH   3   4
ATOM      4  C   UNL A   1      35.672  29.561  28.318  1.00  0.00     0.116 C 
BRANCH   4   5
ATOM      5  N   UNL A   1      35.486  30.402  29.491  1.00  0.00    -0.352 N 
ATOM      6  O   UNL A   1      36.186  31.393  31.415  1.00  0.00    -0.269 OA
ATOM      7  C   UNL A   1      36.463  30.794  30.379  1.00  0.00     0.251 C 
ATOM      8  H   UNL A   1      34.573  30.724  29.667  1.00  0.00     0.163 HD
BRANCH   7   9
ATOM      9  C   UNL A   1      37.862  30.441  30.064  1.00  0.00     0.039 A 
ATOM     10  C   UNL A   1      38.294  30.456  28.733  1.00  0.00     0.014 A 
ATOM     11  C   UNL A   1      38.707  30.006  31.086  1.00  0.00     0.014 A 
ATOM     12  C   UNL A   1      39.542  29.936  28.411  1.00  0.00     0.010 A 
ATOM     13  C   UNL A   1      39.985  29.542  30.765  1.00  0.00     0.010 A 
ATOM     14  C   UNL A   1      40.402  29.486  29.425  1.00  0.00    -0.014 A 
BRANCH  14  15
ATOM     15  C   UNL A   1      41.775  29.040  29.085  1.00  0.00     0.031 A 
ATOM     16  C   UNL A   1      42.926  30.003  29.073  1.00  0.00     0.074 A 
ATOM     17  C   UNL A   1      41.959  27.750  28.745  1.00  0.00     0.049 A 
ATOM     18  N   UNL A   1      44.165  29.799  28.707  1.00  0.00    -0.248 NA
ATOM     19  C   UNL A   1      42.650  31.375  29.523  1.00  0.00     0.031 C 
ATOM     20  C   UNL A   1      40.904  26.734  28.713  1.00  0.00     0.029 A 
ATOM     21  N   UNL A   1      43.083  27.077  28.346  1.00  0.00    -0.354 N 
ATOM     22  C   UNL A   1      44.811  31.021  28.850  1.00  0.00     0.074 A 
ATOM     23  C   UNL A   1      43.823  31.964  29.331  1.00  0.00     0.031 C 
ATOM     24  C   UNL A   1      41.430  25.567  28.318  1.00  0.00     0.029 A 
ATOM     25  C   UNL A   1      42.841  25.767  28.010  1.00  0.00     0.049 A 
ATOM     26  H   UNL A   1      43.976  27.490  28.305  1.00  0.00     0.167 HD
ATOM     27  C   UNL A   1      46.109  31.322  28.599  1.00  0.00     0.037 A 
ATOM     28  C   UNL A   1      43.650  24.837  27.471  1.00  0.00     0.037 A 
ATOM     29  C   UNL A   1      47.080  30.366  28.127  1.00  0.00     0.049 A 
ATOM     30  C   UNL A   1      45.077  25.192  27.188  1.00  0.00     0.074 A 
ATOM     31  C   UNL A   1      48.429  30.554  27.885  1.00  0.00     0.029 A 
ATOM     32  N   UNL A   1      46.799  29.042  27.814  1.00  0.00    -0.354 N 
ATOM     33  N   UNL A   1      45.685  26.341  27.366  1.00  0.00    -0.248 NA
ATOM     34  C   UNL A   1      45.932  24.135  26.635  1.00  0.00     0.031 C 
ATOM     35  C   UNL A   1      48.956  29.357  27.387  1.00  0.00     0.029 A 
ATOM     36  C   UNL A   1      47.944  28.408  27.358  1.00  0.00     0.049 A 
ATOM     37  H   UNL A   1      45.916  28.616  27.903  1.00  0.00     0.167 HD
ATOM     38  C   UNL A   1      46.996  26.144  26.956  1.00  0.00     0.074 A 
ATOM     39  C   UNL A   1      47.096  24.762  26.530  1.00  0.00     0.031 C 
ATOM     40  C   UNL A   1      48.023  27.029  26.940  1.00  0.00     0.037 A 
BRANCH  27  41
ATOM     41  C   UNL A   1      46.542  32.750  28.793  1.00  0.00     0.058 A 
ATOM     42  C   UNL A   1      47.054  33.212  30.015  1.00  0.00     0.135 A 
ATOM     43  C   UNL A   1      46.445  33.671  27.736  1.00  0.00     0.135 A 
ATOM     44  F   UNL A   1      47.161  32.379  31.063  1.00  0.00    -0.206 F 
ATOM     45  C   UNL A   1      47.412  34.546  30.198  1.00  0.00     0.059 A 
ATOM     46  C   UNL A   1      46.818  35.004  27.888  1.00  0.00     0.059 A 
ATOM     47  F   UNL A   1      45.968  33.282  26.543  1.00  0.00    -0.206 F 
ATOM     48  C   UNL A   1      47.279  35.437  29.131  1.00  0.00     0.060 A 
BRANCH  48  49
ATOM     49  S   UNL A   1      47.699  37.174  29.393  1.00  0.00     0.124 S 
ATOM     50  O   UNL A   1      46.389  37.807  29.284  1.00  0.00    -0.237 OA
ATOM     51  O   UNL A   1      48.284  37.158  30.730  1.00  0.00    -0.237 OA
ATOM     52  O   UNL A   1      48.631  37.465  28.308  1.00  0.00    -0.744 OA
ENDBRANCH  48  49
ENDBRANCH  27  41
BRANCH  28  53
ATOM     53  C   UNL A   1      43.089  23.499  27.159  1.00  0.00     0.058 A 
ATOM     54  C   UNL A   1      42.841  23.108  25.836  1.00  0.00     0.135 A 
ATOM     55  C   UNL A   1      42.906  22.543  28.173  1.00  0.00     0.135 A 
ATOM     56  F   UNL A   1      43.002  23.989  24.836  1.00  0.00    -0.206 F 
ATOM     57  C   UNL A   1      42.447  21.812  25.525  1.00  0.00     0.059 A 
ATOM     58  C   UNL A   1      42.535  21.234  27.884  1.00  0.00     0.059 A 
ATOM     59  F   UNL A   1      43.155  22.865  29.451  1.00  0.00    -0.206 F 
ATOM     60  C   UNL A   1      42.308  20.878  26.555  1.00  0.00     0.060 A 
BRANCH  60  61
ATOM     61  S   UNL A   1      41.908  19.169  26.129  1.00  0.00     0.124 S 
ATOM     62  O   UNL A   1      42.684  18.983  24.909  1.00  0.00    -0.237 OA
ATOM     63  O   UNL A   1      42.380  18.441  27.303  1.00  0.00    -0.237 OA
ATOM     64  O   UNL A   1      40.458  19.196  25.960  1.00  0.00    -0.744 OA
ENDBRANCH  60  61
ENDBRANCH  28  53
BRANCH  40  65
ATOM     65  C   UNL A   1      49.356  26.529  26.463  1.00  0.00     0.058 A 
ATOM     66  C   UNL A   1      49.812  26.785  25.162  1.00  0.00     0.135 A 
ATOM     67  C   UNL A   1      50.218  25.860  27.346  1.00  0.00     0.135 A 
ATOM     68  F   UNL A   1      49.019  27.410  24.277  1.00  0.00    -0.206 F 
ATOM     69  C   UNL A   1      51.082  26.395  24.750  1.00  0.00     0.059 A 
ATOM     70  C   UNL A   1      51.499  25.479  26.962  1.00  0.00     0.059 A 
ATOM     71  F   UNL A   1      49.826  25.596  28.602  1.00  0.00    -0.206 F 
ATOM     72  C   UNL A   1      51.922  25.750  25.661  1.00  0.00     0.060 A 
BRANCH  72  73
ATOM     73  S   UNL A   1      53.595  25.316  25.140  1.00  0.00     0.124 S 
ATOM     74  O   UNL A   1      53.639  23.890  25.450  1.00  0.00    -0.237 OA
ATOM     75  O   UNL A   1      53.581  25.656  23.721  1.00  0.00    -0.237 OA
ATOM     76  O   UNL A   1      54.440  26.166  25.973  1.00  0.00    -0.744 OA
ENDBRANCH  72  73
ENDBRANCH  40  65
ENDBRANCH  14  15
ENDBRANCH   7   9
ENDBRANCH   4   5
ENDBRANCH   3   4
ENDBRANCH   2   3
ENDBRANCH   1   2
BRANCH   1  77
ATOM     77  C   UNL A   1      33.718  27.689  24.486  1.00  0.00     0.021 C 
BRANCH  77  78
ATOM     78  C   UNL A   1      33.696  28.292  23.060  1.00  0.00     0.116 C 
BRANCH  78  79
ATOM     79  N   UNL A   1      33.140  27.338  22.097  1.00  0.00    -0.352 N 
ATOM     80  C   UNL A   1      31.887  26.810  21.848  1.00  0.00     0.255 C 
ATOM     81  H   UNL A   1      33.822  26.990  21.479  1.00  0.00     0.163 HD
ATOM     82  O   UNL A   1      31.528  26.112  20.909  1.00  0.00    -0.269 OA
BRANCH  80  83
ATOM     83  C   UNL A   1      30.760  27.280  22.542  1.00  0.00     0.081 A 
ATOM     84  C   UNL A   1      30.271  28.549  22.237  1.00  0.00     0.018 A 
ATOM     85  C   UNL A   1      30.290  26.445  23.526  1.00  0.00     0.132 A 
ATOM     86  C   UNL A   1      29.026  28.871  22.709  1.00  0.00     0.001 A 
ATOM     87  C   UNL A   1      28.969  26.694  23.867  1.00  0.00     0.047 A 
ATOM     88  C   UNL A   1      28.334  27.895  23.433  1.00  0.00     0.004 A 
BRANCH  85  89
ATOM     89  O   UNL A   1      31.061  25.389  23.990  1.00  0.00    -0.492 OA
BRANCH  89  90
ATOM     90  C   UNL A   1      31.027  25.081  25.476  1.00  0.00     0.243 C 
BRANCH  90  91
ATOM     91  C   UNL A   1      31.102  23.568  25.967  1.00  0.00     0.152 C 
BRANCH  91  92
ATOM     92  S   UNL A   1      32.331  22.140  25.449  1.00  0.00     0.056 S 
ATOM     93  O   UNL A   1      31.977  21.868  24.011  1.00  0.00    -0.254 OA
BRANCH  92  94
ATOM     94  C   UNL A   1      34.193  22.497  25.316  1.00  0.00     0.042 A 
ATOM     95  C   UNL A   1      34.710  23.515  26.145  1.00  0.00     0.018 A 
ATOM     96  C   UNL A   1      35.107  21.914  24.416  1.00  0.00     0.057 A 
ATOM     97  C   UNL A   1      35.960  24.115  25.885  1.00  0.00     0.004 A 
ATOM     98  C   UNL A   1      36.288  22.601  24.076  1.00  0.00     0.124 A 
ATOM     99  C   UNL A   1      36.710  23.715  24.785  1.00  0.00     0.039 A 
ATOM    100  F   UNL A   1      36.977  22.236  22.983  1.00  0.00    -0.207 F 
ENDBRANCH  92  94
ENDBRANCH  91  92
ENDBRANCH  90  91
ENDBRANCH  89  90
ENDBRANCH  85  89
ENDBRANCH  80  83
ENDBRANCH  78  79
ENDBRANCH  77  78
ENDBRANCH   1  77
TORSDOF 21
ENDMDL
MODEL 2
REMARK VINA RESULT:     -11.0      6.406     11.880
REMARK SMILES O=C(NCCCCCCNC(=O)c1ccccc1OCC[S@@](=O)c1cccc(F)c1)c1ccc(-c2c3nc(c(-c4c(F)cc(S(=O)(=O)[O-])cc4F)c4ccc([nH]4)c(-c4c(F)cc(S(=O)(=O)[O-])cc4F)c4nc(c(-c5c(F)cc(S(=O)(=O)[O-])cc5F)c5ccc2[nH]5)C=C4)C=C3)cc1
REMARK SMILES IDX 7 1 6 2 5 3 4 4 3 5 1 6 2 7 31 9 32 10 96 11 33 12 95 13
REMARK SMILES IDX 34 14 35 15 36 16 89 17 37 18 94 19 88 20 90 21 38 22 93 23
REMARK SMILES IDX 87 24 86 25 39 27 73 28 52 29 72 30 53 31 56 32 71 33 91 34
REMARK SMILES IDX 54 35 55 36 70 38 92 39 57 40 40 41 41 42 50 43 42 44 43 45
REMARK SMILES IDX 49 46 51 47 44 48 45 49 46 50 47 51 48 52 74 53 75 54 84 55
REMARK SMILES IDX 76 56 77 57 83 58 85 59 78 60 79 61 80 62 81 63 82 64 58 65
REMARK SMILES IDX 59 66 68 67 60 68 61 69 67 70 69 71 62 72 63 73 64 74 65 75
REMARK SMILES IDX 66 76 8 77 9 78 10 79 11 80 12 82 13 83 14 84 18 85 15 86
REMARK SMILES IDX 17 87 16 88 19 89 20 90 21 91 22 92 23 93 24 94 25 95 30 96
REMARK SMILES IDX 26 97 28 98 27 99 29 100
REMARK H PARENT 3 8 90 26 56 37 10 81
REMARK Flexibility Score: inf
ROOT
ATOM      1  C   UNL A   1      35.974  23.593  25.044  1.00  0.00     0.002 C 
ENDROOT
BRANCH   1   2
ATOM      2  C   UNL A   1      37.033  23.982  26.087  1.00  0.00     0.002 C 
BRANCH   2   3
ATOM      3  C   UNL A   1      38.342  23.194  25.987  1.00  0.00     0.021 C 
BRANCH   3   4
ATOM      4  C   UNL A   1      39.495  23.763  26.808  1.00  0.00     0.116 C 
BRANCH   4   5
ATOM      5  N   UNL A   1      40.715  23.942  26.035  1.00  0.00    -0.352 N 
ATOM      6  O   UNL A   1      42.527  25.128  25.340  1.00  0.00    -0.269 OA
ATOM      7  C   UNL A   1      41.595  24.997  26.130  1.00  0.00     0.251 C 
ATOM      8  H   UNL A   1      40.933  23.240  25.381  1.00  0.00     0.163 HD
BRANCH   7   9
ATOM      9  C   UNL A   1      41.366  25.991  27.197  1.00  0.00     0.039 A 
ATOM     10  C   UNL A   1      42.023  27.226  27.142  1.00  0.00     0.014 A 
ATOM     11  C   UNL A   1      40.573  25.651  28.294  1.00  0.00     0.014 A 
ATOM     12  C   UNL A   1      41.968  28.081  28.237  1.00  0.00     0.010 A 
ATOM     13  C   UNL A   1      40.470  26.540  29.366  1.00  0.00     0.010 A 
ATOM     14  C   UNL A   1      41.182  27.751  29.352  1.00  0.00    -0.014 A 
BRANCH  14  15
ATOM     15  C   UNL A   1      41.037  28.719  30.466  1.00  0.00     0.031 A 
ATOM     16  C   UNL A   1      41.899  28.628  31.692  1.00  0.00     0.074 A 
ATOM     17  C   UNL A   1      40.081  29.662  30.370  1.00  0.00     0.049 A 
ATOM     18  N   UNL A   1      41.837  29.330  32.794  1.00  0.00    -0.248 NA
ATOM     19  C   UNL A   1      42.962  27.613  31.684  1.00  0.00     0.031 C 
ATOM     20  C   UNL A   1      39.182  29.829  29.226  1.00  0.00     0.029 A 
ATOM     21  N   UNL A   1      39.692  30.640  31.246  1.00  0.00    -0.354 N 
ATOM     22  C   UNL A   1      42.829  28.824  33.625  1.00  0.00     0.074 A 
ATOM     23  C   UNL A   1      43.475  27.748  32.900  1.00  0.00     0.031 C 
ATOM     24  C   UNL A   1      38.348  30.848  29.468  1.00  0.00     0.029 A 
ATOM     25  C   UNL A   1      38.611  31.364  30.806  1.00  0.00     0.049 A 
ATOM     26  H   UNL A   1      40.143  30.808  32.106  1.00  0.00     0.167 HD
ATOM     27  C   UNL A   1      43.164  29.222  34.878  1.00  0.00     0.037 A 
ATOM     28  C   UNL A   1      37.879  32.310  31.424  1.00  0.00     0.037 A 
ATOM     29  C   UNL A   1      42.513  30.301  35.578  1.00  0.00     0.049 A 
ATOM     30  C   UNL A   1      38.257  32.728  32.812  1.00  0.00     0.074 A 
ATOM     31  C   UNL A   1      42.804  30.816  36.829  1.00  0.00     0.029 A 
ATOM     32  N   UNL A   1      41.431  31.023  35.092  1.00  0.00    -0.354 N 
ATOM     33  N   UNL A   1      39.222  32.268  33.571  1.00  0.00    -0.248 NA
ATOM     34  C   UNL A   1      37.453  33.788  33.432  1.00  0.00     0.031 C 
ATOM     35  C   UNL A   1      41.873  31.821  37.117  1.00  0.00     0.029 A 
ATOM     36  C   UNL A   1      41.027  31.963  36.027  1.00  0.00     0.049 A 
ATOM     37  H   UNL A   1      41.013  30.887  34.211  1.00  0.00     0.167 HD
ATOM     38  C   UNL A   1      39.152  32.988  34.755  1.00  0.00     0.074 A 
ATOM     39  C   UNL A   1      38.053  33.922  34.608  1.00  0.00     0.031 C 
ATOM     40  C   UNL A   1      39.930  32.886  35.860  1.00  0.00     0.037 A 
BRANCH  27  41
ATOM     41  C   UNL A   1      44.256  28.462  35.580  1.00  0.00     0.058 A 
ATOM     42  C   UNL A   1      45.601  28.856  35.508  1.00  0.00     0.135 A 
ATOM     43  C   UNL A   1      43.950  27.322  36.343  1.00  0.00     0.135 A 
ATOM     44  F   UNL A   1      45.953  29.932  34.786  1.00  0.00    -0.206 F 
ATOM     45  C   UNL A   1      46.610  28.122  36.126  1.00  0.00     0.059 A 
ATOM     46  C   UNL A   1      44.939  26.586  36.989  1.00  0.00     0.059 A 
ATOM     47  F   UNL A   1      42.680  26.904  36.452  1.00  0.00    -0.206 F 
ATOM     48  C   UNL A   1      46.269  26.981  36.855  1.00  0.00     0.060 A 
BRANCH  48  49
ATOM     49  S   UNL A   1      47.590  26.009  37.613  1.00  0.00     0.124 S 
ATOM     50  O   UNL A   1      47.019  24.666  37.573  1.00  0.00    -0.237 OA
ATOM     51  O   UNL A   1      48.712  26.245  36.710  1.00  0.00    -0.237 OA
ATOM     52  O   UNL A   1      47.724  26.596  38.942  1.00  0.00    -0.744 OA
ENDBRANCH  48  49
ENDBRANCH  27  41
BRANCH  28  53
ATOM     53  C   UNL A   1      36.714  32.888  30.711  1.00  0.00     0.058 A 
ATOM     54  C   UNL A   1      35.403  32.556  31.078  1.00  0.00     0.135 A 
ATOM     55  C   UNL A   1      36.891  33.878  29.729  1.00  0.00     0.135 A 
ATOM     56  F   UNL A   1      35.186  31.615  32.011  1.00  0.00    -0.206 F 
ATOM     57  C   UNL A   1      34.307  33.195  30.510  1.00  0.00     0.059 A 
ATOM     58  C   UNL A   1      35.812  34.547  29.163  1.00  0.00     0.059 A 
ATOM     59  F   UNL A   1      38.128  34.245  29.364  1.00  0.00    -0.206 F 
ATOM     60  C   UNL A   1      34.522  34.198  29.562  1.00  0.00     0.060 A 
BRANCH  60  61
ATOM     61  S   UNL A   1      33.098  35.101  28.915  1.00  0.00     0.124 S 
ATOM     62  O   UNL A   1      32.623  34.194  27.877  1.00  0.00    -0.237 OA
ATOM     63  O   UNL A   1      32.247  35.221  30.095  1.00  0.00    -0.237 OA
ATOM     64  O   UNL A   1      33.681  36.354  28.443  1.00  0.00    -0.744 OA
ENDBRANCH  60  61
ENDBRANCH  28  53
BRANCH  40  65
ATOM     65  C   UNL A   1      39.638  33.821  36.998  1.00  0.00     0.058 A 
ATOM     66  C   UNL A   1      38.856  33.423  38.092  1.00  0.00     0.135 A 
ATOM     67  C   UNL A   1      40.217  35.099  37.030  1.00  0.00     0.135 A 
ATOM     68  F   UNL A   1      38.271  32.214  38.101  1.00  0.00    -0.206 F 
ATOM     69  C   UNL A   1      38.659  34.261  39.183  1.00  0.00     0.059 A 
ATOM     70  C   UNL A   1      40.049  35.946  38.120  1.00  0.00     0.059 A 
ATOM     71  F   UNL A   1      40.976  35.523  36.007  1.00  0.00    -0.206 F 
ATOM     72  C   UNL A   1      39.266  35.519  39.192  1.00  0.00     0.060 A 
BRANCH  72  73
ATOM     73  S   UNL A   1      39.066  36.569  40.647  1.00  0.00     0.124 S 
ATOM     74  O   UNL A   1      38.042  35.845  41.394  1.00  0.00    -0.237 OA
ATOM     75  O   UNL A   1      40.404  36.556  41.229  1.00  0.00    -0.237 OA
ATOM     76  O   UNL A   1      38.647  37.849  40.085  1.00  0.00    -0.744 OA
ENDBRANCH  72  73
ENDBRANCH  40  65
ENDBRANCH  14  15
ENDBRANCH   7   9
ENDBRANCH   4   5
ENDBRANCH   3   4
ENDBRANCH   2   3
ENDBRANCH   1   2
BRANCH   1  77
ATOM     77  C   UNL A   1      34.583  24.255  25.194  1.00  0.00     0.021 C 
BRANCH  77  78
ATOM     78  C   UNL A   1      33.730  24.429  23.914  1.00  0.00     0.116 C 
BRANCH  78  79
ATOM     79  N   UNL A   1      33.907  25.768  23.345  1.00  0.00    -0.352 N 
ATOM     80  C   UNL A   1      33.618  27.055  23.755  1.00  0.00     0.255 C 
ATOM     81  H   UNL A   1      34.334  25.744  22.460  1.00  0.00     0.163 HD
ATOM     82  O   UNL A   1      33.947  28.113  23.233  1.00  0.00    -0.269 OA
BRANCH  80  83
ATOM     83  C   UNL A   1      33.123  27.303  25.046  1.00  0.00     0.081 A 
ATOM     84  C   UNL A   1      33.992  27.819  26.006  1.00  0.00     0.018 A 
ATOM     85  C   UNL A   1      31.816  26.932  25.251  1.00  0.00     0.132 A 
ATOM     86  C   UNL A   1      33.434  28.313  27.155  1.00  0.00     0.001 A 
ATOM     87  C   UNL A   1      31.229  27.577  26.329  1.00  0.00     0.047 A 
ATOM     88  C   UNL A   1      32.040  28.289  27.262  1.00  0.00     0.004 A 
BRANCH  85  89
ATOM     89  O   UNL A   1      31.163  26.101  24.352  1.00  0.00    -0.492 OA
BRANCH  89  90
ATOM     90  C   UNL A   1      30.316  26.746  23.271  1.00  0.00     0.243 C 
BRANCH  90  91
ATOM     91  C   UNL A   1      28.848  27.255  23.623  1.00  0.00     0.152 C 
BRANCH  91  92
ATOM     92  S   UNL A   1      27.707  28.536  22.688  1.00  0.00     0.056 S 
ATOM     93  O   UNL A   1      26.546  28.730  23.626  1.00  0.00    -0.254 OA
BRANCH  92  94
ATOM     94  C   UNL A   1      28.296  30.325  22.444  1.00  0.00     0.042 A 
ATOM     95  C   UNL A   1      28.882  30.964  23.558  1.00  0.00     0.018 A 
ATOM     96  C   UNL A   1      28.136  31.122  21.292  1.00  0.00     0.057 A 
ATOM     97  C   UNL A   1      29.017  32.367  23.618  1.00  0.00     0.004 A 
ATOM     98  C   UNL A   1      28.145  32.526  21.407  1.00  0.00     0.124 A 
ATOM     99  C   UNL A   1      28.557  33.157  22.570  1.00  0.00     0.039 A 
ATOM    100  F   UNL A   1      27.653  33.276  20.408  1.00  0.00    -0.207 F 
ENDBRANCH  92  94
ENDBRANCH  91  92
ENDBRANCH  90  91
ENDBRANCH  89  90
ENDBRANCH  85  89
ENDBRANCH  80  83
ENDBRANCH  78  79
ENDBRANCH  77  78
ENDBRANCH   1  77
TORSDOF 21
ENDMDL
MODEL 3
REMARK VINA RESULT:     -11.0      1.750      3.731
REMARK SMILES O=C(NCCCCCCNC(=O)c1ccccc1OCC[S@@](=O)c1cccc(F)c1)c1ccc(-c2c3nc(c(-c4c(F)cc(S(=O)(=O)[O-])cc4F)c4ccc([nH]4)c(-c4c(F)cc(S(=O)(=O)[O-])cc4F)c4nc(c(-c5c(F)cc(S(=O)(=O)[O-])cc5F)c5ccc2[nH]5)C=C4)C=C3)cc1
REMARK SMILES IDX 7 1 6 2 5 3 4 4 3 5 1 6 2 7 31 9 32 10 96 11 33 12 95 13
REMARK SMILES IDX 34 14 35 15 36 16 89 17 37 18 94 19 88 20 90 21 38 22 93 23
REMARK SMILES IDX 87 24 86 25 39 27 73 28 52 29 72 30 53 31 56 32 71 33 91 34
REMARK SMILES IDX 54 35 55 36 70 38 92 39 57 40 40 41 41 42 50 43 42 44 43 45
REMARK SMILES IDX 49 46 51 47 44 48 45 49 46 50 47 51 48 52 74 53 75 54 84 55
REMARK SMILES IDX 76 56 77 57 83 58 85 59 78 60 79 61 80 62 81 63 82 64 58 65
REMARK SMILES IDX 59 66 68 67 60 68 61 69 67 70 69 71 62 72 63 73 64 74 65 75
REMARK SMILES IDX 66 76 8 77 9 78 10 79 11 80 12 82 13 83 14 84 18 85 15 86
REMARK SMILES IDX 17 87 16 88 19 89 20 90 21 91 22 92 23 93 24 94 25 95 30 96
REMARK SMILES IDX 26 97 28 98 27 99 29 100
REMARK H PARENT 3 8 90 26 56 37 10 81
REMARK Flexibility Score: inf
ROOT
ATOM      1  C   UNL A   1      32.356  28.883  26.725  1.00  0.00     0.002 C 
ENDROOT
BRANCH   1   2
ATOM      2  C   UNL A   1      33.891  28.883  26.795  1.00  0.00     0.002 C 
BRANCH   2   3
ATOM      3  C   UNL A   1      34.498  30.154  27.395  1.00  0.00     0.021 C 
BRANCH   3   4
ATOM      4  C   UNL A   1      35.647  29.914  28.370  1.00  0.00     0.116 C 
BRANCH   4   5
ATOM      5  N   UNL A   1      35.442  30.547  29.665  1.00  0.00    -0.352 N 
ATOM      6  O   UNL A   1      36.100  31.174  31.749  1.00  0.00    -0.269 OA
ATOM      7  C   UNL A   1      36.398  30.754  30.634  1.00  0.00     0.251 C 
ATOM      8  H   UNL A   1      34.530  30.857  29.867  1.00  0.00     0.163 HD
BRANCH   7   9
ATOM      9  C   UNL A   1      37.798  30.424  30.302  1.00  0.00     0.039 A 
ATOM     10  C   UNL A   1      38.318  30.798  29.058  1.00  0.00     0.014 A 
ATOM     11  C   UNL A   1      38.553  29.661  31.193  1.00  0.00     0.014 A 
ATOM     12  C   UNL A   1      39.562  30.319  28.663  1.00  0.00     0.010 A 
ATOM     13  C   UNL A   1      39.828  29.233  30.817  1.00  0.00     0.010 A 
ATOM     14  C   UNL A   1      40.332  29.543  29.543  1.00  0.00    -0.014 A 
BRANCH  14  15
ATOM     15  C   UNL A   1      41.704  29.132  29.159  1.00  0.00     0.031 A 
ATOM     16  C   UNL A   1      42.831  30.123  29.116  1.00  0.00     0.074 A 
ATOM     17  C   UNL A   1      41.909  27.848  28.809  1.00  0.00     0.049 A 
ATOM     18  N   UNL A   1      44.062  29.952  28.710  1.00  0.00    -0.248 NA
ATOM     19  C   UNL A   1      42.534  31.487  29.579  1.00  0.00     0.031 C 
ATOM     20  C   UNL A   1      40.879  26.807  28.806  1.00  0.00     0.029 A 
ATOM     21  N   UNL A   1      43.037  27.204  28.372  1.00  0.00    -0.354 N 
ATOM     22  C   UNL A   1      44.682  31.188  28.838  1.00  0.00     0.074 A 
ATOM     23  C   UNL A   1      43.686  32.105  29.354  1.00  0.00     0.031 C 
ATOM     24  C   UNL A   1      41.421  25.654  28.390  1.00  0.00     0.029 A 
ATOM     25  C   UNL A   1      42.816  25.890  28.038  1.00  0.00     0.049 A 
ATOM     26  H   UNL A   1      43.917  27.640  28.305  1.00  0.00     0.167 HD
ATOM     27  C   UNL A   1      45.964  31.523  28.547  1.00  0.00     0.037 A 
ATOM     28  C   UNL A   1      43.631  24.982  27.471  1.00  0.00     0.037 A 
ATOM     29  C   UNL A   1      46.942  30.592  28.042  1.00  0.00     0.049 A 
ATOM     30  C   UNL A   1      45.040  25.373  27.145  1.00  0.00     0.074 A 
ATOM     31  C   UNL A   1      48.278  30.814  27.759  1.00  0.00     0.029 A 
ATOM     32  N   UNL A   1      46.685  29.263  27.732  1.00  0.00    -0.354 N 
ATOM     33  N   UNL A   1      45.624  26.536  27.308  1.00  0.00    -0.248 NA
ATOM     34  C   UNL A   1      45.902  24.339  26.561  1.00  0.00     0.031 C 
ATOM     35  C   UNL A   1      48.818  29.632  27.240  1.00  0.00     0.029 A 
ATOM     36  C   UNL A   1      47.830  28.659  27.239  1.00  0.00     0.049 A 
ATOM     37  H   UNL A   1      45.816  28.815  27.847  1.00  0.00     0.167 HD
ATOM     38  C   UNL A   1      46.927  26.374  26.857  1.00  0.00     0.074 A 
ATOM     39  C   UNL A   1      47.047  24.996  26.423  1.00  0.00     0.031 C 
ATOM     40  C   UNL A   1      47.930  27.283  26.812  1.00  0.00     0.037 A 
BRANCH  27  41
ATOM     41  C   UNL A   1      46.367  32.960  28.734  1.00  0.00     0.058 A 
ATOM     42  C   UNL A   1      46.889  33.435  29.947  1.00  0.00     0.135 A 
ATOM     43  C   UNL A   1      46.232  33.878  27.678  1.00  0.00     0.135 A 
ATOM     44  F   UNL A   1      47.032  32.605  30.993  1.00  0.00    -0.206 F 
ATOM     45  C   UNL A   1      47.219  34.777  30.123  1.00  0.00     0.059 A 
ATOM     46  C   UNL A   1      46.577  35.219  27.824  1.00  0.00     0.059 A 
ATOM     47  F   UNL A   1      45.744  33.478  26.494  1.00  0.00    -0.206 F 
ATOM     48  C   UNL A   1      47.048  35.663  29.058  1.00  0.00     0.060 A 
BRANCH  48  49
ATOM     49  S   UNL A   1      47.433  37.409  29.313  1.00  0.00     0.124 S 
ATOM     50  O   UNL A   1      47.205  37.548  30.748  1.00  0.00    -0.237 OA
ATOM     51  O   UNL A   1      48.825  37.492  28.883  1.00  0.00    -0.237 OA
ATOM     52  O   UNL A   1      46.473  38.097  28.455  1.00  0.00    -0.744 OA
ENDBRANCH  48  49
ENDBRANCH  27  41
BRANCH  28  53
ATOM     53  C   UNL A   1      43.094  23.632  27.171  1.00  0.00     0.058 A 
ATOM     54  C   UNL A   1      42.705  23.279  25.872  1.00  0.00     0.135 A 
ATOM     55  C   UNL A   1      43.075  22.631  28.158  1.00  0.00     0.135 A 
ATOM     56  F   UNL A   1      42.706  24.203  24.898  1.00  0.00    -0.206 F 
ATOM     57  C   UNL A   1      42.331  21.978  25.554  1.00  0.00     0.059 A 
ATOM     58  C   UNL A   1      42.727  21.318  27.860  1.00  0.00     0.059 A 
ATOM     59  F   UNL A   1      43.462  22.917  29.410  1.00  0.00    -0.206 F 
ATOM     60  C   UNL A   1      42.357  21.001  26.553  1.00  0.00     0.060 A 
BRANCH  60  61
ATOM     61  S   UNL A   1      41.982  19.292  26.106  1.00  0.00     0.124 S 
ATOM     62  O   UNL A   1      42.804  19.115  24.915  1.00  0.00    -0.237 OA
ATOM     63  O   UNL A   1      42.413  18.561  27.293  1.00  0.00    -0.237 OA
ATOM     64  O   UNL A   1      40.539  19.313  25.882  1.00  0.00    -0.744 OA
ENDBRANCH  60  61
ENDBRANCH  28  53
BRANCH  40  65
ATOM     65  C   UNL A   1      49.259  26.819  26.292  1.00  0.00     0.058 A 
ATOM     66  C   UNL A   1      49.600  26.941  24.937  1.00  0.00     0.135 A 
ATOM     67  C   UNL A   1      50.231  26.323  27.176  1.00  0.00     0.135 A 
ATOM     68  F   UNL A   1      48.700  27.397  24.052  1.00  0.00    -0.206 F 
ATOM     69  C   UNL A   1      50.863  26.589  24.474  1.00  0.00     0.059 A 
ATOM     70  C   UNL A   1      51.507  25.984  26.738  1.00  0.00     0.059 A 
ATOM     71  F   UNL A   1      49.952  26.192  28.482  1.00  0.00    -0.206 F 
ATOM     72  C   UNL A   1      51.813  26.119  25.384  1.00  0.00     0.060 A 
BRANCH  72  73
ATOM     73  S   UNL A   1      53.472  25.736  24.785  1.00  0.00     0.124 S 
ATOM     74  O   UNL A   1      54.305  26.323  25.831  1.00  0.00    -0.237 OA
ATOM     75  O   UNL A   1      53.458  24.278  24.730  1.00  0.00    -0.237 OA
ATOM     76  O   UNL A   1      53.528  26.406  23.489  1.00  0.00    -0.744 OA
ENDBRANCH  72  73
ENDBRANCH  40  65
ENDBRANCH  14  15
ENDBRANCH   7   9
ENDBRANCH   4   5
ENDBRANCH   3   4
ENDBRANCH   2   3
ENDBRANCH   1   2
BRANCH   1  77
ATOM     77  C   UNL A   1      31.669  27.498  26.658  1.00  0.00     0.021 C 
BRANCH  77  78
ATOM     78  C   UNL A   1      32.550  26.276  26.304  1.00  0.00     0.116 C 
BRANCH  78  79
ATOM     79  N   UNL A   1      31.735  25.180  25.770  1.00  0.00    -0.352 N 
ATOM     80  C   UNL A   1      31.988  24.029  25.049  1.00  0.00     0.255 C 
ATOM     81  H   UNL A   1      30.779  25.291  25.975  1.00  0.00     0.163 HD
ATOM     82  O   UNL A   1      31.219  23.115  24.780  1.00  0.00    -0.269 OA
BRANCH  80  83
ATOM     83  C   UNL A   1      33.306  23.632  24.771  1.00  0.00     0.081 A 
ATOM     84  C   UNL A   1      34.031  22.984  25.770  1.00  0.00     0.018 A 
ATOM     85  C   UNL A   1      33.777  23.998  23.535  1.00  0.00     0.132 A 
ATOM     86  C   UNL A   1      35.192  22.360  25.397  1.00  0.00     0.001 A 
ATOM     87  C   UNL A   1      34.857  23.234  23.115  1.00  0.00     0.047 A 
ATOM     88  C   UNL A   1      35.542  22.397  24.044  1.00  0.00     0.004 A 
BRANCH  85  89
ATOM     89  O   UNL A   1      33.112  24.947  22.772  1.00  0.00    -0.492 OA
BRANCH  89  90
ATOM     90  C   UNL A   1      33.614  26.378  22.818  1.00  0.00     0.243 C 
BRANCH  90  91
ATOM     91  C   UNL A   1      32.566  27.578  22.829  1.00  0.00     0.152 C 
BRANCH  91  92
ATOM     92  S   UNL A   1      30.634  27.558  22.539  1.00  0.00     0.056 S 
ATOM     93  O   UNL A   1      30.156  26.416  23.394  1.00  0.00    -0.254 OA
BRANCH  92  94
ATOM     94  C   UNL A   1      29.565  28.988  23.190  1.00  0.00     0.042 A 
ATOM     95  C   UNL A   1      28.218  29.023  22.770  1.00  0.00     0.018 A 
ATOM     96  C   UNL A   1      29.990  30.073  23.983  1.00  0.00     0.057 A 
ATOM     97  C   UNL A   1      27.443  30.197  22.876  1.00  0.00     0.004 A 
ATOM     98  C   UNL A   1      29.264  31.279  23.966  1.00  0.00     0.124 A 
ATOM     99  C   UNL A   1      28.003  31.359  23.393  1.00  0.00     0.039 A 
ATOM    100  F   UNL A   1      29.835  32.405  24.423  1.00  0.00    -0.207 F 
ENDBRANCH  92  94
ENDBRANCH  91  92
ENDBRANCH  90  91
ENDBRANCH  89  90
ENDBRANCH  85  89
ENDBRANCH  80  83
ENDBRANCH  78  79
ENDBRANCH  77  78
ENDBRANCH   1  77
TORSDOF 21
ENDMDL
