MODEL 1
REMARK VINA RESULT:     -10.7      0.000      0.000
REMARK SMILES COCC[C@H](NC(=O)c1ccc(C)cc1F)C(=O)NCCCCCCNC(=O)c1ccc(-c2c3nc(c(-c4c(F)cc(S(=O)(=O)[O-])cc4F)c4ccc([nH]4)c(-c4c(F)cc(S(=O)(=O)[O-])cc4F)c4nc(c(-c5c(F)cc(S(=O)(=O)[O-])cc5F)c5ccc2[nH]5)C=C4)C=C3)cc1
REMARK SMILES IDX 22 1 21 2 20 3 19 4 17 5 18 6 5 8 4 9 3 10 2 11 1 12 6 13
REMARK SMILES IDX 7 14 8 16 9 17 10 18 15 19 11 20 14 21 16 22 12 23 13 24
REMARK SMILES IDX 23 25 24 26 25 27 26 28 27 29 28 31 29 32 30 33 94 34 31 35
REMARK SMILES IDX 93 36 32 37 33 38 34 39 87 40 35 41 92 42 86 43 88 44 36 45
REMARK SMILES IDX 91 46 85 47 84 48 37 50 71 51 50 52 70 53 51 54 54 55 69 56
REMARK SMILES IDX 89 57 52 58 53 59 68 61 90 62 55 63 38 64 39 65 48 66 40 67
REMARK SMILES IDX 41 68 47 69 49 70 42 71 43 72 44 73 45 74 46 75 72 76 73 77
REMARK SMILES IDX 82 78 74 79 75 80 81 81 83 82 76 83 77 84 78 85 79 86 80 87
REMARK SMILES IDX 56 88 57 89 66 90 58 91 59 92 65 93 67 94 60 95 61 96 62 97
REMARK SMILES IDX 63 98 64 99
REMARK H PARENT 19 7 6 15 26 30 88 49 54 60
REMARK Flexibility Score: inf
ROOT
ATOM      1  C   UNL A   1      35.957  22.126  24.348  1.00  0.00     0.002 C 
ENDROOT
BRANCH   1   2
ATOM      2  C   UNL A   1      35.668  23.208  23.292  1.00  0.00     0.021 C 
BRANCH   2   3
ATOM      3  C   UNL A   1      34.378  24.013  23.463  1.00  0.00     0.116 C 
BRANCH   3   4
ATOM      4  N   UNL A   1      34.496  25.152  24.346  1.00  0.00    -0.354 N 
ATOM      5  C   UNL A   1      33.592  25.707  25.195  1.00  0.00     0.242 C 
ATOM      6  O   UNL A   1      34.084  26.322  26.155  1.00  0.00    -0.273 OA
ATOM      7  H   UNL A   1      35.373  25.598  24.328  1.00  0.00     0.163 HD
BRANCH   5   8
ATOM      8  C   UNL A   1      32.034  25.569  25.124  1.00  0.00     0.173 C 
BRANCH   8   9
ATOM      9  C   UNL A   1      31.336  26.899  24.786  1.00  0.00     0.063 C 
BRANCH   9  10
ATOM     10  C   UNL A   1      31.316  27.954  25.897  1.00  0.00     0.162 C 
BRANCH  10  11
ATOM     11  O   UNL A   1      31.512  29.276  25.384  1.00  0.00    -0.385 OA
ATOM     12  C   UNL A   1      32.868  29.688  25.329  1.00  0.00     0.194 C 
ENDBRANCH  10  11
ENDBRANCH   9  10
ENDBRANCH   8   9
BRANCH   8  13
ATOM     13  N   UNL A   1      31.221  24.685  25.993  1.00  0.00    -0.340 N 
ATOM     14  C   UNL A   1      31.291  23.414  26.513  1.00  0.00     0.254 C 
ATOM     15  H   UNL A   1      30.394  25.138  26.280  1.00  0.00     0.164 HD
ATOM     16  O   UNL A   1      30.555  23.146  27.461  1.00  0.00    -0.269 OA
BRANCH  14  17
ATOM     17  C   UNL A   1      32.094  22.341  25.908  1.00  0.00     0.075 A 
ATOM     18  C   UNL A   1      31.864  21.810  24.641  1.00  0.00     0.017 A 
ATOM     19  C   UNL A   1      33.044  21.736  26.726  1.00  0.00     0.136 A 
ATOM     20  C   UNL A   1      32.323  20.529  24.333  1.00  0.00     0.004 A 
ATOM     21  C   UNL A   1      33.575  20.497  26.384  1.00  0.00     0.043 A 
ATOM     22  F   UNL A   1      33.342  22.235  27.934  1.00  0.00    -0.206 F 
ATOM     23  C   UNL A   1      33.115  19.829  25.245  1.00  0.00    -0.048 A 
ATOM     24  C   UNL A   1      33.323  18.351  25.093  1.00  0.00     0.044 C 
ENDBRANCH  14  17
ENDBRANCH   8  13
ENDBRANCH   5   8
ENDBRANCH   3   4
ENDBRANCH   2   3
ENDBRANCH   1   2
BRANCH   1  25
ATOM     25  C   UNL A   1      36.708  22.524  25.630  1.00  0.00     0.002 C 
BRANCH  25  26
ATOM     26  C   UNL A   1      37.963  23.394  25.507  1.00  0.00     0.021 C 
BRANCH  26  27
ATOM     27  C   UNL A   1      38.936  23.435  26.689  1.00  0.00     0.116 C 
BRANCH  27  28
ATOM     28  N   UNL A   1      40.301  23.655  26.243  1.00  0.00    -0.352 N 
ATOM     29  C   UNL A   1      41.104  24.765  26.375  1.00  0.00     0.251 C 
ATOM     30  H   UNL A   1      40.715  22.894  25.777  1.00  0.00     0.163 HD
ATOM     31  O   UNL A   1      42.082  24.872  25.635  1.00  0.00    -0.269 OA
BRANCH  29  32
ATOM     32  C   UNL A   1      40.842  25.823  27.389  1.00  0.00     0.039 A 
ATOM     33  C   UNL A   1      41.731  26.905  27.476  1.00  0.00     0.014 A 
ATOM     34  C   UNL A   1      39.829  25.699  28.345  1.00  0.00     0.014 A 
ATOM     35  C   UNL A   1      41.604  27.851  28.503  1.00  0.00     0.010 A 
ATOM     36  C   UNL A   1      39.677  26.670  29.346  1.00  0.00     0.010 A 
ATOM     37  C   UNL A   1      40.576  27.744  29.453  1.00  0.00    -0.014 A 
BRANCH  37  38
ATOM     38  C   UNL A   1      40.465  28.716  30.581  1.00  0.00     0.031 A 
ATOM     39  C   UNL A   1      41.347  28.577  31.799  1.00  0.00     0.074 A 
ATOM     40  C   UNL A   1      39.558  29.713  30.533  1.00  0.00     0.049 A 
ATOM     41  N   UNL A   1      41.368  29.293  32.895  1.00  0.00    -0.248 NA
ATOM     42  C   UNL A   1      42.322  27.474  31.789  1.00  0.00     0.031 C 
ATOM     43  C   UNL A   1      38.624  29.950  29.431  1.00  0.00     0.029 A 
ATOM     44  N   UNL A   1      39.262  30.705  31.437  1.00  0.00    -0.354 N 
ATOM     45  C   UNL A   1      42.338  28.720  33.711  1.00  0.00     0.074 A 
ATOM     46  C   UNL A   1      42.858  27.574  32.998  1.00  0.00     0.031 C 
ATOM     47  C   UNL A   1      37.868  31.022  29.719  1.00  0.00     0.029 A 
ATOM     48  C   UNL A   1      38.239  31.533  31.037  1.00  0.00     0.049 A 
ATOM     49  H   UNL A   1      39.740  30.813  32.291  1.00  0.00     0.167 HD
ATOM     50  C   UNL A   1      42.771  29.120  34.932  1.00  0.00     0.037 A 
ATOM     51  C   UNL A   1      37.657  32.577  31.660  1.00  0.00     0.037 A 
ATOM     52  C   UNL A   1      42.277  30.280  35.631  1.00  0.00     0.049 A 
ATOM     53  C   UNL A   1      38.157  33.007  33.014  1.00  0.00     0.074 A 
ATOM     54  C   UNL A   1      42.696  30.798  36.844  1.00  0.00     0.029 A 
ATOM     55  N   UNL A   1      41.253  31.100  35.181  1.00  0.00    -0.354 N 
ATOM     56  N   UNL A   1      39.115  32.485  33.742  1.00  0.00    -0.248 NA
ATOM     57  C   UNL A   1      37.503  34.171  33.628  1.00  0.00     0.031 C 
ATOM     58  C   UNL A   1      41.900  31.908  37.147  1.00  0.00     0.029 A 
ATOM     59  C   UNL A   1      41.014  32.109  36.101  1.00  0.00     0.049 A 
ATOM     60  H   UNL A   1      40.767  30.983  34.333  1.00  0.00     0.167 HD
ATOM     61  C   UNL A   1      39.195  33.272  34.886  1.00  0.00     0.074 A 
ATOM     62  C   UNL A   1      38.197  34.312  34.750  1.00  0.00     0.031 C 
ATOM     63  C   UNL A   1      40.022  33.144  35.953  1.00  0.00     0.037 A 
BRANCH  50  64
ATOM     64  C   UNL A   1      43.842  28.297  35.601  1.00  0.00     0.058 A 
ATOM     65  C   UNL A   1      43.527  27.264  36.497  1.00  0.00     0.135 A 
ATOM     66  C   UNL A   1      45.199  28.515  35.309  1.00  0.00     0.135 A 
ATOM     67  F   UNL A   1      42.247  27.017  36.821  1.00  0.00    -0.206 F 
ATOM     68  C   UNL A   1      44.517  26.498  37.103  1.00  0.00     0.059 A 
ATOM     69  C   UNL A   1      46.205  27.743  35.883  1.00  0.00     0.059 A 
ATOM     70  F   UNL A   1      45.558  29.486  34.455  1.00  0.00    -0.206 F 
ATOM     71  C   UNL A   1      45.855  26.746  36.792  1.00  0.00     0.060 A 
BRANCH  71  72
ATOM     72  S   UNL A   1      47.130  25.743  37.585  1.00  0.00     0.124 S 
ATOM     73  O   UNL A   1      47.423  24.765  36.539  1.00  0.00    -0.237 OA
ATOM     74  O   UNL A   1      48.185  26.726  37.840  1.00  0.00    -0.237 OA
ATOM     75  O   UNL A   1      46.468  25.218  38.768  1.00  0.00    -0.744 OA
ENDBRANCH  71  72
ENDBRANCH  50  64
BRANCH  51  76
ATOM     76  C   UNL A   1      36.541  33.305  30.998  1.00  0.00     0.058 A 
ATOM     77  C   UNL A   1      36.776  34.145  29.899  1.00  0.00     0.135 A 
ATOM     78  C   UNL A   1      35.216  33.165  31.441  1.00  0.00     0.135 A 
ATOM     79  F   UNL A   1      38.027  34.320  29.444  1.00  0.00    -0.206 F 
ATOM     80  C   UNL A   1      35.741  34.829  29.268  1.00  0.00     0.059 A 
ATOM     81  C   UNL A   1      34.162  33.819  30.812  1.00  0.00     0.059 A 
ATOM     82  F   UNL A   1      34.937  32.364  32.480  1.00  0.00    -0.206 F 
ATOM     83  C   UNL A   1      34.435  34.655  29.731  1.00  0.00     0.060 A 
BRANCH  83  84
ATOM     84  S   UNL A   1      33.090  35.498  28.867  1.00  0.00     0.124 S 
ATOM     85  O   UNL A   1      33.824  36.414  28.003  1.00  0.00    -0.237 OA
ATOM     86  O   UNL A   1      32.415  34.390  28.196  1.00  0.00    -0.237 OA
ATOM     87  O   UNL A   1      32.333  36.116  29.950  1.00  0.00    -0.744 OA
ENDBRANCH  83  84
ENDBRANCH  51  76
BRANCH  63  88
ATOM     88  C   UNL A   1      39.909  34.170  37.047  1.00  0.00     0.058 A 
ATOM     89  C   UNL A   1      40.588  35.395  36.984  1.00  0.00     0.135 A 
ATOM     90  C   UNL A   1      39.066  33.944  38.150  1.00  0.00     0.135 A 
ATOM     91  F   UNL A   1      41.410  35.659  35.955  1.00  0.00    -0.206 F 
ATOM     92  C   UNL A   1      40.457  36.354  37.984  1.00  0.00     0.059 A 
ATOM     93  C   UNL A   1      38.900  34.898  39.149  1.00  0.00     0.059 A 
ATOM     94  F   UNL A   1      38.385  32.793  38.254  1.00  0.00    -0.206 F 
ATOM     95  C   UNL A   1      39.609  36.096  39.064  1.00  0.00     0.060 A 
BRANCH  95  96
ATOM     96  S   UNL A   1      39.419  37.359  40.340  1.00  0.00     0.124 S 
ATOM     97  O   UNL A   1      38.652  36.642  41.352  1.00  0.00    -0.237 OA
ATOM     98  O   UNL A   1      40.803  37.662  40.690  1.00  0.00    -0.237 OA
ATOM     99  O   UNL A   1      38.705  38.432  39.653  1.00  0.00    -0.744 OA
ENDBRANCH  95  96
ENDBRANCH  63  88
ENDBRANCH  37  38
ENDBRANCH  29  32
ENDBRANCH  27  28
ENDBRANCH  26  27
ENDBRANCH  25  26
ENDBRANCH   1  25
TORSDOF 21
ENDMDL
MODEL 2
REMARK VINA RESULT:     -10.3      6.676     11.185
REMARK SMILES COCC[C@H](NC(=O)c1ccc(C)cc1F)C(=O)NCCCCCCNC(=O)c1ccc(-c2c3nc(c(-c4c(F)cc(S(=O)(=O)[O-])cc4F)c4ccc([nH]4)c(-c4c(F)cc(S(=O)(=O)[O-])cc4F)c4nc(c(-c5c(F)cc(S(=O)(=O)[O-])cc5F)c5ccc2[nH]5)C=C4)C=C3)cc1
REMARK SMILES IDX 22 1 21 2 20 3 19 4 17 5 18 6 5 8 4 9 3 10 2 11 1 12 6 13
REMARK SMILES IDX 7 14 8 16 9 17 10 18 15 19 11 20 14 21 16 22 12 23 13 24
REMARK SMILES IDX 23 25 24 26 25 27 26 28 27 29 28 31 29 32 30 33 94 34 31 35
REMARK SMILES IDX 93 36 32 37 33 38 34 39 87 40 35 41 92 42 86 43 88 44 36 45
REMARK SMILES IDX 91 46 85 47 84 48 37 50 71 51 50 52 70 53 51 54 54 55 69 56
REMARK SMILES IDX 89 57 52 58 53 59 68 61 90 62 55 63 38 64 39 65 48 66 40 67
REMARK SMILES IDX 41 68 47 69 49 70 42 71 43 72 44 73 45 74 46 75 72 76 73 77
REMARK SMILES IDX 82 78 74 79 75 80 81 81 83 82 76 83 77 84 78 85 79 86 80 87
REMARK SMILES IDX 56 88 57 89 66 90 58 91 59 92 65 93 67 94 60 95 61 96 62 97
REMARK SMILES IDX 63 98 64 99
REMARK H PARENT 19 7 6 15 26 30 88 49 54 60
REMARK Flexibility Score: inf
ROOT
ATOM      1  C   UNL A   1      39.879  23.126  26.358  1.00  0.00     0.002 C 
ENDROOT
BRANCH   1   2
ATOM      2  C   UNL A   1      38.897  24.296  26.549  1.00  0.00     0.021 C 
BRANCH   2   3
ATOM      3  C   UNL A   1      37.433  24.035  26.188  1.00  0.00     0.116 C 
BRANCH   3   4
ATOM      4  N   UNL A   1      37.243  23.276  24.972  1.00  0.00    -0.354 N 
ATOM      5  C   UNL A   1      36.340  23.431  23.969  1.00  0.00     0.242 C 
ATOM      6  O   UNL A   1      36.702  22.990  22.866  1.00  0.00    -0.273 OA
ATOM      7  H   UNL A   1      37.867  22.525  24.853  1.00  0.00     0.163 HD
BRANCH   5   8
ATOM      8  C   UNL A   1      34.964  24.172  24.054  1.00  0.00     0.173 C 
BRANCH   8   9
ATOM      9  C   UNL A   1      34.037  23.579  25.132  1.00  0.00     0.063 C 
BRANCH   9  10
ATOM     10  C   UNL A   1      32.841  22.769  24.624  1.00  0.00     0.162 C 
BRANCH  10  11
ATOM     11  O   UNL A   1      33.197  21.912  23.533  1.00  0.00    -0.385 OA
ATOM     12  C   UNL A   1      32.451  20.708  23.466  1.00  0.00     0.194 C 
ENDBRANCH  10  11
ENDBRANCH   9  10
ENDBRANCH   8   9
BRANCH   8  13
ATOM     13  N   UNL A   1      34.230  24.733  22.895  1.00  0.00    -0.340 N 
ATOM     14  C   UNL A   1      33.577  25.896  22.561  1.00  0.00     0.254 C 
ATOM     15  H   UNL A   1      34.201  24.087  22.151  1.00  0.00     0.164 HD
ATOM     16  O   UNL A   1      33.359  26.104  21.369  1.00  0.00    -0.269 OA
BRANCH  14  17
ATOM     17  C   UNL A   1      33.019  26.820  23.560  1.00  0.00     0.075 A 
ATOM     18  C   UNL A   1      33.732  27.862  24.148  1.00  0.00     0.017 A 
ATOM     19  C   UNL A   1      31.745  26.526  24.039  1.00  0.00     0.136 A 
ATOM     20  C   UNL A   1      33.324  28.370  25.381  1.00  0.00     0.004 A 
ATOM     21  C   UNL A   1      31.293  27.095  25.224  1.00  0.00     0.043 A 
ATOM     22  F   UNL A   1      30.994  25.567  23.477  1.00  0.00    -0.206 F 
ATOM     23  C   UNL A   1      32.139  27.924  25.968  1.00  0.00    -0.048 A 
ATOM     24  C   UNL A   1      31.864  28.185  27.420  1.00  0.00     0.044 C 
ENDBRANCH  14  17
ENDBRANCH   8  13
ENDBRANCH   5   8
ENDBRANCH   3   4
ENDBRANCH   2   3
ENDBRANCH   1   2
BRANCH   1  25
ATOM     25  C   UNL A   1      40.516  22.482  27.602  1.00  0.00     0.002 C 
BRANCH  25  26
ATOM     26  C   UNL A   1      40.873  20.993  27.559  1.00  0.00     0.021 C 
BRANCH  26  27
ATOM     27  C   UNL A   1      40.608  20.222  26.262  1.00  0.00     0.116 C 
BRANCH  27  28
ATOM     28  N   UNL A   1      41.743  19.392  25.898  1.00  0.00    -0.352 N 
ATOM     29  C   UNL A   1      42.993  19.754  25.451  1.00  0.00     0.251 C 
ATOM     30  H   UNL A   1      41.595  18.423  25.985  1.00  0.00     0.163 HD
ATOM     31  O   UNL A   1      43.677  18.908  24.874  1.00  0.00    -0.269 OA
BRANCH  29  32
ATOM     32  C   UNL A   1      43.550  21.119  25.659  1.00  0.00     0.039 A 
ATOM     33  C   UNL A   1      44.208  21.399  26.865  1.00  0.00     0.014 A 
ATOM     34  C   UNL A   1      43.313  22.162  24.758  1.00  0.00     0.014 A 
ATOM     35  C   UNL A   1      44.626  22.703  27.163  1.00  0.00     0.010 A 
ATOM     36  C   UNL A   1      43.771  23.458  25.038  1.00  0.00     0.010 A 
ATOM     37  C   UNL A   1      44.411  23.751  26.254  1.00  0.00    -0.014 A 
BRANCH  37  38
ATOM     38  C   UNL A   1      44.804  25.152  26.585  1.00  0.00     0.031 A 
ATOM     39  C   UNL A   1      43.778  26.132  27.102  1.00  0.00     0.074 A 
ATOM     40  C   UNL A   1      46.075  25.563  26.401  1.00  0.00     0.049 A 
ATOM     41  N   UNL A   1      43.917  27.399  27.402  1.00  0.00    -0.248 NA
ATOM     42  C   UNL A   1      42.410  25.622  27.289  1.00  0.00     0.031 C 
ATOM     43  C   UNL A   1      47.163  24.732  25.883  1.00  0.00     0.029 A 
ATOM     44  N   UNL A   1      46.666  26.785  26.615  1.00  0.00    -0.354 N 
ATOM     45  C   UNL A   1      42.657  27.842  27.793  1.00  0.00     0.074 A 
ATOM     46  C   UNL A   1      41.758  26.717  27.657  1.00  0.00     0.031 C 
ATOM     47  C   UNL A   1      48.288  25.464  25.829  1.00  0.00     0.029 A 
ATOM     48  C   UNL A   1      47.999  26.824  26.279  1.00  0.00     0.049 A 
ATOM     49  H   UNL A   1      46.179  27.561  26.977  1.00  0.00     0.167 HD
ATOM     50  C   UNL A   1      42.285  29.067  28.243  1.00  0.00     0.037 A 
ATOM     51  C   UNL A   1      48.888  27.837  26.317  1.00  0.00     0.037 A 
ATOM     52  C   UNL A   1      43.185  30.180  28.409  1.00  0.00     0.049 A 
ATOM     53  C   UNL A   1      48.454  29.187  26.824  1.00  0.00     0.074 A 
ATOM     54  C   UNL A   1      42.912  31.440  28.914  1.00  0.00     0.029 A 
ATOM     55  N   UNL A   1      44.531  30.170  28.073  1.00  0.00    -0.354 N 
ATOM     56  N   UNL A   1      47.271  29.568  27.243  1.00  0.00    -0.248 NA
ATOM     57  C   UNL A   1      49.476  30.243  26.871  1.00  0.00     0.031 C 
ATOM     58  C   UNL A   1      44.082  32.204  28.847  1.00  0.00     0.029 A 
ATOM     59  C   UNL A   1      45.096  31.406  28.342  1.00  0.00     0.049 A 
ATOM     60  H   UNL A   1      45.013  29.398  27.699  1.00  0.00     0.167 HD
ATOM     61  C   UNL A   1      47.413  30.898  27.626  1.00  0.00     0.074 A 
ATOM     62  C   UNL A   1      48.799  31.253  27.400  1.00  0.00     0.031 C 
ATOM     63  C   UNL A   1      46.479  31.748  28.120  1.00  0.00     0.037 A 
BRANCH  50  64
ATOM     64  C   UNL A   1      40.834  29.274  28.593  1.00  0.00     0.058 A 
ATOM     65  C   UNL A   1      40.402  29.358  29.926  1.00  0.00     0.135 A 
ATOM     66  C   UNL A   1      39.870  29.434  27.583  1.00  0.00     0.135 A 
ATOM     67  F   UNL A   1      41.277  29.203  30.932  1.00  0.00    -0.206 F 
ATOM     68  C   UNL A   1      39.063  29.562  30.246  1.00  0.00     0.059 A 
ATOM     69  C   UNL A   1      38.530  29.665  27.880  1.00  0.00     0.059 A 
ATOM     70  F   UNL A   1      40.228  29.368  26.292  1.00  0.00    -0.206 F 
ATOM     71  C   UNL A   1      38.133  29.712  29.216  1.00  0.00     0.060 A 
BRANCH  71  72
ATOM     72  S   UNL A   1      36.399  29.977  29.645  1.00  0.00     0.124 S 
ATOM     73  O   UNL A   1      36.309  29.288  30.931  1.00  0.00    -0.237 OA
ATOM     74  O   UNL A   1      36.313  31.437  29.706  1.00  0.00    -0.237 OA
ATOM     75  O   UNL A   1      35.676  29.356  28.548  1.00  0.00    -0.744 OA
ENDBRANCH  71  72
ENDBRANCH  50  64
BRANCH  51  76
ATOM     76  C   UNL A   1      50.291  27.608  25.876  1.00  0.00     0.058 A 
ATOM     77  C   UNL A   1      50.640  27.663  24.519  1.00  0.00     0.135 A 
ATOM     78  C   UNL A   1      51.311  27.345  26.803  1.00  0.00     0.135 A 
ATOM     79  F   UNL A   1      49.699  27.902  23.593  1.00  0.00    -0.206 F 
ATOM     80  C   UNL A   1      51.949  27.455  24.093  1.00  0.00     0.059 A 
ATOM     81  C   UNL A   1      52.631  27.157  26.405  1.00  0.00     0.059 A 
ATOM     82  F   UNL A   1      51.031  27.294  28.114  1.00  0.00    -0.206 F 
ATOM     83  C   UNL A   1      52.939  27.206  25.046  1.00  0.00     0.060 A 
BRANCH  83  84
ATOM     84  S   UNL A   1      54.645  26.999  24.490  1.00  0.00     0.124 S 
ATOM     85  O   UNL A   1      55.383  27.684  25.544  1.00  0.00    -0.237 OA
ATOM     86  O   UNL A   1      54.782  25.546  24.454  1.00  0.00    -0.237 OA
ATOM     87  O   UNL A   1      54.652  27.652  23.185  1.00  0.00    -0.744 OA
ENDBRANCH  83  84
ENDBRANCH  51  76
BRANCH  63  88
ATOM     88  C   UNL A   1      46.926  33.137  28.483  1.00  0.00     0.058 A 
ATOM     89  C   UNL A   1      47.437  33.440  29.754  1.00  0.00     0.135 A 
ATOM     90  C   UNL A   1      46.892  34.168  27.528  1.00  0.00     0.135 A 
ATOM     91  F   UNL A   1      47.488  32.493  30.705  1.00  0.00    -0.206 F 
ATOM     92  C   UNL A   1      47.878  34.721  30.075  1.00  0.00     0.059 A 
ATOM     93  C   UNL A   1      47.350  35.449  27.820  1.00  0.00     0.059 A 
ATOM     94  F   UNL A   1      46.421  33.930  26.294  1.00  0.00    -0.206 F 
ATOM     95  C   UNL A   1      47.831  35.719  29.100  1.00  0.00     0.060 A 
BRANCH  95  96
ATOM     96  S   UNL A   1      48.435  37.369  29.517  1.00  0.00     0.124 S 
ATOM     97  O   UNL A   1      48.220  37.405  30.960  1.00  0.00    -0.237 OA
ATOM     98  O   UNL A   1      49.828  37.312  29.085  1.00  0.00    -0.237 OA
ATOM     99  O   UNL A   1      47.578  38.253  28.732  1.00  0.00    -0.744 OA
ENDBRANCH  95  96
ENDBRANCH  63  88
ENDBRANCH  37  38
ENDBRANCH  29  32
ENDBRANCH  27  28
ENDBRANCH  26  27
ENDBRANCH  25  26
ENDBRANCH   1  25
TORSDOF 21
ENDMDL
MODEL 3
REMARK VINA RESULT:     -10.2      1.188      2.241
REMARK SMILES COCC[C@H](NC(=O)c1ccc(C)cc1F)C(=O)NCCCCCCNC(=O)c1ccc(-c2c3nc(c(-c4c(F)cc(S(=O)(=O)[O-])cc4F)c4ccc([nH]4)c(-c4c(F)cc(S(=O)(=O)[O-])cc4F)c4nc(c(-c5c(F)cc(S(=O)(=O)[O-])cc5F)c5ccc2[nH]5)C=C4)C=C3)cc1
REMARK SMILES IDX 22 1 21 2 20 3 19 4 17 5 18 6 5 8 4 9 3 10 2 11 1 12 6 13
REMARK SMILES IDX 7 14 8 16 9 17 10 18 15 19 11 20 14 21 16 22 12 23 13 24
REMARK SMILES IDX 23 25 24 26 25 27 26 28 27 29 28 31 29 32 30 33 94 34 31 35
REMARK SMILES IDX 93 36 32 37 33 38 34 39 87 40 35 41 92 42 86 43 88 44 36 45
REMARK SMILES IDX 91 46 85 47 84 48 37 50 71 51 50 52 70 53 51 54 54 55 69 56
REMARK SMILES IDX 89 57 52 58 53 59 68 61 90 62 55 63 38 64 39 65 48 66 40 67
REMARK SMILES IDX 41 68 47 69 49 70 42 71 43 72 44 73 45 74 46 75 72 76 73 77
REMARK SMILES IDX 82 78 74 79 75 80 81 81 83 82 76 83 77 84 78 85 79 86 80 87
REMARK SMILES IDX 56 88 57 89 66 90 58 91 59 92 65 93 67 94 60 95 61 96 62 97
REMARK SMILES IDX 63 98 64 99
REMARK H PARENT 19 7 6 15 26 30 88 49 54 60
REMARK Flexibility Score: inf
ROOT
ATOM      1  C   UNL A   1      36.872  23.557  24.768  1.00  0.00     0.002 C 
ENDROOT
BRANCH   1   2
ATOM      2  C   UNL A   1      36.022  24.280  25.829  1.00  0.00     0.021 C 
BRANCH   2   3
ATOM      3  C   UNL A   1      34.541  24.484  25.505  1.00  0.00     0.116 C 
BRANCH   3   4
ATOM      4  N   UNL A   1      34.290  25.234  24.295  1.00  0.00    -0.354 N 
ATOM      5  C   UNL A   1      33.615  26.397  24.102  1.00  0.00     0.242 C 
ATOM      6  O   UNL A   1      33.968  27.049  23.106  1.00  0.00    -0.273 OA
ATOM      7  H   UNL A   1      34.670  24.837  23.478  1.00  0.00     0.163 HD
BRANCH   5   8
ATOM      8  C   UNL A   1      32.527  27.014  25.043  1.00  0.00     0.173 C 
BRANCH   8   9
ATOM      9  C   UNL A   1      33.030  27.207  26.485  1.00  0.00     0.063 C 
BRANCH   9  10
ATOM     10  C   UNL A   1      33.991  28.379  26.715  1.00  0.00     0.162 C 
BRANCH  10  11
ATOM     11  O   UNL A   1      33.375  29.640  26.433  1.00  0.00    -0.385 OA
ATOM     12  C   UNL A   1      33.489  30.594  27.477  1.00  0.00     0.194 C 
ENDBRANCH  10  11
ENDBRANCH   9  10
ENDBRANCH   8   9
BRANCH   8  13
ATOM     13  N   UNL A   1      31.075  26.723  24.964  1.00  0.00    -0.340 N 
ATOM     14  C   UNL A   1      30.236  25.645  25.120  1.00  0.00     0.254 C 
ATOM     15  H   UNL A   1      30.566  27.535  24.735  1.00  0.00     0.164 HD
ATOM     16  O   UNL A   1      29.038  25.874  25.280  1.00  0.00    -0.269 OA
BRANCH  14  17
ATOM     17  C   UNL A   1      30.682  24.251  24.970  1.00  0.00     0.075 A 
ATOM     18  C   UNL A   1      30.939  23.392  26.035  1.00  0.00     0.017 A 
ATOM     19  C   UNL A   1      30.998  23.833  23.680  1.00  0.00     0.136 A 
ATOM     20  C   UNL A   1      31.785  22.298  25.853  1.00  0.00     0.004 A 
ATOM     21  C   UNL A   1      31.769  22.693  23.482  1.00  0.00     0.043 A 
ATOM     22  F   UNL A   1      30.725  24.599  22.613  1.00  0.00    -0.206 F 
ATOM     23  C   UNL A   1      32.274  21.992  24.582  1.00  0.00    -0.048 A 
ATOM     24  C   UNL A   1      33.436  21.057  24.420  1.00  0.00     0.044 C 
ENDBRANCH  14  17
ENDBRANCH   8  13
ENDBRANCH   5   8
ENDBRANCH   3   4
ENDBRANCH   2   3
ENDBRANCH   1   2
BRANCH   1  25
ATOM     25  C   UNL A   1      37.577  22.244  25.151  1.00  0.00     0.002 C 
BRANCH  25  26
ATOM     26  C   UNL A   1      38.631  22.273  26.263  1.00  0.00     0.021 C 
BRANCH  26  27
ATOM     27  C   UNL A   1      39.186  23.632  26.700  1.00  0.00     0.116 C 
BRANCH  27  28
ATOM     28  N   UNL A   1      40.463  23.911  26.066  1.00  0.00    -0.352 N 
ATOM     29  C   UNL A   1      41.319  24.974  26.237  1.00  0.00     0.251 C 
ATOM     30  H   UNL A   1      40.761  23.235  25.416  1.00  0.00     0.163 HD
ATOM     31  O   UNL A   1      42.161  25.195  25.366  1.00  0.00    -0.269 OA
BRANCH  29  32
ATOM     32  C   UNL A   1      41.275  25.848  27.442  1.00  0.00     0.039 A 
ATOM     33  C   UNL A   1      40.186  25.727  28.318  1.00  0.00     0.014 A 
ATOM     34  C   UNL A   1      42.201  26.875  27.648  1.00  0.00     0.014 A 
ATOM     35  C   UNL A   1      40.031  26.620  29.388  1.00  0.00     0.010 A 
ATOM     36  C   UNL A   1      42.068  27.739  28.744  1.00  0.00     0.010 A 
ATOM     37  C   UNL A   1      40.968  27.640  29.614  1.00  0.00    -0.014 A 
BRANCH  37  38
ATOM     38  C   UNL A   1      40.783  28.628  30.717  1.00  0.00     0.031 A 
ATOM     39  C   UNL A   1      41.636  28.553  31.961  1.00  0.00     0.074 A 
ATOM     40  C   UNL A   1      39.834  29.581  30.623  1.00  0.00     0.049 A 
ATOM     41  N   UNL A   1      41.594  29.291  33.042  1.00  0.00    -0.248 NA
ATOM     42  C   UNL A   1      42.658  27.496  32.001  1.00  0.00     0.031 C 
ATOM     43  C   UNL A   1      38.921  29.754  29.492  1.00  0.00     0.029 A 
ATOM     44  N   UNL A   1      39.469  30.577  31.497  1.00  0.00    -0.354 N 
ATOM     45  C   UNL A   1      42.566  28.779  33.896  1.00  0.00     0.074 A 
ATOM     46  C   UNL A   1      43.156  27.644  33.221  1.00  0.00     0.031 C 
ATOM     47  C   UNL A   1      38.110  30.797  29.737  1.00  0.00     0.029 A 
ATOM     48  C   UNL A   1      38.422  31.350  31.052  1.00  0.00     0.049 A 
ATOM     49  H   UNL A   1      39.917  30.724  32.362  1.00  0.00     0.167 HD
ATOM     50  C   UNL A   1      42.947  29.223  35.119  1.00  0.00     0.037 A 
ATOM     51  C   UNL A   1      37.777  32.379  31.637  1.00  0.00     0.037 A 
ATOM     52  C   UNL A   1      42.382  30.373  35.779  1.00  0.00     0.049 A 
ATOM     53  C   UNL A   1      38.219  32.859  32.994  1.00  0.00     0.074 A 
ATOM     54  C   UNL A   1      42.744  30.935  36.992  1.00  0.00     0.029 A 
ATOM     55  N   UNL A   1      41.335  31.138  35.285  1.00  0.00    -0.354 N 
ATOM     56  N   UNL A   1      39.179  32.396  33.759  1.00  0.00    -0.248 NA
ATOM     57  C   UNL A   1      37.497  34.004  33.566  1.00  0.00     0.031 C 
ATOM     58  C   UNL A   1      41.891  32.013  37.250  1.00  0.00     0.029 A 
ATOM     59  C   UNL A   1      41.026  32.153  36.176  1.00  0.00     0.049 A 
ATOM     60  H   UNL A   1      40.879  30.982  34.427  1.00  0.00     0.167 HD
ATOM     61  C   UNL A   1      39.192  33.208  34.888  1.00  0.00     0.074 A 
ATOM     62  C   UNL A   1      38.152  34.199  34.702  1.00  0.00     0.031 C 
ATOM     63  C   UNL A   1      39.993  33.139  35.979  1.00  0.00     0.037 A 
BRANCH  50  64
ATOM     64  C   UNL A   1      44.034  28.464  35.834  1.00  0.00     0.058 A 
ATOM     65  C   UNL A   1      45.391  28.779  35.658  1.00  0.00     0.135 A 
ATOM     66  C   UNL A   1      43.715  27.437  36.738  1.00  0.00     0.135 A 
ATOM     67  F   UNL A   1      45.756  29.744  34.800  1.00  0.00    -0.206 F 
ATOM     68  C   UNL A   1      46.393  28.084  36.329  1.00  0.00     0.059 A 
ATOM     69  C   UNL A   1      44.699  26.747  37.439  1.00  0.00     0.059 A 
ATOM     70  F   UNL A   1      42.434  27.098  36.949  1.00  0.00    -0.206 F 
ATOM     71  C   UNL A   1      46.038  27.067  37.216  1.00  0.00     0.060 A 
BRANCH  71  72
ATOM     72  S   UNL A   1      47.347  26.173  38.081  1.00  0.00     0.124 S 
ATOM     73  O   UNL A   1      48.529  26.589  37.327  1.00  0.00    -0.237 OA
ATOM     74  O   UNL A   1      47.246  26.709  39.439  1.00  0.00    -0.237 OA
ATOM     75  O   UNL A   1      46.966  24.778  37.931  1.00  0.00    -0.744 OA
ENDBRANCH  71  72
ENDBRANCH  50  64
BRANCH  51  76
ATOM     76  C   UNL A   1      36.648  33.043  30.930  1.00  0.00     0.058 A 
ATOM     77  C   UNL A   1      35.318  32.812  31.314  1.00  0.00     0.135 A 
ATOM     78  C   UNL A   1      36.876  33.931  29.868  1.00  0.00     0.135 A 
ATOM     79  F   UNL A   1      35.048  31.963  32.318  1.00  0.00    -0.206 F 
ATOM     80  C   UNL A   1      34.253  33.429  30.664  1.00  0.00     0.059 A 
ATOM     81  C   UNL A   1      35.829  34.578  29.218  1.00  0.00     0.059 A 
ATOM     82  F   UNL A   1      38.129  34.196  29.470  1.00  0.00    -0.206 F 
ATOM     83  C   UNL A   1      34.520  34.315  29.618  1.00  0.00     0.060 A 
BRANCH  83  84
ATOM     84  S   UNL A   1      33.136  35.159  28.822  1.00  0.00     0.124 S 
ATOM     85  O   UNL A   1      32.651  34.131  27.908  1.00  0.00    -0.237 OA
ATOM     86  O   UNL A   1      32.269  35.465  29.957  1.00  0.00    -0.237 OA
ATOM     87  O   UNL A   1      33.766  36.317  28.197  1.00  0.00    -0.744 OA
ENDBRANCH  83  84
ENDBRANCH  51  76
BRANCH  63  88
ATOM     88  C   UNL A   1      39.804  34.181  37.048  1.00  0.00     0.058 A 
ATOM     89  C   UNL A   1      38.917  33.989  38.117  1.00  0.00     0.135 A 
ATOM     90  C   UNL A   1      40.561  35.365  37.029  1.00  0.00     0.135 A 
ATOM     91  F   UNL A   1      38.166  32.877  38.180  1.00  0.00    -0.206 F 
ATOM     92  C   UNL A   1      38.767  34.943  39.119  1.00  0.00     0.059 A 
ATOM     93  C   UNL A   1      40.446  36.321  38.034  1.00  0.00     0.059 A 
ATOM     94  F   UNL A   1      41.432  35.594  36.034  1.00  0.00    -0.206 F 
ATOM     95  C   UNL A   1      39.538  36.106  39.069  1.00  0.00     0.060 A 
BRANCH  95  96
ATOM     96  S   UNL A   1      39.360  37.322  40.392  1.00  0.00     0.124 S 
ATOM     97  O   UNL A   1      40.726  37.819  40.520  1.00  0.00    -0.237 OA
ATOM     98  O   UNL A   1      38.394  38.260  39.829  1.00  0.00    -0.237 OA
ATOM     99  O   UNL A   1      38.872  36.531  41.518  1.00  0.00    -0.744 OA
ENDBRANCH  95  96
ENDBRANCH  63  88
ENDBRANCH  37  38
ENDBRANCH  29  32
ENDBRANCH  27  28
ENDBRANCH  26  27
ENDBRANCH  25  26
ENDBRANCH   1  25
TORSDOF 21
ENDMDL
