MODEL 1
REMARK VINA RESULT:     -11.8      0.000      0.000
REMARK SMILES O=C(NCCCCCCNC(=O)[C@@H]1Cc2[nH]cnc2CN1C(=O)NCC(F)(F)F)c1ccc(-c2c3nc(c(-c4c(F)cc(S(=O)(=O)[O-])cc4F)c4ccc([nH]4)c(-c4c(F)cc(S(=O)(=O)[O-])cc4F)c4nc(c(-c5c(F)cc(S(=O)(=O)[O-])cc5F)c5ccc2[nH]5)C=C4)C=C3)cc1
REMARK SMILES IDX 6 1 5 2 4 3 3 4 1 5 2 6 30 8 31 9 95 10 32 11 94 12 33 13
REMARK SMILES IDX 34 14 35 15 88 16 36 17 93 18 87 19 89 20 37 21 92 22 86 23
REMARK SMILES IDX 85 24 38 26 72 27 51 28 71 29 52 30 55 31 70 32 90 33 53 34
REMARK SMILES IDX 54 35 69 37 91 38 56 39 39 40 40 41 49 42 41 43 42 44 48 45
REMARK SMILES IDX 50 46 43 47 44 48 45 49 46 50 47 51 73 52 74 53 83 54 75 55
REMARK SMILES IDX 76 56 82 57 84 58 77 59 78 60 79 61 80 62 81 63 57 64 58 65
REMARK SMILES IDX 67 66 59 67 60 68 66 69 68 70 61 71 62 72 63 73 64 74 65 75
REMARK SMILES IDX 7 76 8 77 9 78 10 79 11 80 12 82 13 83 14 84 21 85 15 86
REMARK SMILES IDX 20 87 16 88 19 89 17 90 18 92 22 93 23 94 24 95 25 97 26 98
REMARK SMILES IDX 27 99 28 100 29 101
REMARK H PARENT 3 7 89 25 55 36 10 81 16 91 24 96
REMARK Flexibility Score: inf
ROOT
ATOM      1  C   UNL A   1      40.719  21.213  27.102  1.00  0.00     0.002 C 
ENDROOT
BRANCH   1   2
ATOM      2  C   UNL A   1      40.863  19.987  26.194  1.00  0.00     0.021 C 
BRANCH   2   3
ATOM      3  C   UNL A   1      42.240  19.321  26.241  1.00  0.00     0.116 C 
BRANCH   3   4
ATOM      4  N   UNL A   1      43.077  19.611  25.099  1.00  0.00    -0.352 N 
ATOM      5  O   UNL A   1      44.530  20.526  23.711  1.00  0.00    -0.269 OA
ATOM      6  C   UNL A   1      43.861  20.669  24.739  1.00  0.00     0.251 C 
ATOM      7  H   UNL A   1      43.084  18.884  24.434  1.00  0.00     0.163 HD
BRANCH   6   8
ATOM      8  C   UNL A   1      43.901  21.970  25.457  1.00  0.00     0.039 A 
ATOM      9  C   UNL A   1      44.705  22.265  26.561  1.00  0.00     0.014 A 
ATOM     10  C   UNL A   1      43.016  22.955  24.984  1.00  0.00     0.014 A 
ATOM     11  C   UNL A   1      44.550  23.460  27.250  1.00  0.00     0.010 A 
ATOM     12  C   UNL A   1      42.881  24.166  25.648  1.00  0.00     0.010 A 
ATOM     13  C   UNL A   1      43.616  24.392  26.810  1.00  0.00    -0.014 A 
BRANCH  13  14
ATOM     14  C   UNL A   1      43.500  25.641  27.554  1.00  0.00     0.031 A 
ATOM     15  C   UNL A   1      44.565  26.654  27.285  1.00  0.00     0.074 A 
ATOM     16  C   UNL A   1      42.410  25.915  28.296  1.00  0.00     0.049 A 
ATOM     17  N   UNL A   1      45.344  27.266  28.120  1.00  0.00    -0.248 NA
ATOM     18  C   UNL A   1      44.854  26.959  25.873  1.00  0.00     0.031 C 
ATOM     19  C   UNL A   1      41.173  25.132  28.394  1.00  0.00     0.029 A 
ATOM     20  N   UNL A   1      42.125  27.031  29.017  1.00  0.00    -0.354 N 
ATOM     21  C   UNL A   1      46.081  28.176  27.361  1.00  0.00     0.074 A 
ATOM     22  C   UNL A   1      45.843  27.846  25.981  1.00  0.00     0.031 C 
ATOM     23  C   UNL A   1      40.201  25.908  28.921  1.00  0.00     0.029 A 
ATOM     24  C   UNL A   1      40.776  27.186  29.303  1.00  0.00     0.049 A 
ATOM     25  H   UNL A   1      42.813  27.671  29.310  1.00  0.00     0.167 HD
ATOM     26  C   UNL A   1      46.679  29.273  27.904  1.00  0.00     0.037 A 
ATOM     27  C   UNL A   1      40.165  28.324  29.718  1.00  0.00     0.037 A 
ATOM     28  C   UNL A   1      46.863  29.142  29.323  1.00  0.00     0.049 A 
ATOM     29  C   UNL A   1      41.216  29.215  30.275  1.00  0.00     0.074 A 
ATOM     30  C   UNL A   1      47.556  28.268  30.137  1.00  0.00     0.029 A 
ATOM     31  N   UNL A   1      46.009  29.820  30.157  1.00  0.00    -0.354 N 
ATOM     32  N   UNL A   1      41.906  28.953  31.351  1.00  0.00    -0.248 NA
ATOM     33  C   UNL A   1      41.809  30.204  29.385  1.00  0.00     0.031 C 
ATOM     34  C   UNL A   1      46.739  28.115  31.296  1.00  0.00     0.029 A 
ATOM     35  C   UNL A   1      45.621  28.933  31.129  1.00  0.00     0.049 A 
ATOM     36  H   UNL A   1      45.729  30.761  30.074  1.00  0.00     0.167 HD
ATOM     37  C   UNL A   1      43.185  29.421  31.085  1.00  0.00     0.074 A 
ATOM     38  C   UNL A   1      43.040  30.261  29.899  1.00  0.00     0.031 C 
ATOM     39  C   UNL A   1      44.285  28.872  31.680  1.00  0.00     0.037 A 
BRANCH  26  40
ATOM     40  C   UNL A   1      46.799  30.602  27.192  1.00  0.00     0.058 A 
ATOM     41  C   UNL A   1      48.047  31.257  27.128  1.00  0.00     0.135 A 
ATOM     42  C   UNL A   1      45.681  31.385  26.827  1.00  0.00     0.135 A 
ATOM     43  F   UNL A   1      49.175  30.611  27.461  1.00  0.00    -0.206 F 
ATOM     44  C   UNL A   1      48.163  32.609  26.799  1.00  0.00     0.059 A 
ATOM     45  C   UNL A   1      45.782  32.718  26.444  1.00  0.00     0.059 A 
ATOM     46  F   UNL A   1      44.427  30.925  26.924  1.00  0.00    -0.206 F 
ATOM     47  C   UNL A   1      47.020  33.336  26.480  1.00  0.00     0.060 A 
BRANCH  47  48
ATOM     48  S   UNL A   1      47.145  35.110  26.197  1.00  0.00     0.124 S 
ATOM     49  O   UNL A   1      48.224  35.170  25.217  1.00  0.00    -0.237 OA
ATOM     50  O   UNL A   1      45.811  35.435  25.702  1.00  0.00    -0.237 OA
ATOM     51  O   UNL A   1      47.462  35.640  27.520  1.00  0.00    -0.744 OA
ENDBRANCH  47  48
ENDBRANCH  26  40
BRANCH  27  52
ATOM     52  C   UNL A   1      38.826  28.812  29.292  1.00  0.00     0.058 A 
ATOM     53  C   UNL A   1      37.770  28.950  30.208  1.00  0.00     0.135 A 
ATOM     54  C   UNL A   1      38.627  29.394  28.022  1.00  0.00     0.135 A 
ATOM     55  F   UNL A   1      37.887  28.458  31.451  1.00  0.00    -0.206 F 
ATOM     56  C   UNL A   1      36.598  29.648  29.892  1.00  0.00     0.059 A 
ATOM     57  C   UNL A   1      37.464  30.078  27.680  1.00  0.00     0.059 A 
ATOM     58  F   UNL A   1      39.600  29.396  27.098  1.00  0.00    -0.206 F 
ATOM     59  C   UNL A   1      36.459  30.221  28.627  1.00  0.00     0.060 A 
BRANCH  59  60
ATOM     60  S   UNL A   1      35.019  31.249  28.261  1.00  0.00     0.124 S 
ATOM     61  O   UNL A   1      35.579  32.236  27.343  1.00  0.00    -0.237 OA
ATOM     62  O   UNL A   1      34.094  30.286  27.674  1.00  0.00    -0.237 OA
ATOM     63  O   UNL A   1      34.628  31.767  29.570  1.00  0.00    -0.744 OA
ENDBRANCH  59  60
ENDBRANCH  27  52
BRANCH  39  64
ATOM     64  C   UNL A   1      44.072  27.914  32.826  1.00  0.00     0.058 A 
ATOM     65  C   UNL A   1      43.824  28.324  34.148  1.00  0.00     0.135 A 
ATOM     66  C   UNL A   1      43.946  26.546  32.548  1.00  0.00     0.135 A 
ATOM     67  F   UNL A   1      43.810  29.622  34.475  1.00  0.00    -0.206 F 
ATOM     68  C   UNL A   1      43.505  27.413  35.156  1.00  0.00     0.059 A 
ATOM     69  C   UNL A   1      43.597  25.622  33.531  1.00  0.00     0.059 A 
ATOM     70  F   UNL A   1      44.099  26.098  31.290  1.00  0.00    -0.206 F 
ATOM     71  C   UNL A   1      43.389  26.062  34.837  1.00  0.00     0.060 A 
BRANCH  71  72
ATOM     72  S   UNL A   1      42.874  24.903  36.122  1.00  0.00     0.124 S 
ATOM     73  O   UNL A   1      43.764  23.770  35.889  1.00  0.00    -0.237 OA
ATOM     74  O   UNL A   1      43.119  25.659  37.348  1.00  0.00    -0.237 OA
ATOM     75  O   UNL A   1      41.465  24.664  35.822  1.00  0.00    -0.744 OA
ENDBRANCH  71  72
ENDBRANCH  39  64
ENDBRANCH  13  14
ENDBRANCH   6   8
ENDBRANCH   3   4
ENDBRANCH   2   3
ENDBRANCH   1   2
BRANCH   1  76
ATOM     76  C   UNL A   1      39.688  22.248  26.643  1.00  0.00     0.002 C 
BRANCH  76  77
ATOM     77  C   UNL A   1      38.585  21.705  25.731  1.00  0.00     0.021 C 
BRANCH  77  78
ATOM     78  C   UNL A   1      37.445  22.679  25.474  1.00  0.00     0.116 C 
BRANCH  78  79
ATOM     79  N   UNL A   1      36.431  22.603  26.510  1.00  0.00    -0.354 N 
ATOM     80  C   UNL A   1      35.071  22.720  26.418  1.00  0.00     0.243 C 
ATOM     81  H   UNL A   1      36.775  22.443  27.417  1.00  0.00     0.163 HD
ATOM     82  O   UNL A   1      34.421  22.576  27.454  1.00  0.00    -0.273 OA
BRANCH  80  83
ATOM     83  C   UNL A   1      34.443  23.120  25.060  1.00  0.00     0.182 C 
ATOM     84  C   UNL A   1      34.506  24.666  24.890  1.00  0.00     0.091 C 
ATOM     85  N   UNL A   1      33.071  22.603  24.809  1.00  0.00    -0.306 N 
ATOM     86  C   UNL A   1      33.327  25.258  25.568  1.00  0.00     0.042 A 
ATOM     87  C   UNL A   1      32.028  23.084  25.758  1.00  0.00     0.180 C 
ATOM     88  N   UNL A   1      33.109  26.549  25.941  1.00  0.00    -0.348 N 
ATOM     89  C   UNL A   1      32.206  24.556  25.958  1.00  0.00     0.081 A 
ATOM     90  C   UNL A   1      31.880  26.580  26.547  1.00  0.00     0.197 A 
ATOM     91  H   UNL A   1      33.715  27.312  25.802  1.00  0.00     0.167 HD
ATOM     92  N   UNL A   1      31.306  25.396  26.562  1.00  0.00    -0.240 NA
BRANCH  85  93
ATOM     93  C   UNL A   1      32.659  21.712  23.868  1.00  0.00     0.318 C 
ATOM     94  O   UNL A   1      32.085  22.072  22.835  1.00  0.00    -0.249 OA
ATOM     95  N   UNL A   1      32.881  20.387  23.933  1.00  0.00    -0.329 N 
ATOM     96  H   UNL A   1      32.461  19.919  23.176  1.00  0.00     0.165 HD
BRANCH  95  97
ATOM     97  C   UNL A   1      33.574  19.445  24.818  1.00  0.00     0.233 C 
BRANCH  97  98
ATOM     98  C   UNL A   1      33.796  18.050  24.226  1.00  0.00     0.405 C 
ATOM     99  F   UNL A   1      35.109  17.799  24.050  1.00  0.00    -0.169 F 
ATOM    100  F   UNL A   1      33.298  17.107  25.061  1.00  0.00    -0.169 F 
ATOM    101  F   UNL A   1      33.170  17.898  23.040  1.00  0.00    -0.169 F 
ENDBRANCH  97  98
ENDBRANCH  95  97
ENDBRANCH  85  93
ENDBRANCH  80  83
ENDBRANCH  78  79
ENDBRANCH  77  78
ENDBRANCH  76  77
ENDBRANCH   1  76
TORSDOF 19
ENDMDL
MODEL 2
REMARK VINA RESULT:     -11.8      2.812      9.127
REMARK SMILES O=C(NCCCCCCNC(=O)[C@@H]1Cc2[nH]cnc2CN1C(=O)NCC(F)(F)F)c1ccc(-c2c3nc(c(-c4c(F)cc(S(=O)(=O)[O-])cc4F)c4ccc([nH]4)c(-c4c(F)cc(S(=O)(=O)[O-])cc4F)c4nc(c(-c5c(F)cc(S(=O)(=O)[O-])cc5F)c5ccc2[nH]5)C=C4)C=C3)cc1
REMARK SMILES IDX 6 1 5 2 4 3 3 4 1 5 2 6 30 8 31 9 95 10 32 11 94 12 33 13
REMARK SMILES IDX 34 14 35 15 88 16 36 17 93 18 87 19 89 20 37 21 92 22 86 23
REMARK SMILES IDX 85 24 38 26 72 27 51 28 71 29 52 30 55 31 70 32 90 33 53 34
REMARK SMILES IDX 54 35 69 37 91 38 56 39 39 40 40 41 49 42 41 43 42 44 48 45
REMARK SMILES IDX 50 46 43 47 44 48 45 49 46 50 47 51 73 52 74 53 83 54 75 55
REMARK SMILES IDX 76 56 82 57 84 58 77 59 78 60 79 61 80 62 81 63 57 64 58 65
REMARK SMILES IDX 67 66 59 67 60 68 66 69 68 70 61 71 62 72 63 73 64 74 65 75
REMARK SMILES IDX 7 76 8 77 9 78 10 79 11 80 12 82 13 83 14 84 21 85 15 86
REMARK SMILES IDX 20 87 16 88 19 89 17 90 18 92 22 93 23 94 24 95 25 97 26 98
REMARK SMILES IDX 27 99 28 100 29 101
REMARK H PARENT 3 7 89 25 55 36 10 81 16 91 24 96
REMARK Flexibility Score: inf
ROOT
ATOM      1  C   UNL A   1      31.813  27.969  27.175  1.00  0.00     0.002 C 
ENDROOT
BRANCH   1   2
ATOM      2  C   UNL A   1      33.324  28.192  27.047  1.00  0.00     0.021 C 
BRANCH   2   3
ATOM      3  C   UNL A   1      33.720  29.581  26.542  1.00  0.00     0.116 C 
BRANCH   3   4
ATOM      4  N   UNL A   1      33.731  30.602  27.566  1.00  0.00    -0.352 N 
ATOM      5  O   UNL A   1      34.360  32.103  29.058  1.00  0.00    -0.269 OA
ATOM      6  C   UNL A   1      34.708  31.162  28.339  1.00  0.00     0.251 C 
ATOM      7  H   UNL A   1      32.838  30.975  27.745  1.00  0.00     0.163 HD
BRANCH   6   8
ATOM      8  C   UNL A   1      36.109  30.672  28.411  1.00  0.00     0.039 A 
ATOM      9  C   UNL A   1      36.522  29.355  28.195  1.00  0.00     0.014 A 
ATOM     10  C   UNL A   1      37.074  31.631  28.767  1.00  0.00     0.014 A 
ATOM     11  C   UNL A   1      37.834  28.974  28.440  1.00  0.00     0.010 A 
ATOM     12  C   UNL A   1      38.394  31.264  28.981  1.00  0.00     0.010 A 
ATOM     13  C   UNL A   1      38.758  29.925  28.864  1.00  0.00    -0.014 A 
BRANCH  13  14
ATOM     14  C   UNL A   1      40.129  29.484  29.093  1.00  0.00     0.031 A 
ATOM     15  C   UNL A   1      40.549  29.397  30.524  1.00  0.00     0.074 A 
ATOM     16  C   UNL A   1      40.894  29.025  28.084  1.00  0.00     0.049 A 
ATOM     17  N   UNL A   1      41.569  29.936  31.114  1.00  0.00    -0.248 NA
ATOM     18  C   UNL A   1      39.649  28.672  31.440  1.00  0.00     0.031 C 
ATOM     19  C   UNL A   1      40.493  28.781  26.695  1.00  0.00     0.029 A 
ATOM     20  N   UNL A   1      42.166  28.547  28.125  1.00  0.00    -0.354 N 
ATOM     21  C   UNL A   1      41.551  29.458  32.425  1.00  0.00     0.074 A 
ATOM     22  C   UNL A   1      40.280  28.806  32.606  1.00  0.00     0.031 C 
ATOM     23  C   UNL A   1      41.410  27.985  26.104  1.00  0.00     0.029 A 
ATOM     24  C   UNL A   1      42.509  27.768  27.029  1.00  0.00     0.049 A 
ATOM     25  H   UNL A   1      42.788  28.737  28.864  1.00  0.00     0.167 HD
ATOM     26  C   UNL A   1      42.657  29.446  33.220  1.00  0.00     0.037 A 
ATOM     27  C   UNL A   1      43.564  26.921  26.941  1.00  0.00     0.037 A 
ATOM     28  C   UNL A   1      43.663  30.361  32.758  1.00  0.00     0.049 A 
ATOM     29  C   UNL A   1      44.543  27.318  27.987  1.00  0.00     0.074 A 
ATOM     30  C   UNL A   1      43.722  31.728  32.568  1.00  0.00     0.029 A 
ATOM     31  N   UNL A   1      44.753  29.853  32.095  1.00  0.00    -0.354 N 
ATOM     32  N   UNL A   1      45.193  28.450  27.990  1.00  0.00    -0.248 NA
ATOM     33  C   UNL A   1      44.476  26.638  29.272  1.00  0.00     0.031 C 
ATOM     34  C   UNL A   1      44.532  31.906  31.408  1.00  0.00     0.029 A 
ATOM     35  C   UNL A   1      44.944  30.640  30.989  1.00  0.00     0.049 A 
ATOM     36  H   UNL A   1      45.294  29.074  32.363  1.00  0.00     0.167 HD
ATOM     37  C   UNL A   1      45.264  28.822  29.326  1.00  0.00     0.074 A 
ATOM     38  C   UNL A   1      44.887  27.625  30.072  1.00  0.00     0.031 C 
ATOM     39  C   UNL A   1      45.353  30.134  29.697  1.00  0.00     0.037 A 
BRANCH  26  40
ATOM     40  C   UNL A   1      42.953  28.360  34.230  1.00  0.00     0.058 A 
ATOM     41  C   UNL A   1      43.145  28.694  35.587  1.00  0.00     0.135 A 
ATOM     42  C   UNL A   1      43.338  27.050  33.865  1.00  0.00     0.135 A 
ATOM     43  F   UNL A   1      42.822  29.915  36.043  1.00  0.00    -0.206 F 
ATOM     44  C   UNL A   1      43.746  27.817  36.493  1.00  0.00     0.059 A 
ATOM     45  C   UNL A   1      43.888  26.143  34.764  1.00  0.00     0.059 A 
ATOM     46  F   UNL A   1      43.296  26.623  32.596  1.00  0.00    -0.206 F 
ATOM     47  C   UNL A   1      44.133  26.551  36.064  1.00  0.00     0.060 A 
BRANCH  47  48
ATOM     48  S   UNL A   1      45.037  25.470  37.186  1.00  0.00     0.124 S 
ATOM     49  O   UNL A   1      46.412  25.895  36.949  1.00  0.00    -0.237 OA
ATOM     50  O   UNL A   1      44.470  25.832  38.481  1.00  0.00    -0.237 OA
ATOM     51  O   UNL A   1      44.697  24.133  36.710  1.00  0.00    -0.744 OA
ENDBRANCH  47  48
ENDBRANCH  26  40
BRANCH  27  52
ATOM     52  C   UNL A   1      43.570  25.585  26.287  1.00  0.00     0.058 A 
ATOM     53  C   UNL A   1      44.492  25.266  25.275  1.00  0.00     0.135 A 
ATOM     54  C   UNL A   1      42.834  24.504  26.818  1.00  0.00     0.135 A 
ATOM     55  F   UNL A   1      45.261  26.227  24.738  1.00  0.00    -0.206 F 
ATOM     56  C   UNL A   1      44.691  23.952  24.837  1.00  0.00     0.059 A 
ATOM     57  C   UNL A   1      43.003  23.192  26.386  1.00  0.00     0.059 A 
ATOM     58  F   UNL A   1      41.987  24.677  27.844  1.00  0.00    -0.206 F 
ATOM     59  C   UNL A   1      43.949  22.918  25.408  1.00  0.00     0.060 A 
BRANCH  59  60
ATOM     60  S   UNL A   1      44.305  21.203  24.957  1.00  0.00     0.124 S 
ATOM     61  O   UNL A   1      43.124  20.509  25.459  1.00  0.00    -0.237 OA
ATOM     62  O   UNL A   1      44.426  21.286  23.505  1.00  0.00    -0.237 OA
ATOM     63  O   UNL A   1      45.547  20.914  25.668  1.00  0.00    -0.744 OA
ENDBRANCH  59  60
ENDBRANCH  27  52
BRANCH  39  64
ATOM     64  C   UNL A   1      45.630  31.161  28.627  1.00  0.00     0.058 A 
ATOM     65  C   UNL A   1      44.632  31.724  27.812  1.00  0.00     0.135 A 
ATOM     66  C   UNL A   1      46.914  31.716  28.540  1.00  0.00     0.135 A 
ATOM     67  F   UNL A   1      43.356  31.333  27.915  1.00  0.00    -0.206 F 
ATOM     68  C   UNL A   1      44.906  32.764  26.923  1.00  0.00     0.059 A 
ATOM     69  C   UNL A   1      47.204  32.776  27.682  1.00  0.00     0.059 A 
ATOM     70  F   UNL A   1      47.895  31.271  29.343  1.00  0.00    -0.206 F 
ATOM     71  C   UNL A   1      46.196  33.288  26.868  1.00  0.00     0.060 A 
BRANCH  71  72
ATOM     72  S   UNL A   1      46.519  34.701  25.791  1.00  0.00     0.124 S 
ATOM     73  O   UNL A   1      47.900  34.466  25.382  1.00  0.00    -0.237 OA
ATOM     74  O   UNL A   1      45.512  34.540  24.745  1.00  0.00    -0.237 OA
ATOM     75  O   UNL A   1      46.313  35.851  26.667  1.00  0.00    -0.744 OA
ENDBRANCH  71  72
ENDBRANCH  39  64
ENDBRANCH  13  14
ENDBRANCH   6   8
ENDBRANCH   3   4
ENDBRANCH   2   3
ENDBRANCH   1   2
BRANCH   1  76
ATOM     76  C   UNL A   1      31.143  27.323  25.959  1.00  0.00     0.002 C 
BRANCH  76  77
ATOM     77  C   UNL A   1      30.919  25.813  26.068  1.00  0.00     0.021 C 
BRANCH  77  78
ATOM     78  C   UNL A   1      31.986  24.968  25.386  1.00  0.00     0.116 C 
BRANCH  78  79
ATOM     79  N   UNL A   1      32.512  23.950  26.276  1.00  0.00    -0.354 N 
ATOM     80  C   UNL A   1      33.435  22.967  26.038  1.00  0.00     0.243 C 
ATOM     81  H   UNL A   1      32.151  23.969  27.190  1.00  0.00     0.163 HD
ATOM     82  O   UNL A   1      33.744  22.243  26.985  1.00  0.00    -0.273 OA
BRANCH  80  83
ATOM     83  C   UNL A   1      33.952  22.759  24.593  1.00  0.00     0.182 C 
ATOM     84  C   UNL A   1      32.946  21.876  23.800  1.00  0.00     0.091 C 
ATOM     85  N   UNL A   1      35.341  22.237  24.477  1.00  0.00    -0.306 N 
ATOM     86  C   UNL A   1      33.257  20.451  24.077  1.00  0.00     0.042 A 
ATOM     87  C   UNL A   1      35.560  20.882  25.056  1.00  0.00     0.180 C 
ATOM     88  N   UNL A   1      32.491  19.347  23.860  1.00  0.00    -0.348 N 
ATOM     89  C   UNL A   1      34.430  19.994  24.637  1.00  0.00     0.081 A 
ATOM     90  C   UNL A   1      33.218  18.273  24.303  1.00  0.00     0.197 A 
ATOM     91  H   UNL A   1      31.591  19.324  23.463  1.00  0.00     0.167 HD
ATOM     92  N   UNL A   1      34.397  18.630  24.765  1.00  0.00    -0.240 NA
BRANCH  85  93
ATOM     93  C   UNL A   1      36.439  22.855  23.964  1.00  0.00     0.318 C 
ATOM     94  O   UNL A   1      36.686  22.848  22.754  1.00  0.00    -0.249 OA
ATOM     95  N   UNL A   1      37.314  23.568  24.695  1.00  0.00    -0.329 N 
ATOM     96  H   UNL A   1      38.060  23.891  24.139  1.00  0.00     0.165 HD
BRANCH  95  97
ATOM     97  C   UNL A   1      37.468  23.999  26.088  1.00  0.00     0.233 C 
BRANCH  97  98
ATOM     98  C   UNL A   1      38.915  24.047  26.590  1.00  0.00     0.405 C 
ATOM     99  F   UNL A   1      38.961  24.161  27.933  1.00  0.00    -0.169 F 
ATOM    100  F   UNL A   1      39.564  22.909  26.245  1.00  0.00    -0.169 F 
ATOM    101  F   UNL A   1      39.604  25.074  26.051  1.00  0.00    -0.169 F 
ENDBRANCH  97  98
ENDBRANCH  95  97
ENDBRANCH  85  93
ENDBRANCH  80  83
ENDBRANCH  78  79
ENDBRANCH  77  78
ENDBRANCH  76  77
ENDBRANCH   1  76
TORSDOF 19
ENDMDL
MODEL 3
REMARK VINA RESULT:     -11.7      1.818      2.425
REMARK SMILES O=C(NCCCCCCNC(=O)[C@@H]1Cc2[nH]cnc2CN1C(=O)NCC(F)(F)F)c1ccc(-c2c3nc(c(-c4c(F)cc(S(=O)(=O)[O-])cc4F)c4ccc([nH]4)c(-c4c(F)cc(S(=O)(=O)[O-])cc4F)c4nc(c(-c5c(F)cc(S(=O)(=O)[O-])cc5F)c5ccc2[nH]5)C=C4)C=C3)cc1
REMARK SMILES IDX 6 1 5 2 4 3 3 4 1 5 2 6 30 8 31 9 95 10 32 11 94 12 33 13
REMARK SMILES IDX 34 14 35 15 88 16 36 17 93 18 87 19 89 20 37 21 92 22 86 23
REMARK SMILES IDX 85 24 38 26 72 27 51 28 71 29 52 30 55 31 70 32 90 33 53 34
REMARK SMILES IDX 54 35 69 37 91 38 56 39 39 40 40 41 49 42 41 43 42 44 48 45
REMARK SMILES IDX 50 46 43 47 44 48 45 49 46 50 47 51 73 52 74 53 83 54 75 55
REMARK SMILES IDX 76 56 82 57 84 58 77 59 78 60 79 61 80 62 81 63 57 64 58 65
REMARK SMILES IDX 67 66 59 67 60 68 66 69 68 70 61 71 62 72 63 73 64 74 65 75
REMARK SMILES IDX 7 76 8 77 9 78 10 79 11 80 12 82 13 83 14 84 21 85 15 86
REMARK SMILES IDX 20 87 16 88 19 89 17 90 18 92 22 93 23 94 24 95 25 97 26 98
REMARK SMILES IDX 27 99 28 100 29 101
REMARK H PARENT 3 7 89 25 55 36 10 81 16 91 24 96
REMARK Flexibility Score: inf
ROOT
ATOM      1  C   UNL A   1      39.615  22.240  26.446  1.00  0.00     0.002 C 
ENDROOT
BRANCH   1   2
ATOM      2  C   UNL A   1      40.764  21.900  27.403  1.00  0.00     0.021 C 
BRANCH   2   3
ATOM      3  C   UNL A   1      41.860  21.024  26.793  1.00  0.00     0.116 C 
BRANCH   3   4
ATOM      4  N   UNL A   1      42.412  21.540  25.560  1.00  0.00    -0.352 N 
ATOM      5  O   UNL A   1      43.418  22.795  24.047  1.00  0.00    -0.269 OA
ATOM      6  C   UNL A   1      42.941  22.741  25.185  1.00  0.00     0.251 C 
ATOM      7  H   UNL A   1      42.405  20.878  24.831  1.00  0.00     0.163 HD
BRANCH   6   8
ATOM      8  C   UNL A   1      42.915  23.971  26.020  1.00  0.00     0.039 A 
ATOM      9  C   UNL A   1      43.609  24.154  27.218  1.00  0.00     0.014 A 
ATOM     10  C   UNL A   1      42.083  25.005  25.558  1.00  0.00     0.014 A 
ATOM     11  C   UNL A   1      43.392  25.283  27.997  1.00  0.00     0.010 A 
ATOM     12  C   UNL A   1      41.887  26.151  26.314  1.00  0.00     0.010 A 
ATOM     13  C   UNL A   1      42.507  26.262  27.557  1.00  0.00    -0.014 A 
BRANCH  13  14
ATOM     14  C   UNL A   1      42.323  27.438  28.398  1.00  0.00     0.031 A 
ATOM     15  C   UNL A   1      43.423  28.448  28.347  1.00  0.00     0.074 A 
ATOM     16  C   UNL A   1      41.159  27.667  29.037  1.00  0.00     0.049 A 
ATOM     17  N   UNL A   1      44.110  28.962  29.317  1.00  0.00    -0.248 NA
ATOM     18  C   UNL A   1      43.873  28.876  27.010  1.00  0.00     0.031 C 
ATOM     19  C   UNL A   1      39.911  26.907  28.923  1.00  0.00     0.029 A 
ATOM     20  N   UNL A   1      40.808  28.718  29.824  1.00  0.00    -0.354 N 
ATOM     21  C   UNL A   1      44.939  29.922  28.734  1.00  0.00     0.074 A 
ATOM     22  C   UNL A   1      44.854  29.726  27.311  1.00  0.00     0.031 C 
ATOM     23  C   UNL A   1      38.895  27.652  29.409  1.00  0.00     0.029 A 
ATOM     24  C   UNL A   1      39.438  28.876  29.972  1.00  0.00     0.049 A 
ATOM     25  H   UNL A   1      41.466  29.312  30.251  1.00  0.00     0.167 HD
ATOM     26  C   UNL A   1      45.486  30.951  29.441  1.00  0.00     0.037 A 
ATOM     27  C   UNL A   1      38.798  29.984  30.423  1.00  0.00     0.037 A 
ATOM     28  C   UNL A   1      45.507  30.684  30.853  1.00  0.00     0.049 A 
ATOM     29  C   UNL A   1      39.790  30.796  31.175  1.00  0.00     0.074 A 
ATOM     30  C   UNL A   1      46.093  29.723  31.653  1.00  0.00     0.029 A 
ATOM     31  N   UNL A   1      44.572  31.301  31.647  1.00  0.00    -0.354 N 
ATOM     32  N   UNL A   1      40.351  30.419  32.291  1.00  0.00    -0.248 NA
ATOM     33  C   UNL A   1      40.491  31.849  30.454  1.00  0.00     0.031 C 
ATOM     34  C   UNL A   1      45.149  29.482  32.694  1.00  0.00     0.029 A 
ATOM     35  C   UNL A   1      44.066  30.337  32.482  1.00  0.00     0.049 A 
ATOM     36  H   UNL A   1      44.315  32.252  31.623  1.00  0.00     0.167 HD
ATOM     37  C   UNL A   1      41.657  30.882  32.214  1.00  0.00     0.074 A 
ATOM     38  C   UNL A   1      41.657  31.831  31.104  1.00  0.00     0.031 C 
ATOM     39  C   UNL A   1      42.676  30.255  32.873  1.00  0.00     0.037 A 
BRANCH  26  40
ATOM     40  C   UNL A   1      45.701  32.336  28.876  1.00  0.00     0.058 A 
ATOM     41  C   UNL A   1      46.963  32.956  28.990  1.00  0.00     0.135 A 
ATOM     42  C   UNL A   1      44.639  33.185  28.488  1.00  0.00     0.135 A 
ATOM     43  F   UNL A   1      48.041  32.246  29.360  1.00  0.00    -0.206 F 
ATOM     44  C   UNL A   1      47.140  34.328  28.807  1.00  0.00     0.059 A 
ATOM     45  C   UNL A   1      44.805  34.544  28.248  1.00  0.00     0.059 A 
ATOM     46  F   UNL A   1      43.372  32.757  28.425  1.00  0.00    -0.206 F 
ATOM     47  C   UNL A   1      46.047  35.117  28.457  1.00  0.00     0.060 A 
BRANCH  47  48
ATOM     48  S   UNL A   1      46.237  36.906  28.360  1.00  0.00     0.124 S 
ATOM     49  O   UNL A   1      46.834  37.061  27.038  1.00  0.00    -0.237 OA
ATOM     50  O   UNL A   1      44.859  37.367  28.498  1.00  0.00    -0.237 OA
ATOM     51  O   UNL A   1      47.111  37.212  29.488  1.00  0.00    -0.744 OA
ENDBRANCH  47  48
ENDBRANCH  26  40
BRANCH  27  52
ATOM     52  C   UNL A   1      37.521  30.539  29.899  1.00  0.00     0.058 A 
ATOM     53  C   UNL A   1      36.549  31.080  30.756  1.00  0.00     0.135 A 
ATOM     54  C   UNL A   1      37.337  30.782  28.520  1.00  0.00     0.135 A 
ATOM     55  F   UNL A   1      36.664  30.929  32.085  1.00  0.00    -0.206 F 
ATOM     56  C   UNL A   1      35.474  31.839  30.278  1.00  0.00     0.059 A 
ATOM     57  C   UNL A   1      36.267  31.518  28.021  1.00  0.00     0.059 A 
ATOM     58  F   UNL A   1      38.246  30.385  27.617  1.00  0.00    -0.206 F 
ATOM     59  C   UNL A   1      35.348  32.064  28.907  1.00  0.00     0.060 A 
BRANCH  59  60
ATOM     60  S   UNL A   1      34.053  33.165  28.294  1.00  0.00     0.124 S 
ATOM     61  O   UNL A   1      33.559  33.765  29.528  1.00  0.00    -0.237 OA
ATOM     62  O   UNL A   1      34.797  34.052  27.406  1.00  0.00    -0.237 OA
ATOM     63  O   UNL A   1      33.123  32.258  27.626  1.00  0.00    -0.744 OA
ENDBRANCH  59  60
ENDBRANCH  27  52
BRANCH  39  64
ATOM     64  C   UNL A   1      42.325  29.200  33.892  1.00  0.00     0.058 A 
ATOM     65  C   UNL A   1      42.184  27.836  33.584  1.00  0.00     0.135 A 
ATOM     66  C   UNL A   1      42.297  29.554  35.249  1.00  0.00     0.135 A 
ATOM     67  F   UNL A   1      42.313  27.397  32.326  1.00  0.00    -0.206 F 
ATOM     68  C   UNL A   1      41.985  26.872  34.574  1.00  0.00     0.059 A 
ATOM     69  C   UNL A   1      42.132  28.605  36.256  1.00  0.00     0.059 A 
ATOM     70  F   UNL A   1      42.498  30.831  35.615  1.00  0.00    -0.206 F 
ATOM     71  C   UNL A   1      41.965  27.265  35.910  1.00  0.00     0.060 A 
BRANCH  71  72
ATOM     72  S   UNL A   1      41.811  26.002  37.191  1.00  0.00     0.124 S 
ATOM     73  O   UNL A   1      40.458  26.229  37.686  1.00  0.00    -0.237 OA
ATOM     74  O   UNL A   1      42.013  24.764  36.441  1.00  0.00    -0.237 OA
ATOM     75  O   UNL A   1      42.883  26.332  38.126  1.00  0.00    -0.744 OA
ENDBRANCH  71  72
ENDBRANCH  39  64
ENDBRANCH  13  14
ENDBRANCH   6   8
ENDBRANCH   3   4
ENDBRANCH   2   3
ENDBRANCH   1   2
BRANCH   1  76
ATOM     76  C   UNL A   1      38.903  23.566  26.727  1.00  0.00     0.002 C 
BRANCH  76  77
ATOM     77  C   UNL A   1      37.518  23.705  26.092  1.00  0.00     0.021 C 
BRANCH  77  78
ATOM     78  C   UNL A   1      36.939  22.404  25.556  1.00  0.00     0.116 C 
BRANCH  78  79
ATOM     79  N   UNL A   1      35.904  21.878  26.427  1.00  0.00    -0.354 N 
ATOM     80  C   UNL A   1      34.588  21.610  26.167  1.00  0.00     0.243 C 
ATOM     81  H   UNL A   1      36.194  21.685  27.347  1.00  0.00     0.163 HD
ATOM     82  O   UNL A   1      33.920  21.125  27.080  1.00  0.00    -0.273 OA
BRANCH  80  83
ATOM     83  C   UNL A   1      33.999  22.018  24.793  1.00  0.00     0.182 C 
ATOM     84  C   UNL A   1      33.971  23.569  24.677  1.00  0.00     0.091 C 
ATOM     85  N   UNL A   1      32.674  21.426  24.461  1.00  0.00    -0.306 N 
ATOM     86  C   UNL A   1      32.727  24.064  25.317  1.00  0.00     0.042 A 
ATOM     87  C   UNL A   1      31.561  21.808  25.375  1.00  0.00     0.180 C 
ATOM     88  N   UNL A   1      32.411  25.325  25.720  1.00  0.00    -0.348 N 
ATOM     89  C   UNL A   1      31.637  23.281  25.631  1.00  0.00     0.081 A 
ATOM     90  C   UNL A   1      31.156  25.258  26.269  1.00  0.00     0.197 A 
ATOM     91  H   UNL A   1      32.973  26.128  25.636  1.00  0.00     0.167 HD
ATOM     92  N   UNL A   1      30.658  24.041  26.217  1.00  0.00    -0.240 NA
BRANCH  85  93
ATOM     93  C   UNL A   1      32.364  20.545  23.473  1.00  0.00     0.318 C 
ATOM     94  O   UNL A   1      31.947  20.919  22.372  1.00  0.00    -0.249 OA
ATOM     95  N   UNL A   1      32.528  19.214  23.568  1.00  0.00    -0.329 N 
ATOM     96  H   UNL A   1      32.199  18.757  22.761  1.00  0.00     0.165 HD
BRANCH  95  97
ATOM     97  C   UNL A   1      33.062  18.253  24.539  1.00  0.00     0.233 C 
BRANCH  97  98
ATOM     98  C   UNL A   1      34.142  17.315  23.990  1.00  0.00     0.405 C 
ATOM     99  F   UNL A   1      35.377  17.782  24.263  1.00  0.00    -0.169 F 
ATOM    100  F   UNL A   1      34.023  16.090  24.555  1.00  0.00    -0.169 F 
ATOM    101  F   UNL A   1      34.035  17.147  22.655  1.00  0.00    -0.169 F 
ENDBRANCH  97  98
ENDBRANCH  95  97
ENDBRANCH  85  93
ENDBRANCH  80  83
ENDBRANCH  78  79
ENDBRANCH  77  78
ENDBRANCH  76  77
ENDBRANCH   1  76
TORSDOF 19
ENDMDL
