MODEL 1
REMARK VINA RESULT:     -11.7      0.000      0.000
REMARK SMILES Nc1nc(N2CCOC[C@H]2C(=O)NCCCCCCNC(=O)c2ccc(-c3c4nc(c(-c5c(F)cc(S(=O)(=O)[O-])cc5F)c5ccc([nH]5)c(-c5c(F)cc(S(=O)(=O)[O-])cc5F)c5nc(c(-c6c(F)cc(S(=O)(=O)[O-])cc6F)c6ccc3[nH]6)C=C5)C=C4)cc2)ccc1[N+](=O)[O-]
REMARK SMILES IDX 17 1 16 2 15 3 14 4 13 5 11 6 12 7 10 9 5 10 6 11 7 12 9 13
REMARK SMILES IDX 8 14 4 15 2 16 3 17 91 18 90 19 89 20 1 21 92 24 93 25 94 26
REMARK SMILES IDX 18 27 19 28 20 29 21 30 22 32 23 33 24 34 88 35 25 36 87 37
REMARK SMILES IDX 26 38 27 39 28 40 81 41 29 42 86 43 80 44 82 45 30 46 85 47
REMARK SMILES IDX 79 48 78 49 31 51 65 52 44 53 64 54 45 55 48 56 63 57 83 58
REMARK SMILES IDX 46 59 47 60 62 62 84 63 49 64 32 65 33 66 42 67 34 68 35 69
REMARK SMILES IDX 41 70 43 71 36 72 37 73 38 74 39 75 40 76 66 77 67 78 76 79
REMARK SMILES IDX 68 80 69 81 75 82 77 83 70 84 71 85 72 86 73 87 74 88 50 89
REMARK SMILES IDX 51 90 60 91 52 92 53 93 59 94 61 95 54 96 55 97 56 98 57 99
REMARK SMILES IDX 58 100
REMARK H PARENT 13 8 1 22 1 23 20 31 82 50 48 61
REMARK Flexibility Score: inf
ROOT
ATOM      1  C   UNL A   1      40.809  21.751  26.746  1.00  0.00     0.002 C 
ENDROOT
BRANCH   1   2
ATOM      2  C   UNL A   1      39.382  22.012  26.245  1.00  0.00     0.002 C 
BRANCH   2   3
ATOM      3  C   UNL A   1      38.836  23.411  26.547  1.00  0.00     0.021 C 
BRANCH   3   4
ATOM      4  C   UNL A   1      37.431  23.654  25.995  1.00  0.00     0.116 C 
BRANCH   4   5
ATOM      5  N   UNL A   1      37.384  23.452  24.563  1.00  0.00    -0.354 N 
ATOM      6  C   UNL A   1      36.386  23.094  23.711  1.00  0.00     0.245 C 
ATOM      7  O   UNL A   1      36.717  23.058  22.514  1.00  0.00    -0.273 OA
ATOM      8  H   UNL A   1      38.248  23.604  24.116  1.00  0.00     0.163 HD
BRANCH   6   9
ATOM      9  C   UNL A   1      34.911  22.848  24.105  1.00  0.00     0.199 C 
ATOM     10  N   UNL A   1      34.653  21.885  25.199  1.00  0.00    -0.340 N 
ATOM     11  C   UNL A   1      34.496  22.398  26.555  1.00  0.00     0.147 C 
ATOM     12  C   UNL A   1      33.582  23.626  26.559  1.00  0.00     0.181 C 
ATOM     13  C   UNL A   1      34.103  24.150  24.301  1.00  0.00     0.195 C 
ATOM     14  O   UNL A   1      34.043  24.636  25.653  1.00  0.00    -0.377 OA
BRANCH  10  15
ATOM     15  C   UNL A   1      34.597  20.534  24.935  1.00  0.00     0.132 A 
ATOM     16  C   UNL A   1      33.356  18.662  24.255  1.00  0.00     0.204 A 
ATOM     17  N   UNL A   1      33.417  19.974  24.597  1.00  0.00    -0.207 NA
ATOM     18  C   UNL A   1      34.489  17.855  24.272  1.00  0.00     0.311 A 
ATOM     19  C   UNL A   1      35.701  18.398  24.691  1.00  0.00     0.093 A 
ATOM     20  C   UNL A   1      35.745  19.747  25.023  1.00  0.00     0.054 A 
BRANCH  16  21
ATOM     21  N   UNL A   1      32.115  18.260  23.805  1.00  0.00    -0.378 N 
ATOM     22  H   UNL A   1      31.611  17.574  24.298  1.00  0.00     0.158 HD
ATOM     23  H   UNL A   1      31.734  18.660  22.990  1.00  0.00     0.158 HD
ENDBRANCH  16  21
BRANCH  18  24
ATOM     24  N   UNL A   1      34.449  16.451  23.880  1.00  0.00     0.066 N 
ATOM     25  O   UNL A   1      34.670  15.607  24.762  1.00  0.00    -0.258 OA
ATOM     26  O   UNL A   1      34.158  16.168  22.707  1.00  0.00    -0.258 OA
ENDBRANCH  18  24
ENDBRANCH  10  15
ENDBRANCH   6   9
ENDBRANCH   4   5
ENDBRANCH   3   4
ENDBRANCH   2   3
ENDBRANCH   1   2
BRANCH   1  27
ATOM     27  C   UNL A   1      41.282  22.645  27.898  1.00  0.00     0.021 C 
BRANCH  27  28
ATOM     28  C   UNL A   1      42.525  23.479  27.598  1.00  0.00     0.116 C 
BRANCH  28  29
ATOM     29  N   UNL A   1      42.386  24.243  26.370  1.00  0.00    -0.352 N 
ATOM     30  C   UNL A   1      41.881  25.506  26.175  1.00  0.00     0.251 C 
ATOM     31  H   UNL A   1      42.699  23.788  25.556  1.00  0.00     0.163 HD
ATOM     32  O   UNL A   1      41.638  25.897  25.039  1.00  0.00    -0.269 OA
BRANCH  30  33
ATOM     33  C   UNL A   1      41.624  26.386  27.335  1.00  0.00     0.039 A 
ATOM     34  C   UNL A   1      40.511  26.137  28.142  1.00  0.00     0.014 A 
ATOM     35  C   UNL A   1      42.461  27.473  27.608  1.00  0.00     0.014 A 
ATOM     36  C   UNL A   1      40.266  26.947  29.253  1.00  0.00     0.010 A 
ATOM     37  C   UNL A   1      42.254  28.237  28.753  1.00  0.00     0.010 A 
ATOM     38  C   UNL A   1      41.151  27.988  29.583  1.00  0.00    -0.014 A 
BRANCH  38  39
ATOM     39  C   UNL A   1      40.933  28.833  30.783  1.00  0.00     0.031 A 
ATOM     40  C   UNL A   1      39.842  29.869  30.788  1.00  0.00     0.074 A 
ATOM     41  C   UNL A   1      41.752  28.708  31.844  1.00  0.00     0.049 A 
ATOM     42  N   UNL A   1      39.532  30.738  31.715  1.00  0.00    -0.248 NA
ATOM     43  C   UNL A   1      39.007  29.955  29.579  1.00  0.00     0.031 C 
ATOM     44  C   UNL A   1      42.866  27.764  31.945  1.00  0.00     0.029 A 
ATOM     45  N   UNL A   1      41.778  29.380  33.039  1.00  0.00    -0.354 N 
ATOM     46  C   UNL A   1      38.475  31.481  31.199  1.00  0.00     0.074 A 
ATOM     47  C   UNL A   1      38.240  30.999  29.855  1.00  0.00     0.031 C 
ATOM     48  C   UNL A   1      43.444  27.893  33.150  1.00  0.00     0.029 A 
ATOM     49  C   UNL A   1      42.769  28.953  33.891  1.00  0.00     0.049 A 
ATOM     50  H   UNL A   1      41.147  30.101  33.266  1.00  0.00     0.167 HD
ATOM     51  C   UNL A   1      37.751  32.458  31.798  1.00  0.00     0.037 A 
ATOM     52  C   UNL A   1      43.092  29.367  35.131  1.00  0.00     0.037 A 
ATOM     53  C   UNL A   1      37.984  32.924  33.140  1.00  0.00     0.049 A 
ATOM     54  C   UNL A   1      42.293  30.469  35.770  1.00  0.00     0.074 A 
ATOM     55  C   UNL A   1      37.283  33.877  33.857  1.00  0.00     0.029 A 
ATOM     56  N   UNL A   1      39.002  32.471  33.968  1.00  0.00    -0.354 N 
ATOM     57  N   UNL A   1      41.266  31.129  35.286  1.00  0.00    -0.248 NA
ATOM     58  C   UNL A   1      42.694  30.882  37.120  1.00  0.00     0.031 C 
ATOM     59  C   UNL A   1      37.902  34.030  35.103  1.00  0.00     0.029 A 
ATOM     60  C   UNL A   1      38.961  33.140  35.181  1.00  0.00     0.049 A 
ATOM     61  H   UNL A   1      39.657  31.777  33.729  1.00  0.00     0.167 HD
ATOM     62  C   UNL A   1      40.880  32.014  36.286  1.00  0.00     0.074 A 
ATOM     63  C   UNL A   1      41.781  31.803  37.401  1.00  0.00     0.031 C 
ATOM     64  C   UNL A   1      39.867  32.917  36.282  1.00  0.00     0.037 A 
BRANCH  51  65
ATOM     65  C   UNL A   1      36.648  33.086  30.989  1.00  0.00     0.058 A 
ATOM     66  C   UNL A   1      36.921  33.957  29.921  1.00  0.00     0.135 A 
ATOM     67  C   UNL A   1      35.301  32.835  31.298  1.00  0.00     0.135 A 
ATOM     68  F   UNL A   1      38.190  34.243  29.589  1.00  0.00    -0.206 F 
ATOM     69  C   UNL A   1      35.902  34.602  29.228  1.00  0.00     0.059 A 
ATOM     70  C   UNL A   1      34.265  33.445  30.597  1.00  0.00     0.059 A 
ATOM     71  F   UNL A   1      34.981  32.006  32.304  1.00  0.00    -0.206 F 
ATOM     72  C   UNL A   1      34.577  34.349  29.581  1.00  0.00     0.060 A 
BRANCH  72  73
ATOM     73  S   UNL A   1      33.265  35.232  28.711  1.00  0.00     0.124 S 
ATOM     74  O   UNL A   1      34.029  36.246  27.989  1.00  0.00    -0.237 OA
ATOM     75  O   UNL A   1      32.671  34.183  27.887  1.00  0.00    -0.237 OA
ATOM     76  O   UNL A   1      32.419  35.733  29.789  1.00  0.00    -0.744 OA
ENDBRANCH  72  73
ENDBRANCH  51  65
BRANCH  52  77
ATOM     77  C   UNL A   1      44.196  28.695  35.866  1.00  0.00     0.058 A 
ATOM     78  C   UNL A   1      45.500  29.209  35.816  1.00  0.00     0.135 A 
ATOM     79  C   UNL A   1      43.967  27.563  36.663  1.00  0.00     0.135 A 
ATOM     80  F   UNL A   1      45.769  30.285  35.062  1.00  0.00    -0.206 F 
ATOM     81  C   UNL A   1      46.541  28.624  36.529  1.00  0.00     0.059 A 
ATOM     82  C   UNL A   1      44.987  26.975  37.403  1.00  0.00     0.059 A 
ATOM     83  F   UNL A   1      42.733  27.044  36.756  1.00  0.00    -0.206 F 
ATOM     84  C   UNL A   1      46.273  27.511  37.327  1.00  0.00     0.060 A 
BRANCH  84  85
ATOM     85  S   UNL A   1      47.616  26.809  38.311  1.00  0.00     0.124 S 
ATOM     86  O   UNL A   1      47.895  25.575  37.586  1.00  0.00    -0.237 OA
ATOM     87  O   UNL A   1      48.637  27.848  38.220  1.00  0.00    -0.237 OA
ATOM     88  O   UNL A   1      47.014  26.644  39.631  1.00  0.00    -0.744 OA
ENDBRANCH  84  85
ENDBRANCH  52  77
BRANCH  64  89
ATOM     89  C   UNL A   1      39.659  33.725  37.533  1.00  0.00     0.058 A 
ATOM     90  C   UNL A   1      38.780  33.307  38.544  1.00  0.00     0.135 A 
ATOM     91  C   UNL A   1      40.385  34.909  37.742  1.00  0.00     0.135 A 
ATOM     92  F   UNL A   1      38.056  32.187  38.390  1.00  0.00    -0.206 F 
ATOM     93  C   UNL A   1      38.613  34.045  39.711  1.00  0.00     0.059 A 
ATOM     94  C   UNL A   1      40.252  35.649  38.912  1.00  0.00     0.059 A 
ATOM     95  F   UNL A   1      41.245  35.348  36.809  1.00  0.00    -0.206 F 
ATOM     96  C   UNL A   1      39.355  35.214  39.887  1.00  0.00     0.060 A 
BRANCH  96  97
ATOM     97  S   UNL A   1      39.156  36.145  41.422  1.00  0.00     0.124 S 
ATOM     98  O   UNL A   1      40.404  35.837  42.114  1.00  0.00    -0.237 OA
ATOM     99  O   UNL A   1      39.019  37.516  40.941  1.00  0.00    -0.237 OA
ATOM    100  O   UNL A   1      37.951  35.571  42.013  1.00  0.00    -0.744 OA
ENDBRANCH  96  97
ENDBRANCH  64  89
ENDBRANCH  38  39
ENDBRANCH  30  33
ENDBRANCH  28  29
ENDBRANCH  27  28
ENDBRANCH   1  27
TORSDOF 19
ENDMDL
MODEL 2
REMARK VINA RESULT:     -11.7      6.943     12.210
REMARK SMILES Nc1nc(N2CCOC[C@H]2C(=O)NCCCCCCNC(=O)c2ccc(-c3c4nc(c(-c5c(F)cc(S(=O)(=O)[O-])cc5F)c5ccc([nH]5)c(-c5c(F)cc(S(=O)(=O)[O-])cc5F)c5nc(c(-c6c(F)cc(S(=O)(=O)[O-])cc6F)c6ccc3[nH]6)C=C5)C=C4)cc2)ccc1[N+](=O)[O-]
REMARK SMILES IDX 17 1 16 2 15 3 14 4 13 5 11 6 12 7 10 9 5 10 6 11 7 12 9 13
REMARK SMILES IDX 8 14 4 15 2 16 3 17 91 18 90 19 89 20 1 21 92 24 93 25 94 26
REMARK SMILES IDX 18 27 19 28 20 29 21 30 22 32 23 33 24 34 88 35 25 36 87 37
REMARK SMILES IDX 26 38 27 39 28 40 81 41 29 42 86 43 80 44 82 45 30 46 85 47
REMARK SMILES IDX 79 48 78 49 31 51 65 52 44 53 64 54 45 55 48 56 63 57 83 58
REMARK SMILES IDX 46 59 47 60 62 62 84 63 49 64 32 65 33 66 42 67 34 68 35 69
REMARK SMILES IDX 41 70 43 71 36 72 37 73 38 74 39 75 40 76 66 77 67 78 76 79
REMARK SMILES IDX 68 80 69 81 75 82 77 83 70 84 71 85 72 86 73 87 74 88 50 89
REMARK SMILES IDX 51 90 60 91 52 92 53 93 59 94 61 95 54 96 55 97 56 98 57 99
REMARK SMILES IDX 58 100
REMARK H PARENT 13 8 1 22 1 23 20 31 82 50 48 61
REMARK Flexibility Score: inf
ROOT
ATOM      1  C   UNL A   1      33.170  30.304  27.270  1.00  0.00     0.002 C 
ENDROOT
BRANCH   1   2
ATOM      2  C   UNL A   1      32.139  29.172  27.360  1.00  0.00     0.002 C 
BRANCH   2   3
ATOM      3  C   UNL A   1      31.937  28.376  26.066  1.00  0.00     0.021 C 
BRANCH   3   4
ATOM      4  C   UNL A   1      32.565  26.982  26.099  1.00  0.00     0.116 C 
BRANCH   4   5
ATOM      5  N   UNL A   1      31.672  26.015  26.700  1.00  0.00    -0.354 N 
ATOM      6  C   UNL A   1      30.832  25.082  26.177  1.00  0.00     0.245 C 
ATOM      7  O   UNL A   1      30.238  24.390  27.021  1.00  0.00    -0.273 OA
ATOM      8  H   UNL A   1      31.672  26.038  27.685  1.00  0.00     0.163 HD
BRANCH   6   9
ATOM      9  C   UNL A   1      30.659  24.768  24.673  1.00  0.00     0.199 C 
ATOM     10  N   UNL A   1      31.155  25.775  23.708  1.00  0.00    -0.340 N 
ATOM     11  C   UNL A   1      32.498  25.614  23.163  1.00  0.00     0.147 C 
ATOM     12  C   UNL A   1      32.732  24.161  22.743  1.00  0.00     0.181 C 
ATOM     13  C   UNL A   1      31.120  23.346  24.285  1.00  0.00     0.195 C 
ATOM     14  O   UNL A   1      32.475  23.247  23.817  1.00  0.00    -0.377 OA
BRANCH  10  15
ATOM     15  C   UNL A   1      30.371  26.855  23.368  1.00  0.00     0.132 A 
ATOM     16  C   UNL A   1      30.171  28.962  22.351  1.00  0.00     0.204 A 
ATOM     17  N   UNL A   1      30.939  27.922  22.768  1.00  0.00    -0.207 NA
ATOM     18  C   UNL A   1      28.795  28.974  22.556  1.00  0.00     0.311 A 
ATOM     19  C   UNL A   1      28.203  27.915  23.241  1.00  0.00     0.093 A 
ATOM     20  C   UNL A   1      29.004  26.854  23.646  1.00  0.00     0.054 A 
BRANCH  16  21
ATOM     21  N   UNL A   1      30.865  29.917  21.638  1.00  0.00    -0.378 N 
ATOM     22  H   UNL A   1      30.992  30.817  22.015  1.00  0.00     0.158 HD
ATOM     23  H   UNL A   1      31.234  29.698  20.752  1.00  0.00     0.158 HD
ENDBRANCH  16  21
BRANCH  18  24
ATOM     24  N   UNL A   1      27.950  30.067  22.090  1.00  0.00     0.066 N 
ATOM     25  O   UNL A   1      27.365  30.741  22.952  1.00  0.00    -0.258 OA
ATOM     26  O   UNL A   1      27.890  30.296  20.872  1.00  0.00    -0.258 OA
ENDBRANCH  18  24
ENDBRANCH  10  15
ENDBRANCH   6   9
ENDBRANCH   4   5
ENDBRANCH   3   4
ENDBRANCH   2   3
ENDBRANCH   1   2
BRANCH   1  27
ATOM     27  C   UNL A   1      34.637  29.878  27.400  1.00  0.00     0.021 C 
BRANCH  27  28
ATOM     28  C   UNL A   1      35.563  30.930  28.005  1.00  0.00     0.116 C 
BRANCH  28  29
ATOM     29  N   UNL A   1      35.483  30.957  29.456  1.00  0.00    -0.352 N 
ATOM     30  C   UNL A   1      36.350  30.450  30.392  1.00  0.00     0.251 C 
ATOM     31  H   UNL A   1      34.687  31.406  29.823  1.00  0.00     0.163 HD
ATOM     32  O   UNL A   1      36.003  30.372  31.566  1.00  0.00    -0.269 OA
BRANCH  30  33
ATOM     33  C   UNL A   1      37.694  29.991  29.982  1.00  0.00     0.039 A 
ATOM     34  C   UNL A   1      38.024  29.987  28.625  1.00  0.00     0.014 A 
ATOM     35  C   UNL A   1      38.615  29.536  30.931  1.00  0.00     0.014 A 
ATOM     36  C   UNL A   1      39.297  29.576  28.223  1.00  0.00     0.010 A 
ATOM     37  C   UNL A   1      39.905  29.191  30.535  1.00  0.00     0.010 A 
ATOM     38  C   UNL A   1      40.257  29.199  29.177  1.00  0.00    -0.014 A 
BRANCH  38  39
ATOM     39  C   UNL A   1      41.629  28.800  28.775  1.00  0.00     0.031 A 
ATOM     40  C   UNL A   1      42.737  29.818  28.762  1.00  0.00     0.074 A 
ATOM     41  C   UNL A   1      41.863  27.539  28.367  1.00  0.00     0.049 A 
ATOM     42  N   UNL A   1      43.983  29.678  28.390  1.00  0.00    -0.248 NA
ATOM     43  C   UNL A   1      42.389  31.178  29.200  1.00  0.00     0.031 C 
ATOM     44  C   UNL A   1      40.863  26.472  28.304  1.00  0.00     0.029 A 
ATOM     45  N   UNL A   1      43.016  26.940  27.925  1.00  0.00    -0.354 N 
ATOM     46  C   UNL A   1      44.565  30.932  28.538  1.00  0.00     0.074 A 
ATOM     47  C   UNL A   1      43.519  31.831  28.976  1.00  0.00     0.031 C 
ATOM     48  C   UNL A   1      41.453  25.341  27.883  1.00  0.00     0.029 A 
ATOM     49  C   UNL A   1      42.861  25.612  27.610  1.00  0.00     0.049 A 
ATOM     50  H   UNL A   1      43.873  27.418  27.841  1.00  0.00     0.167 HD
ATOM     51  C   UNL A   1      45.858  31.296  28.351  1.00  0.00     0.037 A 
ATOM     52  C   UNL A   1      43.755  24.712  27.156  1.00  0.00     0.037 A 
ATOM     53  C   UNL A   1      46.895  30.392  27.927  1.00  0.00     0.049 A 
ATOM     54  C   UNL A   1      45.178  25.141  26.932  1.00  0.00     0.074 A 
ATOM     55  C   UNL A   1      48.243  30.647  27.749  1.00  0.00     0.029 A 
ATOM     56  N   UNL A   1      46.697  29.055  27.611  1.00  0.00    -0.354 N 
ATOM     57  N   UNL A   1      45.724  26.320  27.123  1.00  0.00    -0.248 NA
ATOM     58  C   UNL A   1      46.108  24.120  26.432  1.00  0.00     0.031 C 
ATOM     59  C   UNL A   1      48.852  29.476  27.285  1.00  0.00     0.029 A 
ATOM     60  C   UNL A   1      47.894  28.478  27.218  1.00  0.00     0.049 A 
ATOM     61  H   UNL A   1      45.833  28.585  27.659  1.00  0.00     0.167 HD
ATOM     62  C   UNL A   1      47.067  26.173  26.794  1.00  0.00     0.074 A 
ATOM     63  C   UNL A   1      47.251  24.792  26.397  1.00  0.00     0.031 C 
ATOM     64  C   UNL A   1      48.059  27.099  26.826  1.00  0.00     0.037 A 
BRANCH  51  65
ATOM     65  C   UNL A   1      46.205  32.740  28.600  1.00  0.00     0.058 A 
ATOM     66  C   UNL A   1      46.167  33.694  27.570  1.00  0.00     0.135 A 
ATOM     67  C   UNL A   1      46.603  33.171  29.875  1.00  0.00     0.135 A 
ATOM     68  F   UNL A   1      45.805  33.334  26.327  1.00  0.00    -0.206 F 
ATOM     69  C   UNL A   1      46.568  35.009  27.779  1.00  0.00     0.059 A 
ATOM     70  C   UNL A   1      46.978  34.490  30.115  1.00  0.00     0.059 A 
ATOM     71  F   UNL A   1      46.652  32.305  30.899  1.00  0.00    -0.206 F 
ATOM     72  C   UNL A   1      46.984  35.395  29.054  1.00  0.00     0.060 A 
BRANCH  72  73
ATOM     73  S   UNL A   1      47.553  37.090  29.302  1.00  0.00     0.124 S 
ATOM     74  O   UNL A   1      48.576  36.904  30.328  1.00  0.00    -0.237 OA
ATOM     75  O   UNL A   1      48.045  37.456  27.978  1.00  0.00    -0.237 OA
ATOM     76  O   UNL A   1      46.349  37.792  29.737  1.00  0.00    -0.744 OA
ENDBRANCH  72  73
ENDBRANCH  51  65
BRANCH  52  77
ATOM     77  C   UNL A   1      43.334  23.304  26.937  1.00  0.00     0.058 A 
ATOM     78  C   UNL A   1      43.163  22.807  25.636  1.00  0.00     0.135 A 
ATOM     79  C   UNL A   1      43.140  22.418  28.007  1.00  0.00     0.135 A 
ATOM     80  F   UNL A   1      43.331  23.618  24.581  1.00  0.00    -0.206 F 
ATOM     81  C   UNL A   1      42.813  21.482  25.403  1.00  0.00     0.059 A 
ATOM     82  C   UNL A   1      42.811  21.082  27.799  1.00  0.00     0.059 A 
ATOM     83  F   UNL A   1      43.308  22.841  29.269  1.00  0.00    -0.206 F 
ATOM     84  C   UNL A   1      42.647  20.624  26.491  1.00  0.00     0.060 A 
BRANCH  84  85
ATOM     85  S   UNL A   1      42.270  18.886  26.173  1.00  0.00     0.124 S 
ATOM     86  O   UNL A   1      42.460  18.299  27.494  1.00  0.00    -0.237 OA
ATOM     87  O   UNL A   1      40.892  18.955  25.697  1.00  0.00    -0.237 OA
ATOM     88  O   UNL A   1      43.256  18.509  25.165  1.00  0.00    -0.744 OA
ENDBRANCH  84  85
ENDBRANCH  52  77
BRANCH  64  89
ATOM     89  C   UNL A   1      49.440  26.641  26.447  1.00  0.00     0.058 A 
ATOM     90  C   UNL A   1      50.304  26.049  27.381  1.00  0.00     0.135 A 
ATOM     91  C   UNL A   1      49.887  26.754  25.120  1.00  0.00     0.135 A 
ATOM     92  F   UNL A   1      49.930  25.926  28.664  1.00  0.00    -0.206 F 
ATOM     93  C   UNL A   1      51.570  25.603  27.018  1.00  0.00     0.059 A 
ATOM     94  C   UNL A   1      51.139  26.291  24.729  1.00  0.00     0.059 A 
ATOM     95  F   UNL A   1      49.096  27.305  24.185  1.00  0.00    -0.206 F 
ATOM     96  C   UNL A   1      51.979  25.727  25.689  1.00  0.00     0.060 A 
BRANCH  96  97
ATOM     97  S   UNL A   1      53.611  25.111  25.222  1.00  0.00     0.124 S 
ATOM     98  O   UNL A   1      53.404  23.667  25.273  1.00  0.00    -0.237 OA
ATOM     99  O   UNL A   1      53.791  25.679  23.890  1.00  0.00    -0.237 OA
ATOM    100  O   UNL A   1      54.488  25.657  26.253  1.00  0.00    -0.744 OA
ENDBRANCH  96  97
ENDBRANCH  64  89
ENDBRANCH  38  39
ENDBRANCH  30  33
ENDBRANCH  28  29
ENDBRANCH  27  28
ENDBRANCH   1  27
TORSDOF 19
ENDMDL
MODEL 3
REMARK VINA RESULT:     -11.6      3.046      9.551
REMARK SMILES Nc1nc(N2CCOC[C@H]2C(=O)NCCCCCCNC(=O)c2ccc(-c3c4nc(c(-c5c(F)cc(S(=O)(=O)[O-])cc5F)c5ccc([nH]5)c(-c5c(F)cc(S(=O)(=O)[O-])cc5F)c5nc(c(-c6c(F)cc(S(=O)(=O)[O-])cc6F)c6ccc3[nH]6)C=C5)C=C4)cc2)ccc1[N+](=O)[O-]
REMARK SMILES IDX 17 1 16 2 15 3 14 4 13 5 11 6 12 7 10 9 5 10 6 11 7 12 9 13
REMARK SMILES IDX 8 14 4 15 2 16 3 17 91 18 90 19 89 20 1 21 92 24 93 25 94 26
REMARK SMILES IDX 18 27 19 28 20 29 21 30 22 32 23 33 24 34 88 35 25 36 87 37
REMARK SMILES IDX 26 38 27 39 28 40 81 41 29 42 86 43 80 44 82 45 30 46 85 47
REMARK SMILES IDX 79 48 78 49 31 51 65 52 44 53 64 54 45 55 48 56 63 57 83 58
REMARK SMILES IDX 46 59 47 60 62 62 84 63 49 64 32 65 33 66 42 67 34 68 35 69
REMARK SMILES IDX 41 70 43 71 36 72 37 73 38 74 39 75 40 76 66 77 67 78 76 79
REMARK SMILES IDX 68 80 69 81 75 82 77 83 70 84 71 85 72 86 73 87 74 88 50 89
REMARK SMILES IDX 51 90 60 91 52 92 53 93 59 94 61 95 54 96 55 97 56 98 57 99
REMARK SMILES IDX 58 100
REMARK H PARENT 13 8 1 22 1 23 20 31 82 50 48 61
REMARK Flexibility Score: inf
ROOT
ATOM      1  C   UNL A   1      36.157  23.663  25.128  1.00  0.00     0.002 C 
ENDROOT
BRANCH   1   2
ATOM      2  C   UNL A   1      34.900  22.867  25.505  1.00  0.00     0.002 C 
BRANCH   2   3
ATOM      3  C   UNL A   1      33.882  23.630  26.357  1.00  0.00     0.021 C 
BRANCH   3   4
ATOM      4  C   UNL A   1      33.302  24.863  25.663  1.00  0.00     0.116 C 
BRANCH   4   5
ATOM      5  N   UNL A   1      32.010  25.218  26.211  1.00  0.00    -0.354 N 
ATOM      6  C   UNL A   1      30.834  25.590  25.639  1.00  0.00     0.245 C 
ATOM      7  O   UNL A   1      29.908  25.785  26.442  1.00  0.00    -0.273 OA
ATOM      8  H   UNL A   1      31.978  25.185  27.194  1.00  0.00     0.163 HD
BRANCH   6   9
ATOM      9  C   UNL A   1      30.559  25.675  24.119  1.00  0.00     0.199 C 
ATOM     10  N   UNL A   1      31.148  26.817  23.385  1.00  0.00    -0.340 N 
ATOM     11  C   UNL A   1      32.433  26.630  22.722  1.00  0.00     0.147 C 
ATOM     12  C   UNL A   1      32.449  25.305  21.955  1.00  0.00     0.181 C 
ATOM     13  C   UNL A   1      30.805  24.344  23.375  1.00  0.00     0.195 C 
ATOM     14  O   UNL A   1      32.114  24.197  22.800  1.00  0.00    -0.377 OA
BRANCH  10  15
ATOM     15  C   UNL A   1      30.505  28.036  23.366  1.00  0.00     0.132 A 
ATOM     16  C   UNL A   1      28.754  29.378  22.565  1.00  0.00     0.204 A 
ATOM     17  N   UNL A   1      29.452  28.214  22.542  1.00  0.00    -0.207 NA
ATOM     18  C   UNL A   1      29.118  30.424  23.408  1.00  0.00     0.311 A 
ATOM     19  C   UNL A   1      30.249  30.286  24.210  1.00  0.00     0.093 A 
ATOM     20  C   UNL A   1      30.940  29.080  24.182  1.00  0.00     0.054 A 
BRANCH  16  21
ATOM     21  N   UNL A   1      27.627  29.370  21.770  1.00  0.00    -0.378 N 
ATOM     22  H   UNL A   1      26.964  28.649  21.863  1.00  0.00     0.158 HD
ATOM     23  H   UNL A   1      27.485  30.087  21.110  1.00  0.00     0.158 HD
ENDBRANCH  16  21
BRANCH  18  24
ATOM     24  N   UNL A   1      28.365  31.671  23.469  1.00  0.00     0.066 N 
ATOM     25  O   UNL A   1      28.983  32.721  23.237  1.00  0.00    -0.258 OA
ATOM     26  O   UNL A   1      27.148  31.621  23.705  1.00  0.00    -0.258 OA
ENDBRANCH  18  24
ENDBRANCH  10  15
ENDBRANCH   6   9
ENDBRANCH   4   5
ENDBRANCH   3   4
ENDBRANCH   2   3
ENDBRANCH   1   2
BRANCH   1  27
ATOM     27  C   UNL A   1      37.468  23.166  25.747  1.00  0.00     0.021 C 
BRANCH  27  28
ATOM     28  C   UNL A   1      38.358  24.258  26.335  1.00  0.00     0.116 C 
BRANCH  28  29
ATOM     29  N   UNL A   1      39.770  23.978  26.131  1.00  0.00    -0.352 N 
ATOM     30  C   UNL A   1      40.873  24.657  26.588  1.00  0.00     0.251 C 
ATOM     31  H   UNL A   1      39.965  23.185  25.583  1.00  0.00     0.163 HD
ATOM     32  O   UNL A   1      41.981  24.401  26.129  1.00  0.00    -0.269 OA
BRANCH  30  33
ATOM     33  C   UNL A   1      40.723  25.699  27.626  1.00  0.00     0.039 A 
ATOM     34  C   UNL A   1      39.659  25.609  28.528  1.00  0.00     0.014 A 
ATOM     35  C   UNL A   1      41.609  26.779  27.690  1.00  0.00     0.014 A 
ATOM     36  C   UNL A   1      39.514  26.574  29.527  1.00  0.00     0.010 A 
ATOM     37  C   UNL A   1      41.503  27.702  28.727  1.00  0.00     0.010 A 
ATOM     38  C   UNL A   1      40.451  27.614  29.651  1.00  0.00    -0.014 A 
BRANCH  38  39
ATOM     39  C   UNL A   1      40.340  28.626  30.731  1.00  0.00     0.031 A 
ATOM     40  C   UNL A   1      41.230  28.538  31.941  1.00  0.00     0.074 A 
ATOM     41  C   UNL A   1      39.402  29.588  30.650  1.00  0.00     0.049 A 
ATOM     42  N   UNL A   1      41.248  29.289  33.011  1.00  0.00    -0.248 NA
ATOM     43  C   UNL A   1      42.213  27.442  31.959  1.00  0.00     0.031 C 
ATOM     44  C   UNL A   1      38.458  29.757  29.544  1.00  0.00     0.029 A 
ATOM     45  N   UNL A   1      39.084  30.603  31.516  1.00  0.00    -0.354 N 
ATOM     46  C   UNL A   1      42.232  28.753  33.835  1.00  0.00     0.074 A 
ATOM     47  C   UNL A   1      42.745  27.578  33.165  1.00  0.00     0.031 C 
ATOM     48  C   UNL A   1      37.691  30.833  29.781  1.00  0.00     0.029 A 
ATOM     49  C   UNL A   1      38.060  31.406  31.072  1.00  0.00     0.049 A 
ATOM     50  H   UNL A   1      39.544  30.744  32.375  1.00  0.00     0.167 HD
ATOM     51  C   UNL A   1      42.684  29.212  35.028  1.00  0.00     0.037 A 
ATOM     52  C   UNL A   1      37.488  32.485  31.639  1.00  0.00     0.037 A 
ATOM     53  C   UNL A   1      42.176  30.389  35.682  1.00  0.00     0.049 A 
ATOM     54  C   UNL A   1      37.987  32.964  32.974  1.00  0.00     0.074 A 
ATOM     55  C   UNL A   1      42.592  30.965  36.869  1.00  0.00     0.029 A 
ATOM     56  N   UNL A   1      41.134  31.172  35.203  1.00  0.00    -0.354 N 
ATOM     57  N   UNL A   1      38.951  32.474  33.718  1.00  0.00    -0.248 NA
ATOM     58  C   UNL A   1      37.322  34.142  33.547  1.00  0.00     0.031 C 
ATOM     59  C   UNL A   1      41.775  32.071  37.129  1.00  0.00     0.029 A 
ATOM     60  C   UNL A   1      40.879  32.213  36.082  1.00  0.00     0.049 A 
ATOM     61  H   UNL A   1      40.647  31.011  34.363  1.00  0.00     0.167 HD
ATOM     62  C   UNL A   1      39.028  33.301  34.832  1.00  0.00     0.074 A 
ATOM     63  C   UNL A   1      38.016  34.325  34.662  1.00  0.00     0.031 C 
ATOM     64  C   UNL A   1      39.866  33.224  35.897  1.00  0.00     0.037 A 
BRANCH  51  65
ATOM     65  C   UNL A   1      43.777  28.421  35.695  1.00  0.00     0.058 A 
ATOM     66  C   UNL A   1      43.492  27.399  36.615  1.00  0.00     0.135 A 
ATOM     67  C   UNL A   1      45.128  28.703  35.431  1.00  0.00     0.135 A 
ATOM     68  F   UNL A   1      42.218  27.096  36.914  1.00  0.00    -0.206 F 
ATOM     69  C   UNL A   1      44.501  26.725  37.294  1.00  0.00     0.059 A 
ATOM     70  C   UNL A   1      46.155  28.020  36.075  1.00  0.00     0.059 A 
ATOM     71  F   UNL A   1      45.461  29.665  34.556  1.00  0.00    -0.206 F 
ATOM     72  C   UNL A   1      45.831  27.052  37.026  1.00  0.00     0.060 A 
BRANCH  72  73
ATOM     73  S   UNL A   1      47.132  26.209  37.951  1.00  0.00     0.124 S 
ATOM     74  O   UNL A   1      47.982  25.717  36.870  1.00  0.00    -0.237 OA
ATOM     75  O   UNL A   1      47.696  27.288  38.757  1.00  0.00    -0.237 OA
ATOM     76  O   UNL A   1      46.409  25.185  38.698  1.00  0.00    -0.744 OA
ENDBRANCH  72  73
ENDBRANCH  51  65
BRANCH  52  77
ATOM     77  C   UNL A   1      36.413  33.213  30.915  1.00  0.00     0.058 A 
ATOM     78  C   UNL A   1      35.082  33.133  31.351  1.00  0.00     0.135 A 
ATOM     79  C   UNL A   1      36.694  34.034  29.812  1.00  0.00     0.135 A 
ATOM     80  F   UNL A   1      34.764  32.356  32.397  1.00  0.00    -0.206 F 
ATOM     81  C   UNL A   1      34.065  33.839  30.718  1.00  0.00     0.059 A 
ATOM     82  C   UNL A   1      35.697  34.767  29.177  1.00  0.00     0.059 A 
ATOM     83  F   UNL A   1      37.954  34.156  29.369  1.00  0.00    -0.206 F 
ATOM     84  C   UNL A   1      34.384  34.661  29.635  1.00  0.00     0.060 A 
BRANCH  84  85
ATOM     85  S   UNL A   1      33.067  35.634  28.872  1.00  0.00     0.124 S 
ATOM     86  O   UNL A   1      33.831  36.664  28.176  1.00  0.00    -0.237 OA
ATOM     87  O   UNL A   1      32.409  34.645  28.024  1.00  0.00    -0.237 OA
ATOM     88  O   UNL A   1      32.283  36.092  30.015  1.00  0.00    -0.744 OA
ENDBRANCH  84  85
ENDBRANCH  52  77
BRANCH  64  89
ATOM     89  C   UNL A   1      39.745  34.292  36.948  1.00  0.00     0.058 A 
ATOM     90  C   UNL A   1      38.998  34.093  38.119  1.00  0.00     0.135 A 
ATOM     91  C   UNL A   1      40.425  35.512  36.803  1.00  0.00     0.135 A 
ATOM     92  F   UNL A   1      38.322  32.948  38.304  1.00  0.00    -0.206 F 
ATOM     93  C   UNL A   1      38.911  35.074  39.101  1.00  0.00     0.059 A 
ATOM     94  C   UNL A   1      40.373  36.498  37.783  1.00  0.00     0.059 A 
ATOM     95  F   UNL A   1      41.160  35.749  35.705  1.00  0.00    -0.206 F 
ATOM     96  C   UNL A   1      39.605  36.274  38.925  1.00  0.00     0.060 A 
BRANCH  96  97
ATOM     97  S   UNL A   1      39.515  37.526  40.223  1.00  0.00     0.124 S 
ATOM     98  O   UNL A   1      38.628  38.513  39.616  1.00  0.00    -0.237 OA
ATOM     99  O   UNL A   1      38.958  36.776  41.344  1.00  0.00    -0.237 OA
ATOM    100  O   UNL A   1      40.904  37.945  40.386  1.00  0.00    -0.744 OA
ENDBRANCH  96  97
ENDBRANCH  64  89
ENDBRANCH  38  39
ENDBRANCH  30  33
ENDBRANCH  28  29
ENDBRANCH  27  28
ENDBRANCH   1  27
TORSDOF 19
ENDMDL
