MODEL 1
REMARK VINA RESULT:     -10.3      0.000      0.000
REMARK SMILES Cc1[nH]ncc1S(=O)(=O)NC[C@@H]1CC[C@@H](C(=O)NCCCCCCNC(=O)c2ccc(-c3c4nc(c(-c5c(F)cc(S(=O)(=O)[O-])cc5F)c5ccc([nH]5)c(-c5c(F)cc(S(=O)(=O)[O-])cc5F)c5nc(c(-c6c(F)cc(S(=O)(=O)[O-])cc6F)c6ccc3[nH]6)C=C5)C=C4)cc2)O1
REMARK SMILES IDX 21 1 20 2 19 3 18 4 16 5 17 6 15 8 12 9 13 10 94 11 14 12
REMARK SMILES IDX 11 13 10 14 7 16 8 17 9 18 6 19 1 20 2 21 3 22 4 23 5 25
REMARK SMILES IDX 22 26 23 27 24 28 25 29 26 30 27 32 28 33 29 34 93 35 30 36
REMARK SMILES IDX 92 37 31 38 32 39 33 40 86 41 34 42 91 43 85 44 87 45 35 46
REMARK SMILES IDX 90 47 84 48 83 49 36 51 70 52 49 53 69 54 50 55 53 56 68 57
REMARK SMILES IDX 88 58 51 59 52 60 67 62 89 63 54 64 37 65 38 66 47 67 39 68
REMARK SMILES IDX 40 69 46 70 48 71 41 72 42 73 43 74 44 75 45 76 71 77 72 78
REMARK SMILES IDX 81 79 73 80 74 81 80 82 82 83 75 84 76 85 77 86 78 87 79 88
REMARK SMILES IDX 55 89 56 90 65 91 57 92 58 93 64 94 66 95 59 96 60 97 61 98
REMARK SMILES IDX 62 99 63 100
REMARK H PARENT 18 7 10 15 3 24 25 31 87 50 53 61
REMARK Flexibility Score: inf
ROOT
ATOM      1  C   UNL A   1      31.753  27.610  23.570  1.00  0.00     0.002 C 
ENDROOT
BRANCH   1   2
ATOM      2  C   UNL A   1      30.606  27.585  24.591  1.00  0.00     0.021 C 
BRANCH   2   3
ATOM      3  C   UNL A   1      29.720  26.342  24.492  1.00  0.00     0.116 C 
BRANCH   3   4
ATOM      4  N   UNL A   1      29.758  25.592  25.737  1.00  0.00    -0.354 N 
ATOM      5  C   UNL A   1      30.477  24.472  26.049  1.00  0.00     0.249 C 
ATOM      6  O   UNL A   1      30.235  23.896  27.112  1.00  0.00    -0.272 OA
ATOM      7  H   UNL A   1      29.186  25.940  26.457  1.00  0.00     0.163 HD
BRANCH   5   8
ATOM      8  C   UNL A   1      31.591  24.012  25.107  1.00  0.00     0.207 C 
ATOM      9  C   UNL A   1      32.729  21.987  25.001  1.00  0.00     0.134 C 
ATOM     10  C   UNL A   1      32.312  22.376  23.595  1.00  0.00     0.037 C 
ATOM     11  O   UNL A   1      32.461  23.118  25.833  1.00  0.00    -0.364 OA
ATOM     12  C   UNL A   1      31.105  23.237  23.893  1.00  0.00     0.045 C 
BRANCH   9  13
ATOM     13  C   UNL A   1      34.160  21.493  25.188  1.00  0.00     0.131 C 
BRANCH  13  14
ATOM     14  N   UNL A   1      35.112  21.800  24.105  1.00  0.00    -0.208 NA
ATOM     15  H   UNL A   1      35.715  20.983  24.014  1.00  0.00     0.141 HD
BRANCH  14  16
ATOM     16  S   UNL A   1      36.135  23.138  24.173  1.00  0.00     0.244 S 
ATOM     17  O   UNL A   1      35.385  24.271  24.662  1.00  0.00    -0.207 OA
ATOM     18  O   UNL A   1      36.787  23.194  22.883  1.00  0.00    -0.207 OA
BRANCH  16  19
ATOM     19  C   UNL A   1      37.422  22.910  25.278  1.00  0.00     0.122 A 
ATOM     20  C   UNL A   1      38.036  20.360  25.129  1.00  0.00     0.067 C 
ATOM     21  C   UNL A   1      38.131  21.764  25.584  1.00  0.00     0.052 A 
ATOM     22  N   UNL A   1      39.081  22.167  26.486  1.00  0.00    -0.281 N 
ATOM     23  N   UNL A   1      39.025  23.475  26.787  1.00  0.00    -0.183 NA
ATOM     24  H   UNL A   1      39.745  21.555  26.876  1.00  0.00     0.190 HD
ATOM     25  C   UNL A   1      38.022  23.932  26.029  1.00  0.00     0.157 A 
ENDBRANCH  16  19
ENDBRANCH  14  16
ENDBRANCH  13  14
ENDBRANCH   9  13
ENDBRANCH   5   8
ENDBRANCH   3   4
ENDBRANCH   2   3
ENDBRANCH   1   2
BRANCH   1  26
ATOM     26  C   UNL A   1      33.120  27.194  24.123  1.00  0.00     0.002 C 
BRANCH  26  27
ATOM     27  C   UNL A   1      33.278  27.331  25.640  1.00  0.00     0.021 C 
BRANCH  27  28
ATOM     28  C   UNL A   1      34.406  28.256  26.088  1.00  0.00     0.116 C 
BRANCH  28  29
ATOM     29  N   UNL A   1      33.933  29.599  26.382  1.00  0.00    -0.352 N 
ATOM     30  C   UNL A   1      34.396  30.502  27.306  1.00  0.00     0.251 C 
ATOM     31  H   UNL A   1      33.172  29.906  25.839  1.00  0.00     0.163 HD
ATOM     32  O   UNL A   1      33.760  31.528  27.530  1.00  0.00    -0.269 OA
BRANCH  30  33
ATOM     33  C   UNL A   1      35.646  30.227  28.047  1.00  0.00     0.039 A 
ATOM     34  C   UNL A   1      35.574  29.532  29.257  1.00  0.00     0.014 A 
ATOM     35  C   UNL A   1      36.882  30.664  27.561  1.00  0.00     0.014 A 
ATOM     36  C   UNL A   1      36.747  29.224  29.951  1.00  0.00     0.010 A 
ATOM     37  C   UNL A   1      38.054  30.308  28.225  1.00  0.00     0.010 A 
ATOM     38  C   UNL A   1      37.998  29.585  29.426  1.00  0.00    -0.014 A 
BRANCH  38  39
ATOM     39  C   UNL A   1      39.258  29.211  30.116  1.00  0.00     0.031 A 
ATOM     40  C   UNL A   1      39.707  29.966  31.336  1.00  0.00     0.074 A 
ATOM     41  C   UNL A   1      40.033  28.236  29.601  1.00  0.00     0.049 A 
ATOM     42  N   UNL A   1      40.813  29.840  32.025  1.00  0.00    -0.248 NA
ATOM     43  C   UNL A   1      38.808  31.020  31.832  1.00  0.00     0.031 C 
ATOM     44  C   UNL A   1      39.731  27.464  28.394  1.00  0.00     0.029 A 
ATOM     45  N   UNL A   1      41.241  27.737  30.020  1.00  0.00    -0.354 N 
ATOM     46  C   UNL A   1      40.752  30.809  33.020  1.00  0.00     0.074 A 
ATOM     47  C   UNL A   1      39.519  31.539  32.823  1.00  0.00     0.031 C 
ATOM     48  C   UNL A   1      40.722  26.584  28.174  1.00  0.00     0.029 A 
ATOM     49  C   UNL A   1      41.742  26.747  29.207  1.00  0.00     0.049 A 
ATOM     50  H   UNL A   1      41.707  28.059  30.825  1.00  0.00     0.167 HD
ATOM     51  C   UNL A   1      41.637  31.055  34.016  1.00  0.00     0.037 A 
ATOM     52  C   UNL A   1      42.895  26.055  29.280  1.00  0.00     0.037 A 
ATOM     53  C   UNL A   1      42.844  30.302  34.230  1.00  0.00     0.049 A 
ATOM     54  C   UNL A   1      43.845  26.324  30.412  1.00  0.00     0.074 A 
ATOM     55  C   UNL A   1      43.769  30.429  35.253  1.00  0.00     0.029 A 
ATOM     56  N   UNL A   1      43.296  29.279  33.409  1.00  0.00    -0.354 N 
ATOM     57  N   UNL A   1      43.743  27.204  31.381  1.00  0.00    -0.248 NA
ATOM     58  C   UNL A   1      45.064  25.506  30.468  1.00  0.00     0.031 C 
ATOM     59  C   UNL A   1      44.796  29.503  35.033  1.00  0.00     0.029 A 
ATOM     60  C   UNL A   1      44.492  28.775  33.894  1.00  0.00     0.049 A 
ATOM     61  H   UNL A   1      42.834  28.958  32.601  1.00  0.00     0.167 HD
ATOM     62  C   UNL A   1      44.873  27.030  32.172  1.00  0.00     0.074 A 
ATOM     63  C   UNL A   1      45.639  25.955  31.576  1.00  0.00     0.031 C 
ATOM     64  C   UNL A   1      45.240  27.700  33.292  1.00  0.00     0.037 A 
BRANCH  51  65
ATOM     65  C   UNL A   1      41.325  32.184  34.958  1.00  0.00     0.058 A 
ATOM     66  C   UNL A   1      40.493  32.003  36.074  1.00  0.00     0.135 A 
ATOM     67  C   UNL A   1      41.891  33.454  34.761  1.00  0.00     0.135 A 
ATOM     68  F   UNL A   1      39.915  30.813  36.300  1.00  0.00    -0.206 F 
ATOM     69  C   UNL A   1      40.210  33.048  36.947  1.00  0.00     0.059 A 
ATOM     70  C   UNL A   1      41.641  34.508  35.635  1.00  0.00     0.059 A 
ATOM     71  F   UNL A   1      42.694  33.681  33.710  1.00  0.00    -0.206 F 
ATOM     72  C   UNL A   1      40.786  34.299  36.717  1.00  0.00     0.060 A 
BRANCH  72  73
ATOM     73  S   UNL A   1      40.411  35.646  37.858  1.00  0.00     0.124 S 
ATOM     74  O   UNL A   1      40.026  36.709  36.935  1.00  0.00    -0.237 OA
ATOM     75  O   UNL A   1      39.330  35.085  38.664  1.00  0.00    -0.237 OA
ATOM     76  O   UNL A   1      41.671  35.855  38.564  1.00  0.00    -0.744 OA
ENDBRANCH  72  73
ENDBRANCH  51  65
BRANCH  52  77
ATOM     77  C   UNL A   1      43.198  25.019  28.258  1.00  0.00     0.058 A 
ATOM     78  C   UNL A   1      42.893  23.670  28.490  1.00  0.00     0.135 A 
ATOM     79  C   UNL A   1      43.774  25.359  27.025  1.00  0.00     0.135 A 
ATOM     80  F   UNL A   1      42.347  23.297  29.657  1.00  0.00    -0.206 F 
ATOM     81  C   UNL A   1      43.158  22.690  27.540  1.00  0.00     0.059 A 
ATOM     82  C   UNL A   1      44.030  24.400  26.050  1.00  0.00     0.059 A 
ATOM     83  F   UNL A   1      44.068  26.639  26.751  1.00  0.00    -0.206 F 
ATOM     84  C   UNL A   1      43.725  23.066  26.320  1.00  0.00     0.060 A 
BRANCH  84  85
ATOM     85  S   UNL A   1      44.013  21.795  25.069  1.00  0.00     0.124 S 
ATOM     86  O   UNL A   1      42.941  20.850  25.361  1.00  0.00    -0.237 OA
ATOM     87  O   UNL A   1      43.878  22.549  23.827  1.00  0.00    -0.237 OA
ATOM     88  O   UNL A   1      45.364  21.332  25.369  1.00  0.00    -0.744 OA
ENDBRANCH  84  85
ENDBRANCH  52  77
BRANCH  64  89
ATOM     89  C   UNL A   1      46.515  27.275  33.963  1.00  0.00     0.058 A 
ATOM     90  C   UNL A   1      46.531  26.260  34.931  1.00  0.00     0.135 A 
ATOM     91  C   UNL A   1      47.739  27.854  33.594  1.00  0.00     0.135 A 
ATOM     92  F   UNL A   1      45.385  25.681  35.323  1.00  0.00    -0.206 F 
ATOM     93  C   UNL A   1      47.719  25.845  35.527  1.00  0.00     0.059 A 
ATOM     94  C   UNL A   1      48.941  27.439  34.160  1.00  0.00     0.059 A 
ATOM     95  F   UNL A   1      47.777  28.822  32.666  1.00  0.00    -0.206 F 
ATOM     96  C   UNL A   1      48.919  26.440  35.134  1.00  0.00     0.060 A 
BRANCH  96  97
ATOM     97  S   UNL A   1      50.458  25.868  35.884  1.00  0.00     0.124 S 
ATOM     98  O   UNL A   1      50.000  25.438  37.201  1.00  0.00    -0.237 OA
ATOM     99  O   UNL A   1      50.874  24.802  34.978  1.00  0.00    -0.237 OA
ATOM    100  O   UNL A   1      51.303  27.059  35.870  1.00  0.00    -0.744 OA
ENDBRANCH  96  97
ENDBRANCH  64  89
ENDBRANCH  38  39
ENDBRANCH  30  33
ENDBRANCH  28  29
ENDBRANCH  27  28
ENDBRANCH  26  27
ENDBRANCH   1  26
TORSDOF 20
ENDMDL
MODEL 2
REMARK VINA RESULT:     -10.2      3.198      9.759
REMARK SMILES Cc1[nH]ncc1S(=O)(=O)NC[C@@H]1CC[C@@H](C(=O)NCCCCCCNC(=O)c2ccc(-c3c4nc(c(-c5c(F)cc(S(=O)(=O)[O-])cc5F)c5ccc([nH]5)c(-c5c(F)cc(S(=O)(=O)[O-])cc5F)c5nc(c(-c6c(F)cc(S(=O)(=O)[O-])cc6F)c6ccc3[nH]6)C=C5)C=C4)cc2)O1
REMARK SMILES IDX 21 1 20 2 19 3 18 4 16 5 17 6 15 8 12 9 13 10 94 11 14 12
REMARK SMILES IDX 11 13 10 14 7 16 8 17 9 18 6 19 1 20 2 21 3 22 4 23 5 25
REMARK SMILES IDX 22 26 23 27 24 28 25 29 26 30 27 32 28 33 29 34 93 35 30 36
REMARK SMILES IDX 92 37 31 38 32 39 33 40 86 41 34 42 91 43 85 44 87 45 35 46
REMARK SMILES IDX 90 47 84 48 83 49 36 51 70 52 49 53 69 54 50 55 53 56 68 57
REMARK SMILES IDX 88 58 51 59 52 60 67 62 89 63 54 64 37 65 38 66 47 67 39 68
REMARK SMILES IDX 40 69 46 70 48 71 41 72 42 73 43 74 44 75 45 76 71 77 72 78
REMARK SMILES IDX 81 79 73 80 74 81 80 82 82 83 75 84 76 85 77 86 78 87 79 88
REMARK SMILES IDX 55 89 56 90 65 91 57 92 58 93 64 94 66 95 59 96 60 97 61 98
REMARK SMILES IDX 62 99 63 100
REMARK H PARENT 18 7 10 15 3 24 25 31 87 50 53 61
REMARK Flexibility Score: inf
ROOT
ATOM      1  C   UNL A   1      39.870  22.533  26.746  1.00  0.00     0.002 C 
ENDROOT
BRANCH   1   2
ATOM      2  C   UNL A   1      38.738  21.777  26.036  1.00  0.00     0.021 C 
BRANCH   2   3
ATOM      3  C   UNL A   1      37.506  22.637  25.751  1.00  0.00     0.116 C 
BRANCH   3   4
ATOM      4  N   UNL A   1      37.323  22.802  24.319  1.00  0.00    -0.354 N 
ATOM      5  C   UNL A   1      36.170  23.010  23.614  1.00  0.00     0.249 C 
ATOM      6  O   UNL A   1      36.217  22.955  22.383  1.00  0.00    -0.272 OA
ATOM      7  H   UNL A   1      38.145  22.757  23.780  1.00  0.00     0.163 HD
BRANCH   5   8
ATOM      8  C   UNL A   1      34.888  23.365  24.367  1.00  0.00     0.207 C 
ATOM      9  C   UNL A   1      33.194  24.866  23.827  1.00  0.00     0.134 C 
ATOM     10  C   UNL A   1      32.556  23.559  24.259  1.00  0.00     0.037 C 
ATOM     11  O   UNL A   1      34.588  24.757  24.125  1.00  0.00    -0.364 OA
ATOM     12  C   UNL A   1      33.662  22.585  23.919  1.00  0.00     0.045 C 
BRANCH   9  13
ATOM     13  C   UNL A   1      32.607  26.149  24.405  1.00  0.00     0.131 C 
BRANCH  13  14
ATOM     14  N   UNL A   1      31.222  26.475  24.018  1.00  0.00    -0.208 NA
ATOM     15  H   UNL A   1      30.814  25.612  23.659  1.00  0.00     0.141 HD
BRANCH  14  16
ATOM     16  S   UNL A   1      30.874  27.673  22.885  1.00  0.00     0.244 S 
ATOM     17  O   UNL A   1      31.047  27.123  21.560  1.00  0.00    -0.207 OA
ATOM     18  O   UNL A   1      31.631  28.833  23.300  1.00  0.00    -0.207 OA
BRANCH  16  19
ATOM     19  C   UNL A   1      29.244  28.189  22.972  1.00  0.00     0.122 A 
ATOM     20  C   UNL A   1      29.146  30.443  21.626  1.00  0.00     0.067 C 
ATOM     21  C   UNL A   1      28.640  29.306  22.424  1.00  0.00     0.052 A 
ATOM     22  N   UNL A   1      27.316  29.190  22.758  1.00  0.00    -0.281 N 
ATOM     23  N   UNL A   1      27.032  28.097  23.485  1.00  0.00    -0.183 NA
ATOM     24  H   UNL A   1      26.635  29.847  22.489  1.00  0.00     0.190 HD
ATOM     25  C   UNL A   1      28.210  27.474  23.596  1.00  0.00     0.157 A 
ENDBRANCH  16  19
ENDBRANCH  14  16
ENDBRANCH  13  14
ENDBRANCH   9  13
ENDBRANCH   5   8
ENDBRANCH   3   4
ENDBRANCH   2   3
ENDBRANCH   1   2
BRANCH   1  26
ATOM     26  C   UNL A   1      41.251  21.877  26.643  1.00  0.00     0.002 C 
BRANCH  26  27
ATOM     27  C   UNL A   1      42.228  22.239  27.766  1.00  0.00     0.021 C 
BRANCH  27  28
ATOM     28  C   UNL A   1      43.205  23.362  27.432  1.00  0.00     0.116 C 
BRANCH  28  29
ATOM     29  N   UNL A   1      42.824  24.082  26.227  1.00  0.00    -0.352 N 
ATOM     30  C   UNL A   1      42.207  25.302  26.100  1.00  0.00     0.251 C 
ATOM     31  H   UNL A   1      43.040  23.629  25.380  1.00  0.00     0.163 HD
ATOM     32  O   UNL A   1      41.809  25.674  25.000  1.00  0.00    -0.269 OA
BRANCH  30  33
ATOM     33  C   UNL A   1      42.004  26.155  27.291  1.00  0.00     0.039 A 
ATOM     34  C   UNL A   1      42.873  27.228  27.508  1.00  0.00     0.014 A 
ATOM     35  C   UNL A   1      40.974  25.892  28.199  1.00  0.00     0.014 A 
ATOM     36  C   UNL A   1      42.674  28.072  28.603  1.00  0.00     0.010 A 
ATOM     37  C   UNL A   1      40.743  26.766  29.259  1.00  0.00     0.010 A 
ATOM     38  C   UNL A   1      41.590  27.864  29.471  1.00  0.00    -0.014 A 
BRANCH  38  39
ATOM     39  C   UNL A   1      41.323  28.788  30.603  1.00  0.00     0.031 A 
ATOM     40  C   UNL A   1      42.132  28.690  31.867  1.00  0.00     0.074 A 
ATOM     41  C   UNL A   1      40.306  29.667  30.517  1.00  0.00     0.049 A 
ATOM     42  N   UNL A   1      41.994  29.352  32.987  1.00  0.00    -0.248 NA
ATOM     43  C   UNL A   1      43.221  27.701  31.882  1.00  0.00     0.031 C 
ATOM     44  C   UNL A   1      39.417  29.823  29.363  1.00  0.00     0.029 A 
ATOM     45  N   UNL A   1      39.838  30.586  31.422  1.00  0.00    -0.354 N 
ATOM     46  C   UNL A   1      42.962  28.845  33.847  1.00  0.00     0.074 A 
ATOM     47  C   UNL A   1      43.655  27.796  33.131  1.00  0.00     0.031 C 
ATOM     48  C   UNL A   1      38.518  30.786  29.627  1.00  0.00     0.029 A 
ATOM     49  C   UNL A   1      38.747  31.295  30.976  1.00  0.00     0.049 A 
ATOM     50  H   UNL A   1      40.243  30.724  32.308  1.00  0.00     0.167 HD
ATOM     51  C   UNL A   1      43.257  29.232  35.111  1.00  0.00     0.037 A 
ATOM     52  C   UNL A   1      38.010  32.243  31.586  1.00  0.00     0.037 A 
ATOM     53  C   UNL A   1      42.589  30.300  35.807  1.00  0.00     0.049 A 
ATOM     54  C   UNL A   1      38.376  32.677  32.978  1.00  0.00     0.074 A 
ATOM     55  C   UNL A   1      42.862  30.814  37.064  1.00  0.00     0.029 A 
ATOM     56  N   UNL A   1      41.516  31.024  35.305  1.00  0.00    -0.354 N 
ATOM     57  N   UNL A   1      39.334  32.229  33.755  1.00  0.00    -0.248 NA
ATOM     58  C   UNL A   1      37.567  33.748  33.576  1.00  0.00     0.031 C 
ATOM     59  C   UNL A   1      41.933  31.826  37.334  1.00  0.00     0.029 A 
ATOM     60  C   UNL A   1      41.106  31.968  36.232  1.00  0.00     0.049 A 
ATOM     61  H   UNL A   1      41.106  30.885  34.420  1.00  0.00     0.167 HD
ATOM     62  C   UNL A   1      39.256  32.978  34.923  1.00  0.00     0.074 A 
ATOM     63  C   UNL A   1      38.165  33.914  34.748  1.00  0.00     0.031 C 
ATOM     64  C   UNL A   1      40.021  32.897  36.040  1.00  0.00     0.037 A 
BRANCH  51  65
ATOM     65  C   UNL A   1      44.357  28.497  35.824  1.00  0.00     0.058 A 
ATOM     66  C   UNL A   1      44.093  27.381  36.634  1.00  0.00     0.135 A 
ATOM     67  C   UNL A   1      45.695  28.893  35.671  1.00  0.00     0.135 A 
ATOM     68  F   UNL A   1      42.829  26.970  36.826  1.00  0.00    -0.206 F 
ATOM     69  C   UNL A   1      45.113  26.700  37.290  1.00  0.00     0.059 A 
ATOM     70  C   UNL A   1      46.735  28.213  36.299  1.00  0.00     0.059 A 
ATOM     71  F   UNL A   1      46.004  29.954  34.908  1.00  0.00    -0.206 F 
ATOM     72  C   UNL A   1      46.431  27.126  37.118  1.00  0.00     0.060 A 
BRANCH  72  73
ATOM     73  S   UNL A   1      47.746  26.232  37.974  1.00  0.00     0.124 S 
ATOM     74  O   UNL A   1      48.404  27.312  38.703  1.00  0.00    -0.237 OA
ATOM     75  O   UNL A   1      47.000  25.280  38.791  1.00  0.00    -0.237 OA
ATOM     76  O   UNL A   1      48.523  25.647  36.886  1.00  0.00    -0.744 OA
ENDBRANCH  72  73
ENDBRANCH  51  65
BRANCH  52  77
ATOM     77  C   UNL A   1      36.866  32.863  30.869  1.00  0.00     0.058 A 
ATOM     78  C   UNL A   1      35.546  32.506  31.178  1.00  0.00     0.135 A 
ATOM     79  C   UNL A   1      37.068  33.838  29.879  1.00  0.00     0.135 A 
ATOM     80  F   UNL A   1      35.304  31.574  32.112  1.00  0.00    -0.206 F 
ATOM     81  C   UNL A   1      34.464  33.085  30.525  1.00  0.00     0.059 A 
ATOM     82  C   UNL A   1      36.001  34.447  29.228  1.00  0.00     0.059 A 
ATOM     83  F   UNL A   1      38.313  34.223  29.561  1.00  0.00    -0.206 F 
ATOM     84  C   UNL A   1      34.702  34.058  29.552  1.00  0.00     0.060 A 
BRANCH  84  85
ATOM     85  S   UNL A   1      33.288  34.847  28.750  1.00  0.00     0.124 S 
ATOM     86  O   UNL A   1      32.869  33.812  27.812  1.00  0.00    -0.237 OA
ATOM     87  O   UNL A   1      32.391  35.089  29.875  1.00  0.00    -0.237 OA
ATOM     88  O   UNL A   1      33.870  36.045  28.153  1.00  0.00    -0.744 OA
ENDBRANCH  84  85
ENDBRANCH  52  77
BRANCH  64  89
ATOM     89  C   UNL A   1      39.723  33.862  37.151  1.00  0.00     0.058 A 
ATOM     90  C   UNL A   1      38.869  33.521  38.211  1.00  0.00     0.135 A 
ATOM     91  C   UNL A   1      40.341  35.122  37.183  1.00  0.00     0.135 A 
ATOM     92  F   UNL A   1      38.249  32.330  38.222  1.00  0.00    -0.206 F 
ATOM     93  C   UNL A   1      38.622  34.405  39.257  1.00  0.00     0.059 A 
ATOM     94  C   UNL A   1      40.125  36.013  38.231  1.00  0.00     0.059 A 
ATOM     95  F   UNL A   1      41.173  35.492  36.198  1.00  0.00    -0.206 F 
ATOM     96  C   UNL A   1      39.256  35.649  39.258  1.00  0.00     0.060 A 
BRANCH  96  97
ATOM     97  S   UNL A   1      38.959  36.773  40.639  1.00  0.00     0.124 S 
ATOM     98  O   UNL A   1      38.211  37.844  39.990  1.00  0.00    -0.237 OA
ATOM     99  O   UNL A   1      38.198  35.941  41.566  1.00  0.00    -0.237 OA
ATOM    100  O   UNL A   1      40.305  37.125  41.083  1.00  0.00    -0.744 OA
ENDBRANCH  96  97
ENDBRANCH  64  89
ENDBRANCH  38  39
ENDBRANCH  30  33
ENDBRANCH  28  29
ENDBRANCH  27  28
ENDBRANCH  26  27
ENDBRANCH   1  26
TORSDOF 20
ENDMDL
MODEL 3
REMARK VINA RESULT:     -10.2      3.267      9.513
REMARK SMILES Cc1[nH]ncc1S(=O)(=O)NC[C@@H]1CC[C@@H](C(=O)NCCCCCCNC(=O)c2ccc(-c3c4nc(c(-c5c(F)cc(S(=O)(=O)[O-])cc5F)c5ccc([nH]5)c(-c5c(F)cc(S(=O)(=O)[O-])cc5F)c5nc(c(-c6c(F)cc(S(=O)(=O)[O-])cc6F)c6ccc3[nH]6)C=C5)C=C4)cc2)O1
REMARK SMILES IDX 21 1 20 2 19 3 18 4 16 5 17 6 15 8 12 9 13 10 94 11 14 12
REMARK SMILES IDX 11 13 10 14 7 16 8 17 9 18 6 19 1 20 2 21 3 22 4 23 5 25
REMARK SMILES IDX 22 26 23 27 24 28 25 29 26 30 27 32 28 33 29 34 93 35 30 36
REMARK SMILES IDX 92 37 31 38 32 39 33 40 86 41 34 42 91 43 85 44 87 45 35 46
REMARK SMILES IDX 90 47 84 48 83 49 36 51 70 52 49 53 69 54 50 55 53 56 68 57
REMARK SMILES IDX 88 58 51 59 52 60 67 62 89 63 54 64 37 65 38 66 47 67 39 68
REMARK SMILES IDX 40 69 46 70 48 71 41 72 42 73 43 74 44 75 45 76 71 77 72 78
REMARK SMILES IDX 81 79 73 80 74 81 80 82 82 83 75 84 76 85 77 86 78 87 79 88
REMARK SMILES IDX 55 89 56 90 65 91 57 92 58 93 64 94 66 95 59 96 60 97 61 98
REMARK SMILES IDX 62 99 63 100
REMARK H PARENT 18 7 10 15 3 24 25 31 87 50 53 61
REMARK Flexibility Score: inf
ROOT
ATOM      1  C   UNL A   1      37.404  21.033  24.571  1.00  0.00     0.002 C 
ENDROOT
BRANCH   1   2
ATOM      2  C   UNL A   1      36.259  20.102  24.996  1.00  0.00     0.021 C 
BRANCH   2   3
ATOM      3  C   UNL A   1      34.880  20.762  24.955  1.00  0.00     0.116 C 
BRANCH   3   4
ATOM      4  N   UNL A   1      34.507  21.240  26.276  1.00  0.00    -0.354 N 
ATOM      5  C   UNL A   1      34.087  22.483  26.658  1.00  0.00     0.249 C 
ATOM      6  O   UNL A   1      33.981  22.723  27.863  1.00  0.00    -0.272 OA
ATOM      7  H   UNL A   1      34.564  20.574  26.998  1.00  0.00     0.163 HD
BRANCH   5   8
ATOM      8  C   UNL A   1      33.704  23.505  25.587  1.00  0.00     0.207 C 
ATOM      9  C   UNL A   1      33.474  25.816  25.727  1.00  0.00     0.134 C 
ATOM     10  C   UNL A   1      34.291  25.490  24.490  1.00  0.00     0.037 C 
ATOM     11  O   UNL A   1      32.966  24.573  26.218  1.00  0.00    -0.364 OA
ATOM     12  C   UNL A   1      34.889  24.161  24.895  1.00  0.00     0.045 C 
BRANCH   9  13
ATOM     13  C   UNL A   1      32.358  26.843  25.570  1.00  0.00     0.131 C 
BRANCH  13  14
ATOM     14  N   UNL A   1      31.012  26.318  25.279  1.00  0.00    -0.208 NA
ATOM     15  H   UNL A   1      31.013  25.343  25.578  1.00  0.00     0.141 HD
BRANCH  14  16
ATOM     16  S   UNL A   1      30.368  26.334  23.721  1.00  0.00     0.244 S 
ATOM     17  O   UNL A   1      28.953  26.058  23.801  1.00  0.00    -0.207 OA
ATOM     18  O   UNL A   1      31.235  25.486  22.933  1.00  0.00    -0.207 OA
BRANCH  16  19
ATOM     19  C   UNL A   1      30.509  27.872  22.982  1.00  0.00     0.122 A 
ATOM     20  C   UNL A   1      33.062  28.155  22.426  1.00  0.00     0.067 C 
ATOM     21  C   UNL A   1      31.628  28.512  22.481  1.00  0.00     0.052 A 
ATOM     22  N   UNL A   1      31.155  29.686  21.954  1.00  0.00    -0.281 N 
ATOM     23  N   UNL A   1      29.829  29.848  22.091  1.00  0.00    -0.183 NA
ATOM     24  H   UNL A   1      31.735  30.349  21.515  1.00  0.00     0.190 HD
ATOM     25  C   UNL A   1      29.432  28.726  22.700  1.00  0.00     0.157 A 
ENDBRANCH  16  19
ENDBRANCH  14  16
ENDBRANCH  13  14
ENDBRANCH   9  13
ENDBRANCH   5   8
ENDBRANCH   3   4
ENDBRANCH   2   3
ENDBRANCH   1   2
BRANCH   1  26
ATOM     26  C   UNL A   1      38.107  21.761  25.721  1.00  0.00     0.002 C 
BRANCH  26  27
ATOM     27  C   UNL A   1      37.860  23.272  25.781  1.00  0.00     0.021 C 
BRANCH  27  28
ATOM     28  C   UNL A   1      38.834  24.047  26.664  1.00  0.00     0.116 C 
BRANCH  28  29
ATOM     29  N   UNL A   1      40.181  24.062  26.117  1.00  0.00    -0.352 N 
ATOM     30  C   UNL A   1      41.233  24.890  26.419  1.00  0.00     0.251 C 
ATOM     31  H   UNL A   1      40.365  23.381  25.432  1.00  0.00     0.163 HD
ATOM     32  O   UNL A   1      42.249  24.865  25.730  1.00  0.00    -0.269 OA
BRANCH  30  33
ATOM     33  C   UNL A   1      41.134  25.827  27.560  1.00  0.00     0.039 A 
ATOM     34  C   UNL A   1      42.041  26.887  27.643  1.00  0.00     0.014 A 
ATOM     35  C   UNL A   1      40.163  25.654  28.551  1.00  0.00     0.014 A 
ATOM     36  C   UNL A   1      41.938  27.808  28.689  1.00  0.00     0.010 A 
ATOM     37  C   UNL A   1      40.027  26.604  29.561  1.00  0.00     0.010 A 
ATOM     38  C   UNL A   1      40.913  27.689  29.640  1.00  0.00    -0.014 A 
BRANCH  38  39
ATOM     39  C   UNL A   1      40.748  28.694  30.721  1.00  0.00     0.031 A 
ATOM     40  C   UNL A   1      41.574  28.601  31.974  1.00  0.00     0.074 A 
ATOM     41  C   UNL A   1      39.802  29.647  30.603  1.00  0.00     0.049 A 
ATOM     42  N   UNL A   1      41.517  29.334  33.056  1.00  0.00    -0.248 NA
ATOM     43  C   UNL A   1      42.580  27.529  32.026  1.00  0.00     0.031 C 
ATOM     44  C   UNL A   1      38.903  29.810  29.459  1.00  0.00     0.029 A 
ATOM     45  N   UNL A   1      39.431  30.650  31.462  1.00  0.00    -0.354 N 
ATOM     46  C   UNL A   1      42.460  28.799  33.926  1.00  0.00     0.074 A 
ATOM     47  C   UNL A   1      43.050  27.659  33.259  1.00  0.00     0.031 C 
ATOM     48  C   UNL A   1      38.090  30.856  29.683  1.00  0.00     0.029 A 
ATOM     49  C   UNL A   1      38.391  31.420  30.996  1.00  0.00     0.049 A 
ATOM     50  H   UNL A   1      39.866  30.804  32.331  1.00  0.00     0.167 HD
ATOM     51  C   UNL A   1      42.814  29.231  35.160  1.00  0.00     0.037 A 
ATOM     52  C   UNL A   1      37.747  32.458  31.564  1.00  0.00     0.037 A 
ATOM     53  C   UNL A   1      42.250  30.388  35.805  1.00  0.00     0.049 A 
ATOM     54  C   UNL A   1      38.178  32.938  32.921  1.00  0.00     0.074 A 
ATOM     55  C   UNL A   1      42.592  30.947  37.024  1.00  0.00     0.029 A 
ATOM     56  N   UNL A   1      41.227  31.167  35.282  1.00  0.00    -0.354 N 
ATOM     57  N   UNL A   1      39.115  32.458  33.705  1.00  0.00    -0.248 NA
ATOM     58  C   UNL A   1      37.471  34.103  33.471  1.00  0.00     0.031 C 
ATOM     59  C   UNL A   1      41.755  32.046  37.253  1.00  0.00     0.029 A 
ATOM     60  C   UNL A   1      40.917  32.192  36.160  1.00  0.00     0.049 A 
ATOM     61  H   UNL A   1      40.788  31.013  34.414  1.00  0.00     0.167 HD
ATOM     62  C   UNL A   1      39.124  33.275  34.830  1.00  0.00     0.074 A 
ATOM     63  C   UNL A   1      38.108  34.286  34.621  1.00  0.00     0.031 C 
ATOM     64  C   UNL A   1      39.905  33.195  35.935  1.00  0.00     0.037 A 
BRANCH  51  65
ATOM     65  C   UNL A   1      43.868  28.450  35.894  1.00  0.00     0.058 A 
ATOM     66  C   UNL A   1      45.234  28.735  35.742  1.00  0.00     0.135 A 
ATOM     67  C   UNL A   1      43.507  27.427  36.786  1.00  0.00     0.135 A 
ATOM     68  F   UNL A   1      45.634  29.693  34.891  1.00  0.00    -0.206 F 
ATOM     69  C   UNL A   1      46.207  28.013  36.424  1.00  0.00     0.059 A 
ATOM     70  C   UNL A   1      44.462  26.709  37.498  1.00  0.00     0.059 A 
ATOM     71  F   UNL A   1      42.214  27.115  36.969  1.00  0.00    -0.206 F 
ATOM     72  C   UNL A   1      45.812  26.999  37.299  1.00  0.00     0.060 A 
BRANCH  72  73
ATOM     73  S   UNL A   1      47.085  26.072  38.180  1.00  0.00     0.124 S 
ATOM     74  O   UNL A   1      48.295  26.777  37.768  1.00  0.00    -0.237 OA
ATOM     75  O   UNL A   1      46.694  26.249  39.575  1.00  0.00    -0.237 OA
ATOM     76  O   UNL A   1      46.941  24.717  37.659  1.00  0.00    -0.744 OA
ENDBRANCH  72  73
ENDBRANCH  51  65
BRANCH  52  77
ATOM     77  C   UNL A   1      36.640  33.127  30.833  1.00  0.00     0.058 A 
ATOM     78  C   UNL A   1      35.309  32.974  31.248  1.00  0.00     0.135 A 
ATOM     79  C   UNL A   1      36.892  33.949  29.724  1.00  0.00     0.135 A 
ATOM     80  F   UNL A   1      35.020  32.193  32.299  1.00  0.00    -0.206 F 
ATOM     81  C   UNL A   1      34.263  33.604  30.582  1.00  0.00     0.059 A 
ATOM     82  C   UNL A   1      35.864  34.607  29.055  1.00  0.00     0.059 A 
ATOM     83  F   UNL A   1      38.151  34.139  29.301  1.00  0.00    -0.206 F 
ATOM     84  C   UNL A   1      34.551  34.421  29.487  1.00  0.00     0.060 A 
BRANCH  84  85
ATOM     85  S   UNL A   1      33.192  35.282  28.665  1.00  0.00     0.124 S 
ATOM     86  O   UNL A   1      32.554  34.191  27.936  1.00  0.00    -0.237 OA
ATOM     87  O   UNL A   1      32.440  35.820  29.794  1.00  0.00    -0.237 OA
ATOM     88  O   UNL A   1      33.875  36.277  27.845  1.00  0.00    -0.744 OA
ENDBRANCH  84  85
ENDBRANCH  52  77
BRANCH  64  89
ATOM     89  C   UNL A   1      39.712  34.242  36.993  1.00  0.00     0.058 A 
ATOM     90  C   UNL A   1      38.950  33.989  38.145  1.00  0.00     0.135 A 
ATOM     91  C   UNL A   1      40.339  35.492  36.880  1.00  0.00     0.135 A 
ATOM     92  F   UNL A   1      38.325  32.811  38.296  1.00  0.00    -0.206 F 
ATOM     93  C   UNL A   1      38.801  34.950  39.140  1.00  0.00     0.059 A 
ATOM     94  C   UNL A   1      40.222  36.460  37.874  1.00  0.00     0.059 A 
ATOM     95  F   UNL A   1      41.086  35.778  35.802  1.00  0.00    -0.206 F 
ATOM     96  C   UNL A   1      39.442  36.183  38.996  1.00  0.00     0.060 A 
BRANCH  96  97
ATOM     97  S   UNL A   1      39.273  37.408  40.310  1.00  0.00     0.124 S 
ATOM     98  O   UNL A   1      40.640  37.907  40.424  1.00  0.00    -0.237 OA
ATOM     99  O   UNL A   1      38.302  38.342  39.750  1.00  0.00    -0.237 OA
ATOM    100  O   UNL A   1      38.795  36.622  41.445  1.00  0.00    -0.744 OA
ENDBRANCH  96  97
ENDBRANCH  64  89
ENDBRANCH  38  39
ENDBRANCH  30  33
ENDBRANCH  28  29
ENDBRANCH  27  28
ENDBRANCH  26  27
ENDBRANCH   1  26
TORSDOF 20
ENDMDL
