MODEL 1
REMARK VINA RESULT:     -11.6      0.000      0.000
REMARK SMILES COc1ccc([C@@H](CC(=O)NCCCCCCNC(=O)c2ccc(-c3c4nc(c(-c5c(F)cc(S(=O)(=O)[O-])cc5F)c5ccc([nH]5)c(-c5c(F)cc(S(=O)(=O)[O-])cc5F)c5nc(c(-c6c(F)cc(S(=O)(=O)[O-])cc6F)c6ccc3[nH]6)C=C5)C=C4)cc2)NC(=O)c2ccc(Cl)c([N+](=O)[O-])c2)cc1
REMARK SMILES IDX 14 1 13 2 12 3 11 4 9 5 10 6 8 8 7 9 6 10 3 11 4 12 101 13
REMARK SMILES IDX 5 14 100 15 2 16 1 17 87 18 88 19 89 21 90 22 91 23 99 24
REMARK SMILES IDX 92 25 95 26 93 27 94 28 96 29 97 30 98 31 15 32 16 33 17 34
REMARK SMILES IDX 18 35 19 36 20 38 21 39 22 40 86 41 23 42 85 43 24 44 25 45
REMARK SMILES IDX 26 46 79 47 27 48 84 49 78 50 80 51 28 52 83 53 77 54 76 55
REMARK SMILES IDX 29 57 63 58 42 59 62 60 43 61 46 62 61 63 81 64 44 65 45 66
REMARK SMILES IDX 60 68 82 69 47 70 30 71 31 72 40 73 32 74 33 75 39 76 41 77
REMARK SMILES IDX 34 78 35 79 36 80 37 81 38 82 64 83 65 84 74 85 66 86 67 87
REMARK SMILES IDX 73 88 75 89 68 90 69 91 70 92 71 93 72 94 48 95 49 96 58 97
REMARK SMILES IDX 50 98 51 99 57 100 59 101 52 102 53 103 54 104 55 105 56 106
REMARK H PARENT 11 7 87 20 18 37 80 56 46 67
REMARK Flexibility Score: inf
ROOT
ATOM      1  C   UNL A   1      31.709  30.761  26.470  1.00  0.00     0.002 C 
ENDROOT
BRANCH   1   2
ATOM      2  C   UNL A   1      31.427  29.365  25.918  1.00  0.00     0.021 C 
BRANCH   2   3
ATOM      3  C   UNL A   1      31.223  29.293  24.406  1.00  0.00     0.116 C 
BRANCH   3   4
ATOM      4  N   UNL A   1      32.513  29.313  23.739  1.00  0.00    -0.356 N 
ATOM      5  C   UNL A   1      33.433  28.318  23.618  1.00  0.00     0.222 C 
ATOM      6  O   UNL A   1      34.587  28.627  23.309  1.00  0.00    -0.275 OA
ATOM      7  H   UNL A   1      32.757  30.167  23.314  1.00  0.00     0.163 HD
BRANCH   5   8
ATOM      8  C   UNL A   1      33.046  26.866  23.800  1.00  0.00     0.129 C 
BRANCH   8   9
ATOM      9  C   UNL A   1      33.583  26.203  25.080  1.00  0.00     0.122 C 
BRANCH   9  10
ATOM     10  C   UNL A   1      34.471  24.995  24.818  1.00  0.00    -0.025 A 
ATOM     11  C   UNL A   1      36.313  22.900  24.404  1.00  0.00     0.118 A 
ATOM     12  C   UNL A   1      35.554  23.392  23.343  1.00  0.00     0.047 A 
ATOM     13  C   UNL A   1      36.128  23.416  25.683  1.00  0.00     0.047 A 
ATOM     14  C   UNL A   1      34.630  24.424  23.547  1.00  0.00     0.010 A 
ATOM     15  C   UNL A   1      35.204  24.445  25.889  1.00  0.00     0.010 A 
BRANCH  11  16
ATOM     16  O   UNL A   1      37.336  22.053  24.085  1.00  0.00    -0.497 OA
ATOM     17  C   UNL A   1      37.568  21.014  25.033  1.00  0.00     0.278 C 
ENDBRANCH  11  16
ENDBRANCH   9  10
BRANCH   9  18
ATOM     18  N   UNL A   1      32.527  25.947  26.064  1.00  0.00    -0.345 N 
ATOM     19  C   UNL A   1      31.498  25.044  26.026  1.00  0.00     0.252 C 
ATOM     20  H   UNL A   1      32.563  26.509  26.872  1.00  0.00     0.164 HD
ATOM     21  O   UNL A   1      30.551  25.115  26.800  1.00  0.00    -0.269 OA
BRANCH  19  22
ATOM     22  C   UNL A   1      31.540  23.945  25.042  1.00  0.00     0.046 A 
ATOM     23  C   UNL A   1      31.070  24.162  23.746  1.00  0.00     0.016 A 
ATOM     24  C   UNL A   1      32.036  22.695  25.416  1.00  0.00     0.101 A 
ATOM     25  C   UNL A   1      31.167  23.141  22.793  1.00  0.00     0.028 A 
ATOM     26  C   UNL A   1      32.150  21.692  24.446  1.00  0.00     0.288 A 
ATOM     27  C   UNL A   1      31.732  21.903  23.130  1.00  0.00     0.118 A 
ATOM     28  Cl  UNL A   1      31.919  20.747  21.864  1.00  0.00    -0.077 Cl
BRANCH  26  29
ATOM     29  N   UNL A   1      32.780  20.452  24.853  1.00  0.00     0.064 N 
ATOM     30  O   UNL A   1      34.016  20.399  24.841  1.00  0.00    -0.258 OA
ATOM     31  O   UNL A   1      32.021  19.508  25.120  1.00  0.00    -0.258 OA
ENDBRANCH  26  29
ENDBRANCH  19  22
ENDBRANCH   9  18
ENDBRANCH   8   9
ENDBRANCH   5   8
ENDBRANCH   3   4
ENDBRANCH   2   3
ENDBRANCH   1   2
BRANCH   1  32
ATOM     32  C   UNL A   1      33.115  30.953  27.048  1.00  0.00     0.002 C 
BRANCH  32  33
ATOM     33  C   UNL A   1      33.919  29.670  27.298  1.00  0.00     0.021 C 
BRANCH  33  34
ATOM     34  C   UNL A   1      35.349  29.874  27.801  1.00  0.00     0.116 C 
BRANCH  34  35
ATOM     35  N   UNL A   1      35.385  30.548  29.088  1.00  0.00    -0.352 N 
ATOM     36  C   UNL A   1      36.395  30.620  30.015  1.00  0.00     0.251 C 
ATOM     37  H   UNL A   1      34.560  31.025  29.332  1.00  0.00     0.163 HD
ATOM     38  O   UNL A   1      36.163  31.075  31.133  1.00  0.00    -0.269 OA
BRANCH  36  39
ATOM     39  C   UNL A   1      37.756  30.137  29.687  1.00  0.00     0.039 A 
ATOM     40  C   UNL A   1      38.150  30.093  28.346  1.00  0.00     0.014 A 
ATOM     41  C   UNL A   1      38.627  29.689  30.683  1.00  0.00     0.014 A 
ATOM     42  C   UNL A   1      39.435  29.655  28.008  1.00  0.00     0.010 A 
ATOM     43  C   UNL A   1      39.926  29.302  30.349  1.00  0.00     0.010 A 
ATOM     44  C   UNL A   1      40.346  29.283  29.009  1.00  0.00    -0.014 A 
BRANCH  44  45
ATOM     45  C   UNL A   1      41.736  28.871  28.678  1.00  0.00     0.031 A 
ATOM     46  C   UNL A   1      42.846  29.889  28.666  1.00  0.00     0.074 A 
ATOM     47  C   UNL A   1      41.993  27.596  28.323  1.00  0.00     0.049 A 
ATOM     48  N   UNL A   1      44.096  29.744  28.305  1.00  0.00    -0.248 NA
ATOM     49  C   UNL A   1      42.499  31.254  29.090  1.00  0.00     0.031 C 
ATOM     50  C   UNL A   1      41.002  26.519  28.259  1.00  0.00     0.029 A 
ATOM     51  N   UNL A   1      43.163  26.992  27.934  1.00  0.00    -0.354 N 
ATOM     52  C   UNL A   1      44.679  30.999  28.439  1.00  0.00     0.074 A 
ATOM     53  C   UNL A   1      43.635  31.902  28.876  1.00  0.00     0.031 C 
ATOM     54  C   UNL A   1      41.607  25.386  27.867  1.00  0.00     0.029 A 
ATOM     55  C   UNL A   1      43.019  25.661  27.617  1.00  0.00     0.049 A 
ATOM     56  H   UNL A   1      44.024  27.467  27.887  1.00  0.00     0.167 HD
ATOM     57  C   UNL A   1      45.967  31.362  28.235  1.00  0.00     0.037 A 
ATOM     58  C   UNL A   1      43.919  24.764  27.165  1.00  0.00     0.037 A 
ATOM     59  C   UNL A   1      47.013  30.456  27.837  1.00  0.00     0.049 A 
ATOM     60  C   UNL A   1      45.348  25.189  26.956  1.00  0.00     0.074 A 
ATOM     61  C   UNL A   1      48.360  30.722  27.657  1.00  0.00     0.029 A 
ATOM     62  N   UNL A   1      46.833  29.108  27.562  1.00  0.00    -0.354 N 
ATOM     63  N   UNL A   1      45.889  26.371  27.132  1.00  0.00    -0.248 NA
ATOM     64  C   UNL A   1      46.289  24.159  26.493  1.00  0.00     0.031 C 
ATOM     65  C   UNL A   1      48.989  29.543  27.243  1.00  0.00     0.029 A 
ATOM     66  C   UNL A   1      48.041  28.533  27.204  1.00  0.00     0.049 A 
ATOM     67  H   UNL A   1      45.974  28.632  27.614  1.00  0.00     0.167 HD
ATOM     68  C   UNL A   1      47.239  26.218  26.832  1.00  0.00     0.074 A 
ATOM     69  C   UNL A   1      47.433  24.831  26.466  1.00  0.00     0.031 C 
ATOM     70  C   UNL A   1      48.226  27.146  26.860  1.00  0.00     0.037 A 
BRANCH  57  71
ATOM     71  C   UNL A   1      46.326  32.807  28.444  1.00  0.00     0.058 A 
ATOM     72  C   UNL A   1      46.794  33.277  29.682  1.00  0.00     0.135 A 
ATOM     73  C   UNL A   1      46.241  33.725  27.385  1.00  0.00     0.135 A 
ATOM     74  F   UNL A   1      46.881  32.444  30.731  1.00  0.00    -0.206 F 
ATOM     75  C   UNL A   1      47.136  34.612  29.870  1.00  0.00     0.059 A 
ATOM     76  C   UNL A   1      46.603  35.059  27.543  1.00  0.00     0.059 A 
ATOM     77  F   UNL A   1      45.802  33.327  26.180  1.00  0.00    -0.206 F 
ATOM     78  C   UNL A   1      47.036  35.496  28.794  1.00  0.00     0.060 A 
BRANCH  78  79
ATOM     79  S   UNL A   1      47.485  37.225  29.053  1.00  0.00     0.124 S 
ATOM     80  O   UNL A   1      48.896  37.217  28.678  1.00  0.00    -0.237 OA
ATOM     81  O   UNL A   1      46.589  37.922  28.135  1.00  0.00    -0.237 OA
ATOM     82  O   UNL A   1      47.213  37.438  30.471  1.00  0.00    -0.744 OA
ENDBRANCH  78  79
ENDBRANCH  57  71
BRANCH  58  83
ATOM     83  C   UNL A   1      43.499  23.365  26.891  1.00  0.00     0.058 A 
ATOM     84  C   UNL A   1      43.351  22.901  25.575  1.00  0.00     0.135 A 
ATOM     85  C   UNL A   1      43.245  22.461  27.935  1.00  0.00     0.135 A 
ATOM     86  F   UNL A   1      43.576  23.731  24.544  1.00  0.00    -0.206 F 
ATOM     87  C   UNL A   1      42.947  21.599  25.302  1.00  0.00     0.059 A 
ATOM     88  C   UNL A   1      42.863  21.147  27.687  1.00  0.00     0.059 A 
ATOM     89  F   UNL A   1      43.390  22.852  29.212  1.00  0.00    -0.206 F 
ATOM     90  C   UNL A   1      42.707  20.729  26.366  1.00  0.00     0.060 A 
BRANCH  90  91
ATOM     91  S   UNL A   1      42.227  19.025  26.003  1.00  0.00     0.124 S 
ATOM     92  O   UNL A   1      40.788  19.161  25.814  1.00  0.00    -0.237 OA
ATOM     93  O   UNL A   1      43.006  18.734  24.804  1.00  0.00    -0.237 OA
ATOM     94  O   UNL A   1      42.642  18.301  27.201  1.00  0.00    -0.744 OA
ENDBRANCH  90  91
ENDBRANCH  58  83
BRANCH  70  95
ATOM     95  C   UNL A   1      49.621  26.691  26.532  1.00  0.00     0.058 A 
ATOM     96  C   UNL A   1      50.449  26.097  27.496  1.00  0.00     0.135 A 
ATOM     97  C   UNL A   1      50.106  26.788  25.218  1.00  0.00     0.135 A 
ATOM     98  F   UNL A   1      50.034  25.989  28.769  1.00  0.00    -0.206 F 
ATOM     99  C   UNL A   1      51.715  25.622  27.170  1.00  0.00     0.059 A 
ATOM    100  C   UNL A   1      51.359  26.298  24.865  1.00  0.00     0.059 A 
ATOM    101  F   UNL A   1      49.349  27.340  24.257  1.00  0.00    -0.206 F 
ATOM    102  C   UNL A   1      52.160  25.723  25.850  1.00  0.00     0.060 A 
BRANCH 102 103
ATOM    103  S   UNL A   1      53.783  25.052  25.428  1.00  0.00     0.124 S 
ATOM    104  O   UNL A   1      54.570  25.432  26.597  1.00  0.00    -0.237 OA
ATOM    105  O   UNL A   1      53.505  23.625  25.287  1.00  0.00    -0.237 OA
ATOM    106  O   UNL A   1      54.123  25.743  24.190  1.00  0.00    -0.744 OA
ENDBRANCH 102 103
ENDBRANCH  70  95
ENDBRANCH  44  45
ENDBRANCH  36  39
ENDBRANCH  34  35
ENDBRANCH  33  34
ENDBRANCH  32  33
ENDBRANCH   1  32
TORSDOF 22
ENDMDL
MODEL 2
REMARK VINA RESULT:     -11.2      0.708      7.930
REMARK SMILES COc1ccc([C@@H](CC(=O)NCCCCCCNC(=O)c2ccc(-c3c4nc(c(-c5c(F)cc(S(=O)(=O)[O-])cc5F)c5ccc([nH]5)c(-c5c(F)cc(S(=O)(=O)[O-])cc5F)c5nc(c(-c6c(F)cc(S(=O)(=O)[O-])cc6F)c6ccc3[nH]6)C=C5)C=C4)cc2)NC(=O)c2ccc(Cl)c([N+](=O)[O-])c2)cc1
REMARK SMILES IDX 14 1 13 2 12 3 11 4 9 5 10 6 8 8 7 9 6 10 3 11 4 12 101 13
REMARK SMILES IDX 5 14 100 15 2 16 1 17 87 18 88 19 89 21 90 22 91 23 99 24
REMARK SMILES IDX 92 25 95 26 93 27 94 28 96 29 97 30 98 31 15 32 16 33 17 34
REMARK SMILES IDX 18 35 19 36 20 38 21 39 22 40 86 41 23 42 85 43 24 44 25 45
REMARK SMILES IDX 26 46 79 47 27 48 84 49 78 50 80 51 28 52 83 53 77 54 76 55
REMARK SMILES IDX 29 57 63 58 42 59 62 60 43 61 46 62 61 63 81 64 44 65 45 66
REMARK SMILES IDX 60 68 82 69 47 70 30 71 31 72 40 73 32 74 33 75 39 76 41 77
REMARK SMILES IDX 34 78 35 79 36 80 37 81 38 82 64 83 65 84 74 85 66 86 67 87
REMARK SMILES IDX 73 88 75 89 68 90 69 91 70 92 71 93 72 94 48 95 49 96 58 97
REMARK SMILES IDX 50 98 51 99 57 100 59 101 52 102 53 103 54 104 55 105 56 106
REMARK H PARENT 11 7 87 20 18 37 80 56 46 67
REMARK Flexibility Score: inf
ROOT
ATOM      1  C   UNL A   1      31.773  29.817  26.508  1.00  0.00     0.002 C 
ENDROOT
BRANCH   1   2
ATOM      2  C   UNL A   1      31.490  28.333  26.286  1.00  0.00     0.021 C 
BRANCH   2   3
ATOM      3  C   UNL A   1      31.160  27.943  24.846  1.00  0.00     0.116 C 
BRANCH   3   4
ATOM      4  N   UNL A   1      32.290  28.252  23.987  1.00  0.00    -0.356 N 
ATOM      5  C   UNL A   1      33.399  27.509  23.726  1.00  0.00     0.222 C 
ATOM      6  O   UNL A   1      34.380  28.080  23.242  1.00  0.00    -0.275 OA
ATOM      7  H   UNL A   1      32.247  29.123  23.529  1.00  0.00     0.163 HD
BRANCH   5   8
ATOM      8  C   UNL A   1      33.417  26.015  23.968  1.00  0.00     0.129 C 
BRANCH   8   9
ATOM      9  C   UNL A   1      34.160  25.569  25.238  1.00  0.00     0.122 C 
BRANCH   9  10
ATOM     10  C   UNL A   1      35.217  24.502  24.987  1.00  0.00    -0.025 A 
ATOM     11  C   UNL A   1      36.984  22.360  24.500  1.00  0.00     0.118 A 
ATOM     12  C   UNL A   1      37.051  23.071  25.697  1.00  0.00     0.047 A 
ATOM     13  C   UNL A   1      36.071  22.738  23.521  1.00  0.00     0.047 A 
ATOM     14  C   UNL A   1      36.182  24.142  25.938  1.00  0.00     0.010 A 
ATOM     15  C   UNL A   1      35.204  23.810  23.759  1.00  0.00     0.010 A 
BRANCH  11  16
ATOM     16  O   UNL A   1      37.710  21.204  24.432  1.00  0.00    -0.497 OA
ATOM     17  C   UNL A   1      37.070  20.063  24.997  1.00  0.00     0.278 C 
ENDBRANCH  11  16
ENDBRANCH   9  10
BRANCH   9  18
ATOM     18  N   UNL A   1      33.246  25.235  26.334  1.00  0.00    -0.345 N 
ATOM     19  C   UNL A   1      32.190  24.362  26.356  1.00  0.00     0.252 C 
ATOM     20  H   UNL A   1      33.417  25.709  27.180  1.00  0.00     0.164 HD
ATOM     21  O   UNL A   1      31.366  24.374  27.262  1.00  0.00    -0.269 OA
BRANCH  19  22
ATOM     22  C   UNL A   1      32.052  23.370  25.273  1.00  0.00     0.046 A 
ATOM     23  C   UNL A   1      31.519  23.762  24.043  1.00  0.00     0.016 A 
ATOM     24  C   UNL A   1      32.443  22.048  25.486  1.00  0.00     0.101 A 
ATOM     25  C   UNL A   1      31.447  22.839  22.993  1.00  0.00     0.028 A 
ATOM     26  C   UNL A   1      32.388  21.143  24.420  1.00  0.00     0.288 A 
ATOM     27  C   UNL A   1      31.905  21.525  23.167  1.00  0.00     0.118 A 
ATOM     28  Cl  UNL A   1      31.885  20.492  21.786  1.00  0.00    -0.077 Cl
BRANCH  26  29
ATOM     29  N   UNL A   1      32.916  19.814  24.657  1.00  0.00     0.064 N 
ATOM     30  O   UNL A   1      34.127  19.631  24.484  1.00  0.00    -0.258 OA
ATOM     31  O   UNL A   1      32.091  18.937  24.954  1.00  0.00    -0.258 OA
ENDBRANCH  26  29
ENDBRANCH  19  22
ENDBRANCH   9  18
ENDBRANCH   8   9
ENDBRANCH   5   8
ENDBRANCH   3   4
ENDBRANCH   2   3
ENDBRANCH   1   2
BRANCH   1  32
ATOM     32  C   UNL A   1      33.240  30.157  26.792  1.00  0.00     0.002 C 
BRANCH  32  33
ATOM     33  C   UNL A   1      34.104  29.008  27.327  1.00  0.00     0.021 C 
BRANCH  33  34
ATOM     34  C   UNL A   1      35.514  29.394  27.776  1.00  0.00     0.116 C 
BRANCH  34  35
ATOM     35  N   UNL A   1      35.540  29.871  29.149  1.00  0.00    -0.352 N 
ATOM     36  C   UNL A   1      36.584  29.940  30.038  1.00  0.00     0.251 C 
ATOM     37  H   UNL A   1      34.676  30.195  29.494  1.00  0.00     0.163 HD
ATOM     38  O   UNL A   1      36.361  30.192  31.219  1.00  0.00    -0.269 OA
BRANCH  36  39
ATOM     39  C   UNL A   1      37.974  29.693  29.588  1.00  0.00     0.039 A 
ATOM     40  C   UNL A   1      38.913  29.243  30.522  1.00  0.00     0.014 A 
ATOM     41  C   UNL A   1      38.366  29.945  28.272  1.00  0.00     0.014 A 
ATOM     42  C   UNL A   1      40.229  28.988  30.122  1.00  0.00     0.010 A 
ATOM     43  C   UNL A   1      39.666  29.640  27.862  1.00  0.00     0.010 A 
ATOM     44  C   UNL A   1      40.611  29.156  28.781  1.00  0.00    -0.014 A 
BRANCH  44  45
ATOM     45  C   UNL A   1      41.989  28.835  28.321  1.00  0.00     0.031 A 
ATOM     46  C   UNL A   1      42.342  27.431  27.909  1.00  0.00     0.074 A 
ATOM     47  C   UNL A   1      42.941  29.789  28.336  1.00  0.00     0.049 A 
ATOM     48  N   UNL A   1      43.508  26.936  27.578  1.00  0.00    -0.248 NA
ATOM     49  C   UNL A   1      41.247  26.449  27.891  1.00  0.00     0.031 C 
ATOM     50  C   UNL A   1      42.740  31.180  28.747  1.00  0.00     0.029 A 
ATOM     51  N   UNL A   1      44.274  29.730  28.011  1.00  0.00    -0.354 N 
ATOM     52  C   UNL A   1      43.292  25.585  27.333  1.00  0.00     0.074 A 
ATOM     53  C   UNL A   1      41.890  25.330  27.592  1.00  0.00     0.031 C 
ATOM     54  C   UNL A   1      43.903  31.844  28.638  1.00  0.00     0.029 A 
ATOM     55  C   UNL A   1      44.940  30.921  28.186  1.00  0.00     0.049 A 
ATOM     56  H   UNL A   1      44.713  28.912  27.684  1.00  0.00     0.167 HD
ATOM     57  C   UNL A   1      44.174  24.647  26.913  1.00  0.00     0.037 A 
ATOM     58  C   UNL A   1      46.239  31.235  28.012  1.00  0.00     0.037 A 
ATOM     59  C   UNL A   1      45.559  24.909  26.618  1.00  0.00     0.049 A 
ATOM     60  C   UNL A   1      47.199  30.178  27.534  1.00  0.00     0.074 A 
ATOM     61  C   UNL A   1      46.516  24.032  26.136  1.00  0.00     0.029 A 
ATOM     62  N   UNL A   1      46.184  26.137  26.773  1.00  0.00    -0.354 N 
ATOM     63  N   UNL A   1      46.965  28.916  27.264  1.00  0.00    -0.248 NA
ATOM     64  C   UNL A   1      48.596  30.587  27.332  1.00  0.00     0.031 C 
ATOM     65  C   UNL A   1      47.728  24.724  26.029  1.00  0.00     0.029 A 
ATOM     66  C   UNL A   1      47.516  26.039  26.406  1.00  0.00     0.049 A 
ATOM     67  H   UNL A   1      45.746  26.957  27.095  1.00  0.00     0.167 HD
ATOM     68  C   UNL A   1      48.177  28.390  26.830  1.00  0.00     0.074 A 
ATOM     69  C   UNL A   1      49.141  29.469  26.872  1.00  0.00     0.031 C 
ATOM     70  C   UNL A   1      48.462  27.126  26.432  1.00  0.00     0.037 A 
BRANCH  57  71
ATOM     71  C   UNL A   1      43.668  23.242  26.738  1.00  0.00     0.058 A 
ATOM     72  C   UNL A   1      43.478  22.681  25.465  1.00  0.00     0.135 A 
ATOM     73  C   UNL A   1      43.408  22.432  27.855  1.00  0.00     0.135 A 
ATOM     74  F   UNL A   1      43.699  23.416  24.363  1.00  0.00    -0.206 F 
ATOM     75  C   UNL A   1      43.021  21.377  25.305  1.00  0.00     0.059 A 
ATOM     76  C   UNL A   1      42.975  21.117  27.720  1.00  0.00     0.059 A 
ATOM     77  F   UNL A   1      43.574  22.919  29.096  1.00  0.00    -0.206 F 
ATOM     78  C   UNL A   1      42.771  20.603  26.440  1.00  0.00     0.060 A 
BRANCH  78  79
ATOM     79  S   UNL A   1      42.179  18.913  26.218  1.00  0.00     0.124 S 
ATOM     80  O   UNL A   1      42.361  18.363  27.558  1.00  0.00    -0.237 OA
ATOM     81  O   UNL A   1      40.796  19.117  25.799  1.00  0.00    -0.237 OA
ATOM     82  O   UNL A   1      43.067  18.374  25.193  1.00  0.00    -0.744 OA
ENDBRANCH  78  79
ENDBRANCH  57  71
BRANCH  58  83
ATOM     83  C   UNL A   1      46.711  32.619  28.278  1.00  0.00     0.058 A 
ATOM     84  C   UNL A   1      46.652  33.605  27.281  1.00  0.00     0.135 A 
ATOM     85  C   UNL A   1      47.223  32.987  29.532  1.00  0.00     0.135 A 
ATOM     86  F   UNL A   1      46.177  33.298  26.064  1.00  0.00    -0.206 F 
ATOM     87  C   UNL A   1      47.100  34.901  27.510  1.00  0.00     0.059 A 
ATOM     88  C   UNL A   1      47.655  34.283  29.792  1.00  0.00     0.059 A 
ATOM     89  F   UNL A   1      47.284  32.084  30.524  1.00  0.00    -0.206 F 
ATOM     90  C   UNL A   1      47.600  35.230  28.771  1.00  0.00     0.060 A 
BRANCH  90  91
ATOM     91  S   UNL A   1      48.138  36.928  29.076  1.00  0.00     0.124 S 
ATOM     92  O   UNL A   1      47.862  37.072  30.500  1.00  0.00    -0.237 OA
ATOM     93  O   UNL A   1      49.547  36.876  28.699  1.00  0.00    -0.237 OA
ATOM     94  O   UNL A   1      47.288  37.711  28.183  1.00  0.00    -0.744 OA
ENDBRANCH  90  91
ENDBRANCH  58  83
BRANCH  70  95
ATOM     95  C   UNL A   1      49.861  26.841  25.963  1.00  0.00     0.058 A 
ATOM     96  C   UNL A   1      50.247  27.046  24.629  1.00  0.00     0.135 A 
ATOM     97  C   UNL A   1      50.844  26.425  26.875  1.00  0.00     0.135 A 
ATOM     98  F   UNL A   1      49.343  27.436  23.716  1.00  0.00    -0.206 F 
ATOM     99  C   UNL A   1      51.559  26.840  24.215  1.00  0.00     0.059 A 
ATOM    100  C   UNL A   1      52.166  26.235  26.487  1.00  0.00     0.059 A 
ATOM    101  F   UNL A   1      50.527  26.222  28.164  1.00  0.00    -0.206 F 
ATOM    102  C   UNL A   1      52.513  26.438  25.153  1.00  0.00     0.060 A 
BRANCH 102 103
ATOM    103  S   UNL A   1      54.225  26.228  24.614  1.00  0.00     0.124 S 
ATOM    104  O   UNL A   1      54.909  27.243  25.408  1.00  0.00    -0.237 OA
ATOM    105  O   UNL A   1      54.501  24.843  24.982  1.00  0.00    -0.237 OA
ATOM    106  O   UNL A   1      54.162  26.488  23.180  1.00  0.00    -0.744 OA
ENDBRANCH 102 103
ENDBRANCH  70  95
ENDBRANCH  44  45
ENDBRANCH  36  39
ENDBRANCH  34  35
ENDBRANCH  33  34
ENDBRANCH  32  33
ENDBRANCH   1  32
TORSDOF 22
ENDMDL
MODEL 3
REMARK VINA RESULT:     -10.0      8.794     12.540
REMARK SMILES COc1ccc([C@@H](CC(=O)NCCCCCCNC(=O)c2ccc(-c3c4nc(c(-c5c(F)cc(S(=O)(=O)[O-])cc5F)c5ccc([nH]5)c(-c5c(F)cc(S(=O)(=O)[O-])cc5F)c5nc(c(-c6c(F)cc(S(=O)(=O)[O-])cc6F)c6ccc3[nH]6)C=C5)C=C4)cc2)NC(=O)c2ccc(Cl)c([N+](=O)[O-])c2)cc1
REMARK SMILES IDX 14 1 13 2 12 3 11 4 9 5 10 6 8 8 7 9 6 10 3 11 4 12 101 13
REMARK SMILES IDX 5 14 100 15 2 16 1 17 87 18 88 19 89 21 90 22 91 23 99 24
REMARK SMILES IDX 92 25 95 26 93 27 94 28 96 29 97 30 98 31 15 32 16 33 17 34
REMARK SMILES IDX 18 35 19 36 20 38 21 39 22 40 86 41 23 42 85 43 24 44 25 45
REMARK SMILES IDX 26 46 79 47 27 48 84 49 78 50 80 51 28 52 83 53 77 54 76 55
REMARK SMILES IDX 29 57 63 58 42 59 62 60 43 61 46 62 61 63 81 64 44 65 45 66
REMARK SMILES IDX 60 68 82 69 47 70 30 71 31 72 40 73 32 74 33 75 39 76 41 77
REMARK SMILES IDX 34 78 35 79 36 80 37 81 38 82 64 83 65 84 74 85 66 86 67 87
REMARK SMILES IDX 73 88 75 89 68 90 69 91 70 92 71 93 72 94 48 95 49 96 58 97
REMARK SMILES IDX 50 98 51 99 57 100 59 101 52 102 53 103 54 104 55 105 56 106
REMARK H PARENT 11 7 87 20 18 37 80 56 46 67
REMARK Flexibility Score: inf
ROOT
ATOM      1  C   UNL A   1      36.112  29.685  27.834  1.00  0.00     0.002 C 
ENDROOT
BRANCH   1   2
ATOM      2  C   UNL A   1      35.030  29.183  26.881  1.00  0.00     0.021 C 
BRANCH   2   3
ATOM      3  C   UNL A   1      33.738  29.997  26.878  1.00  0.00     0.116 C 
BRANCH   3   4
ATOM      4  N   UNL A   1      32.717  29.294  27.634  1.00  0.00    -0.356 N 
ATOM      5  C   UNL A   1      32.127  28.096  27.374  1.00  0.00     0.222 C 
ATOM      6  O   UNL A   1      31.065  27.835  27.945  1.00  0.00    -0.275 OA
ATOM      7  H   UNL A   1      32.408  29.748  28.452  1.00  0.00     0.163 HD
BRANCH   5   8
ATOM      8  C   UNL A   1      32.776  27.086  26.452  1.00  0.00     0.129 C 
BRANCH   8   9
ATOM      9  C   UNL A   1      31.799  26.179  25.685  1.00  0.00     0.122 C 
BRANCH   9  10
ATOM     10  C   UNL A   1      31.037  26.896  24.579  1.00  0.00    -0.025 A 
ATOM     11  C   UNL A   1      29.672  28.441  22.656  1.00  0.00     0.118 A 
ATOM     12  C   UNL A   1      28.999  27.455  23.374  1.00  0.00     0.047 A 
ATOM     13  C   UNL A   1      31.035  28.634  22.857  1.00  0.00     0.047 A 
ATOM     14  C   UNL A   1      29.676  26.678  24.323  1.00  0.00     0.010 A 
ATOM     15  C   UNL A   1      31.713  27.857  23.801  1.00  0.00     0.010 A 
BRANCH  11  16
ATOM     16  O   UNL A   1      28.902  29.293  21.915  1.00  0.00    -0.497 OA
ATOM     17  C   UNL A   1      27.751  29.797  22.589  1.00  0.00     0.278 C 
ENDBRANCH  11  16
ENDBRANCH   9  10
BRANCH   9  18
ATOM     18  N   UNL A   1      30.935  25.404  26.579  1.00  0.00    -0.345 N 
ATOM     19  C   UNL A   1      30.858  24.049  26.761  1.00  0.00     0.252 C 
ATOM     20  H   UNL A   1      30.318  25.938  27.132  1.00  0.00     0.164 HD
ATOM     21  O   UNL A   1      29.919  23.532  27.355  1.00  0.00    -0.269 OA
BRANCH  19  22
ATOM     22  C   UNL A   1      31.941  23.189  26.248  1.00  0.00     0.046 A 
ATOM     23  C   UNL A   1      33.261  23.441  26.630  1.00  0.00     0.016 A 
ATOM     24  C   UNL A   1      31.644  22.140  25.377  1.00  0.00     0.101 A 
ATOM     25  C   UNL A   1      34.282  22.588  26.196  1.00  0.00     0.028 A 
ATOM     26  C   UNL A   1      32.672  21.281  24.972  1.00  0.00     0.288 A 
ATOM     27  C   UNL A   1      33.992  21.484  25.381  1.00  0.00     0.118 A 
ATOM     28  Cl  UNL A   1      35.295  20.423  24.993  1.00  0.00    -0.077 Cl
BRANCH  26  29
ATOM     29  N   UNL A   1      32.295  20.138  24.165  1.00  0.00     0.064 N 
ATOM     30  O   UNL A   1      32.100  19.061  24.741  1.00  0.00    -0.258 OA
ATOM     31  O   UNL A   1      32.263  20.315  22.938  1.00  0.00    -0.258 OA
ENDBRANCH  26  29
ENDBRANCH  19  22
ENDBRANCH   9  18
ENDBRANCH   8   9
ENDBRANCH   5   8
ENDBRANCH   3   4
ENDBRANCH   2   3
ENDBRANCH   1   2
BRANCH   1  32
ATOM     32  C   UNL A   1      35.926  31.128  28.317  1.00  0.00     0.002 C 
BRANCH  32  33
ATOM     33  C   UNL A   1      36.664  31.504  29.608  1.00  0.00     0.021 C 
BRANCH  33  34
ATOM     34  C   UNL A   1      36.726  33.000  29.922  1.00  0.00     0.116 C 
BRANCH  34  35
ATOM     35  N   UNL A   1      35.472  33.497  30.462  1.00  0.00    -0.352 N 
ATOM     36  C   UNL A   1      35.070  33.639  31.768  1.00  0.00     0.251 C 
ATOM     37  H   UNL A   1      34.809  33.776  29.789  1.00  0.00     0.163 HD
ATOM     38  O   UNL A   1      33.895  33.895  32.017  1.00  0.00    -0.269 OA
BRANCH  36  39
ATOM     39  C   UNL A   1      36.036  33.466  32.877  1.00  0.00     0.039 A 
ATOM     40  C   UNL A   1      36.351  32.171  33.300  1.00  0.00     0.014 A 
ATOM     41  C   UNL A   1      36.596  34.567  33.530  1.00  0.00     0.014 A 
ATOM     42  C   UNL A   1      37.272  31.978  34.335  1.00  0.00     0.010 A 
ATOM     43  C   UNL A   1      37.553  34.372  34.527  1.00  0.00     0.010 A 
ATOM     44  C   UNL A   1      37.904  33.077  34.939  1.00  0.00    -0.014 A 
BRANCH  44  45
ATOM     45  C   UNL A   1      38.930  32.894  36.001  1.00  0.00     0.031 A 
ATOM     46  C   UNL A   1      40.373  32.675  35.632  1.00  0.00     0.074 A 
ATOM     47  C   UNL A   1      38.557  32.857  37.296  1.00  0.00     0.049 A 
ATOM     48  N   UNL A   1      41.391  32.396  36.406  1.00  0.00    -0.248 NA
ATOM     49  C   UNL A   1      40.711  32.755  34.202  1.00  0.00     0.031 C 
ATOM     50  C   UNL A   1      37.187  33.020  37.788  1.00  0.00     0.029 A 
ATOM     51  N   UNL A   1      39.295  32.657  38.436  1.00  0.00    -0.354 N 
ATOM     52  C   UNL A   1      42.483  32.248  35.560  1.00  0.00     0.074 A 
ATOM     53  C   UNL A   1      41.996  32.428  34.209  1.00  0.00     0.031 C 
ATOM     54  C   UNL A   1      37.185  32.924  39.128  1.00  0.00     0.029 A 
ATOM     55  C   UNL A   1      38.544  32.658  39.589  1.00  0.00     0.049 A 
ATOM     56  H   UNL A   1      40.271  32.525  38.430  1.00  0.00     0.167 HD
ATOM     57  C   UNL A   1      43.777  32.003  35.879  1.00  0.00     0.037 A 
ATOM     58  C   UNL A   1      38.906  32.458  40.873  1.00  0.00     0.037 A 
ATOM     59  C   UNL A   1      44.268  31.861  37.224  1.00  0.00     0.049 A 
ATOM     60  C   UNL A   1      40.351  32.198  41.204  1.00  0.00     0.074 A 
ATOM     61  C   UNL A   1      45.572  31.664  37.648  1.00  0.00     0.029 A 
ATOM     62  N   UNL A   1      43.481  31.907  38.365  1.00  0.00    -0.354 N 
ATOM     63  N   UNL A   1      41.377  32.106  40.392  1.00  0.00    -0.248 NA
ATOM     64  C   UNL A   1      40.689  32.019  42.622  1.00  0.00     0.031 C 
ATOM     65  C   UNL A   1      45.568  31.559  39.043  1.00  0.00     0.029 A 
ATOM     66  C   UNL A   1      44.269  31.730  39.491  1.00  0.00     0.049 A 
ATOM     67  H   UNL A   1      42.507  32.043  38.374  1.00  0.00     0.167 HD
ATOM     68  C   UNL A   1      42.486  31.891  41.204  1.00  0.00     0.074 A 
ATOM     69  C   UNL A   1      42.006  31.868  42.570  1.00  0.00     0.031 C 
ATOM     70  C   UNL A   1      43.782  31.730  40.848  1.00  0.00     0.037 A 
BRANCH  57  71
ATOM     71  C   UNL A   1      44.761  31.876  34.750  1.00  0.00     0.058 A 
ATOM     72  C   UNL A   1      45.032  30.638  34.145  1.00  0.00     0.135 A 
ATOM     73  C   UNL A   1      45.412  33.010  34.238  1.00  0.00     0.135 A 
ATOM     74  F   UNL A   1      44.448  29.519  34.604  1.00  0.00    -0.206 F 
ATOM     75  C   UNL A   1      45.935  30.524  33.093  1.00  0.00     0.059 A 
ATOM     76  C   UNL A   1      46.299  32.925  33.170  1.00  0.00     0.059 A 
ATOM     77  F   UNL A   1      45.188  34.219  34.779  1.00  0.00    -0.206 F 
ATOM     78  C   UNL A   1      46.565  31.674  32.613  1.00  0.00     0.060 A 
BRANCH  78  79
ATOM     79  S   UNL A   1      47.733  31.512  31.247  1.00  0.00     0.124 S 
ATOM     80  O   UNL A   1      48.870  30.883  31.910  1.00  0.00    -0.237 OA
ATOM     81  O   UNL A   1      47.001  30.669  30.307  1.00  0.00    -0.237 OA
ATOM     82  O   UNL A   1      47.942  32.891  30.814  1.00  0.00    -0.744 OA
ENDBRANCH  78  79
ENDBRANCH  57  71
BRANCH  58  83
ATOM     83  C   UNL A   1      37.882  32.510  41.949  1.00  0.00     0.058 A 
ATOM     84  C   UNL A   1      37.506  33.731  42.528  1.00  0.00     0.135 A 
ATOM     85  C   UNL A   1      37.254  31.344  42.415  1.00  0.00     0.135 A 
ATOM     86  F   UNL A   1      38.083  34.872  42.119  1.00  0.00    -0.206 F 
ATOM     87  C   UNL A   1      36.558  33.795  43.543  1.00  0.00     0.059 A 
ATOM     88  C   UNL A   1      36.287  31.385  43.413  1.00  0.00     0.059 A 
ATOM     89  F   UNL A   1      37.567  30.153  41.880  1.00  0.00    -0.206 F 
ATOM     90  C   UNL A   1      35.953  32.615  43.979  1.00  0.00     0.060 A 
BRANCH  90  91
ATOM     91  S   UNL A   1      34.690  32.711  45.267  1.00  0.00     0.124 S 
ATOM     92  O   UNL A   1      35.023  31.555  46.090  1.00  0.00    -0.237 OA
ATOM     93  O   UNL A   1      34.955  34.017  45.861  1.00  0.00    -0.237 OA
ATOM     94  O   UNL A   1      33.441  32.615  44.516  1.00  0.00    -0.744 OA
ENDBRANCH  90  91
ENDBRANCH  58  83
BRANCH  70  95
ATOM     95  C   UNL A   1      44.793  31.559  41.947  1.00  0.00     0.058 A 
ATOM     96  C   UNL A   1      45.428  32.661  42.542  1.00  0.00     0.135 A 
ATOM     97  C   UNL A   1      45.075  30.283  42.459  1.00  0.00     0.135 A 
ATOM     98  F   UNL A   1      45.199  33.902  42.083  1.00  0.00    -0.206 F 
ATOM     99  C   UNL A   1      46.315  32.500  43.602  1.00  0.00     0.059 A 
ATOM    100  C   UNL A   1      45.940  30.102  43.533  1.00  0.00     0.059 A 
ATOM    101  F   UNL A   1      44.487  29.198  41.931  1.00  0.00    -0.206 F 
ATOM    102  C   UNL A   1      46.561  31.216  44.093  1.00  0.00     0.060 A 
BRANCH 102 103
ATOM    103  S   UNL A   1      47.672  31.027  45.506  1.00  0.00     0.124 S 
ATOM    104  O   UNL A   1      47.217  29.760  46.069  1.00  0.00    -0.237 OA
ATOM    105  O   UNL A   1      48.986  31.003  44.870  1.00  0.00    -0.237 OA
ATOM    106  O   UNL A   1      47.396  32.209  46.314  1.00  0.00    -0.744 OA
ENDBRANCH 102 103
ENDBRANCH  70  95
ENDBRANCH  44  45
ENDBRANCH  36  39
ENDBRANCH  34  35
ENDBRANCH  33  34
ENDBRANCH  32  33
ENDBRANCH   1  32
TORSDOF 22
ENDMDL
