MODEL 1
REMARK VINA RESULT:     -11.3      0.000      0.000
REMARK SMILES CCC1CN(c2cccc(F)c2C(=O)NCCCCCCNC(=O)c2ccc(-c3c4nc(c(-c5c(F)cc(S(=O)(=O)[O-])cc5F)c5ccc([nH]5)c(-c5c(F)cc(S(=O)(=O)[O-])cc5F)c5nc(c(-c6c(F)cc(S(=O)(=O)[O-])cc6F)c6ccc3[nH]6)C=C5)C=C4)cc2)C1
REMARK SMILES IDX 19 1 18 2 17 3 16 4 15 5 13 6 14 7 12 9 6 10 7 11 8 12 10 13
REMARK SMILES IDX 9 14 11 15 5 16 3 17 4 18 91 19 2 20 1 21 20 22 21 23 22 24
REMARK SMILES IDX 23 25 24 27 25 28 26 29 90 30 27 31 89 32 28 33 29 34 30 35
REMARK SMILES IDX 83 36 31 37 88 38 82 39 84 40 32 41 87 42 81 43 80 44 33 46
REMARK SMILES IDX 67 47 46 48 66 49 47 50 50 51 65 52 85 53 48 54 49 55 64 57
REMARK SMILES IDX 86 58 51 59 34 60 35 61 44 62 36 63 37 64 43 65 45 66 38 67
REMARK SMILES IDX 39 68 40 69 41 70 42 71 68 72 69 73 78 74 70 75 71 76 77 77
REMARK SMILES IDX 79 78 72 79 73 80 74 81 75 82 76 83 52 84 53 85 62 86 54 87
REMARK SMILES IDX 55 88 61 89 63 90 56 91 57 92 58 93 59 94 60 95
REMARK H PARENT 15 8 22 26 84 45 50 56
REMARK Flexibility Score: inf
ROOT
ATOM      1  C   UNL A   1      39.219  22.560  26.018  1.00  0.00     0.002 C 
ENDROOT
BRANCH   1   2
ATOM      2  C   UNL A   1      38.261  21.473  25.525  1.00  0.00     0.002 C 
BRANCH   2   3
ATOM      3  C   UNL A   1      36.763  21.713  25.730  1.00  0.00     0.021 C 
BRANCH   3   4
ATOM      4  C   UNL A   1      36.196  23.047  25.246  1.00  0.00     0.116 C 
BRANCH   4   5
ATOM      5  N   UNL A   1      35.713  23.036  23.877  1.00  0.00    -0.352 N 
ATOM      6  C   UNL A   1      34.441  23.182  23.360  1.00  0.00     0.256 C 
ATOM      7  O   UNL A   1      34.353  23.309  22.139  1.00  0.00    -0.269 OA
ATOM      8  H   UNL A   1      36.414  22.901  23.200  1.00  0.00     0.163 HD
BRANCH   6   9
ATOM      9  C   UNL A   1      33.216  23.153  24.213  1.00  0.00     0.098 A 
ATOM     10  C   UNL A   1      32.661  21.925  24.648  1.00  0.00     0.053 A 
ATOM     11  C   UNL A   1      31.538  21.943  25.503  1.00  0.00     0.027 A 
ATOM     12  C   UNL A   1      30.936  23.140  25.885  1.00  0.00     0.005 A 
ATOM     13  C   UNL A   1      32.529  24.332  24.528  1.00  0.00     0.138 A 
ATOM     14  C   UNL A   1      31.419  24.335  25.373  1.00  0.00     0.040 A 
ATOM     15  F   UNL A   1      32.877  25.507  23.986  1.00  0.00    -0.206 F 
BRANCH  10  16
ATOM     16  N   UNL A   1      33.127  20.677  24.182  1.00  0.00    -0.370 N 
ATOM     17  C   UNL A   1      33.138  18.606  24.296  1.00  0.00     0.028 C 
ATOM     18  C   UNL A   1      34.012  19.760  24.827  1.00  0.00     0.122 C 
ATOM     19  C   UNL A   1      32.372  19.669  23.506  1.00  0.00     0.122 C 
BRANCH  17  20
ATOM     20  C   UNL A   1      33.786  17.527  23.439  1.00  0.00     0.004 C 
ATOM     21  C   UNL A   1      33.709  16.175  24.127  1.00  0.00     0.004 C 
ENDBRANCH  17  20
ENDBRANCH  10  16
ENDBRANCH   6   9
ENDBRANCH   4   5
ENDBRANCH   3   4
ENDBRANCH   2   3
ENDBRANCH   1   2
BRANCH   1  22
ATOM     22  C   UNL A   1      40.161  22.183  27.164  1.00  0.00     0.021 C 
BRANCH  22  23
ATOM     23  C   UNL A   1      41.396  23.059  27.346  1.00  0.00     0.116 C 
BRANCH  23  24
ATOM     24  N   UNL A   1      41.675  23.904  26.200  1.00  0.00    -0.352 N 
ATOM     25  C   UNL A   1      41.649  25.273  26.087  1.00  0.00     0.251 C 
ATOM     26  H   UNL A   1      41.922  23.422  25.377  1.00  0.00     0.163 HD
ATOM     27  O   UNL A   1      41.810  25.787  24.983  1.00  0.00    -0.269 OA
BRANCH  25  28
ATOM     28  C   UNL A   1      41.401  26.135  27.270  1.00  0.00     0.039 A 
ATOM     29  C   UNL A   1      42.316  27.155  27.551  1.00  0.00     0.014 A 
ATOM     30  C   UNL A   1      40.313  25.929  28.122  1.00  0.00     0.014 A 
ATOM     31  C   UNL A   1      42.115  27.991  28.653  1.00  0.00     0.010 A 
ATOM     32  C   UNL A   1      40.075  26.806  29.182  1.00  0.00     0.010 A 
ATOM     33  C   UNL A   1      40.979  27.841  29.466  1.00  0.00    -0.014 A 
BRANCH  33  34
ATOM     34  C   UNL A   1      40.741  28.757  30.614  1.00  0.00     0.031 A 
ATOM     35  C   UNL A   1      41.597  28.674  31.850  1.00  0.00     0.074 A 
ATOM     36  C   UNL A   1      39.739  29.656  30.551  1.00  0.00     0.049 A 
ATOM     37  N   UNL A   1      41.545  29.398  32.938  1.00  0.00    -0.248 NA
ATOM     38  C   UNL A   1      42.633  27.628  31.877  1.00  0.00     0.031 C 
ATOM     39  C   UNL A   1      38.810  29.805  29.428  1.00  0.00     0.029 A 
ATOM     40  N   UNL A   1      39.339  30.620  31.442  1.00  0.00    -0.354 N 
ATOM     41  C   UNL A   1      42.534  28.896  33.778  1.00  0.00     0.074 A 
ATOM     42  C   UNL A   1      43.132  27.770  33.096  1.00  0.00     0.031 C 
ATOM     43  C   UNL A   1      37.977  30.827  29.679  1.00  0.00     0.029 A 
ATOM     44  C   UNL A   1      38.290  31.388  30.991  1.00  0.00     0.049 A 
ATOM     45  H   UNL A   1      39.761  30.749  32.322  1.00  0.00     0.167 HD
ATOM     46  C   UNL A   1      42.927  29.350  34.992  1.00  0.00     0.037 A 
ATOM     47  C   UNL A   1      37.657  32.432  31.561  1.00  0.00     0.037 A 
ATOM     48  C   UNL A   1      42.348  30.490  35.655  1.00  0.00     0.049 A 
ATOM     49  C   UNL A   1      38.112  32.922  32.908  1.00  0.00     0.074 A 
ATOM     50  C   UNL A   1      42.715  31.062  36.860  1.00  0.00     0.029 A 
ATOM     51  N   UNL A   1      41.283  31.236  35.168  1.00  0.00    -0.354 N 
ATOM     52  N   UNL A   1      39.085  32.468  33.662  1.00  0.00    -0.248 NA
ATOM     53  C   UNL A   1      37.390  34.067  33.480  1.00  0.00     0.031 C 
ATOM     54  C   UNL A   1      41.846  32.125  37.124  1.00  0.00     0.029 A 
ATOM     55  C   UNL A   1      40.967  32.247  36.060  1.00  0.00     0.049 A 
ATOM     56  H   UNL A   1      40.821  31.070  34.315  1.00  0.00     0.167 HD
ATOM     57  C   UNL A   1      39.103  33.281  34.790  1.00  0.00     0.074 A 
ATOM     58  C   UNL A   1      38.054  34.265  34.611  1.00  0.00     0.031 C 
ATOM     59  C   UNL A   1      39.916  33.218  35.873  1.00  0.00     0.037 A 
BRANCH  46  60
ATOM     60  C   UNL A   1      44.050  28.624  35.683  1.00  0.00     0.058 A 
ATOM     61  C   UNL A   1      45.387  28.966  35.430  1.00  0.00     0.135 A 
ATOM     62  C   UNL A   1      43.804  27.551  36.556  1.00  0.00     0.135 A 
ATOM     63  F   UNL A   1      45.682  29.986  34.608  1.00  0.00    -0.206 F 
ATOM     64  C   UNL A   1      46.441  28.266  36.009  1.00  0.00     0.059 A 
ATOM     65  C   UNL A   1      44.842  26.853  37.167  1.00  0.00     0.059 A 
ATOM     66  F   UNL A   1      42.543  27.193  36.847  1.00  0.00    -0.206 F 
ATOM     67  C   UNL A   1      46.158  27.211  36.877  1.00  0.00     0.060 A 
BRANCH  67  68
ATOM     68  S   UNL A   1      47.535  26.338  37.655  1.00  0.00     0.124 S 
ATOM     69  O   UNL A   1      47.597  26.982  38.962  1.00  0.00    -0.237 OA
ATOM     70  O   UNL A   1      47.066  24.955  37.647  1.00  0.00    -0.237 OA
ATOM     71  O   UNL A   1      48.657  26.614  36.762  1.00  0.00    -0.744 OA
ENDBRANCH  67  68
ENDBRANCH  46  60
BRANCH  47  72
ATOM     72  C   UNL A   1      36.559  33.113  30.826  1.00  0.00     0.058 A 
ATOM     73  C   UNL A   1      36.825  33.990  29.764  1.00  0.00     0.135 A 
ATOM     74  C   UNL A   1      35.221  32.942  31.212  1.00  0.00     0.135 A 
ATOM     75  F   UNL A   1      38.088  34.195  29.360  1.00  0.00    -0.206 F 
ATOM     76  C   UNL A   1      35.808  34.697  29.130  1.00  0.00     0.059 A 
ATOM     77  C   UNL A   1      34.184  33.620  30.579  1.00  0.00     0.059 A 
ATOM     78  F   UNL A   1      34.916  32.103  32.215  1.00  0.00    -0.206 F 
ATOM     79  C   UNL A   1      34.490  34.511  29.552  1.00  0.00     0.060 A 
BRANCH  79  80
ATOM     80  S   UNL A   1      33.189  35.466  28.743  1.00  0.00     0.124 S 
ATOM     81  O   UNL A   1      32.507  34.432  27.970  1.00  0.00    -0.237 OA
ATOM     82  O   UNL A   1      32.449  36.001  29.880  1.00  0.00    -0.237 OA
ATOM     83  O   UNL A   1      33.930  36.450  27.959  1.00  0.00    -0.744 OA
ENDBRANCH  79  80
ENDBRANCH  47  72
BRANCH  59  84
ATOM     84  C   UNL A   1      39.716  34.242  36.956  1.00  0.00     0.058 A 
ATOM     85  C   UNL A   1      40.263  35.529  36.830  1.00  0.00     0.135 A 
ATOM     86  C   UNL A   1      39.047  33.926  38.149  1.00  0.00     0.135 A 
ATOM     87  F   UNL A   1      40.917  35.880  35.712  1.00  0.00    -0.206 F 
ATOM     88  C   UNL A   1      40.169  36.462  37.857  1.00  0.00     0.059 A 
ATOM     89  C   UNL A   1      38.918  34.853  39.180  1.00  0.00     0.059 A 
ATOM     90  F   UNL A   1      38.497  32.713  38.314  1.00  0.00    -0.206 F 
ATOM     91  C   UNL A   1      39.497  36.114  39.030  1.00  0.00     0.060 A 
BRANCH  91  92
ATOM     92  S   UNL A   1      39.370  37.342  40.347  1.00  0.00     0.124 S 
ATOM     93  O   UNL A   1      40.773  37.588  40.662  1.00  0.00    -0.237 OA
ATOM     94  O   UNL A   1      38.667  38.436  39.684  1.00  0.00    -0.237 OA
ATOM     95  O   UNL A   1      38.606  36.651  41.382  1.00  0.00    -0.744 OA
ENDBRANCH  91  92
ENDBRANCH  59  84
ENDBRANCH  33  34
ENDBRANCH  25  28
ENDBRANCH  23  24
ENDBRANCH  22  23
ENDBRANCH   1  22
TORSDOF 18
ENDMDL
MODEL 2
REMARK VINA RESULT:     -11.3      1.654      3.135
REMARK SMILES CCC1CN(c2cccc(F)c2C(=O)NCCCCCCNC(=O)c2ccc(-c3c4nc(c(-c5c(F)cc(S(=O)(=O)[O-])cc5F)c5ccc([nH]5)c(-c5c(F)cc(S(=O)(=O)[O-])cc5F)c5nc(c(-c6c(F)cc(S(=O)(=O)[O-])cc6F)c6ccc3[nH]6)C=C5)C=C4)cc2)C1
REMARK SMILES IDX 19 1 18 2 17 3 16 4 15 5 13 6 14 7 12 9 6 10 7 11 8 12 10 13
REMARK SMILES IDX 9 14 11 15 5 16 3 17 4 18 91 19 2 20 1 21 20 22 21 23 22 24
REMARK SMILES IDX 23 25 24 27 25 28 26 29 90 30 27 31 89 32 28 33 29 34 30 35
REMARK SMILES IDX 83 36 31 37 88 38 82 39 84 40 32 41 87 42 81 43 80 44 33 46
REMARK SMILES IDX 67 47 46 48 66 49 47 50 50 51 65 52 85 53 48 54 49 55 64 57
REMARK SMILES IDX 86 58 51 59 34 60 35 61 44 62 36 63 37 64 43 65 45 66 38 67
REMARK SMILES IDX 39 68 40 69 41 70 42 71 68 72 69 73 78 74 70 75 71 76 77 77
REMARK SMILES IDX 79 78 72 79 73 80 74 81 75 82 76 83 52 84 53 85 62 86 54 87
REMARK SMILES IDX 55 88 61 89 63 90 56 91 57 92 58 93 59 94 60 95
REMARK H PARENT 15 8 22 26 84 45 50 56
REMARK Flexibility Score: inf
ROOT
ATOM      1  C   UNL A   1      37.712  23.713  26.095  1.00  0.00     0.002 C 
ENDROOT
BRANCH   1   2
ATOM      2  C   UNL A   1      36.323  23.072  26.051  1.00  0.00     0.002 C 
BRANCH   2   3
ATOM      3  C   UNL A   1      35.123  24.011  25.905  1.00  0.00     0.021 C 
BRANCH   3   4
ATOM      4  C   UNL A   1      34.139  23.718  24.773  1.00  0.00     0.116 C 
BRANCH   4   5
ATOM      5  N   UNL A   1      34.325  24.534  23.587  1.00  0.00    -0.352 N 
ATOM      6  C   UNL A   1      33.554  25.546  23.048  1.00  0.00     0.256 C 
ATOM      7  O   UNL A   1      34.052  26.186  22.123  1.00  0.00    -0.269 OA
ATOM      8  H   UNL A   1      35.142  24.332  23.078  1.00  0.00     0.163 HD
BRANCH   6   9
ATOM      9  C   UNL A   1      32.168  25.841  23.520  1.00  0.00     0.098 A 
ATOM     10  C   UNL A   1      31.922  26.875  24.456  1.00  0.00     0.053 A 
ATOM     11  C   UNL A   1      30.591  27.161  24.828  1.00  0.00     0.027 A 
ATOM     12  C   UNL A   1      29.522  26.417  24.333  1.00  0.00     0.005 A 
ATOM     13  C   UNL A   1      31.087  25.045  23.121  1.00  0.00     0.138 A 
ATOM     14  C   UNL A   1      29.776  25.339  23.498  1.00  0.00     0.040 A 
ATOM     15  F   UNL A   1      31.271  23.930  22.400  1.00  0.00    -0.206 F 
BRANCH  10  16
ATOM     16  N   UNL A   1      32.963  27.568  25.107  1.00  0.00    -0.370 N 
ATOM     17  C   UNL A   1      33.591  28.997  26.473  1.00  0.00     0.028 C 
ATOM     18  C   UNL A   1      33.359  28.932  24.950  1.00  0.00     0.122 C 
ATOM     19  C   UNL A   1      33.321  27.492  26.489  1.00  0.00     0.122 C 
BRANCH  17  20
ATOM     20  C   UNL A   1      34.966  29.398  26.991  1.00  0.00     0.004 C 
ATOM     21  C   UNL A   1      34.897  30.725  27.727  1.00  0.00     0.004 C 
ENDBRANCH  17  20
ENDBRANCH  10  16
ENDBRANCH   6   9
ENDBRANCH   4   5
ENDBRANCH   3   4
ENDBRANCH   2   3
ENDBRANCH   1   2
BRANCH   1  22
ATOM     22  C   UNL A   1      38.910  22.764  26.176  1.00  0.00     0.021 C 
BRANCH  22  23
ATOM     23  C   UNL A   1      40.166  23.309  26.848  1.00  0.00     0.116 C 
BRANCH  23  24
ATOM     24  N   UNL A   1      41.048  24.011  25.934  1.00  0.00    -0.352 N 
ATOM     25  C   UNL A   1      41.559  25.284  26.005  1.00  0.00     0.251 C 
ATOM     26  H   UNL A   1      41.324  23.495  25.142  1.00  0.00     0.163 HD
ATOM     27  O   UNL A   1      42.204  25.726  25.058  1.00  0.00    -0.269 OA
BRANCH  25  28
ATOM     28  C   UNL A   1      41.321  26.140  27.194  1.00  0.00     0.039 A 
ATOM     29  C   UNL A   1      42.198  27.203  27.434  1.00  0.00     0.014 A 
ATOM     30  C   UNL A   1      40.279  25.888  28.092  1.00  0.00     0.014 A 
ATOM     31  C   UNL A   1      42.004  28.034  28.541  1.00  0.00     0.010 A 
ATOM     32  C   UNL A   1      40.045  26.759  29.158  1.00  0.00     0.010 A 
ATOM     33  C   UNL A   1      40.911  27.836  29.401  1.00  0.00    -0.014 A 
BRANCH  33  34
ATOM     34  C   UNL A   1      40.679  28.745  30.555  1.00  0.00     0.031 A 
ATOM     35  C   UNL A   1      41.536  28.652  31.788  1.00  0.00     0.074 A 
ATOM     36  C   UNL A   1      39.680  29.649  30.498  1.00  0.00     0.049 A 
ATOM     37  N   UNL A   1      41.489  29.370  32.881  1.00  0.00    -0.248 NA
ATOM     38  C   UNL A   1      42.568  27.602  31.807  1.00  0.00     0.031 C 
ATOM     39  C   UNL A   1      38.750  29.808  29.378  1.00  0.00     0.029 A 
ATOM     40  N   UNL A   1      39.284  30.609  31.396  1.00  0.00    -0.354 N 
ATOM     41  C   UNL A   1      42.477  28.859  33.717  1.00  0.00     0.074 A 
ATOM     42  C   UNL A   1      43.070  27.734  33.027  1.00  0.00     0.031 C 
ATOM     43  C   UNL A   1      37.921  30.832  29.636  1.00  0.00     0.029 A 
ATOM     44  C   UNL A   1      38.238  31.384  30.951  1.00  0.00     0.049 A 
ATOM     45  H   UNL A   1      39.708  30.732  32.276  1.00  0.00     0.167 HD
ATOM     46  C   UNL A   1      42.874  29.304  34.932  1.00  0.00     0.037 A 
ATOM     47  C   UNL A   1      37.610  32.427  31.529  1.00  0.00     0.037 A 
ATOM     48  C   UNL A   1      42.300  30.443  35.603  1.00  0.00     0.049 A 
ATOM     49  C   UNL A   1      38.069  32.907  32.878  1.00  0.00     0.074 A 
ATOM     50  C   UNL A   1      42.671  31.005  36.811  1.00  0.00     0.029 A 
ATOM     51  N   UNL A   1      41.238  31.195  35.122  1.00  0.00    -0.354 N 
ATOM     52  N   UNL A   1      39.041  32.445  33.627  1.00  0.00    -0.248 NA
ATOM     53  C   UNL A   1      37.353  34.052  33.458  1.00  0.00     0.031 C 
ATOM     54  C   UNL A   1      41.806  32.071  37.083  1.00  0.00     0.029 A 
ATOM     55  C   UNL A   1      40.926  32.202  36.021  1.00  0.00     0.049 A 
ATOM     56  H   UNL A   1      40.773  31.036  34.269  1.00  0.00     0.167 HD
ATOM     57  C   UNL A   1      39.065  33.251  34.761  1.00  0.00     0.074 A 
ATOM     58  C   UNL A   1      38.019  34.240  34.589  1.00  0.00     0.031 C 
ATOM     59  C   UNL A   1      39.879  33.178  35.842  1.00  0.00     0.037 A 
BRANCH  46  60
ATOM     60  C   UNL A   1      43.995  28.570  35.617  1.00  0.00     0.058 A 
ATOM     61  C   UNL A   1      45.334  28.888  35.341  1.00  0.00     0.135 A 
ATOM     62  C   UNL A   1      43.745  27.512  36.507  1.00  0.00     0.135 A 
ATOM     63  F   UNL A   1      45.632  29.893  34.502  1.00  0.00    -0.206 F 
ATOM     64  C   UNL A   1      46.384  28.179  35.915  1.00  0.00     0.059 A 
ATOM     65  C   UNL A   1      44.780  26.806  37.113  1.00  0.00     0.059 A 
ATOM     66  F   UNL A   1      42.483  27.177  36.820  1.00  0.00    -0.206 F 
ATOM     67  C   UNL A   1      46.097  27.139  36.800  1.00  0.00     0.060 A 
BRANCH  67  68
ATOM     68  S   UNL A   1      47.472  26.256  37.571  1.00  0.00     0.124 S 
ATOM     69  O   UNL A   1      48.624  26.860  36.912  1.00  0.00    -0.237 OA
ATOM     70  O   UNL A   1      47.297  26.588  38.982  1.00  0.00    -0.237 OA
ATOM     71  O   UNL A   1      47.209  24.860  37.230  1.00  0.00    -0.744 OA
ENDBRANCH  67  68
ENDBRANCH  46  60
BRANCH  47  72
ATOM     72  C   UNL A   1      36.513  33.117  30.800  1.00  0.00     0.058 A 
ATOM     73  C   UNL A   1      36.782  34.006  29.748  1.00  0.00     0.135 A 
ATOM     74  C   UNL A   1      35.175  32.940  31.181  1.00  0.00     0.135 A 
ATOM     75  F   UNL A   1      38.046  34.216  29.350  1.00  0.00    -0.206 F 
ATOM     76  C   UNL A   1      35.766  34.720  29.121  1.00  0.00     0.059 A 
ATOM     77  C   UNL A   1      34.139  33.626  30.554  1.00  0.00     0.059 A 
ATOM     78  F   UNL A   1      34.868  32.090  32.173  1.00  0.00    -0.206 F 
ATOM     79  C   UNL A   1      34.447  34.529  29.538  1.00  0.00     0.060 A 
BRANCH  79  80
ATOM     80  S   UNL A   1      33.148  35.494  28.737  1.00  0.00     0.124 S 
ATOM     81  O   UNL A   1      33.932  36.457  27.969  1.00  0.00    -0.237 OA
ATOM     82  O   UNL A   1      32.449  34.478  27.958  1.00  0.00    -0.237 OA
ATOM     83  O   UNL A   1      32.397  36.048  29.860  1.00  0.00    -0.744 OA
ENDBRANCH  79  80
ENDBRANCH  47  72
BRANCH  59  84
ATOM     84  C   UNL A   1      39.685  34.196  36.931  1.00  0.00     0.058 A 
ATOM     85  C   UNL A   1      40.263  35.471  36.826  1.00  0.00     0.135 A 
ATOM     86  C   UNL A   1      38.989  33.885  38.110  1.00  0.00     0.135 A 
ATOM     87  F   UNL A   1      40.943  35.818  35.723  1.00  0.00    -0.206 F 
ATOM     88  C   UNL A   1      40.173  36.397  37.860  1.00  0.00     0.059 A 
ATOM     89  C   UNL A   1      38.865  34.805  39.147  1.00  0.00     0.059 A 
ATOM     90  F   UNL A   1      38.409  32.683  38.254  1.00  0.00    -0.206 F 
ATOM     91  C   UNL A   1      39.474  36.053  39.019  1.00  0.00     0.060 A 
BRANCH  91  92
ATOM     92  S   UNL A   1      39.354  37.272  40.346  1.00  0.00     0.124 S 
ATOM     93  O   UNL A   1      38.610  36.534  41.362  1.00  0.00    -0.237 OA
ATOM     94  O   UNL A   1      40.757  37.534  40.653  1.00  0.00    -0.237 OA
ATOM     95  O   UNL A   1      38.637  38.381  39.724  1.00  0.00    -0.744 OA
ENDBRANCH  91  92
ENDBRANCH  59  84
ENDBRANCH  33  34
ENDBRANCH  25  28
ENDBRANCH  23  24
ENDBRANCH  22  23
ENDBRANCH   1  22
TORSDOF 18
ENDMDL
MODEL 3
REMARK VINA RESULT:     -11.2      1.297      2.723
REMARK SMILES CCC1CN(c2cccc(F)c2C(=O)NCCCCCCNC(=O)c2ccc(-c3c4nc(c(-c5c(F)cc(S(=O)(=O)[O-])cc5F)c5ccc([nH]5)c(-c5c(F)cc(S(=O)(=O)[O-])cc5F)c5nc(c(-c6c(F)cc(S(=O)(=O)[O-])cc6F)c6ccc3[nH]6)C=C5)C=C4)cc2)C1
REMARK SMILES IDX 19 1 18 2 17 3 16 4 15 5 13 6 14 7 12 9 6 10 7 11 8 12 10 13
REMARK SMILES IDX 9 14 11 15 5 16 3 17 4 18 91 19 2 20 1 21 20 22 21 23 22 24
REMARK SMILES IDX 23 25 24 27 25 28 26 29 90 30 27 31 89 32 28 33 29 34 30 35
REMARK SMILES IDX 83 36 31 37 88 38 82 39 84 40 32 41 87 42 81 43 80 44 33 46
REMARK SMILES IDX 67 47 46 48 66 49 47 50 50 51 65 52 85 53 48 54 49 55 64 57
REMARK SMILES IDX 86 58 51 59 34 60 35 61 44 62 36 63 37 64 43 65 45 66 38 67
REMARK SMILES IDX 39 68 40 69 41 70 42 71 68 72 69 73 78 74 70 75 71 76 77 77
REMARK SMILES IDX 79 78 72 79 73 80 74 81 75 82 76 83 52 84 53 85 62 86 54 87
REMARK SMILES IDX 55 88 61 89 63 90 56 91 57 92 58 93 59 94 60 95
REMARK H PARENT 15 8 22 26 84 45 50 56
REMARK Flexibility Score: inf
ROOT
ATOM      1  C   UNL A   1      40.428  21.565  26.816  1.00  0.00     0.002 C 
ENDROOT
BRANCH   1   2
ATOM      2  C   UNL A   1      39.192  22.273  26.252  1.00  0.00     0.002 C 
BRANCH   2   3
ATOM      3  C   UNL A   1      38.091  21.392  25.658  1.00  0.00     0.021 C 
BRANCH   3   4
ATOM      4  C   UNL A   1      36.737  22.047  25.394  1.00  0.00     0.116 C 
BRANCH   4   5
ATOM      5  N   UNL A   1      35.789  21.936  26.488  1.00  0.00    -0.352 N 
ATOM      6  C   UNL A   1      34.445  21.619  26.498  1.00  0.00     0.256 C 
ATOM      7  O   UNL A   1      33.933  21.425  27.600  1.00  0.00    -0.269 OA
ATOM      8  H   UNL A   1      36.170  22.118  27.376  1.00  0.00     0.163 HD
BRANCH   6   9
ATOM      9  C   UNL A   1      33.623  21.548  25.253  1.00  0.00     0.098 A 
ATOM     10  C   UNL A   1      33.142  22.725  24.630  1.00  0.00     0.053 A 
ATOM     11  C   UNL A   1      32.421  22.616  23.421  1.00  0.00     0.027 A 
ATOM     12  C   UNL A   1      32.131  21.376  22.858  1.00  0.00     0.005 A 
ATOM     13  C   UNL A   1      33.228  20.315  24.721  1.00  0.00     0.138 A 
ATOM     14  C   UNL A   1      32.514  20.222  23.526  1.00  0.00     0.040 A 
ATOM     15  F   UNL A   1      33.474  19.166  25.367  1.00  0.00    -0.206 F 
BRANCH  10  16
ATOM     16  N   UNL A   1      33.271  24.000  25.220  1.00  0.00    -0.370 N 
ATOM     17  C   UNL A   1      32.612  25.954  25.438  1.00  0.00     0.028 C 
ATOM     18  C   UNL A   1      33.691  25.223  24.614  1.00  0.00     0.122 C 
ATOM     19  C   UNL A   1      32.375  24.619  26.146  1.00  0.00     0.122 C 
BRANCH  17  20
ATOM     20  C   UNL A   1      33.034  27.091  26.359  1.00  0.00     0.004 C 
ATOM     21  C   UNL A   1      31.865  28.019  26.639  1.00  0.00     0.004 C 
ENDBRANCH  17  20
ENDBRANCH  10  16
ENDBRANCH   6   9
ENDBRANCH   4   5
ENDBRANCH   3   4
ENDBRANCH   2   3
ENDBRANCH   1   2
BRANCH   1  22
ATOM     22  C   UNL A   1      41.152  22.256  27.973  1.00  0.00     0.021 C 
BRANCH  22  23
ATOM     23  C   UNL A   1      42.270  23.223  27.597  1.00  0.00     0.116 C 
BRANCH  23  24
ATOM     24  N   UNL A   1      42.034  23.913  26.342  1.00  0.00    -0.352 N 
ATOM     25  C   UNL A   1      41.605  25.197  26.109  1.00  0.00     0.251 C 
ATOM     26  H   UNL A   1      42.210  23.379  25.533  1.00  0.00     0.163 HD
ATOM     27  O   UNL A   1      41.361  25.549  24.958  1.00  0.00    -0.269 OA
BRANCH  25  28
ATOM     28  C   UNL A   1      41.405  26.153  27.227  1.00  0.00     0.039 A 
ATOM     29  C   UNL A   1      40.348  25.928  28.114  1.00  0.00     0.014 A 
ATOM     30  C   UNL A   1      42.214  27.282  27.389  1.00  0.00     0.014 A 
ATOM     31  C   UNL A   1      40.131  26.803  29.182  1.00  0.00     0.010 A 
ATOM     32  C   UNL A   1      42.040  28.118  28.495  1.00  0.00     0.010 A 
ATOM     33  C   UNL A   1      40.990  27.893  29.398  1.00  0.00    -0.014 A 
BRANCH  33  34
ATOM     34  C   UNL A   1      40.786  28.801  30.559  1.00  0.00     0.031 A 
ATOM     35  C   UNL A   1      41.679  28.711  31.767  1.00  0.00     0.074 A 
ATOM     36  C   UNL A   1      39.782  29.700  30.532  1.00  0.00     0.049 A 
ATOM     37  N   UNL A   1      41.660  29.428  32.862  1.00  0.00    -0.248 NA
ATOM     38  C   UNL A   1      42.716  27.666  31.755  1.00  0.00     0.031 C 
ATOM     39  C   UNL A   1      38.820  29.856  29.439  1.00  0.00     0.029 A 
ATOM     40  N   UNL A   1      39.408  30.658  31.441  1.00  0.00    -0.354 N 
ATOM     41  C   UNL A   1      42.674  28.920  33.668  1.00  0.00     0.074 A 
ATOM     42  C   UNL A   1      43.252  27.799  32.960  1.00  0.00     0.031 C 
ATOM     43  C   UNL A   1      37.994  30.876  29.722  1.00  0.00     0.029 A 
ATOM     44  C   UNL A   1      38.346  31.428  31.027  1.00  0.00     0.049 A 
ATOM     45  H   UNL A   1      39.857  30.782  32.309  1.00  0.00     0.167 HD
ATOM     46  C   UNL A   1      43.104  29.366  34.872  1.00  0.00     0.037 A 
ATOM     47  C   UNL A   1      37.730  32.468  31.624  1.00  0.00     0.037 A 
ATOM     48  C   UNL A   1      42.544  30.502  35.560  1.00  0.00     0.049 A 
ATOM     49  C   UNL A   1      38.225  32.949  32.959  1.00  0.00     0.074 A 
ATOM     50  C   UNL A   1      42.947  31.066  36.757  1.00  0.00     0.029 A 
ATOM     51  N   UNL A   1      41.465  31.250  35.110  1.00  0.00    -0.354 N 
ATOM     52  N   UNL A   1      39.221  32.491  33.680  1.00  0.00    -0.248 NA
ATOM     53  C   UNL A   1      37.521  34.090  33.561  1.00  0.00     0.031 C 
ATOM     54  C   UNL A   1      42.086  32.127  37.055  1.00  0.00     0.029 A 
ATOM     55  C   UNL A   1      41.175  32.255  36.018  1.00  0.00     0.049 A 
ATOM     56  H   UNL A   1      40.977  31.089  34.271  1.00  0.00     0.167 HD
ATOM     57  C   UNL A   1      39.273  33.296  34.813  1.00  0.00     0.074 A 
ATOM     58  C   UNL A   1      38.219  34.280  34.673  1.00  0.00     0.031 C 
ATOM     59  C   UNL A   1      40.119  33.226  35.871  1.00  0.00     0.037 A 
BRANCH  46  60
ATOM     60  C   UNL A   1      44.247  28.637  35.523  1.00  0.00     0.058 A 
ATOM     61  C   UNL A   1      45.576  28.963  35.210  1.00  0.00     0.135 A 
ATOM     62  C   UNL A   1      44.028  27.576  36.418  1.00  0.00     0.135 A 
ATOM     63  F   UNL A   1      45.846  29.970  34.365  1.00  0.00    -0.206 F 
ATOM     64  C   UNL A   1      46.646  28.258  35.753  1.00  0.00     0.059 A 
ATOM     65  C   UNL A   1      45.084  26.875  36.993  1.00  0.00     0.059 A 
ATOM     66  F   UNL A   1      42.777  27.235  36.767  1.00  0.00    -0.206 F 
ATOM     67  C   UNL A   1      46.390  27.215  36.644  1.00  0.00     0.060 A 
BRANCH  67  68
ATOM     68  S   UNL A   1      47.790  26.338  37.374  1.00  0.00     0.124 S 
ATOM     69  O   UNL A   1      48.916  27.155  36.939  1.00  0.00    -0.237 OA
ATOM     70  O   UNL A   1      47.475  26.391  38.800  1.00  0.00    -0.237 OA
ATOM     71  O   UNL A   1      47.705  25.009  36.774  1.00  0.00    -0.744 OA
ENDBRANCH  67  68
ENDBRANCH  46  60
BRANCH  47  72
ATOM     72  C   UNL A   1      36.610  33.153  30.927  1.00  0.00     0.058 A 
ATOM     73  C   UNL A   1      36.840  33.998  29.831  1.00  0.00     0.135 A 
ATOM     74  C   UNL A   1      35.290  33.018  31.383  1.00  0.00     0.135 A 
ATOM     75  F   UNL A   1      38.084  34.168  29.361  1.00  0.00    -0.206 F 
ATOM     76  C   UNL A   1      35.806  34.710  29.231  1.00  0.00     0.059 A 
ATOM     77  C   UNL A   1      34.235  33.702  30.786  1.00  0.00     0.059 A 
ATOM     78  F   UNL A   1      35.020  32.211  32.421  1.00  0.00    -0.206 F 
ATOM     79  C   UNL A   1      34.507  34.561  29.722  1.00  0.00     0.060 A 
BRANCH  79  80
ATOM     80  S   UNL A   1      33.186  35.523  28.954  1.00  0.00     0.124 S 
ATOM     81  O   UNL A   1      33.948  36.496  28.178  1.00  0.00    -0.237 OA
ATOM     82  O   UNL A   1      32.478  34.507  28.182  1.00  0.00    -0.237 OA
ATOM     83  O   UNL A   1      32.454  36.064  30.096  1.00  0.00    -0.744 OA
ENDBRANCH  79  80
ENDBRANCH  47  72
BRANCH  59  84
ATOM     84  C   UNL A   1      39.951  34.242  36.965  1.00  0.00     0.058 A 
ATOM     85  C   UNL A   1      39.033  34.026  38.005  1.00  0.00     0.135 A 
ATOM     86  C   UNL A   1      40.646  35.463  36.946  1.00  0.00     0.135 A 
ATOM     87  F   UNL A   1      38.339  32.879  38.068  1.00  0.00    -0.206 F 
ATOM     88  C   UNL A   1      38.795  34.992  38.978  1.00  0.00     0.059 A 
ATOM     89  C   UNL A   1      40.443  36.433  37.923  1.00  0.00     0.059 A 
ATOM     90  F   UNL A   1      41.543  35.713  35.978  1.00  0.00    -0.206 F 
ATOM     91  C   UNL A   1      39.503  36.194  38.926  1.00  0.00     0.060 A 
BRANCH  91  92
ATOM     92  S   UNL A   1      39.195  37.431  40.205  1.00  0.00     0.124 S 
ATOM     93  O   UNL A   1      40.526  37.995  40.402  1.00  0.00    -0.237 OA
ATOM     94  O   UNL A   1      38.224  38.309  39.557  1.00  0.00    -0.237 OA
ATOM     95  O   UNL A   1      38.673  36.645  41.319  1.00  0.00    -0.744 OA
ENDBRANCH  91  92
ENDBRANCH  59  84
ENDBRANCH  33  34
ENDBRANCH  25  28
ENDBRANCH  23  24
ENDBRANCH  22  23
ENDBRANCH   1  22
TORSDOF 18
ENDMDL
