MODEL 1
REMARK VINA RESULT:      -9.6      0.000      0.000
REMARK SMILES COCC[C@H](NC(=O)N1CC[C@H](C(=O)OC)C1)C(=O)NCCCCCCNC(=O)c1ccc(-c2c3nc(c(-c4c(F)cc(S(=O)(=O)[O-])cc4F)c4ccc([nH]4)c(-c4c(F)cc(S(=O)(=O)[O-])cc4F)c4nc(c(-c5c(F)cc(S(=O)(=O)[O-])cc5F)c5ccc2[nH]5)C=C4)C=C3)cc1
REMARK SMILES IDX 23 1 22 2 21 3 20 4 18 5 19 6 5 8 4 9 3 10 2 11 1 12 6 13
REMARK SMILES IDX 7 14 8 16 9 17 10 18 17 19 11 20 12 21 13 22 14 23 15 24
REMARK SMILES IDX 16 25 24 26 25 27 26 28 27 29 28 30 29 32 30 33 31 34 95 35
REMARK SMILES IDX 32 36 94 37 33 38 34 39 35 40 88 41 36 42 93 43 87 44 89 45
REMARK SMILES IDX 37 46 92 47 86 48 85 49 38 51 72 52 51 53 71 54 52 55 55 56
REMARK SMILES IDX 70 57 90 58 53 59 54 60 69 62 91 63 56 64 39 65 40 66 49 67
REMARK SMILES IDX 41 68 42 69 48 70 50 71 43 72 44 73 45 74 46 75 47 76 73 77
REMARK SMILES IDX 74 78 83 79 75 80 76 81 82 82 84 83 77 84 78 85 79 86 80 87
REMARK SMILES IDX 81 88 57 89 58 90 67 91 59 92 60 93 66 94 68 95 61 96 62 97
REMARK SMILES IDX 63 98 64 99 65 100
REMARK H PARENT 20 7 6 15 27 31 89 50 55 61
REMARK Flexibility Score: inf
ROOT
ATOM      1  C   UNL A   1      39.713  21.758  26.166  1.00  0.00     0.002 C 
ENDROOT
BRANCH   1   2
ATOM      2  C   UNL A   1      39.125  23.132  26.508  1.00  0.00     0.021 C 
BRANCH   2   3
ATOM      3  C   UNL A   1      37.666  23.293  26.102  1.00  0.00     0.116 C 
BRANCH   3   4
ATOM      4  N   UNL A   1      37.529  23.160  24.662  1.00  0.00    -0.354 N 
ATOM      5  C   UNL A   1      36.436  23.293  23.864  1.00  0.00     0.242 C 
ATOM      6  O   UNL A   1      36.585  23.104  22.654  1.00  0.00    -0.273 OA
ATOM      7  H   UNL A   1      38.363  22.936  24.188  1.00  0.00     0.163 HD
BRANCH   5   8
ATOM      8  C   UNL A   1      35.100  23.799  24.432  1.00  0.00     0.175 C 
BRANCH   8   9
ATOM      9  C   UNL A   1      34.363  22.625  25.099  1.00  0.00     0.063 C 
BRANCH   9  10
ATOM     10  C   UNL A   1      33.711  21.659  24.112  1.00  0.00     0.162 C 
BRANCH  10  11
ATOM     11  O   UNL A   1      32.540  21.051  24.654  1.00  0.00    -0.385 OA
ATOM     12  C   UNL A   1      32.435  19.654  24.403  1.00  0.00     0.194 C 
ENDBRANCH  10  11
ENDBRANCH   9  10
ENDBRANCH   8   9
BRANCH   8  13
ATOM     13  N   UNL A   1      34.324  24.499  23.406  1.00  0.00    -0.326 N 
ATOM     14  C   UNL A   1      33.256  25.318  23.538  1.00  0.00     0.318 C 
ATOM     15  H   UNL A   1      34.625  24.350  22.481  1.00  0.00     0.166 HD
ATOM     16  O   UNL A   1      32.533  25.481  22.555  1.00  0.00    -0.249 OA
BRANCH  14  17
ATOM     17  N   UNL A   1      32.952  25.827  24.759  1.00  0.00    -0.324 N 
ATOM     18  C   UNL A   1      32.003  25.331  25.737  1.00  0.00     0.122 C 
ATOM     19  C   UNL A   1      33.785  26.853  25.358  1.00  0.00     0.136 C 
ATOM     20  C   UNL A   1      31.679  26.558  26.566  1.00  0.00     0.039 C 
ATOM     21  C   UNL A   1      32.996  27.345  26.573  1.00  0.00     0.120 C 
BRANCH  21  22
ATOM     22  C   UNL A   1      32.760  28.836  26.556  1.00  0.00     0.310 C 
ATOM     23  O   UNL A   1      31.656  29.336  26.730  1.00  0.00    -0.252 OA
BRANCH  22  24
ATOM     24  O   UNL A   1      33.895  29.533  26.278  1.00  0.00    -0.469 OA
ATOM     25  C   UNL A   1      34.312  30.418  27.322  1.00  0.00     0.282 C 
ENDBRANCH  22  24
ENDBRANCH  21  22
ENDBRANCH  14  17
ENDBRANCH   8  13
ENDBRANCH   5   8
ENDBRANCH   3   4
ENDBRANCH   2   3
ENDBRANCH   1   2
BRANCH   1  26
ATOM     26  C   UNL A   1      41.239  21.663  26.279  1.00  0.00     0.002 C 
BRANCH  26  27
ATOM     27  C   UNL A   1      41.846  22.450  27.441  1.00  0.00     0.021 C 
BRANCH  27  28
ATOM     28  C   UNL A   1      42.956  23.416  27.040  1.00  0.00     0.116 C 
BRANCH  28  29
ATOM     29  N   UNL A   1      42.549  24.297  25.959  1.00  0.00    -0.352 N 
ATOM     30  C   UNL A   1      41.950  25.532  26.028  1.00  0.00     0.251 C 
ATOM     31  H   UNL A   1      42.727  23.963  25.050  1.00  0.00     0.163 HD
ATOM     32  O   UNL A   1      41.501  26.057  25.019  1.00  0.00    -0.269 OA
BRANCH  30  33
ATOM     33  C   UNL A   1      41.828  26.200  27.340  1.00  0.00     0.039 A 
ATOM     34  C   UNL A   1      42.772  27.168  27.692  1.00  0.00     0.014 A 
ATOM     35  C   UNL A   1      40.769  25.897  28.201  1.00  0.00     0.014 A 
ATOM     36  C   UNL A   1      42.609  27.886  28.877  1.00  0.00     0.010 A 
ATOM     37  C   UNL A   1      40.570  26.664  29.345  1.00  0.00     0.010 A 
ATOM     38  C   UNL A   1      41.481  27.673  29.689  1.00  0.00    -0.014 A 
BRANCH  38  39
ATOM     39  C   UNL A   1      41.218  28.530  30.874  1.00  0.00     0.031 A 
ATOM     40  C   UNL A   1      40.119  29.555  30.845  1.00  0.00     0.074 A 
ATOM     41  C   UNL A   1      42.021  28.425  31.951  1.00  0.00     0.049 A 
ATOM     42  N   UNL A   1      39.786  30.431  31.757  1.00  0.00    -0.248 NA
ATOM     43  C   UNL A   1      39.300  29.620  29.624  1.00  0.00     0.031 C 
ATOM     44  C   UNL A   1      43.153  27.502  32.076  1.00  0.00     0.029 A 
ATOM     45  N   UNL A   1      42.022  29.109  33.142  1.00  0.00    -0.354 N 
ATOM     46  C   UNL A   1      38.728  31.155  31.222  1.00  0.00     0.074 A 
ATOM     47  C   UNL A   1      38.505  30.649  29.884  1.00  0.00     0.031 C 
ATOM     48  C   UNL A   1      43.724  27.664  33.280  1.00  0.00     0.029 A 
ATOM     49  C   UNL A   1      43.033  28.731  33.995  1.00  0.00     0.049 A 
ATOM     50  H   UNL A   1      41.361  29.803  33.364  1.00  0.00     0.167 HD
ATOM     51  C   UNL A   1      37.998  32.137  31.800  1.00  0.00     0.037 A 
ATOM     52  C   UNL A   1      43.377  29.203  35.210  1.00  0.00     0.037 A 
ATOM     53  C   UNL A   1      38.220  32.625  33.138  1.00  0.00     0.049 A 
ATOM     54  C   UNL A   1      42.563  30.311  35.821  1.00  0.00     0.074 A 
ATOM     55  C   UNL A   1      37.493  33.572  33.838  1.00  0.00     0.029 A 
ATOM     56  N   UNL A   1      39.247  32.214  33.974  1.00  0.00    -0.354 N 
ATOM     57  N   UNL A   1      41.514  30.929  35.331  1.00  0.00    -0.248 NA
ATOM     58  C   UNL A   1      42.976  30.786  37.148  1.00  0.00     0.031 C 
ATOM     59  C   UNL A   1      38.114  33.776  35.074  1.00  0.00     0.029 A 
ATOM     60  C   UNL A   1      39.194  32.913  35.169  1.00  0.00     0.049 A 
ATOM     61  H   UNL A   1      39.916  31.526  33.752  1.00  0.00     0.167 HD
ATOM     62  C   UNL A   1      41.131  31.851  36.299  1.00  0.00     0.074 A 
ATOM     63  C   UNL A   1      42.046  31.694  37.410  1.00  0.00     0.031 C 
ATOM     64  C   UNL A   1      40.114  32.748  36.268  1.00  0.00     0.037 A 
BRANCH  51  65
ATOM     65  C   UNL A   1      36.887  32.757  30.996  1.00  0.00     0.058 A 
ATOM     66  C   UNL A   1      35.557  32.329  31.123  1.00  0.00     0.135 A 
ATOM     67  C   UNL A   1      37.147  33.835  30.134  1.00  0.00     0.135 A 
ATOM     68  F   UNL A   1      35.252  31.293  31.922  1.00  0.00    -0.206 F 
ATOM     69  C   UNL A   1      34.526  32.932  30.410  1.00  0.00     0.059 A 
ATOM     70  C   UNL A   1      36.127  34.473  29.432  1.00  0.00     0.059 A 
ATOM     71  F   UNL A   1      38.401  34.285  29.973  1.00  0.00    -0.206 F 
ATOM     72  C   UNL A   1      34.821  34.007  29.570  1.00  0.00     0.060 A 
BRANCH  72  73
ATOM     73  S   UNL A   1      33.467  34.793  28.671  1.00  0.00     0.124 S 
ATOM     74  O   UNL A   1      33.100  33.746  27.722  1.00  0.00    -0.237 OA
ATOM     75  O   UNL A   1      32.499  35.053  29.732  1.00  0.00    -0.237 OA
ATOM     76  O   UNL A   1      34.087  35.978  28.086  1.00  0.00    -0.744 OA
ENDBRANCH  72  73
ENDBRANCH  51  65
BRANCH  52  77
ATOM     77  C   UNL A   1      44.549  28.631  35.927  1.00  0.00     0.058 A 
ATOM     78  C   UNL A   1      44.399  27.568  36.831  1.00  0.00     0.135 A 
ATOM     79  C   UNL A   1      45.843  29.134  35.722  1.00  0.00     0.135 A 
ATOM     80  F   UNL A   1      43.181  27.056  37.066  1.00  0.00    -0.206 F 
ATOM     81  C   UNL A   1      45.484  27.038  37.521  1.00  0.00     0.059 A 
ATOM     82  C   UNL A   1      46.949  28.602  36.378  1.00  0.00     0.059 A 
ATOM     83  F   UNL A   1      46.046  30.139  34.856  1.00  0.00    -0.206 F 
ATOM     84  C   UNL A   1      46.757  27.561  37.285  1.00  0.00     0.060 A 
BRANCH  84  85
ATOM     85  S   UNL A   1      48.165  26.839  38.155  1.00  0.00     0.124 S 
ATOM     86  O   UNL A   1      49.108  27.951  38.161  1.00  0.00    -0.237 OA
ATOM     87  O   UNL A   1      47.581  26.488  39.445  1.00  0.00    -0.237 OA
ATOM     88  O   UNL A   1      48.532  25.703  37.313  1.00  0.00    -0.744 OA
ENDBRANCH  84  85
ENDBRANCH  52  77
BRANCH  64  89
ATOM     89  C   UNL A   1      39.923  33.621  37.479  1.00  0.00     0.058 A 
ATOM     90  C   UNL A   1      39.051  33.260  38.517  1.00  0.00     0.135 A 
ATOM     91  C   UNL A   1      40.663  34.806  37.627  1.00  0.00     0.135 A 
ATOM     92  F   UNL A   1      38.312  32.142  38.422  1.00  0.00    -0.206 F 
ATOM     93  C   UNL A   1      38.903  34.053  39.651  1.00  0.00     0.059 A 
ATOM     94  C   UNL A   1      40.554  35.598  38.766  1.00  0.00     0.059 A 
ATOM     95  F   UNL A   1      41.519  35.194  36.668  1.00  0.00    -0.206 F 
ATOM     96  C   UNL A   1      39.663  35.218  39.768  1.00  0.00     0.060 A 
BRANCH  96  97
ATOM     97  S   UNL A   1      39.490  36.215  41.263  1.00  0.00     0.124 S 
ATOM     98  O   UNL A   1      38.090  35.987  41.609  1.00  0.00    -0.237 OA
ATOM     99  O   UNL A   1      40.471  35.608  42.157  1.00  0.00    -0.237 OA
ATOM    100  O   UNL A   1      39.812  37.565  40.811  1.00  0.00    -0.744 OA
ENDBRANCH  96  97
ENDBRANCH  64  89
ENDBRANCH  38  39
ENDBRANCH  30  33
ENDBRANCH  28  29
ENDBRANCH  27  28
ENDBRANCH  26  27
ENDBRANCH   1  26
TORSDOF 23
ENDMDL
MODEL 2
REMARK VINA RESULT:      -8.9      1.335      8.323
REMARK SMILES COCC[C@H](NC(=O)N1CC[C@H](C(=O)OC)C1)C(=O)NCCCCCCNC(=O)c1ccc(-c2c3nc(c(-c4c(F)cc(S(=O)(=O)[O-])cc4F)c4ccc([nH]4)c(-c4c(F)cc(S(=O)(=O)[O-])cc4F)c4nc(c(-c5c(F)cc(S(=O)(=O)[O-])cc5F)c5ccc2[nH]5)C=C4)C=C3)cc1
REMARK SMILES IDX 23 1 22 2 21 3 20 4 18 5 19 6 5 8 4 9 3 10 2 11 1 12 6 13
REMARK SMILES IDX 7 14 8 16 9 17 10 18 17 19 11 20 12 21 13 22 14 23 15 24
REMARK SMILES IDX 16 25 24 26 25 27 26 28 27 29 28 30 29 32 30 33 31 34 95 35
REMARK SMILES IDX 32 36 94 37 33 38 34 39 35 40 88 41 36 42 93 43 87 44 89 45
REMARK SMILES IDX 37 46 92 47 86 48 85 49 38 51 72 52 51 53 71 54 52 55 55 56
REMARK SMILES IDX 70 57 90 58 53 59 54 60 69 62 91 63 56 64 39 65 40 66 49 67
REMARK SMILES IDX 41 68 42 69 48 70 50 71 43 72 44 73 45 74 46 75 47 76 73 77
REMARK SMILES IDX 74 78 83 79 75 80 76 81 82 82 84 83 77 84 78 85 79 86 80 87
REMARK SMILES IDX 81 88 57 89 58 90 67 91 59 92 60 93 66 94 68 95 61 96 62 97
REMARK SMILES IDX 63 98 64 99 65 100
REMARK H PARENT 20 7 6 15 27 31 89 50 55 61
REMARK Flexibility Score: inf
ROOT
ATOM      1  C   UNL A   1      38.159  21.896  25.235  1.00  0.00     0.002 C 
ENDROOT
BRANCH   1   2
ATOM      2  C   UNL A   1      37.150  20.821  25.654  1.00  0.00     0.021 C 
BRANCH   2   3
ATOM      3  C   UNL A   1      35.833  20.887  24.892  1.00  0.00     0.116 C 
BRANCH   3   4
ATOM      4  N   UNL A   1      35.807  22.058  24.035  1.00  0.00    -0.354 N 
ATOM      5  C   UNL A   1      34.895  23.062  23.939  1.00  0.00     0.242 C 
ATOM      6  O   UNL A   1      35.099  23.943  23.101  1.00  0.00    -0.273 OA
ATOM      7  H   UNL A   1      36.575  22.138  23.423  1.00  0.00     0.163 HD
BRANCH   5   8
ATOM      8  C   UNL A   1      33.729  23.168  24.937  1.00  0.00     0.175 C 
BRANCH   8   9
ATOM      9  C   UNL A   1      32.406  22.933  24.187  1.00  0.00     0.063 C 
BRANCH   9  10
ATOM     10  C   UNL A   1      32.246  21.517  23.637  1.00  0.00     0.162 C 
BRANCH  10  11
ATOM     11  O   UNL A   1      32.132  20.549  24.678  1.00  0.00    -0.385 OA
ATOM     12  C   UNL A   1      32.544  19.238  24.308  1.00  0.00     0.194 C 
ENDBRANCH  10  11
ENDBRANCH   9  10
ENDBRANCH   8   9
BRANCH   8  13
ATOM     13  N   UNL A   1      33.789  24.425  25.684  1.00  0.00    -0.326 N 
ATOM     14  C   UNL A   1      33.305  25.647  25.362  1.00  0.00     0.318 C 
ATOM     15  H   UNL A   1      34.252  24.374  26.551  1.00  0.00     0.166 HD
ATOM     16  O   UNL A   1      33.791  26.624  25.930  1.00  0.00    -0.249 OA
BRANCH  14  17
ATOM     17  N   UNL A   1      32.402  25.762  24.355  1.00  0.00    -0.324 N 
ATOM     18  C   UNL A   1      32.644  25.914  22.934  1.00  0.00     0.122 C 
ATOM     19  C   UNL A   1      30.998  25.477  24.588  1.00  0.00     0.136 C 
ATOM     20  C   UNL A   1      31.370  26.561  22.428  1.00  0.00     0.039 C 
ATOM     21  C   UNL A   1      30.281  25.962  23.326  1.00  0.00     0.120 C 
BRANCH  21  22
ATOM     22  C   UNL A   1      29.184  26.957  23.620  1.00  0.00     0.310 C 
ATOM     23  O   UNL A   1      28.067  26.623  23.994  1.00  0.00    -0.252 OA
BRANCH  22  24
ATOM     24  O   UNL A   1      29.572  28.238  23.373  1.00  0.00    -0.469 OA
ATOM     25  C   UNL A   1      28.510  29.105  22.964  1.00  0.00     0.282 C 
ENDBRANCH  22  24
ENDBRANCH  21  22
ENDBRANCH  14  17
ENDBRANCH   8  13
ENDBRANCH   5   8
ENDBRANCH   3   4
ENDBRANCH   2   3
ENDBRANCH   1   2
BRANCH   1  26
ATOM     26  C   UNL A   1      38.920  22.552  26.392  1.00  0.00     0.002 C 
BRANCH  26  27
ATOM     27  C   UNL A   1      40.314  21.978  26.651  1.00  0.00     0.021 C 
BRANCH  27  28
ATOM     28  C   UNL A   1      41.361  23.012  27.050  1.00  0.00     0.116 C 
BRANCH  28  29
ATOM     29  N   UNL A   1      41.708  23.892  25.946  1.00  0.00    -0.352 N 
ATOM     30  C   UNL A   1      41.794  25.263  25.926  1.00  0.00     0.251 C 
ATOM     31  H   UNL A   1      41.908  23.443  25.093  1.00  0.00     0.163 HD
ATOM     32  O   UNL A   1      41.914  25.859  24.865  1.00  0.00    -0.269 OA
BRANCH  30  33
ATOM     33  C   UNL A   1      41.709  26.007  27.200  1.00  0.00     0.039 A 
ATOM     34  C   UNL A   1      42.775  26.830  27.571  1.00  0.00     0.014 A 
ATOM     35  C   UNL A   1      40.568  25.920  28.003  1.00  0.00     0.014 A 
ATOM     36  C   UNL A   1      42.664  27.624  28.713  1.00  0.00     0.010 A 
ATOM     37  C   UNL A   1      40.431  26.766  29.101  1.00  0.00     0.010 A 
ATOM     38  C   UNL A   1      41.473  27.634  29.460  1.00  0.00    -0.014 A 
BRANCH  38  39
ATOM     39  C   UNL A   1      41.286  28.580  30.590  1.00  0.00     0.031 A 
ATOM     40  C   UNL A   1      42.122  28.456  31.834  1.00  0.00     0.074 A 
ATOM     41  C   UNL A   1      40.313  29.508  30.516  1.00  0.00     0.049 A 
ATOM     42  N   UNL A   1      42.057  29.148  32.941  1.00  0.00    -0.248 NA
ATOM     43  C   UNL A   1      43.151  27.403  31.844  1.00  0.00     0.031 C 
ATOM     44  C   UNL A   1      39.404  29.692  29.381  1.00  0.00     0.029 A 
ATOM     45  N   UNL A   1      39.911  30.464  31.416  1.00  0.00    -0.354 N 
ATOM     46  C   UNL A   1      43.026  28.614  33.782  1.00  0.00     0.074 A 
ATOM     47  C   UNL A   1      43.633  27.506  33.074  1.00  0.00     0.031 C 
ATOM     48  C   UNL A   1      38.567  30.708  29.645  1.00  0.00     0.029 A 
ATOM     49  C   UNL A   1      38.845  31.218  30.983  1.00  0.00     0.049 A 
ATOM     50  H   UNL A   1      40.345  30.598  32.289  1.00  0.00     0.167 HD
ATOM     51  C   UNL A   1      43.389  29.022  35.020  1.00  0.00     0.037 A 
ATOM     52  C   UNL A   1      38.156  32.199  31.600  1.00  0.00     0.037 A 
ATOM     53  C   UNL A   1      42.787  30.135  35.710  1.00  0.00     0.049 A 
ATOM     54  C   UNL A   1      38.565  32.618  32.986  1.00  0.00     0.074 A 
ATOM     55  C   UNL A   1      43.128  30.668  36.941  1.00  0.00     0.029 A 
ATOM     56  N   UNL A   1      41.716  30.879  35.237  1.00  0.00    -0.354 N 
ATOM     57  N   UNL A   1      39.538  32.154  33.733  1.00  0.00    -0.248 NA
ATOM     58  C   UNL A   1      37.786  33.695  33.612  1.00  0.00     0.031 C 
ATOM     59  C   UNL A   1      42.227  31.695  37.239  1.00  0.00     0.029 A 
ATOM     60  C   UNL A   1      41.361  31.843  36.168  1.00  0.00     0.049 A 
ATOM     61  H   UNL A   1      41.273  30.742  34.369  1.00  0.00     0.167 HD
ATOM     62  C   UNL A   1      39.500  32.895  34.910  1.00  0.00     0.074 A 
ATOM     63  C   UNL A   1      38.422  33.852  34.764  1.00  0.00     0.031 C 
ATOM     64  C   UNL A   1      40.284  32.790  36.011  1.00  0.00     0.037 A 
BRANCH  51  65
ATOM     65  C   UNL A   1      44.488  28.267  35.718  1.00  0.00     0.058 A 
ATOM     66  C   UNL A   1      45.840  28.602  35.542  1.00  0.00     0.135 A 
ATOM     67  C   UNL A   1      44.183  27.236  36.622  1.00  0.00     0.135 A 
ATOM     68  F   UNL A   1      46.191  29.569  34.680  1.00  0.00    -0.206 F 
ATOM     69  C   UNL A   1      46.851  27.930  36.221  1.00  0.00     0.059 A 
ATOM     70  C   UNL A   1      45.176  26.569  37.334  1.00  0.00     0.059 A 
ATOM     71  F   UNL A   1      42.907  26.873  36.828  1.00  0.00    -0.206 F 
ATOM     72  C   UNL A   1      46.508  26.917  37.119  1.00  0.00     0.060 A 
BRANCH  72  73
ATOM     73  S   UNL A   1      47.832  26.073  38.009  1.00  0.00     0.124 S 
ATOM     74  O   UNL A   1      48.290  27.122  38.916  1.00  0.00    -0.237 OA
ATOM     75  O   UNL A   1      47.125  24.959  38.634  1.00  0.00    -0.237 OA
ATOM     76  O   UNL A   1      48.772  25.704  36.954  1.00  0.00    -0.744 OA
ENDBRANCH  72  73
ENDBRANCH  51  65
BRANCH  52  77
ATOM     77  C   UNL A   1      37.007  32.849  30.913  1.00  0.00     0.058 A 
ATOM     78  C   UNL A   1      35.684  32.497  31.220  1.00  0.00     0.135 A 
ATOM     79  C   UNL A   1      37.209  33.839  29.938  1.00  0.00     0.135 A 
ATOM     80  F   UNL A   1      35.439  31.552  32.141  1.00  0.00    -0.206 F 
ATOM     81  C   UNL A   1      34.603  33.085  30.571  1.00  0.00     0.059 A 
ATOM     82  C   UNL A   1      36.144  34.463  29.296  1.00  0.00     0.059 A 
ATOM     83  F   UNL A   1      38.453  34.226  29.618  1.00  0.00    -0.206 F 
ATOM     84  C   UNL A   1      34.844  34.070  29.612  1.00  0.00     0.060 A 
BRANCH  84  85
ATOM     85  S   UNL A   1      33.433  34.856  28.804  1.00  0.00     0.124 S 
ATOM     86  O   UNL A   1      34.039  36.069  28.268  1.00  0.00    -0.237 OA
ATOM     87  O   UNL A   1      33.042  33.849  27.823  1.00  0.00    -0.237 OA
ATOM     88  O   UNL A   1      32.487  35.053  29.900  1.00  0.00    -0.744 OA
ENDBRANCH  84  85
ENDBRANCH  52  77
BRANCH  64  89
ATOM     89  C   UNL A   1      40.021  33.745  37.143  1.00  0.00     0.058 A 
ATOM     90  C   UNL A   1      40.650  34.997  37.212  1.00  0.00     0.135 A 
ATOM     91  C   UNL A   1      39.087  33.425  38.142  1.00  0.00     0.135 A 
ATOM     92  F   UNL A   1      41.559  35.349  36.288  1.00  0.00    -0.206 F 
ATOM     93  C   UNL A   1      40.378  35.892  38.242  1.00  0.00     0.059 A 
ATOM     94  C   UNL A   1      38.776  34.316  39.165  1.00  0.00     0.059 A 
ATOM     95  F   UNL A   1      38.449  32.243  38.121  1.00  0.00    -0.206 F 
ATOM     96  C   UNL A   1      39.435  35.544  39.212  1.00  0.00     0.060 A 
BRANCH  96  97
ATOM     97  S   UNL A   1      39.064  36.732  40.519  1.00  0.00     0.124 S 
ATOM     98  O   UNL A   1      40.394  37.015  41.048  1.00  0.00    -0.237 OA
ATOM     99  O   UNL A   1      38.430  37.819  39.780  1.00  0.00    -0.237 OA
ATOM    100  O   UNL A   1      38.178  35.989  41.412  1.00  0.00    -0.744 OA
ENDBRANCH  96  97
ENDBRANCH  64  89
ENDBRANCH  38  39
ENDBRANCH  30  33
ENDBRANCH  28  29
ENDBRANCH  27  28
ENDBRANCH  26  27
ENDBRANCH   1  26
TORSDOF 23
ENDMDL
MODEL 3
REMARK VINA RESULT:      -8.5      1.412      8.327
REMARK SMILES COCC[C@H](NC(=O)N1CC[C@H](C(=O)OC)C1)C(=O)NCCCCCCNC(=O)c1ccc(-c2c3nc(c(-c4c(F)cc(S(=O)(=O)[O-])cc4F)c4ccc([nH]4)c(-c4c(F)cc(S(=O)(=O)[O-])cc4F)c4nc(c(-c5c(F)cc(S(=O)(=O)[O-])cc5F)c5ccc2[nH]5)C=C4)C=C3)cc1
REMARK SMILES IDX 23 1 22 2 21 3 20 4 18 5 19 6 5 8 4 9 3 10 2 11 1 12 6 13
REMARK SMILES IDX 7 14 8 16 9 17 10 18 17 19 11 20 12 21 13 22 14 23 15 24
REMARK SMILES IDX 16 25 24 26 25 27 26 28 27 29 28 30 29 32 30 33 31 34 95 35
REMARK SMILES IDX 32 36 94 37 33 38 34 39 35 40 88 41 36 42 93 43 87 44 89 45
REMARK SMILES IDX 37 46 92 47 86 48 85 49 38 51 72 52 51 53 71 54 52 55 55 56
REMARK SMILES IDX 70 57 90 58 53 59 54 60 69 62 91 63 56 64 39 65 40 66 49 67
REMARK SMILES IDX 41 68 42 69 48 70 50 71 43 72 44 73 45 74 46 75 47 76 73 77
REMARK SMILES IDX 74 78 83 79 75 80 76 81 82 82 84 83 77 84 78 85 79 86 80 87
REMARK SMILES IDX 81 88 57 89 58 90 67 91 59 92 60 93 66 94 68 95 61 96 62 97
REMARK SMILES IDX 63 98 64 99 65 100
REMARK H PARENT 20 7 6 15 27 31 89 50 55 61
REMARK Flexibility Score: inf
ROOT
ATOM      1  C   UNL A   1      38.488  21.062  25.136  1.00  0.00     0.002 C 
ENDROOT
BRANCH   1   2
ATOM      2  C   UNL A   1      37.026  20.607  25.178  1.00  0.00     0.021 C 
BRANCH   2   3
ATOM      3  C   UNL A   1      36.077  21.519  24.412  1.00  0.00     0.116 C 
BRANCH   3   4
ATOM      4  N   UNL A   1      35.457  22.472  25.316  1.00  0.00    -0.354 N 
ATOM      5  C   UNL A   1      34.257  22.430  25.955  1.00  0.00     0.242 C 
ATOM      6  O   UNL A   1      33.952  23.394  26.662  1.00  0.00    -0.273 OA
ATOM      7  H   UNL A   1      35.993  23.278  25.495  1.00  0.00     0.163 HD
BRANCH   5   8
ATOM      8  C   UNL A   1      33.381  21.167  25.908  1.00  0.00     0.175 C 
BRANCH   8   9
ATOM      9  C   UNL A   1      33.582  20.469  24.552  1.00  0.00     0.063 C 
BRANCH   9  10
ATOM     10  C   UNL A   1      33.504  18.945  24.621  1.00  0.00     0.162 C 
BRANCH  10  11
ATOM     11  O   UNL A   1      32.281  18.447  24.083  1.00  0.00    -0.385 OA
ATOM     12  C   UNL A   1      32.269  18.325  22.666  1.00  0.00     0.194 C 
ENDBRANCH  10  11
ENDBRANCH   9  10
ENDBRANCH   8   9
BRANCH   8  13
ATOM     13  N   UNL A   1      31.988  21.483  26.228  1.00  0.00    -0.326 N 
ATOM     14  C   UNL A   1      31.143  22.364  25.644  1.00  0.00     0.318 C 
ATOM     15  H   UNL A   1      31.608  20.978  26.983  1.00  0.00     0.166 HD
ATOM     16  O   UNL A   1      30.172  22.746  26.295  1.00  0.00    -0.249 OA
BRANCH  14  17
ATOM     17  N   UNL A   1      31.455  22.880  24.428  1.00  0.00    -0.324 N 
ATOM     18  C   UNL A   1      31.863  22.181  23.225  1.00  0.00     0.122 C 
ATOM     19  C   UNL A   1      31.153  24.264  24.115  1.00  0.00     0.136 C 
ATOM     20  C   UNL A   1      32.611  23.240  22.439  1.00  0.00     0.039 C 
ATOM     21  C   UNL A   1      31.873  24.537  22.792  1.00  0.00     0.120 C 
BRANCH  21  22
ATOM     22  C   UNL A   1      32.813  25.716  22.868  1.00  0.00     0.310 C 
ATOM     23  O   UNL A   1      32.953  26.515  21.950  1.00  0.00    -0.252 OA
BRANCH  22  24
ATOM     24  O   UNL A   1      33.506  25.747  24.039  1.00  0.00    -0.469 OA
ATOM     25  C   UNL A   1      33.919  27.056  24.443  1.00  0.00     0.282 C 
ENDBRANCH  22  24
ENDBRANCH  21  22
ENDBRANCH  14  17
ENDBRANCH   8  13
ENDBRANCH   5   8
ENDBRANCH   3   4
ENDBRANCH   2   3
ENDBRANCH   1   2
BRANCH   1  26
ATOM     26  C   UNL A   1      38.912  21.982  26.286  1.00  0.00     0.002 C 
BRANCH  26  27
ATOM     27  C   UNL A   1      40.389  21.889  26.671  1.00  0.00     0.021 C 
BRANCH  27  28
ATOM     28  C   UNL A   1      41.003  23.201  27.148  1.00  0.00     0.116 C 
BRANCH  28  29
ATOM     29  N   UNL A   1      41.411  24.048  26.040  1.00  0.00    -0.352 N 
ATOM     30  C   UNL A   1      41.594  25.409  26.012  1.00  0.00     0.251 C 
ATOM     31  H   UNL A   1      41.581  23.580  25.190  1.00  0.00     0.163 HD
ATOM     32  O   UNL A   1      41.756  25.988  24.947  1.00  0.00    -0.269 OA
BRANCH  30  33
ATOM     33  C   UNL A   1      41.560  26.165  27.281  1.00  0.00     0.039 A 
ATOM     34  C   UNL A   1      42.542  27.130  27.515  1.00  0.00     0.014 A 
ATOM     35  C   UNL A   1      40.545  25.946  28.216  1.00  0.00     0.014 A 
ATOM     36  C   UNL A   1      42.462  27.929  28.656  1.00  0.00     0.010 A 
ATOM     37  C   UNL A   1      40.426  26.791  29.316  1.00  0.00     0.010 A 
ATOM     38  C   UNL A   1      41.377  27.798  29.541  1.00  0.00    -0.014 A 
BRANCH  38  39
ATOM     39  C   UNL A   1      41.200  28.737  30.678  1.00  0.00     0.031 A 
ATOM     40  C   UNL A   1      42.050  28.609  31.912  1.00  0.00     0.074 A 
ATOM     41  C   UNL A   1      40.222  29.663  30.620  1.00  0.00     0.049 A 
ATOM     42  N   UNL A   1      41.994  29.295  33.024  1.00  0.00    -0.248 NA
ATOM     43  C   UNL A   1      43.082  27.560  31.904  1.00  0.00     0.031 C 
ATOM     44  C   UNL A   1      39.300  29.850  29.497  1.00  0.00     0.029 A 
ATOM     45  N   UNL A   1      39.827  30.612  31.530  1.00  0.00    -0.354 N 
ATOM     46  C   UNL A   1      42.975  28.759  33.850  1.00  0.00     0.074 A 
ATOM     47  C   UNL A   1      43.578  27.658  33.130  1.00  0.00     0.031 C 
ATOM     48  C   UNL A   1      38.462  30.861  29.776  1.00  0.00     0.029 A 
ATOM     49  C   UNL A   1      38.754  31.365  31.113  1.00  0.00     0.049 A 
ATOM     50  H   UNL A   1      40.271  30.742  32.399  1.00  0.00     0.167 HD
ATOM     51  C   UNL A   1      43.350  29.162  35.087  1.00  0.00     0.037 A 
ATOM     52  C   UNL A   1      38.068  32.339  31.743  1.00  0.00     0.037 A 
ATOM     53  C   UNL A   1      42.752  30.269  35.790  1.00  0.00     0.049 A 
ATOM     54  C   UNL A   1      38.491  32.753  33.127  1.00  0.00     0.074 A 
ATOM     55  C   UNL A   1      43.105  30.796  37.020  1.00  0.00     0.029 A 
ATOM     56  N   UNL A   1      41.673  31.012  35.333  1.00  0.00    -0.354 N 
ATOM     57  N   UNL A   1      39.474  32.287  33.861  1.00  0.00    -0.248 NA
ATOM     58  C   UNL A   1      37.715  33.823  33.768  1.00  0.00     0.031 C 
ATOM     59  C   UNL A   1      42.204  31.819  37.333  1.00  0.00     0.029 A 
ATOM     60  C   UNL A   1      41.326  31.969  36.273  1.00  0.00     0.049 A 
ATOM     61  H   UNL A   1      41.221  30.878  34.469  1.00  0.00     0.167 HD
ATOM     62  C   UNL A   1      39.446  33.022  35.042  1.00  0.00     0.074 A 
ATOM     63  C   UNL A   1      38.364  33.975  34.914  1.00  0.00     0.031 C 
ATOM     64  C   UNL A   1      40.244  32.913  36.133  1.00  0.00     0.037 A 
BRANCH  51  65
ATOM     65  C   UNL A   1      44.460  28.407  35.769  1.00  0.00     0.058 A 
ATOM     66  C   UNL A   1      44.203  27.288  36.575  1.00  0.00     0.135 A 
ATOM     67  C   UNL A   1      45.801  28.770  35.562  1.00  0.00     0.135 A 
ATOM     68  F   UNL A   1      42.939  26.905  36.818  1.00  0.00    -0.206 F 
ATOM     69  C   UNL A   1      45.233  26.566  37.169  1.00  0.00     0.059 A 
ATOM     70  C   UNL A   1      46.849  28.046  36.123  1.00  0.00     0.059 A 
ATOM     71  F   UNL A   1      46.105  29.834  34.802  1.00  0.00    -0.206 F 
ATOM     72  C   UNL A   1      46.554  26.951  36.933  1.00  0.00     0.060 A 
BRANCH  72  73
ATOM     73  S   UNL A   1      47.878  25.988  37.693  1.00  0.00     0.124 S 
ATOM     74  O   UNL A   1      47.155  24.802  38.145  1.00  0.00    -0.237 OA
ATOM     75  O   UNL A   1      48.794  25.783  36.575  1.00  0.00    -0.237 OA
ATOM     76  O   UNL A   1      48.371  26.862  38.753  1.00  0.00    -0.744 OA
ENDBRANCH  72  73
ENDBRANCH  51  65
BRANCH  52  77
ATOM     77  C   UNL A   1      36.910  32.989  31.073  1.00  0.00     0.058 A 
ATOM     78  C   UNL A   1      35.591  32.644  31.406  1.00  0.00     0.135 A 
ATOM     79  C   UNL A   1      37.097  33.971  30.087  1.00  0.00     0.135 A 
ATOM     80  F   UNL A   1      35.359  31.706  32.338  1.00  0.00    -0.206 F 
ATOM     81  C   UNL A   1      34.501  33.232  30.773  1.00  0.00     0.059 A 
ATOM     82  C   UNL A   1      36.023  34.595  29.460  1.00  0.00     0.059 A 
ATOM     83  F   UNL A   1      38.337  34.352  29.743  1.00  0.00    -0.206 F 
ATOM     84  C   UNL A   1      34.727  34.210  29.803  1.00  0.00     0.060 A 
BRANCH  84  85
ATOM     85  S   UNL A   1      33.305  34.996  29.016  1.00  0.00     0.124 S 
ATOM     86  O   UNL A   1      33.918  36.167  28.402  1.00  0.00    -0.237 OA
ATOM     87  O   UNL A   1      32.851  33.957  28.097  1.00  0.00    -0.237 OA
ATOM     88  O   UNL A   1      32.409  35.265  30.137  1.00  0.00    -0.744 OA
ENDBRANCH  84  85
ENDBRANCH  52  77
BRANCH  64  89
ATOM     89  C   UNL A   1      39.990  33.861  37.274  1.00  0.00     0.058 A 
ATOM     90  C   UNL A   1      40.650  35.096  37.366  1.00  0.00     0.135 A 
ATOM     91  C   UNL A   1      39.033  33.554  38.256  1.00  0.00     0.135 A 
ATOM     92  F   UNL A   1      41.580  35.435  36.459  1.00  0.00    -0.206 F 
ATOM     93  C   UNL A   1      40.387  35.984  38.404  1.00  0.00     0.059 A 
ATOM     94  C   UNL A   1      38.732  34.441  39.286  1.00  0.00     0.059 A 
ATOM     95  F   UNL A   1      38.366  32.390  38.211  1.00  0.00    -0.206 F 
ATOM     96  C   UNL A   1      39.422  35.650  39.356  1.00  0.00     0.060 A 
BRANCH  96  97
ATOM     97  S   UNL A   1      39.064  36.831  40.674  1.00  0.00     0.124 S 
ATOM     98  O   UNL A   1      38.152  37.753  40.004  1.00  0.00    -0.237 OA
ATOM     99  O   UNL A   1      38.467  35.981  41.699  1.00  0.00    -0.237 OA
ATOM    100  O   UNL A   1      40.376  37.378  41.006  1.00  0.00    -0.744 OA
ENDBRANCH  96  97
ENDBRANCH  64  89
ENDBRANCH  38  39
ENDBRANCH  30  33
ENDBRANCH  28  29
ENDBRANCH  27  28
ENDBRANCH  26  27
ENDBRANCH   1  26
TORSDOF 23
ENDMDL
