MODEL 1
REMARK VINA RESULT:     -10.9      0.000      0.000
REMARK SMILES Cc1cc(C(=O)N[C@H](C(=O)NCCCCCCNC(=O)c2ccc(-c3c4nc(c(-c5c(F)cc(S(=O)(=O)[O-])cc5F)c5ccc([nH]5)c(-c5c(F)cc(S(=O)(=O)[O-])cc5F)c5nc(c(-c6c(F)cc(S(=O)(=O)[O-])cc6F)c6ccc3[nH]6)C=C5)C=C4)cc2)C(C)C)c(C)s1
REMARK SMILES IDX 15 1 14 2 13 3 12 4 11 5 9 6 10 7 8 9 7 10 5 11 6 12 4 14
REMARK SMILES IDX 1 15 2 16 3 17 92 18 90 19 91 20 87 21 88 22 89 23 16 24
REMARK SMILES IDX 17 25 18 26 19 27 20 29 21 30 22 31 86 32 23 33 85 34 24 35
REMARK SMILES IDX 25 36 26 37 79 38 27 39 84 40 78 41 80 42 28 43 83 44 77 45
REMARK SMILES IDX 76 46 29 48 63 49 42 50 62 51 43 52 46 53 61 54 81 55 44 56
REMARK SMILES IDX 45 57 60 59 82 60 47 61 30 62 31 63 40 64 32 65 33 66 39 67
REMARK SMILES IDX 41 68 34 69 35 70 36 71 37 72 38 73 64 74 65 75 74 76 66 77
REMARK SMILES IDX 67 78 73 79 75 80 68 81 69 82 70 83 71 84 72 85 48 86 49 87
REMARK SMILES IDX 58 88 50 89 51 90 57 91 59 92 52 93 53 94 54 95 55 96 56 97
REMARK H PARENT 11 8 7 13 18 28 80 47 46 58
REMARK Flexibility Score: inf
ROOT
ATOM      1  C   UNL A   1      38.453  23.806  26.471  1.00  0.00     0.002 C 
ENDROOT
BRANCH   1   2
ATOM      2  C   UNL A   1      37.295  23.372  25.568  1.00  0.00     0.002 C 
BRANCH   2   3
ATOM      3  C   UNL A   1      37.477  22.020  24.866  1.00  0.00     0.021 C 
BRANCH   3   4
ATOM      4  C   UNL A   1      36.575  20.898  25.380  1.00  0.00     0.116 C 
BRANCH   4   5
ATOM      5  N   UNL A   1      35.659  21.387  26.394  1.00  0.00    -0.354 N 
ATOM      6  C   UNL A   1      34.350  21.767  26.291  1.00  0.00     0.242 C 
ATOM      7  O   UNL A   1      33.889  22.379  27.256  1.00  0.00    -0.273 OA
ATOM      8  H   UNL A   1      36.040  21.457  27.299  1.00  0.00     0.163 HD
BRANCH   6   9
ATOM      9  C   UNL A   1      33.570  21.546  24.960  1.00  0.00     0.174 C 
BRANCH   9  10
ATOM     10  N   UNL A   1      34.096  22.451  23.925  1.00  0.00    -0.340 N 
ATOM     11  C   UNL A   1      34.001  23.796  23.664  1.00  0.00     0.253 C 
ATOM     12  O   UNL A   1      34.489  24.143  22.590  1.00  0.00    -0.269 OA
ATOM     13  H   UNL A   1      34.648  21.980  23.261  1.00  0.00     0.164 HD
BRANCH  11  14
ATOM     14  C   UNL A   1      33.415  24.761  24.609  1.00  0.00     0.053 A 
ATOM     15  C   UNL A   1      33.622  27.928  26.686  1.00  0.00     0.056 C 
ATOM     16  C   UNL A   1      33.245  26.662  25.998  1.00  0.00     0.003 A 
ATOM     17  C   UNL A   1      34.085  25.747  25.407  1.00  0.00     0.029 A 
ATOM     18  S   UNL A   1      31.628  26.177  25.861  1.00  0.00    -0.145 S 
ATOM     19  C   UNL A   1      32.046  24.821  24.884  1.00  0.00     0.014 A 
ATOM     20  C   UNL A   1      30.914  23.940  24.448  1.00  0.00     0.057 C 
ENDBRANCH  11  14
ENDBRANCH   9  10
BRANCH   9  21
ATOM     21  C   UNL A   1      33.327  20.101  24.438  1.00  0.00     0.015 C 
ATOM     22  C   UNL A   1      32.820  19.114  25.494  1.00  0.00     0.010 C 
ATOM     23  C   UNL A   1      32.326  20.121  23.272  1.00  0.00     0.010 C 
ENDBRANCH   9  21
ENDBRANCH   6   9
ENDBRANCH   4   5
ENDBRANCH   3   4
ENDBRANCH   2   3
ENDBRANCH   1   2
BRANCH   1  24
ATOM     24  C   UNL A   1      39.566  22.772  26.656  1.00  0.00     0.021 C 
BRANCH  24  25
ATOM     25  C   UNL A   1      40.928  23.340  27.041  1.00  0.00     0.116 C 
BRANCH  25  26
ATOM     26  N   UNL A   1      41.504  24.177  26.004  1.00  0.00    -0.352 N 
ATOM     27  C   UNL A   1      41.794  25.520  26.037  1.00  0.00     0.251 C 
ATOM     28  H   UNL A   1      41.717  23.719  25.158  1.00  0.00     0.163 HD
ATOM     29  O   UNL A   1      42.155  26.096  25.015  1.00  0.00    -0.269 OA
BRANCH  27  30
ATOM     30  C   UNL A   1      41.644  26.275  27.301  1.00  0.00     0.039 A 
ATOM     31  C   UNL A   1      42.571  27.275  27.602  1.00  0.00     0.014 A 
ATOM     32  C   UNL A   1      40.594  26.002  28.184  1.00  0.00     0.014 A 
ATOM     33  C   UNL A   1      42.411  28.044  28.758  1.00  0.00     0.010 A 
ATOM     34  C   UNL A   1      40.401  26.811  29.301  1.00  0.00     0.010 A 
ATOM     35  C   UNL A   1      41.307  27.840  29.601  1.00  0.00    -0.014 A 
BRANCH  35  36
ATOM     36  C   UNL A   1      41.085  28.691  30.798  1.00  0.00     0.031 A 
ATOM     37  C   UNL A   1      39.998  29.732  30.794  1.00  0.00     0.074 A 
ATOM     38  C   UNL A   1      41.900  28.569  31.865  1.00  0.00     0.049 A 
ATOM     39  N   UNL A   1      39.698  30.617  31.710  1.00  0.00    -0.248 NA
ATOM     40  C   UNL A   1      39.153  29.804  29.591  1.00  0.00     0.031 C 
ATOM     41  C   UNL A   1      43.016  27.628  31.973  1.00  0.00     0.029 A 
ATOM     42  N   UNL A   1      41.922  29.248  33.058  1.00  0.00    -0.354 N 
ATOM     43  C   UNL A   1      38.643  31.358  31.190  1.00  0.00     0.074 A 
ATOM     44  C   UNL A   1      38.386  30.851  29.860  1.00  0.00     0.031 C 
ATOM     45  C   UNL A   1      43.602  27.776  33.173  1.00  0.00     0.029 A 
ATOM     46  C   UNL A   1      42.927  28.844  33.904  1.00  0.00     0.049 A 
ATOM     47  H   UNL A   1      41.279  29.957  33.285  1.00  0.00     0.167 HD
ATOM     48  C   UNL A   1      37.937  32.354  31.778  1.00  0.00     0.037 A 
ATOM     49  C   UNL A   1      43.270  29.287  35.129  1.00  0.00     0.037 A 
ATOM     50  C   UNL A   1      38.178  32.837  33.113  1.00  0.00     0.049 A 
ATOM     51  C   UNL A   1      42.470  30.393  35.762  1.00  0.00     0.074 A 
ATOM     52  C   UNL A   1      37.484  33.805  33.817  1.00  0.00     0.029 A 
ATOM     53  N   UNL A   1      39.190  32.386  33.948  1.00  0.00    -0.354 N 
ATOM     54  N   UNL A   1      41.439  31.046  35.277  1.00  0.00    -0.248 NA
ATOM     55  C   UNL A   1      42.871  30.819  37.110  1.00  0.00     0.031 C 
ATOM     56  C   UNL A   1      38.098  33.965  35.064  1.00  0.00     0.029 A 
ATOM     57  C   UNL A   1      39.148  33.066  35.154  1.00  0.00     0.049 A 
ATOM     58  H   UNL A   1      39.842  31.685  33.718  1.00  0.00     0.167 HD
ATOM     59  C   UNL A   1      41.056  31.940  36.270  1.00  0.00     0.074 A 
ATOM     60  C   UNL A   1      41.957  31.738  37.386  1.00  0.00     0.031 C 
ATOM     61  C   UNL A   1      40.047  32.847  36.258  1.00  0.00     0.037 A 
BRANCH  48  62
ATOM     62  C   UNL A   1      36.830  32.984  30.980  1.00  0.00     0.058 A 
ATOM     63  C   UNL A   1      35.484  32.655  31.202  1.00  0.00     0.135 A 
ATOM     64  C   UNL A   1      37.113  33.951  30.000  1.00  0.00     0.135 A 
ATOM     65  F   UNL A   1      35.156  31.727  32.116  1.00  0.00    -0.206 F 
ATOM     66  C   UNL A   1      34.459  33.237  30.463  1.00  0.00     0.059 A 
ATOM     67  C   UNL A   1      36.103  34.567  29.267  1.00  0.00     0.059 A 
ATOM     68  F   UNL A   1      38.383  34.304  29.747  1.00  0.00    -0.206 F 
ATOM     69  C   UNL A   1      34.779  34.191  29.495  1.00  0.00     0.060 A 
BRANCH  69  70
ATOM     70  S   UNL A   1      33.439  34.937  28.543  1.00  0.00     0.124 S 
ATOM     71  O   UNL A   1      32.963  33.795  27.768  1.00  0.00    -0.237 OA
ATOM     72  O   UNL A   1      32.539  35.413  29.588  1.00  0.00    -0.237 OA
ATOM     73  O   UNL A   1      34.109  35.981  27.774  1.00  0.00    -0.744 OA
ENDBRANCH  69  70
ENDBRANCH  48  62
BRANCH  49  74
ATOM     74  C   UNL A   1      44.415  28.669  35.850  1.00  0.00     0.058 A 
ATOM     75  C   UNL A   1      45.723  29.143  35.664  1.00  0.00     0.135 A 
ATOM     76  C   UNL A   1      44.227  27.604  36.744  1.00  0.00     0.135 A 
ATOM     77  F   UNL A   1      45.954  30.155  34.814  1.00  0.00    -0.206 F 
ATOM     78  C   UNL A   1      46.805  28.572  36.324  1.00  0.00     0.059 A 
ATOM     79  C   UNL A   1      45.290  27.033  37.435  1.00  0.00     0.059 A 
ATOM     80  F   UNL A   1      42.993  27.126  36.970  1.00  0.00    -0.206 F 
ATOM     81  C   UNL A   1      46.579  27.518  37.209  1.00  0.00     0.060 A 
BRANCH  81  82
ATOM     82  S   UNL A   1      47.986  26.813  38.097  1.00  0.00     0.124 S 
ATOM     83  O   UNL A   1      47.690  27.202  39.470  1.00  0.00    -0.237 OA
ATOM     84  O   UNL A   1      47.858  25.391  37.794  1.00  0.00    -0.237 OA
ATOM     85  O   UNL A   1      49.132  27.476  37.484  1.00  0.00    -0.744 OA
ENDBRANCH  81  82
ENDBRANCH  49  74
BRANCH  61  86
ATOM     86  C   UNL A   1      39.842  33.668  37.501  1.00  0.00     0.058 A 
ATOM     87  C   UNL A   1      40.566  34.846  37.734  1.00  0.00     0.135 A 
ATOM     88  C   UNL A   1      38.869  33.297  38.444  1.00  0.00     0.135 A 
ATOM     89  F   UNL A   1      41.511  35.241  36.866  1.00  0.00    -0.206 F 
ATOM     90  C   UNL A   1      40.349  35.619  38.869  1.00  0.00     0.059 A 
ATOM     91  C   UNL A   1      38.618  34.067  39.575  1.00  0.00     0.059 A 
ATOM     92  F   UNL A   1      38.142  32.183  38.263  1.00  0.00    -0.206 F 
ATOM     93  C   UNL A   1      39.371  35.221  39.785  1.00  0.00     0.060 A 
BRANCH  93  94
ATOM     94  S   UNL A   1      39.073  36.252  41.237  1.00  0.00     0.124 S 
ATOM     95  O   UNL A   1      40.367  36.197  41.907  1.00  0.00    -0.237 OA
ATOM     96  O   UNL A   1      38.720  37.538  40.642  1.00  0.00    -0.237 OA
ATOM     97  O   UNL A   1      37.980  35.565  41.921  1.00  0.00    -0.744 OA
ENDBRANCH  93  94
ENDBRANCH  61  86
ENDBRANCH  35  36
ENDBRANCH  27  30
ENDBRANCH  25  26
ENDBRANCH  24  25
ENDBRANCH   1  24
TORSDOF 19
ENDMDL
MODEL 2
REMARK VINA RESULT:     -10.9      4.764      9.639
REMARK SMILES Cc1cc(C(=O)N[C@H](C(=O)NCCCCCCNC(=O)c2ccc(-c3c4nc(c(-c5c(F)cc(S(=O)(=O)[O-])cc5F)c5ccc([nH]5)c(-c5c(F)cc(S(=O)(=O)[O-])cc5F)c5nc(c(-c6c(F)cc(S(=O)(=O)[O-])cc6F)c6ccc3[nH]6)C=C5)C=C4)cc2)C(C)C)c(C)s1
REMARK SMILES IDX 15 1 14 2 13 3 12 4 11 5 9 6 10 7 8 9 7 10 5 11 6 12 4 14
REMARK SMILES IDX 1 15 2 16 3 17 92 18 90 19 91 20 87 21 88 22 89 23 16 24
REMARK SMILES IDX 17 25 18 26 19 27 20 29 21 30 22 31 86 32 23 33 85 34 24 35
REMARK SMILES IDX 25 36 26 37 79 38 27 39 84 40 78 41 80 42 28 43 83 44 77 45
REMARK SMILES IDX 76 46 29 48 63 49 42 50 62 51 43 52 46 53 61 54 81 55 44 56
REMARK SMILES IDX 45 57 60 59 82 60 47 61 30 62 31 63 40 64 32 65 33 66 39 67
REMARK SMILES IDX 41 68 34 69 35 70 36 71 37 72 38 73 64 74 65 75 74 76 66 77
REMARK SMILES IDX 67 78 73 79 75 80 68 81 69 82 70 83 71 84 72 85 48 86 49 87
REMARK SMILES IDX 58 88 50 89 51 90 57 91 59 92 52 93 53 94 54 95 55 96 56 97
REMARK H PARENT 11 8 7 13 18 28 80 47 46 58
REMARK Flexibility Score: inf
ROOT
ATOM      1  C   UNL A   1      32.450  26.337  26.317  1.00  0.00     0.002 C 
ENDROOT
BRANCH   1   2
ATOM      2  C   UNL A   1      31.066  25.703  26.149  1.00  0.00     0.002 C 
BRANCH   2   3
ATOM      3  C   UNL A   1      31.032  24.400  25.341  1.00  0.00     0.021 C 
BRANCH   3   4
ATOM      4  C   UNL A   1      31.095  23.120  26.175  1.00  0.00     0.116 C 
BRANCH   4   5
ATOM      5  N   UNL A   1      32.342  23.038  26.913  1.00  0.00    -0.354 N 
ATOM      6  C   UNL A   1      33.496  22.366  26.624  1.00  0.00     0.242 C 
ATOM      7  O   UNL A   1      34.306  22.264  27.547  1.00  0.00    -0.273 OA
ATOM      8  H   UNL A   1      32.359  23.547  27.756  1.00  0.00     0.163 HD
BRANCH   6   9
ATOM      9  C   UNL A   1      33.671  21.664  25.244  1.00  0.00     0.174 C 
BRANCH   9  10
ATOM     10  N   UNL A   1      34.917  22.127  24.610  1.00  0.00    -0.340 N 
ATOM     11  C   UNL A   1      35.248  23.107  23.708  1.00  0.00     0.253 C 
ATOM     12  O   UNL A   1      36.415  23.074  23.323  1.00  0.00    -0.269 OA
ATOM     13  H   UNL A   1      35.701  21.609  24.904  1.00  0.00     0.164 HD
BRANCH  11  14
ATOM     14  C   UNL A   1      34.307  24.153  23.273  1.00  0.00     0.053 A 
ATOM     15  C   UNL A   1      33.360  27.798  22.822  1.00  0.00     0.056 C 
ATOM     16  C   UNL A   1      33.443  26.312  22.867  1.00  0.00     0.003 A 
ATOM     17  C   UNL A   1      34.290  25.542  23.630  1.00  0.00     0.029 A 
ATOM     18  S   UNL A   1      32.430  25.340  21.920  1.00  0.00    -0.145 S 
ATOM     19  C   UNL A   1      33.227  23.898  22.423  1.00  0.00     0.014 A 
ATOM     20  C   UNL A   1      32.691  22.613  21.869  1.00  0.00     0.057 C 
ENDBRANCH  11  14
ENDBRANCH   9  10
BRANCH   9  21
ATOM     21  C   UNL A   1      33.463  20.127  25.126  1.00  0.00     0.015 C 
ATOM     22  C   UNL A   1      32.358  19.702  24.155  1.00  0.00     0.010 C 
ATOM     23  C   UNL A   1      34.773  19.447  24.699  1.00  0.00     0.010 C 
ENDBRANCH   9  21
ENDBRANCH   6   9
ENDBRANCH   4   5
ENDBRANCH   3   4
ENDBRANCH   2   3
ENDBRANCH   1   2
BRANCH   1  24
ATOM     24  C   UNL A   1      32.461  27.860  26.469  1.00  0.00     0.021 C 
BRANCH  24  25
ATOM     25  C   UNL A   1      33.754  28.453  27.021  1.00  0.00     0.116 C 
BRANCH  25  26
ATOM     26  N   UNL A   1      33.592  29.816  27.495  1.00  0.00    -0.352 N 
ATOM     27  C   UNL A   1      34.481  30.601  28.191  1.00  0.00     0.251 C 
ATOM     28  H   UNL A   1      32.726  30.237  27.289  1.00  0.00     0.163 HD
ATOM     29  O   UNL A   1      34.124  31.689  28.630  1.00  0.00    -0.269 OA
BRANCH  27  30
ATOM     30  C   UNL A   1      35.859  30.118  28.431  1.00  0.00     0.039 A 
ATOM     31  C   UNL A   1      36.786  30.184  27.388  1.00  0.00     0.014 A 
ATOM     32  C   UNL A   1      36.238  29.608  29.676  1.00  0.00     0.014 A 
ATOM     33  C   UNL A   1      38.110  29.794  27.611  1.00  0.00     0.010 A 
ATOM     34  C   UNL A   1      37.571  29.281  29.914  1.00  0.00     0.010 A 
ATOM     35  C   UNL A   1      38.521  29.370  28.885  1.00  0.00    -0.014 A 
BRANCH  35  36
ATOM     36  C   UNL A   1      39.937  29.015  29.158  1.00  0.00     0.031 A 
ATOM     37  C   UNL A   1      40.869  30.034  29.756  1.00  0.00     0.074 A 
ATOM     38  C   UNL A   1      40.400  27.797  28.811  1.00  0.00     0.049 A 
ATOM     39  N   UNL A   1      42.152  29.939  29.998  1.00  0.00    -0.248 NA
ATOM     40  C   UNL A   1      40.288  31.342  30.103  1.00  0.00     0.031 C 
ATOM     41  C   UNL A   1      39.606  26.738  28.185  1.00  0.00     0.029 A 
ATOM     42  N   UNL A   1      41.652  27.248  28.927  1.00  0.00    -0.354 N 
ATOM     43  C   UNL A   1      42.533  31.173  30.512  1.00  0.00     0.074 A 
ATOM     44  C   UNL A   1      41.357  32.016  30.501  1.00  0.00     0.031 C 
ATOM     45  C   UNL A   1      40.386  25.662  27.989  1.00  0.00     0.029 A 
ATOM     46  C   UNL A   1      41.740  25.964  28.442  1.00  0.00     0.049 A 
ATOM     47  H   UNL A   1      42.416  27.728  29.320  1.00  0.00     0.167 HD
ATOM     48  C   UNL A   1      43.747  31.560  30.972  1.00  0.00     0.037 A 
ATOM     49  C   UNL A   1      42.793  25.128  28.366  1.00  0.00     0.037 A 
ATOM     50  C   UNL A   1      44.908  30.709  31.007  1.00  0.00     0.049 A 
ATOM     51  C   UNL A   1      44.131  25.580  28.886  1.00  0.00     0.074 A 
ATOM     52  C   UNL A   1      46.169  30.992  31.502  1.00  0.00     0.029 A 
ATOM     53  N   UNL A   1      44.950  29.408  30.528  1.00  0.00    -0.354 N 
ATOM     54  N   UNL A   1      44.460  26.733  29.419  1.00  0.00    -0.248 NA
ATOM     55  C   UNL A   1      45.238  24.618  28.802  1.00  0.00     0.031 C 
ATOM     56  C   UNL A   1      46.983  29.874  31.292  1.00  0.00     0.029 A 
ATOM     57  C   UNL A   1      46.219  28.879  30.704  1.00  0.00     0.049 A 
ATOM     58  H   UNL A   1      44.191  28.929  30.124  1.00  0.00     0.167 HD
ATOM     59  C   UNL A   1      45.805  26.624  29.756  1.00  0.00     0.074 A 
ATOM     60  C   UNL A   1      46.225  25.291  29.376  1.00  0.00     0.031 C 
ATOM     61  C   UNL A   1      46.618  27.547  30.328  1.00  0.00     0.037 A 
BRANCH  48  62
ATOM     62  C   UNL A   1      43.879  32.968  31.484  1.00  0.00     0.058 A 
ATOM     63  C   UNL A   1      44.180  34.037  30.626  1.00  0.00     0.135 A 
ATOM     64  C   UNL A   1      43.673  33.259  32.843  1.00  0.00     0.135 A 
ATOM     65  F   UNL A   1      44.401  33.815  29.319  1.00  0.00    -0.206 F 
ATOM     66  C   UNL A   1      44.303  35.340  31.100  1.00  0.00     0.059 A 
ATOM     67  C   UNL A   1      43.765  34.557  33.335  1.00  0.00     0.059 A 
ATOM     68  F   UNL A   1      43.382  32.274  33.708  1.00  0.00    -0.206 F 
ATOM     69  C   UNL A   1      44.096  35.589  32.457  1.00  0.00     0.060 A 
BRANCH  69  70
ATOM     70  S   UNL A   1      44.260  37.284  33.058  1.00  0.00     0.124 S 
ATOM     71  O   UNL A   1      44.653  37.986  31.839  1.00  0.00    -0.237 OA
ATOM     72  O   UNL A   1      42.917  37.573  33.551  1.00  0.00    -0.237 OA
ATOM     73  O   UNL A   1      45.293  37.182  34.084  1.00  0.00    -0.744 OA
ENDBRANCH  69  70
ENDBRANCH  48  62
BRANCH  49  74
ATOM     74  C   UNL A   1      42.621  23.766  27.793  1.00  0.00     0.058 A 
ATOM     75  C   UNL A   1      42.454  22.651  28.628  1.00  0.00     0.135 A 
ATOM     76  C   UNL A   1      42.610  23.553  26.406  1.00  0.00     0.135 A 
ATOM     77  F   UNL A   1      42.464  22.804  29.960  1.00  0.00    -0.206 F 
ATOM     78  C   UNL A   1      42.298  21.370  28.109  1.00  0.00     0.059 A 
ATOM     79  C   UNL A   1      42.432  22.285  25.863  1.00  0.00     0.059 A 
ATOM     80  F   UNL A   1      42.749  24.590  25.565  1.00  0.00    -0.206 F 
ATOM     81  C   UNL A   1      42.288  21.197  26.724  1.00  0.00     0.060 A 
BRANCH  81  82
ATOM     82  S   UNL A   1      42.040  19.535  26.060  1.00  0.00     0.124 S 
ATOM     83  O   UNL A   1      40.597  19.514  25.855  1.00  0.00    -0.237 OA
ATOM     84  O   UNL A   1      42.856  19.564  24.851  1.00  0.00    -0.237 OA
ATOM     85  O   UNL A   1      42.540  18.672  27.125  1.00  0.00    -0.744 OA
ENDBRANCH  81  82
ENDBRANCH  49  74
BRANCH  61  86
ATOM     86  C   UNL A   1      48.036  27.136  30.611  1.00  0.00     0.058 A 
ATOM     87  C   UNL A   1      49.061  27.333  29.674  1.00  0.00     0.135 A 
ATOM     88  C   UNL A   1      48.382  26.586  31.857  1.00  0.00     0.135 A 
ATOM     89  F   UNL A   1      48.783  27.849  28.466  1.00  0.00    -0.206 F 
ATOM     90  C   UNL A   1      50.378  26.980  29.953  1.00  0.00     0.059 A 
ATOM     91  C   UNL A   1      49.694  26.249  32.168  1.00  0.00     0.059 A 
ATOM     92  F   UNL A   1      47.439  26.386  32.793  1.00  0.00    -0.206 F 
ATOM     93  C   UNL A   1      50.685  26.439  31.204  1.00  0.00     0.060 A 
BRANCH  93  94
ATOM     94  S   UNL A   1      52.403  26.020  31.569  1.00  0.00     0.124 S 
ATOM     95  O   UNL A   1      52.299  24.597  31.872  1.00  0.00    -0.237 OA
ATOM     96  O   UNL A   1      53.080  26.356  30.320  1.00  0.00    -0.237 OA
ATOM     97  O   UNL A   1      52.729  26.883  32.701  1.00  0.00    -0.744 OA
ENDBRANCH  93  94
ENDBRANCH  61  86
ENDBRANCH  35  36
ENDBRANCH  27  30
ENDBRANCH  25  26
ENDBRANCH  24  25
ENDBRANCH   1  24
TORSDOF 19
ENDMDL
MODEL 3
REMARK VINA RESULT:     -10.8      3.415      8.976
REMARK SMILES Cc1cc(C(=O)N[C@H](C(=O)NCCCCCCNC(=O)c2ccc(-c3c4nc(c(-c5c(F)cc(S(=O)(=O)[O-])cc5F)c5ccc([nH]5)c(-c5c(F)cc(S(=O)(=O)[O-])cc5F)c5nc(c(-c6c(F)cc(S(=O)(=O)[O-])cc6F)c6ccc3[nH]6)C=C5)C=C4)cc2)C(C)C)c(C)s1
REMARK SMILES IDX 15 1 14 2 13 3 12 4 11 5 9 6 10 7 8 9 7 10 5 11 6 12 4 14
REMARK SMILES IDX 1 15 2 16 3 17 92 18 90 19 91 20 87 21 88 22 89 23 16 24
REMARK SMILES IDX 17 25 18 26 19 27 20 29 21 30 22 31 86 32 23 33 85 34 24 35
REMARK SMILES IDX 25 36 26 37 79 38 27 39 84 40 78 41 80 42 28 43 83 44 77 45
REMARK SMILES IDX 76 46 29 48 63 49 42 50 62 51 43 52 46 53 61 54 81 55 44 56
REMARK SMILES IDX 45 57 60 59 82 60 47 61 30 62 31 63 40 64 32 65 33 66 39 67
REMARK SMILES IDX 41 68 34 69 35 70 36 71 37 72 38 73 64 74 65 75 74 76 66 77
REMARK SMILES IDX 67 78 73 79 75 80 68 81 69 82 70 83 71 84 72 85 48 86 49 87
REMARK SMILES IDX 58 88 50 89 51 90 57 91 59 92 52 93 53 94 54 95 55 96 56 97
REMARK H PARENT 11 8 7 13 18 28 80 47 46 58
REMARK Flexibility Score: inf
ROOT
ATOM      1  C   UNL A   1      31.520  28.577  25.563  1.00  0.00     0.002 C 
ENDROOT
BRANCH   1   2
ATOM      2  C   UNL A   1      31.509  28.239  24.069  1.00  0.00     0.002 C 
BRANCH   2   3
ATOM      3  C   UNL A   1      30.246  27.532  23.561  1.00  0.00     0.021 C 
BRANCH   3   4
ATOM      4  C   UNL A   1      29.680  26.468  24.500  1.00  0.00     0.116 C 
BRANCH   4   5
ATOM      5  N   UNL A   1      29.872  25.135  23.957  1.00  0.00    -0.354 N 
ATOM      6  C   UNL A   1      30.969  24.321  23.986  1.00  0.00     0.242 C 
ATOM      7  O   UNL A   1      30.938  23.348  23.229  1.00  0.00    -0.273 OA
ATOM      8  H   UNL A   1      29.089  24.759  23.493  1.00  0.00     0.163 HD
BRANCH   6   9
ATOM      9  C   UNL A   1      32.217  24.713  24.832  1.00  0.00     0.174 C 
BRANCH   9  10
ATOM     10  N   UNL A   1      32.106  24.123  26.177  1.00  0.00    -0.340 N 
ATOM     11  C   UNL A   1      32.216  22.858  26.700  1.00  0.00     0.253 C 
ATOM     12  O   UNL A   1      31.908  22.768  27.886  1.00  0.00    -0.269 OA
ATOM     13  H   UNL A   1      31.906  24.796  26.866  1.00  0.00     0.164 HD
BRANCH  11  14
ATOM     14  C   UNL A   1      32.715  21.707  25.928  1.00  0.00     0.053 A 
ATOM     15  C   UNL A   1      32.300  19.089  23.216  1.00  0.00     0.056 C 
ATOM     16  C   UNL A   1      32.749  19.975  24.326  1.00  0.00     0.003 A 
ATOM     17  C   UNL A   1      31.971  20.788  25.116  1.00  0.00     0.029 A 
ATOM     18  S   UNL A   1      34.381  20.082  24.768  1.00  0.00    -0.145 S 
ATOM     19  C   UNL A   1      34.060  21.326  25.915  1.00  0.00     0.014 A 
ATOM     20  C   UNL A   1      35.236  21.836  26.692  1.00  0.00     0.057 C 
ENDBRANCH  11  14
ENDBRANCH   9  10
BRANCH   9  21
ATOM     21  C   UNL A   1      33.640  24.574  24.222  1.00  0.00     0.015 C 
ATOM     22  C   UNL A   1      33.827  25.260  22.866  1.00  0.00     0.010 C 
ATOM     23  C   UNL A   1      34.692  25.128  25.196  1.00  0.00     0.010 C 
ENDBRANCH   9  21
ENDBRANCH   6   9
ENDBRANCH   4   5
ENDBRANCH   3   4
ENDBRANCH   2   3
ENDBRANCH   1   2
BRANCH   1  24
ATOM     24  C   UNL A   1      32.584  27.856  26.392  1.00  0.00     0.021 C 
BRANCH  24  25
ATOM     25  C   UNL A   1      33.897  28.613  26.571  1.00  0.00     0.116 C 
BRANCH  25  26
ATOM     26  N   UNL A   1      33.700  30.020  26.871  1.00  0.00    -0.352 N 
ATOM     27  C   UNL A   1      34.452  30.848  27.670  1.00  0.00     0.251 C 
ATOM     28  H   UNL A   1      32.919  30.440  26.442  1.00  0.00     0.163 HD
ATOM     29  O   UNL A   1      34.058  31.983  27.918  1.00  0.00    -0.269 OA
BRANCH  27  30
ATOM     30  C   UNL A   1      35.721  30.358  28.250  1.00  0.00     0.039 A 
ATOM     31  C   UNL A   1      36.916  30.624  27.577  1.00  0.00     0.014 A 
ATOM     32  C   UNL A   1      35.737  29.644  29.452  1.00  0.00     0.014 A 
ATOM     33  C   UNL A   1      38.133  30.228  28.139  1.00  0.00     0.010 A 
ATOM     34  C   UNL A   1      36.953  29.306  30.042  1.00  0.00     0.010 A 
ATOM     35  C   UNL A   1      38.164  29.593  29.392  1.00  0.00    -0.014 A 
BRANCH  35  36
ATOM     36  C   UNL A   1      39.450  29.224  30.036  1.00  0.00     0.031 A 
ATOM     37  C   UNL A   1      39.955  30.007  31.218  1.00  0.00     0.074 A 
ATOM     38  C   UNL A   1      40.193  28.225  29.519  1.00  0.00     0.049 A 
ATOM     39  N   UNL A   1      41.085  29.885  31.867  1.00  0.00    -0.248 NA
ATOM     40  C   UNL A   1      39.087  31.084  31.720  1.00  0.00     0.031 C 
ATOM     41  C   UNL A   1      39.833  27.421  28.350  1.00  0.00     0.029 A 
ATOM     42  N   UNL A   1      41.411  27.722  29.905  1.00  0.00    -0.354 N 
ATOM     43  C   UNL A   1      41.070  30.876  32.843  1.00  0.00     0.074 A 
ATOM     44  C   UNL A   1      39.841  31.620  32.669  1.00  0.00     0.031 C 
ATOM     45  C   UNL A   1      40.799  26.514  28.125  1.00  0.00     0.029 A 
ATOM     46  C   UNL A   1      41.860  26.694  29.109  1.00  0.00     0.049 A 
ATOM     47  H   UNL A   1      41.914  28.065  30.677  1.00  0.00     0.167 HD
ATOM     48  C   UNL A   1      41.986  31.127  33.809  1.00  0.00     0.037 A 
ATOM     49  C   UNL A   1      43.002  25.982  29.164  1.00  0.00     0.037 A 
ATOM     50  C   UNL A   1      43.194  30.366  33.996  1.00  0.00     0.049 A 
ATOM     51  C   UNL A   1      44.003  26.277  30.248  1.00  0.00     0.074 A 
ATOM     52  C   UNL A   1      44.158  30.508  34.978  1.00  0.00     0.029 A 
ATOM     53  N   UNL A   1      43.602  29.317  33.184  1.00  0.00    -0.354 N 
ATOM     54  N   UNL A   1      43.947  27.183  31.196  1.00  0.00    -0.248 NA
ATOM     55  C   UNL A   1      45.218  25.452  30.276  1.00  0.00     0.031 C 
ATOM     56  C   UNL A   1      45.168  29.569  34.739  1.00  0.00     0.029 A 
ATOM     57  C   UNL A   1      44.812  28.813  33.635  1.00  0.00     0.049 A 
ATOM     58  H   UNL A   1      43.106  28.980  32.404  1.00  0.00     0.167 HD
ATOM     59  C   UNL A   1      45.106  27.018  31.947  1.00  0.00     0.074 A 
ATOM     60  C   UNL A   1      45.839  25.921  31.350  1.00  0.00     0.031 C 
ATOM     61  C   UNL A   1      45.524  27.714  33.034  1.00  0.00     0.037 A 
BRANCH  48  62
ATOM     62  C   UNL A   1      41.711  32.270  34.746  1.00  0.00     0.058 A 
ATOM     63  C   UNL A   1      40.948  32.098  35.911  1.00  0.00     0.135 A 
ATOM     64  C   UNL A   1      42.240  33.547  34.493  1.00  0.00     0.135 A 
ATOM     65  F   UNL A   1      40.405  30.903  36.195  1.00  0.00    -0.206 F 
ATOM     66  C   UNL A   1      40.692  33.157  36.778  1.00  0.00     0.059 A 
ATOM     67  C   UNL A   1      42.020  34.614  35.359  1.00  0.00     0.059 A 
ATOM     68  F   UNL A   1      42.977  33.767  33.393  1.00  0.00    -0.206 F 
ATOM     69  C   UNL A   1      41.231  34.412  36.491  1.00  0.00     0.060 A 
BRANCH  69  70
ATOM     70  S   UNL A   1      40.890  35.776  37.624  1.00  0.00     0.124 S 
ATOM     71  O   UNL A   1      40.505  35.057  38.835  1.00  0.00    -0.237 OA
ATOM     72  O   UNL A   1      42.174  36.467  37.679  1.00  0.00    -0.237 OA
ATOM     73  O   UNL A   1      39.815  36.508  36.961  1.00  0.00    -0.744 OA
ENDBRANCH  69  70
ENDBRANCH  48  62
BRANCH  49  74
ATOM     74  C   UNL A   1      43.253  24.901  28.173  1.00  0.00     0.058 A 
ATOM     75  C   UNL A   1      43.849  25.185  26.935  1.00  0.00     0.135 A 
ATOM     76  C   UNL A   1      42.912  23.568  28.444  1.00  0.00     0.135 A 
ATOM     77  F   UNL A   1      44.186  26.447  26.627  1.00  0.00    -0.206 F 
ATOM     78  C   UNL A   1      44.084  24.188  25.994  1.00  0.00     0.059 A 
ATOM     79  C   UNL A   1      43.159  22.550  27.529  1.00  0.00     0.059 A 
ATOM     80  F   UNL A   1      42.355  23.242  29.622  1.00  0.00    -0.206 F 
ATOM     81  C   UNL A   1      43.736  22.872  26.301  1.00  0.00     0.060 A 
BRANCH  81  82
ATOM     82  S   UNL A   1      44.086  21.578  25.090  1.00  0.00     0.124 S 
ATOM     83  O   UNL A   1      45.440  21.187  25.464  1.00  0.00    -0.237 OA
ATOM     84  O   UNL A   1      43.039  20.602  25.373  1.00  0.00    -0.237 OA
ATOM     85  O   UNL A   1      43.958  22.272  23.813  1.00  0.00    -0.744 OA
ENDBRANCH  81  82
ENDBRANCH  49  74
BRANCH  61  86
ATOM     86  C   UNL A   1      46.819  27.289  33.669  1.00  0.00     0.058 A 
ATOM     87  C   UNL A   1      46.862  26.297  34.659  1.00  0.00     0.135 A 
ATOM     88  C   UNL A   1      48.036  27.846  33.243  1.00  0.00     0.135 A 
ATOM     89  F   UNL A   1      45.727  25.737  35.106  1.00  0.00    -0.206 F 
ATOM     90  C   UNL A   1      48.066  25.884  35.221  1.00  0.00     0.059 A 
ATOM     91  C   UNL A   1      49.253  27.432  33.772  1.00  0.00     0.059 A 
ATOM     92  F   UNL A   1      48.049  28.793  32.291  1.00  0.00    -0.206 F 
ATOM     93  C   UNL A   1      49.258  26.458  34.770  1.00  0.00     0.060 A 
BRANCH  93  94
ATOM     94  S   UNL A   1      50.817  25.888  35.480  1.00  0.00     0.124 S 
ATOM     95  O   UNL A   1      51.772  26.300  34.457  1.00  0.00    -0.237 OA
ATOM     96  O   UNL A   1      50.877  26.626  36.738  1.00  0.00    -0.237 OA
ATOM     97  O   UNL A   1      50.622  24.448  35.615  1.00  0.00    -0.744 OA
ENDBRANCH  93  94
ENDBRANCH  61  86
ENDBRANCH  35  36
ENDBRANCH  27  30
ENDBRANCH  25  26
ENDBRANCH  24  25
ENDBRANCH   1  24
TORSDOF 19
ENDMDL
