MODEL 1
REMARK VINA RESULT:     -12.1      0.000      0.000
REMARK SMILES CCc1ccc(C[NH+]2CCC(Oc3ccccc3OC)(C(=O)NCCCCCCNC(=O)c3ccc(-c4c5nc(c(-c6c(F)cc(S(=O)(=O)[O-])cc6F)c6ccc([nH]6)c(-c6c(F)cc(S(=O)(=O)[O-])cc6F)c6nc(c(-c7c(F)cc(S(=O)(=O)[O-])cc7F)c7ccc4[nH]7)C=C6)C=C5)cc3)CC2)nc1
REMARK SMILES IDX 26 1 25 2 24 3 23 4 21 5 22 6 11 8 8 9 9 10 100 11 10 13
REMARK SMILES IDX 99 14 7 15 6 16 3 17 4 18 102 19 5 20 101 21 2 22 1 23 12 24
REMARK SMILES IDX 13 25 14 26 18 27 15 28 17 29 16 30 19 31 20 32 27 33 28 34
REMARK SMILES IDX 29 35 30 36 31 37 32 39 33 40 34 41 98 42 35 43 97 44 36 45
REMARK SMILES IDX 37 46 38 47 91 48 39 49 96 50 90 51 92 52 40 53 95 54 89 55
REMARK SMILES IDX 88 56 41 58 75 59 54 60 74 61 55 62 58 63 73 64 93 65 56 66
REMARK SMILES IDX 57 67 72 69 94 70 59 71 42 72 43 73 52 74 44 75 45 76 51 77
REMARK SMILES IDX 53 78 46 79 47 80 48 81 49 82 50 83 76 84 77 85 86 86 78 87
REMARK SMILES IDX 79 88 85 89 87 90 80 91 81 92 82 93 83 94 84 95 60 96 61 97
REMARK SMILES IDX 70 98 62 99 63 100 69 101 71 102 64 103 65 104 66 105 67 106
REMARK SMILES IDX 68 107
REMARK H PARENT 23 7 8 12 30 38 92 57 58 68
REMARK Flexibility Score: inf
ROOT
ATOM      1  C   UNL A   1      38.409  22.213  26.085  1.00  0.00     0.002 C 
ENDROOT
BRANCH   1   2
ATOM      2  C   UNL A   1      37.727  21.466  24.936  1.00  0.00     0.021 C 
BRANCH   2   3
ATOM      3  C   UNL A   1      36.402  20.803  25.304  1.00  0.00     0.116 C 
BRANCH   3   4
ATOM      4  N   UNL A   1      35.792  21.421  26.470  1.00  0.00    -0.353 N 
ATOM      5  C   UNL A   1      34.492  21.774  26.713  1.00  0.00     0.264 C 
ATOM      6  O   UNL A   1      34.240  22.127  27.871  1.00  0.00    -0.270 OA
ATOM      7  H   UNL A   1      36.417  21.617  27.206  1.00  0.00     0.163 HD
BRANCH   5   8
ATOM      8  C   UNL A   1      33.401  21.734  25.598  1.00  0.00     0.197 C 
ATOM      9  N   UNL A   1      33.027  24.501  24.619  1.00  0.00    -0.330 N 
ATOM     10  C   UNL A   1      34.250  23.755  24.311  1.00  0.00     0.267 C 
ATOM     11  C   UNL A   1      32.515  24.126  25.945  1.00  0.00     0.267 C 
ATOM     12  H   UNL A   1      32.324  24.245  23.926  1.00  0.00     0.348 HD
ATOM     13  C   UNL A   1      33.961  22.262  24.273  1.00  0.00     0.120 C 
ATOM     14  C   UNL A   1      32.201  22.621  26.006  1.00  0.00     0.120 C 
BRANCH   9  15
ATOM     15  C   UNL A   1      33.217  25.970  24.491  1.00  0.00     0.319 C 
BRANCH  15  16
ATOM     16  C   UNL A   1      31.949  26.795  24.328  1.00  0.00     0.095 A 
ATOM     17  C   UNL A   1      29.830  28.384  23.531  1.00  0.00    -0.030 A 
ATOM     18  C   UNL A   1      29.724  26.997  23.438  1.00  0.00     0.007 A 
ATOM     19  C   UNL A   1      31.002  28.887  24.094  1.00  0.00     0.115 A 
ATOM     20  C   UNL A   1      30.788  26.193  23.842  1.00  0.00     0.030 A 
ATOM     21  N   UNL A   1      32.045  28.133  24.505  1.00  0.00    -0.255 NA
BRANCH  17  22
ATOM     22  C   UNL A   1      28.808  29.354  22.999  1.00  0.00     0.034 C 
ATOM     23  C   UNL A   1      27.364  28.871  22.960  1.00  0.00     0.009 C 
ENDBRANCH  17  22
ENDBRANCH  15  16
ENDBRANCH   9  15
BRANCH   8  24
ATOM     24  O   UNL A   1      33.131  20.308  25.530  1.00  0.00    -0.473 OA
BRANCH  24  25
ATOM     25  C   UNL A   1      33.013  19.682  24.327  1.00  0.00     0.162 A 
ATOM     26  C   UNL A   1      32.301  20.324  23.311  1.00  0.00     0.050 A 
ATOM     27  C   UNL A   1      33.353  18.331  24.175  1.00  0.00     0.160 A 
ATOM     28  C   UNL A   1      32.024  19.667  22.113  1.00  0.00     0.004 A 
ATOM     29  C   UNL A   1      33.095  17.677  22.966  1.00  0.00     0.050 A 
ATOM     30  C   UNL A   1      32.445  18.351  21.929  1.00  0.00     0.004 A 
BRANCH  27  31
ATOM     31  O   UNL A   1      33.696  17.554  25.250  1.00  0.00    -0.493 OA
ATOM     32  C   UNL A   1      32.616  16.787  25.767  1.00  0.00     0.278 C 
ENDBRANCH  27  31
ENDBRANCH  24  25
ENDBRANCH   8  24
ENDBRANCH   5   8
ENDBRANCH   3   4
ENDBRANCH   2   3
ENDBRANCH   1   2
BRANCH   1  33
ATOM     33  C   UNL A   1      39.898  21.904  26.279  1.00  0.00     0.002 C 
BRANCH  33  34
ATOM     34  C   UNL A   1      40.486  22.297  27.637  1.00  0.00     0.021 C 
BRANCH  34  35
ATOM     35  C   UNL A   1      41.856  22.968  27.582  1.00  0.00     0.116 C 
BRANCH  35  36
ATOM     36  N   UNL A   1      42.030  23.760  26.376  1.00  0.00    -0.352 N 
ATOM     37  C   UNL A   1      41.833  25.102  26.171  1.00  0.00     0.251 C 
ATOM     38  H   UNL A   1      42.334  23.257  25.587  1.00  0.00     0.163 HD
ATOM     39  O   UNL A   1      41.840  25.545  25.027  1.00  0.00    -0.269 OA
BRANCH  37  40
ATOM     40  C   UNL A   1      41.603  26.014  27.316  1.00  0.00     0.039 A 
ATOM     41  C   UNL A   1      42.573  26.978  27.610  1.00  0.00     0.014 A 
ATOM     42  C   UNL A   1      40.471  25.894  28.127  1.00  0.00     0.014 A 
ATOM     43  C   UNL A   1      42.389  27.842  28.692  1.00  0.00     0.010 A 
ATOM     44  C   UNL A   1      40.258  26.799  29.166  1.00  0.00     0.010 A 
ATOM     45  C   UNL A   1      41.221  27.774  29.468  1.00  0.00    -0.014 A 
BRANCH  45  46
ATOM     46  C   UNL A   1      41.007  28.702  30.609  1.00  0.00     0.031 A 
ATOM     47  C   UNL A   1      41.855  28.592  31.848  1.00  0.00     0.074 A 
ATOM     48  C   UNL A   1      40.017  29.615  30.547  1.00  0.00     0.049 A 
ATOM     49  N   UNL A   1      41.797  29.289  32.953  1.00  0.00    -0.248 NA
ATOM     50  C   UNL A   1      42.888  27.543  31.855  1.00  0.00     0.031 C 
ATOM     51  C   UNL A   1      39.092  29.783  29.424  1.00  0.00     0.029 A 
ATOM     52  N   UNL A   1      39.619  30.568  31.451  1.00  0.00    -0.354 N 
ATOM     53  C   UNL A   1      42.769  28.756  33.792  1.00  0.00     0.074 A 
ATOM     54  C   UNL A   1      43.370  27.645  33.086  1.00  0.00     0.031 C 
ATOM     55  C   UNL A   1      38.248  30.790  29.698  1.00  0.00     0.029 A 
ATOM     56  C   UNL A   1      38.552  31.322  31.023  1.00  0.00     0.049 A 
ATOM     57  H   UNL A   1      40.057  30.699  32.322  1.00  0.00     0.167 HD
ATOM     58  C   UNL A   1      43.142  29.167  35.028  1.00  0.00     0.037 A 
ATOM     59  C   UNL A   1      37.892  32.327  31.631  1.00  0.00     0.037 A 
ATOM     60  C   UNL A   1      42.562  30.293  35.713  1.00  0.00     0.049 A 
ATOM     61  C   UNL A   1      38.343  32.786  32.989  1.00  0.00     0.074 A 
ATOM     62  C   UNL A   1      42.916  30.833  36.938  1.00  0.00     0.029 A 
ATOM     63  N   UNL A   1      41.506  31.055  35.232  1.00  0.00    -0.354 N 
ATOM     64  N   UNL A   1      39.313  32.315  33.739  1.00  0.00    -0.248 NA
ATOM     65  C   UNL A   1      37.623  33.922  33.581  1.00  0.00     0.031 C 
ATOM     66  C   UNL A   1      42.050  31.896  37.214  1.00  0.00     0.029 A 
ATOM     67  C   UNL A   1      41.185  32.048  36.143  1.00  0.00     0.049 A 
ATOM     68  H   UNL A   1      41.052  30.910  34.371  1.00  0.00     0.167 HD
ATOM     69  C   UNL A   1      39.333  33.112  34.878  1.00  0.00     0.074 A 
ATOM     70  C   UNL A   1      38.289  34.102  34.713  1.00  0.00     0.031 C 
ATOM     71  C   UNL A   1      40.144  33.029  35.962  1.00  0.00     0.037 A 
BRANCH  58  72
ATOM     72  C   UNL A   1      44.234  28.396  35.719  1.00  0.00     0.058 A 
ATOM     73  C   UNL A   1      45.590  28.710  35.530  1.00  0.00     0.135 A 
ATOM     74  C   UNL A   1      43.923  27.349  36.600  1.00  0.00     0.135 A 
ATOM     75  F   UNL A   1      45.947  29.694  34.688  1.00  0.00    -0.206 F 
ATOM     76  C   UNL A   1      46.599  27.992  36.165  1.00  0.00     0.059 A 
ATOM     77  C   UNL A   1      44.914  26.635  37.267  1.00  0.00     0.059 A 
ATOM     78  F   UNL A   1      42.643  27.007  36.818  1.00  0.00    -0.206 F 
ATOM     79  C   UNL A   1      46.251  26.953  37.028  1.00  0.00     0.060 A 
BRANCH  79  80
ATOM     80  S   UNL A   1      47.570  26.027  37.841  1.00  0.00     0.124 S 
ATOM     81  O   UNL A   1      46.869  25.478  38.998  1.00  0.00    -0.237 OA
ATOM     82  O   UNL A   1      47.954  25.061  36.816  1.00  0.00    -0.237 OA
ATOM     83  O   UNL A   1      48.570  27.048  38.139  1.00  0.00    -0.744 OA
ENDBRANCH  79  80
ENDBRANCH  58  72
BRANCH  59  84
ATOM     84  C   UNL A   1      36.753  32.986  30.939  1.00  0.00     0.058 A 
ATOM     85  C   UNL A   1      35.429  32.742  31.334  1.00  0.00     0.135 A 
ATOM     86  C   UNL A   1      36.965  33.889  29.886  1.00  0.00     0.135 A 
ATOM     87  F   UNL A   1      35.176  31.882  32.333  1.00  0.00    -0.206 F 
ATOM     88  C   UNL A   1      34.354  33.358  30.703  1.00  0.00     0.059 A 
ATOM     89  C   UNL A   1      35.908  34.536  29.255  1.00  0.00     0.059 A 
ATOM     90  F   UNL A   1      38.214  34.169  29.483  1.00  0.00    -0.206 F 
ATOM     91  C   UNL A   1      34.605  34.257  29.664  1.00  0.00     0.060 A 
BRANCH  91  92
ATOM     92  S   UNL A   1      33.206  35.095  28.888  1.00  0.00     0.124 S 
ATOM     93  O   UNL A   1      32.350  35.364  30.037  1.00  0.00    -0.237 OA
ATOM     94  O   UNL A   1      33.843  36.259  28.280  1.00  0.00    -0.237 OA
ATOM     95  O   UNL A   1      32.703  34.102  27.943  1.00  0.00    -0.744 OA
ENDBRANCH  91  92
ENDBRANCH  59  84
BRANCH  71  96
ATOM     96  C   UNL A   1      39.954  34.057  37.043  1.00  0.00     0.058 A 
ATOM     97  C   UNL A   1      40.598  35.304  36.996  1.00  0.00     0.135 A 
ATOM     98  C   UNL A   1      39.084  33.807  38.117  1.00  0.00     0.135 A 
ATOM     99  F   UNL A   1      41.443  35.590  35.993  1.00  0.00    -0.206 F 
ATOM    100  C   UNL A   1      40.408  36.256  37.992  1.00  0.00     0.059 A 
ATOM    101  C   UNL A   1      38.859  34.755  39.110  1.00  0.00     0.059 A 
ATOM    102  F   UNL A   1      38.435  32.635  38.202  1.00  0.00    -0.206 F 
ATOM    103  C   UNL A   1      39.538  35.972  39.046  1.00  0.00     0.060 A 
BRANCH 103 104
ATOM    104  S   UNL A   1      39.280  37.224  40.321  1.00  0.00     0.124 S 
ATOM    105  O   UNL A   1      38.496  38.221  39.600  1.00  0.00    -0.237 OA
ATOM    106  O   UNL A   1      38.564  36.480  41.352  1.00  0.00    -0.237 OA
ATOM    107  O   UNL A   1      40.636  37.629  40.677  1.00  0.00    -0.744 OA
ENDBRANCH 103 104
ENDBRANCH  71  96
ENDBRANCH  45  46
ENDBRANCH  37  40
ENDBRANCH  35  36
ENDBRANCH  34  35
ENDBRANCH  33  34
ENDBRANCH   1  33
TORSDOF 22
ENDMDL
MODEL 2
REMARK VINA RESULT:     -11.8      1.456      4.414
REMARK SMILES CCc1ccc(C[NH+]2CCC(Oc3ccccc3OC)(C(=O)NCCCCCCNC(=O)c3ccc(-c4c5nc(c(-c6c(F)cc(S(=O)(=O)[O-])cc6F)c6ccc([nH]6)c(-c6c(F)cc(S(=O)(=O)[O-])cc6F)c6nc(c(-c7c(F)cc(S(=O)(=O)[O-])cc7F)c7ccc4[nH]7)C=C6)C=C5)cc3)CC2)nc1
REMARK SMILES IDX 26 1 25 2 24 3 23 4 21 5 22 6 11 8 8 9 9 10 100 11 10 13
REMARK SMILES IDX 99 14 7 15 6 16 3 17 4 18 102 19 5 20 101 21 2 22 1 23 12 24
REMARK SMILES IDX 13 25 14 26 18 27 15 28 17 29 16 30 19 31 20 32 27 33 28 34
REMARK SMILES IDX 29 35 30 36 31 37 32 39 33 40 34 41 98 42 35 43 97 44 36 45
REMARK SMILES IDX 37 46 38 47 91 48 39 49 96 50 90 51 92 52 40 53 95 54 89 55
REMARK SMILES IDX 88 56 41 58 75 59 54 60 74 61 55 62 58 63 73 64 93 65 56 66
REMARK SMILES IDX 57 67 72 69 94 70 59 71 42 72 43 73 52 74 44 75 45 76 51 77
REMARK SMILES IDX 53 78 46 79 47 80 48 81 49 82 50 83 76 84 77 85 86 86 78 87
REMARK SMILES IDX 79 88 85 89 87 90 80 91 81 92 82 93 83 94 84 95 60 96 61 97
REMARK SMILES IDX 70 98 62 99 63 100 69 101 71 102 64 103 65 104 66 105 67 106
REMARK SMILES IDX 68 107
REMARK H PARENT 23 7 8 12 30 38 92 57 58 68
REMARK Flexibility Score: inf
ROOT
ATOM      1  C   UNL A   1      38.953  23.210  26.787  1.00  0.00     0.002 C 
ENDROOT
BRANCH   1   2
ATOM      2  C   UNL A   1      37.810  23.766  25.936  1.00  0.00     0.021 C 
BRANCH   2   3
ATOM      3  C   UNL A   1      36.705  22.762  25.618  1.00  0.00     0.116 C 
BRANCH   3   4
ATOM      4  N   UNL A   1      35.603  22.851  26.562  1.00  0.00    -0.353 N 
ATOM      5  C   UNL A   1      34.316  23.286  26.390  1.00  0.00     0.264 C 
ATOM      6  O   UNL A   1      33.550  23.084  27.340  1.00  0.00    -0.270 OA
ATOM      7  H   UNL A   1      35.817  22.549  27.474  1.00  0.00     0.163 HD
BRANCH   5   8
ATOM      8  C   UNL A   1      33.849  23.993  25.079  1.00  0.00     0.197 C 
ATOM      9  N   UNL A   1      32.433  21.978  23.438  1.00  0.00    -0.330 N 
ATOM     10  C   UNL A   1      31.832  22.501  24.667  1.00  0.00     0.267 C 
ATOM     11  C   UNL A   1      33.895  21.908  23.569  1.00  0.00     0.267 C 
ATOM     12  H   UNL A   1      32.216  22.630  22.684  1.00  0.00     0.348 HD
ATOM     13  C   UNL A   1      32.325  23.915  24.935  1.00  0.00     0.120 C 
ATOM     14  C   UNL A   1      34.488  23.299  23.853  1.00  0.00     0.120 C 
BRANCH   9  15
ATOM     15  C   UNL A   1      31.847  20.673  23.036  1.00  0.00     0.319 C 
BRANCH  15  16
ATOM     16  C   UNL A   1      32.502  19.435  23.632  1.00  0.00     0.095 A 
ATOM     17  C   UNL A   1      33.200  16.964  24.657  1.00  0.00    -0.030 A 
ATOM     18  C   UNL A   1      33.430  17.241  23.310  1.00  0.00     0.007 A 
ATOM     19  C   UNL A   1      32.680  18.000  25.431  1.00  0.00     0.115 A 
ATOM     20  C   UNL A   1      33.083  18.486  22.791  1.00  0.00     0.030 A 
ATOM     21  N   UNL A   1      32.344  19.221  24.959  1.00  0.00    -0.255 NA
BRANCH  17  22
ATOM     22  C   UNL A   1      33.403  15.615  25.296  1.00  0.00     0.034 C 
ATOM     23  C   UNL A   1      32.171  14.951  25.896  1.00  0.00     0.009 C 
ENDBRANCH  17  22
ENDBRANCH  15  16
ENDBRANCH   9  15
BRANCH   8  24
ATOM     24  O   UNL A   1      34.290  25.354  25.330  1.00  0.00    -0.473 OA
BRANCH  24  25
ATOM     25  C   UNL A   1      33.671  26.405  24.726  1.00  0.00     0.162 A 
ATOM     26  C   UNL A   1      33.905  26.621  23.365  1.00  0.00     0.050 A 
ATOM     27  C   UNL A   1      33.036  27.403  25.476  1.00  0.00     0.160 A 
ATOM     28  C   UNL A   1      33.416  27.763  22.732  1.00  0.00     0.004 A 
ATOM     29  C   UNL A   1      32.527  28.541  24.840  1.00  0.00     0.050 A 
ATOM     30  C   UNL A   1      32.704  28.711  23.465  1.00  0.00     0.004 A 
BRANCH  27  31
ATOM     31  O   UNL A   1      33.118  27.432  26.844  1.00  0.00    -0.493 OA
ATOM     32  C   UNL A   1      32.132  28.250  27.459  1.00  0.00     0.278 C 
ENDBRANCH  27  31
ENDBRANCH  24  25
ENDBRANCH   8  24
ENDBRANCH   5   8
ENDBRANCH   3   4
ENDBRANCH   2   3
ENDBRANCH   1   2
BRANCH   1  33
ATOM     33  C   UNL A   1      39.654  21.971  26.220  1.00  0.00     0.002 C 
BRANCH  33  34
ATOM     34  C   UNL A   1      41.161  21.885  26.475  1.00  0.00     0.021 C 
BRANCH  34  35
ATOM     35  C   UNL A   1      41.810  23.173  26.975  1.00  0.00     0.116 C 
BRANCH  35  36
ATOM     36  N   UNL A   1      42.246  24.027  25.884  1.00  0.00    -0.352 N 
ATOM     37  C   UNL A   1      42.241  25.395  25.783  1.00  0.00     0.251 C 
ATOM     38  H   UNL A   1      42.598  23.551  25.097  1.00  0.00     0.163 HD
ATOM     39  O   UNL A   1      42.464  25.920  24.696  1.00  0.00    -0.269 OA
BRANCH  37  40
ATOM     40  C   UNL A   1      41.962  26.237  26.968  1.00  0.00     0.039 A 
ATOM     41  C   UNL A   1      42.793  27.333  27.222  1.00  0.00     0.014 A 
ATOM     42  C   UNL A   1      40.925  25.928  27.854  1.00  0.00     0.014 A 
ATOM     43  C   UNL A   1      42.561  28.137  28.341  1.00  0.00     0.010 A 
ATOM     44  C   UNL A   1      40.655  26.769  28.933  1.00  0.00     0.010 A 
ATOM     45  C   UNL A   1      41.478  27.874  29.196  1.00  0.00    -0.014 A 
BRANCH  45  46
ATOM     46  C   UNL A   1      41.211  28.736  30.377  1.00  0.00     0.031 A 
ATOM     47  C   UNL A   1      42.037  28.588  31.628  1.00  0.00     0.074 A 
ATOM     48  C   UNL A   1      40.194  29.619  30.339  1.00  0.00     0.049 A 
ATOM     49  N   UNL A   1      41.933  29.226  32.766  1.00  0.00    -0.248 NA
ATOM     50  C   UNL A   1      43.102  27.573  31.605  1.00  0.00     0.031 C 
ATOM     51  C   UNL A   1      39.287  29.817  29.207  1.00  0.00     0.029 A 
ATOM     52  N   UNL A   1      39.747  30.512  31.282  1.00  0.00    -0.354 N 
ATOM     53  C   UNL A   1      42.904  28.680  33.597  1.00  0.00     0.074 A 
ATOM     54  C   UNL A   1      43.556  27.626  32.849  1.00  0.00     0.031 C 
ATOM     55  C   UNL A   1      38.406  30.781  29.512  1.00  0.00     0.029 A 
ATOM     56  C   UNL A   1      38.665  31.253  30.870  1.00  0.00     0.049 A 
ATOM     57  H   UNL A   1      40.162  30.611  32.169  1.00  0.00     0.167 HD
ATOM     58  C   UNL A   1      43.239  29.039  34.861  1.00  0.00     0.037 A 
ATOM     59  C   UNL A   1      37.961  32.205  31.512  1.00  0.00     0.037 A 
ATOM     60  C   UNL A   1      42.609  30.109  35.589  1.00  0.00     0.049 A 
ATOM     61  C   UNL A   1      38.370  32.608  32.902  1.00  0.00     0.074 A 
ATOM     62  C   UNL A   1      42.920  30.596  36.847  1.00  0.00     0.029 A 
ATOM     63  N   UNL A   1      41.539  30.862  35.124  1.00  0.00    -0.354 N 
ATOM     64  N   UNL A   1      39.338  32.129  33.648  1.00  0.00    -0.248 NA
ATOM     65  C   UNL A   1      37.602  33.689  33.534  1.00  0.00     0.031 C 
ATOM     66  C   UNL A   1      42.015  31.616  37.158  1.00  0.00     0.029 A 
ATOM     67  C   UNL A   1      41.168  31.797  36.077  1.00  0.00     0.049 A 
ATOM     68  H   UNL A   1      41.108  30.747  34.246  1.00  0.00     0.167 HD
ATOM     69  C   UNL A   1      39.309  32.866  34.827  1.00  0.00     0.074 A 
ATOM     70  C   UNL A   1      38.238  33.831  34.689  1.00  0.00     0.031 C 
ATOM     71  C   UNL A   1      40.100  32.753  35.923  1.00  0.00     0.037 A 
BRANCH  58  72
ATOM     72  C   UNL A   1      44.341  28.267  35.535  1.00  0.00     0.058 A 
ATOM     73  C   UNL A   1      45.687  28.650  35.417  1.00  0.00     0.135 A 
ATOM     74  C   UNL A   1      44.047  27.149  36.331  1.00  0.00     0.135 A 
ATOM     75  F   UNL A   1      46.027  29.704  34.658  1.00  0.00    -0.206 F 
ATOM     76  C   UNL A   1      46.705  27.932  36.037  1.00  0.00     0.059 A 
ATOM     77  C   UNL A   1      45.046  26.431  36.982  1.00  0.00     0.059 A 
ATOM     78  F   UNL A   1      42.777  26.739  36.479  1.00  0.00    -0.206 F 
ATOM     79  C   UNL A   1      46.375  26.821  36.814  1.00  0.00     0.060 A 
BRANCH  79  80
ATOM     80  S   UNL A   1      47.706  25.896  37.608  1.00  0.00     0.124 S 
ATOM     81  O   UNL A   1      48.691  26.948  37.842  1.00  0.00    -0.237 OA
ATOM     82  O   UNL A   1      47.053  25.363  38.799  1.00  0.00    -0.237 OA
ATOM     83  O   UNL A   1      48.076  24.903  36.604  1.00  0.00    -0.744 OA
ENDBRANCH  79  80
ENDBRANCH  58  72
BRANCH  59  84
ATOM     84  C   UNL A   1      36.816  32.864  30.830  1.00  0.00     0.058 A 
ATOM     85  C   UNL A   1      35.493  32.563  31.188  1.00  0.00     0.135 A 
ATOM     86  C   UNL A   1      37.021  33.821  29.825  1.00  0.00     0.135 A 
ATOM     87  F   UNL A   1      35.247  31.651  32.140  1.00  0.00    -0.206 F 
ATOM     88  C   UNL A   1      34.413  33.178  30.564  1.00  0.00     0.059 A 
ATOM     89  C   UNL A   1      35.957  34.467  29.203  1.00  0.00     0.059 A 
ATOM     90  F   UNL A   1      38.268  34.155  29.459  1.00  0.00    -0.206 F 
ATOM     91  C   UNL A   1      34.655  34.131  29.574  1.00  0.00     0.060 A 
BRANCH  91  92
ATOM     92  S   UNL A   1      33.247  34.965  28.810  1.00  0.00     0.124 S 
ATOM     93  O   UNL A   1      32.783  33.954  27.867  1.00  0.00    -0.237 OA
ATOM     94  O   UNL A   1      32.379  35.216  29.956  1.00  0.00    -0.237 OA
ATOM     95  O   UNL A   1      33.846  36.156  28.215  1.00  0.00    -0.744 OA
ENDBRANCH  91  92
ENDBRANCH  59  84
BRANCH  71  96
ATOM     96  C   UNL A   1      39.855  33.717  37.050  1.00  0.00     0.058 A 
ATOM     97  C   UNL A   1      38.975  33.415  38.101  1.00  0.00     0.135 A 
ATOM     98  C   UNL A   1      40.542  34.942  37.100  1.00  0.00     0.135 A 
ATOM     99  F   UNL A   1      38.291  32.260  38.098  1.00  0.00    -0.206 F 
ATOM    100  C   UNL A   1      38.763  34.306  39.148  1.00  0.00     0.059 A 
ATOM    101  C   UNL A   1      40.365  35.836  38.150  1.00  0.00     0.059 A 
ATOM    102  F   UNL A   1      41.404  35.274  36.126  1.00  0.00    -0.206 F 
ATOM    103  C   UNL A   1      39.461  35.514  39.163  1.00  0.00     0.060 A 
BRANCH 103 104
ATOM    104  S   UNL A   1      39.196  36.653  40.539  1.00  0.00     0.124 S 
ATOM    105  O   UNL A   1      40.550  36.807  41.059  1.00  0.00    -0.237 OA
ATOM    106  O   UNL A   1      38.635  37.825  39.874  1.00  0.00    -0.237 OA
ATOM    107  O   UNL A   1      38.269  35.929  41.405  1.00  0.00    -0.744 OA
ENDBRANCH 103 104
ENDBRANCH  71  96
ENDBRANCH  45  46
ENDBRANCH  37  40
ENDBRANCH  35  36
ENDBRANCH  34  35
ENDBRANCH  33  34
ENDBRANCH   1  33
TORSDOF 22
ENDMDL
MODEL 3
REMARK VINA RESULT:     -11.7      6.004      9.061
REMARK SMILES CCc1ccc(C[NH+]2CCC(Oc3ccccc3OC)(C(=O)NCCCCCCNC(=O)c3ccc(-c4c5nc(c(-c6c(F)cc(S(=O)(=O)[O-])cc6F)c6ccc([nH]6)c(-c6c(F)cc(S(=O)(=O)[O-])cc6F)c6nc(c(-c7c(F)cc(S(=O)(=O)[O-])cc7F)c7ccc4[nH]7)C=C6)C=C5)cc3)CC2)nc1
REMARK SMILES IDX 26 1 25 2 24 3 23 4 21 5 22 6 11 8 8 9 9 10 100 11 10 13
REMARK SMILES IDX 99 14 7 15 6 16 3 17 4 18 102 19 5 20 101 21 2 22 1 23 12 24
REMARK SMILES IDX 13 25 14 26 18 27 15 28 17 29 16 30 19 31 20 32 27 33 28 34
REMARK SMILES IDX 29 35 30 36 31 37 32 39 33 40 34 41 98 42 35 43 97 44 36 45
REMARK SMILES IDX 37 46 38 47 91 48 39 49 96 50 90 51 92 52 40 53 95 54 89 55
REMARK SMILES IDX 88 56 41 58 75 59 54 60 74 61 55 62 58 63 73 64 93 65 56 66
REMARK SMILES IDX 57 67 72 69 94 70 59 71 42 72 43 73 52 74 44 75 45 76 51 77
REMARK SMILES IDX 53 78 46 79 47 80 48 81 49 82 50 83 76 84 77 85 86 86 78 87
REMARK SMILES IDX 79 88 85 89 87 90 80 91 81 92 82 93 83 94 84 95 60 96 61 97
REMARK SMILES IDX 70 98 62 99 63 100 69 101 71 102 64 103 65 104 66 105 67 106
REMARK SMILES IDX 68 107
REMARK H PARENT 23 7 8 12 30 38 92 57 58 68
REMARK Flexibility Score: inf
ROOT
ATOM      1  C   UNL A   1      39.175  22.345  26.328  1.00  0.00     0.002 C 
ENDROOT
BRANCH   1   2
ATOM      2  C   UNL A   1      38.444  23.685  26.437  1.00  0.00     0.021 C 
BRANCH   2   3
ATOM      3  C   UNL A   1      37.113  23.749  25.692  1.00  0.00     0.116 C 
BRANCH   3   4
ATOM      4  N   UNL A   1      35.992  23.407  26.553  1.00  0.00    -0.353 N 
ATOM      5  C   UNL A   1      34.643  23.483  26.332  1.00  0.00     0.264 C 
ATOM      6  O   UNL A   1      33.928  22.957  27.193  1.00  0.00    -0.270 OA
ATOM      7  H   UNL A   1      36.246  23.065  27.441  1.00  0.00     0.163 HD
BRANCH   5   8
ATOM      8  C   UNL A   1      34.049  24.189  25.073  1.00  0.00     0.197 C 
ATOM      9  N   UNL A   1      32.468  22.178  23.586  1.00  0.00    -0.330 N 
ATOM     10  C   UNL A   1      31.996  22.705  24.869  1.00  0.00     0.267 C 
ATOM     11  C   UNL A   1      33.936  22.102  23.570  1.00  0.00     0.267 C 
ATOM     12  H   UNL A   1      32.178  22.829  22.857  1.00  0.00     0.348 HD
ATOM     13  C   UNL A   1      32.518  24.117  25.083  1.00  0.00     0.120 C 
ATOM     14  C   UNL A   1      34.559  23.491  23.790  1.00  0.00     0.120 C 
BRANCH   9  15
ATOM     15  C   UNL A   1      31.840  20.874  23.248  1.00  0.00     0.319 C 
BRANCH  15  16
ATOM     16  C   UNL A   1      32.521  19.637  23.815  1.00  0.00     0.095 A 
ATOM     17  C   UNL A   1      33.270  17.161  24.790  1.00  0.00    -0.030 A 
ATOM     18  C   UNL A   1      33.479  17.463  23.446  1.00  0.00     0.007 A 
ATOM     19  C   UNL A   1      32.743  18.175  25.588  1.00  0.00     0.115 A 
ATOM     20  C   UNL A   1      33.107  18.712  22.951  1.00  0.00     0.030 A 
ATOM     21  N   UNL A   1      32.383  19.399  25.140  1.00  0.00    -0.255 NA
BRANCH  17  22
ATOM     22  C   UNL A   1      33.502  15.805  25.404  1.00  0.00     0.034 C 
ATOM     23  C   UNL A   1      32.263  14.981  25.728  1.00  0.00     0.009 C 
ENDBRANCH  17  22
ENDBRANCH  15  16
ENDBRANCH   9  15
BRANCH   8  24
ATOM     24  O   UNL A   1      34.518  25.550  25.276  1.00  0.00    -0.473 OA
BRANCH  24  25
ATOM     25  C   UNL A   1      33.647  26.595  25.242  1.00  0.00     0.162 A 
ATOM     26  C   UNL A   1      32.915  26.886  26.396  1.00  0.00     0.050 A 
ATOM     27  C   UNL A   1      33.285  27.199  24.032  1.00  0.00     0.160 A 
ATOM     28  C   UNL A   1      31.905  27.849  26.372  1.00  0.00     0.004 A 
ATOM     29  C   UNL A   1      32.287  28.179  24.010  1.00  0.00     0.050 A 
ATOM     30  C   UNL A   1      31.609  28.514  25.185  1.00  0.00     0.004 A 
BRANCH  27  31
ATOM     31  O   UNL A   1      33.689  26.687  22.827  1.00  0.00    -0.493 OA
ATOM     32  C   UNL A   1      32.615  26.320  21.972  1.00  0.00     0.278 C 
ENDBRANCH  27  31
ENDBRANCH  24  25
ENDBRANCH   8  24
ENDBRANCH   5   8
ENDBRANCH   3   4
ENDBRANCH   2   3
ENDBRANCH   1   2
BRANCH   1  33
ATOM     33  C   UNL A   1      38.535  21.322  25.383  1.00  0.00     0.002 C 
BRANCH  33  34
ATOM     34  C   UNL A   1      39.170  19.928  25.387  1.00  0.00     0.021 C 
BRANCH  34  35
ATOM     35  C   UNL A   1      40.143  19.660  26.533  1.00  0.00     0.116 C 
BRANCH  35  36
ATOM     36  N   UNL A   1      41.299  18.894  26.101  1.00  0.00    -0.352 N 
ATOM     37  C   UNL A   1      42.556  19.321  25.754  1.00  0.00     0.251 C 
ATOM     38  H   UNL A   1      41.159  17.920  26.048  1.00  0.00     0.163 HD
ATOM     39  O   UNL A   1      43.334  18.536  25.222  1.00  0.00    -0.269 OA
BRANCH  37  40
ATOM     40  C   UNL A   1      42.974  20.719  26.009  1.00  0.00     0.039 A 
ATOM     41  C   UNL A   1      42.942  21.199  27.323  1.00  0.00     0.014 A 
ATOM     42  C   UNL A   1      43.345  21.570  24.965  1.00  0.00     0.014 A 
ATOM     43  C   UNL A   1      43.318  22.518  27.590  1.00  0.00     0.010 A 
ATOM     44  C   UNL A   1      43.782  22.865  25.241  1.00  0.00     0.010 A 
ATOM     45  C   UNL A   1      43.760  23.357  26.555  1.00  0.00    -0.014 A 
BRANCH  45  46
ATOM     46  C   UNL A   1      44.181  24.755  26.833  1.00  0.00     0.031 A 
ATOM     47  C   UNL A   1      45.620  25.164  26.663  1.00  0.00     0.074 A 
ATOM     48  C   UNL A   1      43.274  25.645  27.284  1.00  0.00     0.049 A 
ATOM     49  N   UNL A   1      46.180  26.324  26.885  1.00  0.00    -0.248 NA
ATOM     50  C   UNL A   1      46.556  24.124  26.206  1.00  0.00     0.031 C 
ATOM     51  C   UNL A   1      41.862  25.356  27.543  1.00  0.00     0.029 A 
ATOM     52  N   UNL A   1      43.407  26.972  27.612  1.00  0.00    -0.354 N 
ATOM     53  C   UNL A   1      47.533  26.152  26.614  1.00  0.00     0.074 A 
ATOM     54  C   UNL A   1      47.717  24.762  26.256  1.00  0.00     0.031 C 
ATOM     55  C   UNL A   1      41.257  26.475  27.970  1.00  0.00     0.029 A 
ATOM     56  C   UNL A   1      42.239  27.553  28.042  1.00  0.00     0.049 A 
ATOM     57  H   UNL A   1      44.260  27.459  27.545  1.00  0.00     0.167 HD
ATOM     58  C   UNL A   1      48.528  27.072  26.638  1.00  0.00     0.037 A 
ATOM     59  C   UNL A   1      41.987  28.812  28.450  1.00  0.00     0.037 A 
ATOM     60  C   UNL A   1      48.333  28.462  26.964  1.00  0.00     0.049 A 
ATOM     61  C   UNL A   1      43.099  29.824  28.440  1.00  0.00     0.074 A 
ATOM     62  C   UNL A   1      49.262  29.488  26.951  1.00  0.00     0.029 A 
ATOM     63  N   UNL A   1      47.127  29.021  27.361  1.00  0.00    -0.354 N 
ATOM     64  N   UNL A   1      44.359  29.660  28.111  1.00  0.00    -0.248 NA
ATOM     65  C   UNL A   1      42.756  31.194  28.841  1.00  0.00     0.031 C 
ATOM     66  C   UNL A   1      48.626  30.659  27.376  1.00  0.00     0.029 A 
ATOM     67  C   UNL A   1      47.292  30.374  27.612  1.00  0.00     0.049 A 
ATOM     68  H   UNL A   1      46.279  28.529  27.451  1.00  0.00     0.167 HD
ATOM     69  C   UNL A   1      44.952  30.910  28.244  1.00  0.00     0.074 A 
ATOM     70  C   UNL A   1      43.911  31.823  28.668  1.00  0.00     0.031 C 
ATOM     71  C   UNL A   1      46.243  31.270  28.031  1.00  0.00     0.037 A 
BRANCH  58  72
ATOM     72  C   UNL A   1      49.917  26.606  26.298  1.00  0.00     0.058 A 
ATOM     73  C   UNL A   1      50.738  25.980  27.251  1.00  0.00     0.135 A 
ATOM     74  C   UNL A   1      50.426  26.760  24.999  1.00  0.00     0.135 A 
ATOM     75  F   UNL A   1      50.308  25.818  28.513  1.00  0.00    -0.206 F 
ATOM     76  C   UNL A   1      52.025  25.555  26.937  1.00  0.00     0.059 A 
ATOM     77  C   UNL A   1      51.700  26.318  24.655  1.00  0.00     0.059 A 
ATOM     78  F   UNL A   1      49.684  27.351  24.049  1.00  0.00    -0.206 F 
ATOM     79  C   UNL A   1      52.498  25.732  25.636  1.00  0.00     0.060 A 
BRANCH  79  80
ATOM     80  S   UNL A   1      54.172  25.180  25.244  1.00  0.00     0.124 S 
ATOM     81  O   UNL A   1      54.475  25.987  24.065  1.00  0.00    -0.237 OA
ATOM     82  O   UNL A   1      54.910  25.526  26.455  1.00  0.00    -0.237 OA
ATOM     83  O   UNL A   1      54.011  23.750  25.001  1.00  0.00    -0.744 OA
ENDBRANCH  79  80
ENDBRANCH  58  72
BRANCH  59  84
ATOM     84  C   UNL A   1      40.612  29.191  28.871  1.00  0.00     0.058 A 
ATOM     85  C   UNL A   1      39.614  29.456  27.922  1.00  0.00     0.135 A 
ATOM     86  C   UNL A   1      40.263  29.272  30.228  1.00  0.00     0.135 A 
ATOM     87  F   UNL A   1      39.901  29.396  26.613  1.00  0.00    -0.206 F 
ATOM     88  C   UNL A   1      38.321  29.802  28.301  1.00  0.00     0.059 A 
ATOM     89  C   UNL A   1      38.971  29.593  30.632  1.00  0.00     0.059 A 
ATOM     90  F   UNL A   1      41.178  29.011  31.174  1.00  0.00    -0.206 F 
ATOM     91  C   UNL A   1      38.009  29.866  29.660  1.00  0.00     0.060 A 
BRANCH  91  92
ATOM     92  S   UNL A   1      36.314  30.261  30.142  1.00  0.00     0.124 S 
ATOM     93  O   UNL A   1      35.556  29.720  29.019  1.00  0.00    -0.237 OA
ATOM     94  O   UNL A   1      36.179  29.546  31.407  1.00  0.00    -0.237 OA
ATOM     95  O   UNL A   1      36.328  31.716  30.252  1.00  0.00    -0.744 OA
ENDBRANCH  91  92
ENDBRANCH  59  84
BRANCH  71  96
ATOM     96  C   UNL A   1      46.595  32.718  28.227  1.00  0.00     0.058 A 
ATOM     97  C   UNL A   1      46.431  33.662  27.201  1.00  0.00     0.135 A 
ATOM     98  C   UNL A   1      47.063  33.174  29.470  1.00  0.00     0.135 A 
ATOM     99  F   UNL A   1      45.991  33.276  25.993  1.00  0.00    -0.206 F 
ATOM    100  C   UNL A   1      46.745  35.004  27.393  1.00  0.00     0.059 A 
ATOM    101  C   UNL A   1      47.359  34.515  29.692  1.00  0.00     0.059 A 
ATOM    102  F   UNL A   1      47.226  32.314  30.488  1.00  0.00    -0.206 F 
ATOM    103  C   UNL A   1      47.210  35.420  28.641  1.00  0.00     0.060 A 
BRANCH 103 104
ATOM    104  S   UNL A   1      47.593  37.168  28.886  1.00  0.00     0.124 S 
ATOM    105  O   UNL A   1      48.979  37.104  29.338  1.00  0.00    -0.237 OA
ATOM    106  O   UNL A   1      47.386  37.724  27.553  1.00  0.00    -0.237 OA
ATOM    107  O   UNL A   1      46.624  37.590  29.892  1.00  0.00    -0.744 OA
ENDBRANCH 103 104
ENDBRANCH  71  96
ENDBRANCH  45  46
ENDBRANCH  37  40
ENDBRANCH  35  36
ENDBRANCH  34  35
ENDBRANCH  33  34
ENDBRANCH   1  33
TORSDOF 22
ENDMDL
