MODEL 1
REMARK VINA RESULT:     -12.5      0.000      0.000
REMARK SMILES COc1ccc(/C=C/C(=O)Nc2cc(Cl)ccc2C(=O)NCCCCCCNC(=O)c2ccc(-c3c4nc(c(-c5c(F)cc(S(=O)(=O)[O-])cc5F)c5ccc([nH]5)c(-c5c(F)cc(S(=O)(=O)[O-])cc5F)c5nc(c(-c6c(F)cc(S(=O)(=O)[O-])cc6F)c6ccc3[nH]6)C=C5)C=C4)cc2)cc1
REMARK SMILES IDX 24 1 23 2 22 3 21 4 19 5 20 6 18 8 12 9 13 10 14 11 17 12
REMARK SMILES IDX 15 13 16 14 11 15 9 16 10 17 8 19 7 20 6 21 3 22 4 23 98 24
REMARK SMILES IDX 5 25 97 26 2 27 1 28 25 29 26 30 27 31 28 32 29 33 30 35
REMARK SMILES IDX 31 36 32 37 96 38 33 39 95 40 34 41 35 42 36 43 89 44 37 45
REMARK SMILES IDX 94 46 88 47 90 48 38 49 93 50 87 51 86 52 39 54 73 55 52 56
REMARK SMILES IDX 72 57 53 58 56 59 71 60 91 61 54 62 55 63 70 65 92 66 57 67
REMARK SMILES IDX 40 68 41 69 50 70 42 71 43 72 49 73 51 74 44 75 45 76 46 77
REMARK SMILES IDX 47 78 48 79 74 80 75 81 84 82 76 83 77 84 83 85 85 86 78 87
REMARK SMILES IDX 79 88 80 89 81 90 82 91 58 92 59 93 68 94 60 95 61 96 67 97
REMARK SMILES IDX 69 98 62 99 63 100 64 101 65 102 66 103
REMARK H PARENT 21 7 11 18 28 34 90 53 56 64
REMARK Flexibility Score: inf
ROOT
ATOM      1  C   UNL A   1      37.627  21.883  25.222  1.00  0.00     0.002 C 
ENDROOT
BRANCH   1   2
ATOM      2  C   UNL A   1      36.415  20.966  25.004  1.00  0.00     0.021 C 
BRANCH   2   3
ATOM      3  C   UNL A   1      35.211  21.233  25.896  1.00  0.00     0.116 C 
BRANCH   3   4
ATOM      4  N   UNL A   1      34.060  20.403  25.627  1.00  0.00    -0.352 N 
ATOM      5  C   UNL A   1      32.952  20.632  24.850  1.00  0.00     0.253 C 
ATOM      6  O   UNL A   1      32.128  19.717  24.773  1.00  0.00    -0.269 OA
ATOM      7  H   UNL A   1      34.073  19.526  26.076  1.00  0.00     0.163 HD
BRANCH   5   8
ATOM      8  C   UNL A   1      32.631  21.941  24.186  1.00  0.00     0.063 A 
ATOM      9  C   UNL A   1      31.531  22.802  24.385  1.00  0.00     0.055 A 
ATOM     10  C   UNL A   1      31.328  23.872  23.486  1.00  0.00     0.047 A 
ATOM     11  C   UNL A   1      32.282  24.200  22.527  1.00  0.00     0.043 A 
ATOM     12  C   UNL A   1      33.592  22.315  23.213  1.00  0.00     0.017 A 
ATOM     13  Cl  UNL A   1      32.057  25.585  21.532  1.00  0.00    -0.084 Cl
ATOM     14  C   UNL A   1      33.436  23.446  22.410  1.00  0.00     0.021 A 
BRANCH   9  15
ATOM     15  N   UNL A   1      30.609  22.816  25.456  1.00  0.00    -0.322 N 
ATOM     16  C   UNL A   1      30.515  23.599  26.573  1.00  0.00     0.248 C 
ATOM     17  O   UNL A   1      29.675  23.334  27.431  1.00  0.00    -0.270 OA
ATOM     18  H   UNL A   1      29.902  22.135  25.385  1.00  0.00     0.170 HD
BRANCH  16  19
ATOM     19  C   UNL A   1      31.422  24.741  26.779  1.00  0.00     0.072 C 
ATOM     20  C   UNL A   1      31.058  25.980  26.424  1.00  0.00     0.014 C 
BRANCH  20  21
ATOM     21  C   UNL A   1      31.920  27.161  26.494  1.00  0.00    -0.025 A 
ATOM     22  C   UNL A   1      33.508  29.433  26.879  1.00  0.00     0.118 A 
ATOM     23  C   UNL A   1      34.025  28.327  26.209  1.00  0.00     0.047 A 
ATOM     24  C   UNL A   1      32.175  29.443  27.284  1.00  0.00     0.047 A 
ATOM     25  C   UNL A   1      33.237  27.187  26.027  1.00  0.00     0.012 A 
ATOM     26  C   UNL A   1      31.389  28.308  27.099  1.00  0.00     0.012 A 
BRANCH  22  27
ATOM     27  O   UNL A   1      34.365  30.480  27.089  1.00  0.00    -0.497 OA
ATOM     28  C   UNL A   1      35.628  30.059  27.604  1.00  0.00     0.278 C 
ENDBRANCH  22  27
ENDBRANCH  20  21
ENDBRANCH  16  19
ENDBRANCH   9  15
ENDBRANCH   5   8
ENDBRANCH   3   4
ENDBRANCH   2   3
ENDBRANCH   1   2
BRANCH   1  29
ATOM     29  C   UNL A   1      37.383  23.398  25.202  1.00  0.00     0.002 C 
BRANCH  29  30
ATOM     30  C   UNL A   1      38.114  24.236  26.254  1.00  0.00     0.021 C 
BRANCH  30  31
ATOM     31  C   UNL A   1      39.397  23.638  26.817  1.00  0.00     0.116 C 
BRANCH  31  32
ATOM     32  N   UNL A   1      40.582  24.013  26.067  1.00  0.00    -0.352 N 
ATOM     33  C   UNL A   1      41.452  25.058  26.263  1.00  0.00     0.251 C 
ATOM     34  H   UNL A   1      40.794  23.431  25.302  1.00  0.00     0.163 HD
ATOM     35  O   UNL A   1      42.331  25.277  25.438  1.00  0.00    -0.269 OA
BRANCH  33  36
ATOM     36  C   UNL A   1      41.313  25.934  27.450  1.00  0.00     0.039 A 
ATOM     37  C   UNL A   1      42.191  27.012  27.590  1.00  0.00     0.014 A 
ATOM     38  C   UNL A   1      40.344  25.694  28.427  1.00  0.00     0.014 A 
ATOM     39  C   UNL A   1      42.062  27.876  28.679  1.00  0.00     0.010 A 
ATOM     40  C   UNL A   1      40.164  26.602  29.469  1.00  0.00     0.010 A 
ATOM     41  C   UNL A   1      41.027  27.698  29.613  1.00  0.00    -0.014 A 
BRANCH  41  42
ATOM     42  C   UNL A   1      40.841  28.655  30.734  1.00  0.00     0.031 A 
ATOM     43  C   UNL A   1      41.693  28.559  31.973  1.00  0.00     0.074 A 
ATOM     44  C   UNL A   1      39.871  29.587  30.655  1.00  0.00     0.049 A 
ATOM     45  N   UNL A   1      41.672  29.303  33.048  1.00  0.00    -0.248 NA
ATOM     46  C   UNL A   1      42.675  27.464  32.021  1.00  0.00     0.031 C 
ATOM     47  C   UNL A   1      38.938  29.740  29.536  1.00  0.00     0.029 A 
ATOM     48  N   UNL A   1      39.505  30.582  31.527  1.00  0.00    -0.354 N 
ATOM     49  C   UNL A   1      42.628  28.763  33.902  1.00  0.00     0.074 A 
ATOM     50  C   UNL A   1      43.165  27.591  33.245  1.00  0.00     0.031 C 
ATOM     51  C   UNL A   1      38.131  30.785  29.774  1.00  0.00     0.029 A 
ATOM     52  C   UNL A   1      38.461  31.356  31.077  1.00  0.00     0.049 A 
ATOM     53  H   UNL A   1      39.948  30.727  32.395  1.00  0.00     0.167 HD
ATOM     54  C   UNL A   1      43.039  29.218  35.111  1.00  0.00     0.037 A 
ATOM     55  C   UNL A   1      37.838  32.405  31.646  1.00  0.00     0.037 A 
ATOM     56  C   UNL A   1      42.508  30.396  35.748  1.00  0.00     0.049 A 
ATOM     57  C   UNL A   1      38.316  32.901  32.983  1.00  0.00     0.074 A 
ATOM     58  C   UNL A   1      42.900  30.980  36.940  1.00  0.00     0.029 A 
ATOM     59  N   UNL A   1      41.465  31.165  35.252  1.00  0.00    -0.354 N 
ATOM     60  N   UNL A   1      39.279  32.429  33.740  1.00  0.00    -0.248 NA
ATOM     61  C   UNL A   1      37.634  34.077  33.540  1.00  0.00     0.031 C 
ATOM     62  C   UNL A   1      42.056  32.066  37.192  1.00  0.00     0.029 A 
ATOM     63  C   UNL A   1      41.180  32.200  36.127  1.00  0.00     0.049 A 
ATOM     64  H   UNL A   1      40.995  30.998  34.402  1.00  0.00     0.167 HD
ATOM     65  C   UNL A   1      39.337  33.267  34.849  1.00  0.00     0.074 A 
ATOM     66  C   UNL A   1      38.319  34.279  34.658  1.00  0.00     0.031 C 
ATOM     67  C   UNL A   1      40.161  33.203  35.924  1.00  0.00     0.037 A 
BRANCH  54  68
ATOM     68  C   UNL A   1      44.109  28.433  35.825  1.00  0.00     0.058 A 
ATOM     69  C   UNL A   1      45.476  28.690  35.625  1.00  0.00     0.135 A 
ATOM     70  C   UNL A   1      43.765  27.420  36.735  1.00  0.00     0.135 A 
ATOM     71  F   UNL A   1      45.868  29.639  34.759  1.00  0.00    -0.206 F 
ATOM     72  C   UNL A   1      46.460  27.943  36.266  1.00  0.00     0.059 A 
ATOM     73  C   UNL A   1      44.732  26.683  37.413  1.00  0.00     0.059 A 
ATOM     74  F   UNL A   1      42.474  27.132  36.970  1.00  0.00    -0.206 F 
ATOM     75  C   UNL A   1      46.078  26.939  37.155  1.00  0.00     0.060 A 
BRANCH  75  76
ATOM     76  S   UNL A   1      47.367  25.967  37.964  1.00  0.00     0.124 S 
ATOM     77  O   UNL A   1      48.434  26.015  36.971  1.00  0.00    -0.237 OA
ATOM     78  O   UNL A   1      47.606  26.725  39.189  1.00  0.00    -0.237 OA
ATOM     79  O   UNL A   1      46.743  24.661  38.151  1.00  0.00    -0.744 OA
ENDBRANCH  75  76
ENDBRANCH  54  68
BRANCH  55  80
ATOM     80  C   UNL A   1      36.717  33.072  30.930  1.00  0.00     0.058 A 
ATOM     81  C   UNL A   1      35.383  32.838  31.295  1.00  0.00     0.135 A 
ATOM     82  C   UNL A   1      36.958  33.990  29.896  1.00  0.00     0.135 A 
ATOM     83  F   UNL A   1      35.099  31.963  32.273  1.00  0.00    -0.206 F 
ATOM     84  C   UNL A   1      34.328  33.485  30.659  1.00  0.00     0.059 A 
ATOM     85  C   UNL A   1      35.922  34.671  29.263  1.00  0.00     0.059 A 
ATOM     86  F   UNL A   1      38.218  34.261  29.519  1.00  0.00    -0.206 F 
ATOM     87  C   UNL A   1      34.609  34.407  29.649  1.00  0.00     0.060 A 
BRANCH  87  88
ATOM     88  S   UNL A   1      33.236  35.292  28.879  1.00  0.00     0.124 S 
ATOM     89  O   UNL A   1      33.935  36.345  28.152  1.00  0.00    -0.237 OA
ATOM     90  O   UNL A   1      32.621  34.250  28.063  1.00  0.00    -0.237 OA
ATOM     91  O   UNL A   1      32.440  35.734  30.021  1.00  0.00    -0.744 OA
ENDBRANCH  87  88
ENDBRANCH  55  80
BRANCH  67  92
ATOM     92  C   UNL A   1      40.024  34.279  36.968  1.00  0.00     0.058 A 
ATOM     93  C   UNL A   1      40.717  35.496  36.875  1.00  0.00     0.135 A 
ATOM     94  C   UNL A   1      39.141  34.109  38.047  1.00  0.00     0.135 A 
ATOM     95  F   UNL A   1      41.577  35.710  35.867  1.00  0.00    -0.206 F 
ATOM     96  C   UNL A   1      40.558  36.497  37.829  1.00  0.00     0.059 A 
ATOM     97  C   UNL A   1      38.943  35.108  38.995  1.00  0.00     0.059 A 
ATOM     98  F   UNL A   1      38.444  32.969  38.179  1.00  0.00    -0.206 F 
ATOM     99  C   UNL A   1      39.666  36.295  38.883  1.00  0.00     0.060 A 
BRANCH  99 100
ATOM    100  S   UNL A   1      39.444  37.616  40.094  1.00  0.00     0.124 S 
ATOM    101  O   UNL A   1      38.369  38.394  39.487  1.00  0.00    -0.237 OA
ATOM    102  O   UNL A   1      39.087  36.875  41.301  1.00  0.00    -0.237 OA
ATOM    103  O   UNL A   1      40.748  38.268  40.130  1.00  0.00    -0.744 OA
ENDBRANCH  99 100
ENDBRANCH  67  92
ENDBRANCH  41  42
ENDBRANCH  33  36
ENDBRANCH  31  32
ENDBRANCH  30  31
ENDBRANCH  29  30
ENDBRANCH   1  29
TORSDOF 20
ENDMDL
MODEL 2
REMARK VINA RESULT:     -11.9      2.118      2.743
REMARK SMILES COc1ccc(/C=C/C(=O)Nc2cc(Cl)ccc2C(=O)NCCCCCCNC(=O)c2ccc(-c3c4nc(c(-c5c(F)cc(S(=O)(=O)[O-])cc5F)c5ccc([nH]5)c(-c5c(F)cc(S(=O)(=O)[O-])cc5F)c5nc(c(-c6c(F)cc(S(=O)(=O)[O-])cc6F)c6ccc3[nH]6)C=C5)C=C4)cc2)cc1
REMARK SMILES IDX 24 1 23 2 22 3 21 4 19 5 20 6 18 8 12 9 13 10 14 11 17 12
REMARK SMILES IDX 15 13 16 14 11 15 9 16 10 17 8 19 7 20 6 21 3 22 4 23 98 24
REMARK SMILES IDX 5 25 97 26 2 27 1 28 25 29 26 30 27 31 28 32 29 33 30 35
REMARK SMILES IDX 31 36 32 37 96 38 33 39 95 40 34 41 35 42 36 43 89 44 37 45
REMARK SMILES IDX 94 46 88 47 90 48 38 49 93 50 87 51 86 52 39 54 73 55 52 56
REMARK SMILES IDX 72 57 53 58 56 59 71 60 91 61 54 62 55 63 70 65 92 66 57 67
REMARK SMILES IDX 40 68 41 69 50 70 42 71 43 72 49 73 51 74 44 75 45 76 46 77
REMARK SMILES IDX 47 78 48 79 74 80 75 81 84 82 76 83 77 84 83 85 85 86 78 87
REMARK SMILES IDX 79 88 80 89 81 90 82 91 58 92 59 93 68 94 60 95 61 96 67 97
REMARK SMILES IDX 69 98 62 99 63 100 64 101 65 102 66 103
REMARK H PARENT 21 7 11 18 28 34 90 53 56 64
REMARK Flexibility Score: inf
ROOT
ATOM      1  C   UNL A   1      36.341  22.958  24.565  1.00  0.00     0.002 C 
ENDROOT
BRANCH   1   2
ATOM      2  C   UNL A   1      35.195  21.938  24.498  1.00  0.00     0.021 C 
BRANCH   2   3
ATOM      3  C   UNL A   1      34.283  21.882  25.715  1.00  0.00     0.116 C 
BRANCH   3   4
ATOM      4  N   UNL A   1      32.875  22.018  25.425  1.00  0.00    -0.352 N 
ATOM      5  C   UNL A   1      32.123  23.129  25.134  1.00  0.00     0.253 C 
ATOM      6  O   UNL A   1      30.928  22.944  24.890  1.00  0.00    -0.269 OA
ATOM      7  H   UNL A   1      32.370  21.172  25.437  1.00  0.00     0.163 HD
BRANCH   5   8
ATOM      8  C   UNL A   1      32.629  24.542  25.198  1.00  0.00     0.063 A 
ATOM      9  C   UNL A   1      33.347  25.283  24.235  1.00  0.00     0.055 A 
ATOM     10  C   UNL A   1      33.907  26.525  24.605  1.00  0.00     0.047 A 
ATOM     11  C   UNL A   1      33.613  27.112  25.833  1.00  0.00     0.043 A 
ATOM     12  C   UNL A   1      32.331  25.177  26.430  1.00  0.00     0.017 A 
ATOM     13  Cl  UNL A   1      34.213  28.682  26.198  1.00  0.00    -0.084 Cl
ATOM     14  C   UNL A   1      32.794  26.459  26.736  1.00  0.00     0.021 A 
BRANCH   9  15
ATOM     15  N   UNL A   1      33.519  25.002  22.861  1.00  0.00    -0.322 N 
ATOM     16  C   UNL A   1      33.015  25.592  21.736  1.00  0.00     0.248 C 
ATOM     17  O   UNL A   1      33.225  25.082  20.636  1.00  0.00    -0.270 OA
ATOM     18  H   UNL A   1      34.115  24.240  22.680  1.00  0.00     0.170 HD
BRANCH  16  19
ATOM     19  C   UNL A   1      32.200  26.816  21.820  1.00  0.00     0.072 C 
ATOM     20  C   UNL A   1      31.071  26.840  22.540  1.00  0.00     0.014 C 
BRANCH  20  21
ATOM     21  C   UNL A   1      30.141  27.969  22.607  1.00  0.00    -0.025 A 
ATOM     22  C   UNL A   1      28.424  30.176  22.491  1.00  0.00     0.118 A 
ATOM     23  C   UNL A   1      27.971  28.967  23.014  1.00  0.00     0.047 A 
ATOM     24  C   UNL A   1      29.755  30.313  22.103  1.00  0.00     0.047 A 
ATOM     25  C   UNL A   1      28.824  27.861  23.062  1.00  0.00     0.012 A 
ATOM     26  C   UNL A   1      30.606  29.211  22.153  1.00  0.00     0.012 A 
BRANCH  22  27
ATOM     27  O   UNL A   1      27.509  31.190  22.402  1.00  0.00    -0.497 OA
ATOM     28  C   UNL A   1      27.980  32.287  21.621  1.00  0.00     0.278 C 
ENDBRANCH  22  27
ENDBRANCH  20  21
ENDBRANCH  16  19
ENDBRANCH   9  15
ENDBRANCH   5   8
ENDBRANCH   3   4
ENDBRANCH   2   3
ENDBRANCH   1   2
BRANCH   1  29
ATOM     29  C   UNL A   1      37.490  22.669  25.540  1.00  0.00     0.002 C 
BRANCH  29  30
ATOM     30  C   UNL A   1      38.224  23.875  26.131  1.00  0.00     0.021 C 
BRANCH  30  31
ATOM     31  C   UNL A   1      39.564  23.587  26.799  1.00  0.00     0.116 C 
BRANCH  31  32
ATOM     32  N   UNL A   1      40.702  24.035  26.017  1.00  0.00    -0.352 N 
ATOM     33  C   UNL A   1      41.516  25.127  26.196  1.00  0.00     0.251 C 
ATOM     34  H   UNL A   1      40.924  23.470  25.242  1.00  0.00     0.163 HD
ATOM     35  O   UNL A   1      42.356  25.401  25.347  1.00  0.00    -0.269 OA
BRANCH  33  36
ATOM     36  C   UNL A   1      41.361  25.987  27.393  1.00  0.00     0.039 A 
ATOM     37  C   UNL A   1      42.246  27.054  27.566  1.00  0.00     0.014 A 
ATOM     38  C   UNL A   1      40.371  25.740  28.347  1.00  0.00     0.014 A 
ATOM     39  C   UNL A   1      42.104  27.902  28.666  1.00  0.00     0.010 A 
ATOM     40  C   UNL A   1      40.179  26.634  29.399  1.00  0.00     0.010 A 
ATOM     41  C   UNL A   1      41.049  27.720  29.576  1.00  0.00    -0.014 A 
BRANCH  41  42
ATOM     42  C   UNL A   1      40.850  28.662  30.708  1.00  0.00     0.031 A 
ATOM     43  C   UNL A   1      41.691  28.552  31.953  1.00  0.00     0.074 A 
ATOM     44  C   UNL A   1      39.878  29.592  30.632  1.00  0.00     0.049 A 
ATOM     45  N   UNL A   1      41.659  29.282  33.038  1.00  0.00    -0.248 NA
ATOM     46  C   UNL A   1      42.676  27.460  31.996  1.00  0.00     0.031 C 
ATOM     47  C   UNL A   1      38.955  29.756  29.507  1.00  0.00     0.029 A 
ATOM     48  N   UNL A   1      39.501  30.574  31.514  1.00  0.00    -0.354 N 
ATOM     49  C   UNL A   1      42.609  28.734  33.893  1.00  0.00     0.074 A 
ATOM     50  C   UNL A   1      43.155  27.573  33.226  1.00  0.00     0.031 C 
ATOM     51  C   UNL A   1      38.142  30.796  29.752  1.00  0.00     0.029 A 
ATOM     52  C   UNL A   1      38.459  31.350  31.065  1.00  0.00     0.049 A 
ATOM     53  H   UNL A   1      39.936  30.710  32.388  1.00  0.00     0.167 HD
ATOM     54  C   UNL A   1      43.008  29.174  35.112  1.00  0.00     0.037 A 
ATOM     55  C   UNL A   1      37.828  32.391  31.642  1.00  0.00     0.037 A 
ATOM     56  C   UNL A   1      42.467  30.342  35.759  1.00  0.00     0.049 A 
ATOM     57  C   UNL A   1      38.292  32.870  32.990  1.00  0.00     0.074 A 
ATOM     58  C   UNL A   1      42.847  30.913  36.962  1.00  0.00     0.029 A 
ATOM     59  N   UNL A   1      41.426  31.114  35.264  1.00  0.00    -0.354 N 
ATOM     60  N   UNL A   1      39.250  32.392  33.749  1.00  0.00    -0.248 NA
ATOM     61  C   UNL A   1      37.601  34.036  33.556  1.00  0.00     0.031 C 
ATOM     62  C   UNL A   1      41.997  31.992  37.221  1.00  0.00     0.029 A 
ATOM     63  C   UNL A   1      41.130  32.137  36.150  1.00  0.00     0.049 A 
ATOM     64  H   UNL A   1      40.965  30.958  34.407  1.00  0.00     0.167 HD
ATOM     65  C   UNL A   1      39.295  33.215  34.869  1.00  0.00     0.074 A 
ATOM     66  C   UNL A   1      38.275  34.227  34.682  1.00  0.00     0.031 C 
ATOM     67  C   UNL A   1      40.110  33.140  35.951  1.00  0.00     0.037 A 
BRANCH  54  68
ATOM     68  C   UNL A   1      44.073  28.384  35.824  1.00  0.00     0.058 A 
ATOM     69  C   UNL A   1      45.441  28.646  35.638  1.00  0.00     0.135 A 
ATOM     70  C   UNL A   1      43.725  27.359  36.721  1.00  0.00     0.135 A 
ATOM     71  F   UNL A   1      45.838  29.605  34.786  1.00  0.00    -0.206 F 
ATOM     72  C   UNL A   1      46.423  27.894  36.278  1.00  0.00     0.059 A 
ATOM     73  C   UNL A   1      44.689  26.617  37.397  1.00  0.00     0.059 A 
ATOM     74  F   UNL A   1      42.433  27.066  36.943  1.00  0.00    -0.206 F 
ATOM     75  C   UNL A   1      46.035  26.878  37.153  1.00  0.00     0.060 A 
BRANCH  75  76
ATOM     76  S   UNL A   1      47.320  25.901  37.961  1.00  0.00     0.124 S 
ATOM     77  O   UNL A   1      46.568  24.723  38.381  1.00  0.00    -0.237 OA
ATOM     78  O   UNL A   1      48.278  25.689  36.880  1.00  0.00    -0.237 OA
ATOM     79  O   UNL A   1      47.781  26.768  39.040  1.00  0.00    -0.744 OA
ENDBRANCH  75  76
ENDBRANCH  54  68
BRANCH  55  80
ATOM     80  C   UNL A   1      36.710  33.063  30.925  1.00  0.00     0.058 A 
ATOM     81  C   UNL A   1      35.376  32.848  31.299  1.00  0.00     0.135 A 
ATOM     82  C   UNL A   1      36.957  33.967  29.880  1.00  0.00     0.135 A 
ATOM     83  F   UNL A   1      35.086  31.986  32.287  1.00  0.00    -0.206 F 
ATOM     84  C   UNL A   1      34.325  33.501  30.662  1.00  0.00     0.059 A 
ATOM     85  C   UNL A   1      35.926  34.654  29.246  1.00  0.00     0.059 A 
ATOM     86  F   UNL A   1      38.218  34.221  29.495  1.00  0.00    -0.206 F 
ATOM     87  C   UNL A   1      34.612  34.409  29.641  1.00  0.00     0.060 A 
BRANCH  87  88
ATOM     88  S   UNL A   1      33.245  35.302  28.869  1.00  0.00     0.124 S 
ATOM     89  O   UNL A   1      32.466  35.711  30.032  1.00  0.00    -0.237 OA
ATOM     90  O   UNL A   1      33.941  36.369  28.157  1.00  0.00    -0.237 OA
ATOM     91  O   UNL A   1      32.624  34.292  28.016  1.00  0.00    -0.744 OA
ENDBRANCH  87  88
ENDBRANCH  55  80
BRANCH  67  92
ATOM     92  C   UNL A   1      39.960  34.201  37.007  1.00  0.00     0.058 A 
ATOM     93  C   UNL A   1      40.613  35.440  36.913  1.00  0.00     0.135 A 
ATOM     94  C   UNL A   1      39.103  33.995  38.101  1.00  0.00     0.135 A 
ATOM     95  F   UNL A   1      41.447  35.689  35.891  1.00  0.00    -0.206 F 
ATOM     96  C   UNL A   1      40.442  36.427  37.879  1.00  0.00     0.059 A 
ATOM     97  C   UNL A   1      38.893  34.979  39.062  1.00  0.00     0.059 A 
ATOM     98  F   UNL A   1      38.444  32.832  38.235  1.00  0.00    -0.206 F 
ATOM     99  C   UNL A   1      39.577  36.188  38.948  1.00  0.00     0.060 A 
BRANCH  99 100
ATOM    100  S   UNL A   1      39.338  37.490  40.175  1.00  0.00     0.124 S 
ATOM    101  O   UNL A   1      38.418  38.385  39.481  1.00  0.00    -0.237 OA
ATOM    102  O   UNL A   1      38.775  36.755  41.304  1.00  0.00    -0.237 OA
ATOM    103  O   UNL A   1      40.684  38.013  40.385  1.00  0.00    -0.744 OA
ENDBRANCH  99 100
ENDBRANCH  67  92
ENDBRANCH  41  42
ENDBRANCH  33  36
ENDBRANCH  31  32
ENDBRANCH  30  31
ENDBRANCH  29  30
ENDBRANCH   1  29
TORSDOF 20
ENDMDL
MODEL 3
REMARK VINA RESULT:     -11.7      6.291     11.694
REMARK SMILES COc1ccc(/C=C/C(=O)Nc2cc(Cl)ccc2C(=O)NCCCCCCNC(=O)c2ccc(-c3c4nc(c(-c5c(F)cc(S(=O)(=O)[O-])cc5F)c5ccc([nH]5)c(-c5c(F)cc(S(=O)(=O)[O-])cc5F)c5nc(c(-c6c(F)cc(S(=O)(=O)[O-])cc6F)c6ccc3[nH]6)C=C5)C=C4)cc2)cc1
REMARK SMILES IDX 24 1 23 2 22 3 21 4 19 5 20 6 18 8 12 9 13 10 14 11 17 12
REMARK SMILES IDX 15 13 16 14 11 15 9 16 10 17 8 19 7 20 6 21 3 22 4 23 98 24
REMARK SMILES IDX 5 25 97 26 2 27 1 28 25 29 26 30 27 31 28 32 29 33 30 35
REMARK SMILES IDX 31 36 32 37 96 38 33 39 95 40 34 41 35 42 36 43 89 44 37 45
REMARK SMILES IDX 94 46 88 47 90 48 38 49 93 50 87 51 86 52 39 54 73 55 52 56
REMARK SMILES IDX 72 57 53 58 56 59 71 60 91 61 54 62 55 63 70 65 92 66 57 67
REMARK SMILES IDX 40 68 41 69 50 70 42 71 43 72 49 73 51 74 44 75 45 76 46 77
REMARK SMILES IDX 47 78 48 79 74 80 75 81 84 82 76 83 77 84 83 85 85 86 78 87
REMARK SMILES IDX 79 88 80 89 81 90 82 91 58 92 59 93 68 94 60 95 61 96 67 97
REMARK SMILES IDX 69 98 62 99 63 100 64 101 65 102 66 103
REMARK H PARENT 21 7 11 18 28 34 90 53 56 64
REMARK Flexibility Score: inf
ROOT
ATOM      1  C   UNL A   1      32.412  29.672  26.719  1.00  0.00     0.002 C 
ENDROOT
BRANCH   1   2
ATOM      2  C   UNL A   1      31.907  29.986  25.304  1.00  0.00     0.021 C 
BRANCH   2   3
ATOM      3  C   UNL A   1      31.787  28.798  24.361  1.00  0.00     0.116 C 
BRANCH   3   4
ATOM      4  N   UNL A   1      30.452  28.541  23.874  1.00  0.00    -0.352 N 
ATOM      5  C   UNL A   1      29.723  27.380  23.826  1.00  0.00     0.253 C 
ATOM      6  O   UNL A   1      28.574  27.461  23.382  1.00  0.00    -0.269 OA
ATOM      7  H   UNL A   1      29.986  29.333  23.517  1.00  0.00     0.163 HD
BRANCH   5   8
ATOM      8  C   UNL A   1      30.260  26.020  24.172  1.00  0.00     0.063 A 
ATOM      9  C   UNL A   1      30.919  25.080  23.350  1.00  0.00     0.055 A 
ATOM     10  C   UNL A   1      31.138  23.776  23.844  1.00  0.00     0.047 A 
ATOM     11  C   UNL A   1      30.885  23.455  25.175  1.00  0.00     0.043 A 
ATOM     12  C   UNL A   1      30.034  25.667  25.526  1.00  0.00     0.017 A 
ATOM     13  Cl  UNL A   1      31.280  21.891  25.771  1.00  0.00    -0.084 Cl
ATOM     14  C   UNL A   1      30.366  24.410  26.032  1.00  0.00     0.021 A 
BRANCH   9  15
ATOM     15  N   UNL A   1      31.508  25.282  22.082  1.00  0.00    -0.322 N 
ATOM     16  C   UNL A   1      32.722  24.920  21.568  1.00  0.00     0.248 C 
ATOM     17  O   UNL A   1      33.054  25.322  20.454  1.00  0.00    -0.270 OA
ATOM     18  H   UNL A   1      30.937  25.775  21.450  1.00  0.00     0.170 HD
BRANCH  16  19
ATOM     19  C   UNL A   1      33.653  24.079  22.339  1.00  0.00     0.072 C 
ATOM     20  C   UNL A   1      34.349  24.586  23.365  1.00  0.00     0.014 C 
BRANCH  20  21
ATOM     21  C   UNL A   1      35.368  23.864  24.127  1.00  0.00    -0.025 A 
ATOM     22  C   UNL A   1      37.472  22.512  25.383  1.00  0.00     0.118 A 
ATOM     23  C   UNL A   1      36.793  23.524  26.057  1.00  0.00     0.047 A 
ATOM     24  C   UNL A   1      37.052  22.115  24.115  1.00  0.00     0.047 A 
ATOM     25  C   UNL A   1      35.750  24.208  25.427  1.00  0.00     0.012 A 
ATOM     26  C   UNL A   1      36.010  22.795  23.489  1.00  0.00     0.012 A 
BRANCH  22  27
ATOM     27  O   UNL A   1      38.533  21.943  26.034  1.00  0.00    -0.497 OA
ATOM     28  C   UNL A   1      39.405  22.914  26.613  1.00  0.00     0.278 C 
ENDBRANCH  22  27
ENDBRANCH  20  21
ENDBRANCH  16  19
ENDBRANCH   9  15
ENDBRANCH   5   8
ENDBRANCH   3   4
ENDBRANCH   2   3
ENDBRANCH   1   2
BRANCH   1  29
ATOM     29  C   UNL A   1      33.324  30.707  27.392  1.00  0.00     0.002 C 
BRANCH  29  30
ATOM     30  C   UNL A   1      34.759  30.276  27.705  1.00  0.00     0.021 C 
BRANCH  30  31
ATOM     31  C   UNL A   1      35.597  31.260  28.511  1.00  0.00     0.116 C 
BRANCH  31  32
ATOM     32  N   UNL A   1      35.484  31.068  29.946  1.00  0.00    -0.352 N 
ATOM     33  C   UNL A   1      36.364  30.490  30.828  1.00  0.00     0.251 C 
ATOM     34  H   UNL A   1      34.649  31.403  30.347  1.00  0.00     0.163 HD
ATOM     35  O   UNL A   1      36.027  30.313  31.991  1.00  0.00    -0.269 OA
BRANCH  33  36
ATOM     36  C   UNL A   1      37.705  30.057  30.369  1.00  0.00     0.039 A 
ATOM     37  C   UNL A   1      38.018  30.182  29.013  1.00  0.00     0.014 A 
ATOM     38  C   UNL A   1      38.642  29.516  31.253  1.00  0.00     0.014 A 
ATOM     39  C   UNL A   1      39.285  29.815  28.556  1.00  0.00     0.010 A 
ATOM     40  C   UNL A   1      39.932  29.228  30.811  1.00  0.00     0.010 A 
ATOM     41  C   UNL A   1      40.266  29.364  29.456  1.00  0.00    -0.014 A 
BRANCH  41  42
ATOM     42  C   UNL A   1      41.638  29.041  28.987  1.00  0.00     0.031 A 
ATOM     43  C   UNL A   1      42.703  30.105  28.943  1.00  0.00     0.074 A 
ATOM     44  C   UNL A   1      41.914  27.794  28.556  1.00  0.00     0.049 A 
ATOM     45  N   UNL A   1      43.952  30.008  28.564  1.00  0.00    -0.248 NA
ATOM     46  C   UNL A   1      42.306  31.461  29.351  1.00  0.00     0.031 C 
ATOM     47  C   UNL A   1      40.949  26.694  28.488  1.00  0.00     0.029 A 
ATOM     48  N   UNL A   1      43.081  27.238  28.095  1.00  0.00    -0.354 N 
ATOM     49  C   UNL A   1      44.484  31.288  28.678  1.00  0.00     0.074 A 
ATOM     50  C   UNL A   1      43.406  32.155  29.101  1.00  0.00     0.031 C 
ATOM     51  C   UNL A   1      41.571  25.589  28.045  1.00  0.00     0.029 A 
ATOM     52  C   UNL A   1      42.967  25.909  27.762  1.00  0.00     0.049 A 
ATOM     53  H   UNL A   1      43.922  27.745  28.008  1.00  0.00     0.167 HD
ATOM     54  C   UNL A   1      45.760  31.697  28.474  1.00  0.00     0.037 A 
ATOM     55  C   UNL A   1      43.881  25.044  27.282  1.00  0.00     0.037 A 
ATOM     56  C   UNL A   1      46.828  30.820  28.068  1.00  0.00     0.049 A 
ATOM     57  C   UNL A   1      45.294  25.515  27.073  1.00  0.00     0.074 A 
ATOM     58  C   UNL A   1      48.169  31.119  27.898  1.00  0.00     0.029 A 
ATOM     59  N   UNL A   1      46.678  29.475  27.759  1.00  0.00    -0.354 N 
ATOM     60  N   UNL A   1      45.800  26.710  27.266  1.00  0.00    -0.248 NA
ATOM     61  C   UNL A   1      46.262  24.521  26.592  1.00  0.00     0.031 C 
ATOM     62  C   UNL A   1      48.817  29.971  27.430  1.00  0.00     0.029 A 
ATOM     63  C   UNL A   1      47.894  28.939  27.371  1.00  0.00     0.049 A 
ATOM     64  H   UNL A   1      45.830  28.976  27.808  1.00  0.00     0.167 HD
ATOM     65  C   UNL A   1      47.153  26.605  26.957  1.00  0.00     0.074 A 
ATOM     66  C   UNL A   1      47.385  25.227  26.575  1.00  0.00     0.031 C 
ATOM     67  C   UNL A   1      48.112  27.562  26.992  1.00  0.00     0.037 A 
BRANCH  54  68
ATOM     68  C   UNL A   1      46.065  33.157  28.679  1.00  0.00     0.058 A 
ATOM     69  C   UNL A   1      45.845  34.111  27.670  1.00  0.00     0.135 A 
ATOM     70  C   UNL A   1      46.570  33.617  29.907  1.00  0.00     0.135 A 
ATOM     71  F   UNL A   1      45.375  33.732  26.471  1.00  0.00    -0.206 F 
ATOM     72  C   UNL A   1      46.155  35.455  27.856  1.00  0.00     0.059 A 
ATOM     73  C   UNL A   1      46.855  34.962  30.127  1.00  0.00     0.059 A 
ATOM     74  F   UNL A   1      46.796  32.753  30.910  1.00  0.00    -0.206 F 
ATOM     75  C   UNL A   1      46.664  35.870  29.087  1.00  0.00     0.060 A 
BRANCH  75  76
ATOM     76  S   UNL A   1      47.077  37.613  29.305  1.00  0.00     0.124 S 
ATOM     77  O   UNL A   1      48.463  37.643  28.850  1.00  0.00    -0.237 OA
ATOM     78  O   UNL A   1      46.110  38.275  28.435  1.00  0.00    -0.237 OA
ATOM     79  O   UNL A   1      46.882  37.834  30.734  1.00  0.00    -0.744 OA
ENDBRANCH  75  76
ENDBRANCH  54  68
BRANCH  55  80
ATOM     80  C   UNL A   1      43.485  23.637  27.002  1.00  0.00     0.058 A 
ATOM     81  C   UNL A   1      43.270  22.723  28.045  1.00  0.00     0.135 A 
ATOM     82  C   UNL A   1      43.269  23.190  25.689  1.00  0.00     0.135 A 
ATOM     83  F   UNL A   1      43.470  23.099  29.318  1.00  0.00    -0.206 F 
ATOM     84  C   UNL A   1      42.861  21.416  27.797  1.00  0.00     0.059 A 
ATOM     85  C   UNL A   1      42.833  21.897  25.417  1.00  0.00     0.059 A 
ATOM     86  F   UNL A   1      43.445  24.030  24.656  1.00  0.00    -0.206 F 
ATOM     87  C   UNL A   1      42.638  21.015  26.478  1.00  0.00     0.060 A 
BRANCH  87  88
ATOM     88  S   UNL A   1      42.040  19.338  26.174  1.00  0.00     0.124 S 
ATOM     89  O   UNL A   1      42.750  18.990  24.949  1.00  0.00    -0.237 OA
ATOM     90  O   UNL A   1      42.466  18.639  27.382  1.00  0.00    -0.237 OA
ATOM     91  O   UNL A   1      40.597  19.516  26.039  1.00  0.00    -0.744 OA
ENDBRANCH  87  88
ENDBRANCH  55  80
BRANCH  67  92
ATOM     92  C   UNL A   1      49.516  27.150  26.639  1.00  0.00     0.058 A 
ATOM     93  C   UNL A   1      50.443  26.758  27.618  1.00  0.00     0.135 A 
ATOM     94  C   UNL A   1      49.920  27.092  25.294  1.00  0.00     0.135 A 
ATOM     95  F   UNL A   1      50.112  26.799  28.918  1.00  0.00    -0.206 F 
ATOM     96  C   UNL A   1      51.729  26.347  27.278  1.00  0.00     0.059 A 
ATOM     97  C   UNL A   1      51.190  26.655  24.931  1.00  0.00     0.059 A 
ATOM     98  F   UNL A   1      49.070  27.445  24.317  1.00  0.00    -0.206 F 
ATOM     99  C   UNL A   1      52.091  26.296  25.931  1.00  0.00     0.060 A 
BRANCH  99 100
ATOM    100  S   UNL A   1      53.751  25.729  25.503  1.00  0.00     0.124 S 
ATOM    101  O   UNL A   1      54.464  26.992  25.353  1.00  0.00    -0.237 OA
ATOM    102  O   UNL A   1      54.117  24.928  26.668  1.00  0.00    -0.237 OA
ATOM    103  O   UNL A   1      53.545  24.973  24.271  1.00  0.00    -0.744 OA
ENDBRANCH  99 100
ENDBRANCH  67  92
ENDBRANCH  41  42
ENDBRANCH  33  36
ENDBRANCH  31  32
ENDBRANCH  30  31
ENDBRANCH  29  30
ENDBRANCH   1  29
TORSDOF 20
ENDMDL
