MODEL 1
REMARK VINA RESULT:     -10.8      0.000      0.000
REMARK SMILES CCCc1cc(OC(F)(F)F)cc2c1O[C@@H](C(F)(F)F)C(C(=O)NCCCCCCNC(=O)c1ccc(-c3c4nc(c(-c5c(F)cc(S(=O)(=O)[O-])cc5F)c5ccc([nH]5)c(-c5c(F)cc(S(=O)(=O)[O-])cc5F)c5nc(c(-c6c(F)cc(S(=O)(=O)[O-])cc6F)c6ccc3[nH]6)C=C5)C=C4)cc1)=C2
REMARK SMILES IDX 28 1 27 2 26 3 25 4 24 5 22 6 23 7 21 9 4 10 5 11 14 12 6 13
REMARK SMILES IDX 13 14 15 15 12 16 100 17 16 18 3 19 2 20 1 21 7 22 8 23 9 24
REMARK SMILES IDX 10 25 11 26 17 27 18 28 19 29 20 30 29 31 30 32 31 33 32 34
REMARK SMILES IDX 33 36 34 37 35 38 99 39 36 40 98 41 37 42 38 43 39 44 92 45
REMARK SMILES IDX 40 46 97 47 91 48 93 49 41 50 96 51 90 52 89 53 42 55 76 56
REMARK SMILES IDX 55 57 75 58 56 59 59 60 74 61 94 62 57 63 58 64 73 66 95 67
REMARK SMILES IDX 60 68 43 69 44 70 53 71 45 72 46 73 52 74 54 75 47 76 48 77
REMARK SMILES IDX 49 78 50 79 51 80 77 81 78 82 87 83 79 84 80 85 86 86 88 87
REMARK SMILES IDX 81 88 82 89 83 90 84 91 85 92 61 93 62 94 71 95 63 96 64 97
REMARK SMILES IDX 70 98 72 99 65 100 66 101 67 102 68 103 69 104
REMARK H PARENT 24 8 31 35 93 54 59 65
REMARK Flexibility Score: inf
ROOT
ATOM      1  C   UNL A   1      39.085  23.004  26.481  1.00  0.00     0.002 C 
ENDROOT
BRANCH   1   2
ATOM      2  C   UNL A   1      38.088  22.191  25.647  1.00  0.00     0.002 C 
BRANCH   2   3
ATOM      3  C   UNL A   1      36.618  22.375  26.050  1.00  0.00     0.021 C 
BRANCH   3   4
ATOM      4  C   UNL A   1      35.735  22.876  24.900  1.00  0.00     0.116 C 
BRANCH   4   5
ATOM      5  N   UNL A   1      34.382  22.375  25.078  1.00  0.00    -0.352 N 
ATOM      6  C   UNL A   1      33.198  22.993  25.320  1.00  0.00     0.251 C 
ATOM      7  O   UNL A   1      32.241  22.297  25.651  1.00  0.00    -0.270 OA
ATOM      8  H   UNL A   1      34.311  21.395  25.008  1.00  0.00     0.163 HD
BRANCH   6   9
ATOM      9  C   UNL A   1      32.995  24.451  25.117  1.00  0.00     0.067 C 
ATOM     10  C   UNL A   1      32.740  28.538  24.121  1.00  0.00    -0.002 A 
ATOM     11  C   UNL A   1      32.978  29.486  25.132  1.00  0.00     0.054 A 
ATOM     12  C   UNL A   1      32.798  27.173  24.462  1.00  0.00     0.131 A 
ATOM     13  C   UNL A   1      33.338  29.096  26.423  1.00  0.00     0.130 A 
ATOM     14  C   UNL A   1      33.103  26.773  25.762  1.00  0.00     0.021 A 
ATOM     15  O   UNL A   1      32.620  26.267  23.452  1.00  0.00    -0.475 OA
ATOM     16  C   UNL A   1      33.383  27.737  26.735  1.00  0.00     0.058 A 
ATOM     17  C   UNL A   1      33.235  25.357  26.076  1.00  0.00     0.025 C 
ATOM     18  C   UNL A   1      32.346  24.881  23.807  1.00  0.00     0.314 C 
BRANCH  10  19
ATOM     19  C   UNL A   1      32.402  28.932  22.694  1.00  0.00     0.039 C 
BRANCH  19  20
ATOM     20  C   UNL A   1      30.964  29.361  22.370  1.00  0.00     0.001 C 
ATOM     21  C   UNL A   1      29.909  28.386  22.876  1.00  0.00     0.004 C 
ENDBRANCH  19  20
ENDBRANCH  10  19
BRANCH  13  22
ATOM     22  O   UNL A   1      33.677  29.925  27.454  1.00  0.00    -0.406 OA
BRANCH  22  23
ATOM     23  C   UNL A   1      35.056  30.178  27.674  1.00  0.00     0.573 C 
ATOM     24  F   UNL A   1      35.431  29.825  28.923  1.00  0.00    -0.132 F 
ATOM     25  F   UNL A   1      35.810  29.511  26.775  1.00  0.00    -0.132 F 
ATOM     26  F   UNL A   1      35.287  31.499  27.523  1.00  0.00    -0.132 F 
ENDBRANCH  22  23
ENDBRANCH  13  22
BRANCH  18  27
ATOM     27  C   UNL A   1      32.649  24.030  22.552  1.00  0.00     0.429 C 
ATOM     28  F   UNL A   1      32.300  24.647  21.400  1.00  0.00    -0.167 F 
ATOM     29  F   UNL A   1      33.988  23.801  22.438  1.00  0.00    -0.167 F 
ATOM     30  F   UNL A   1      32.051  22.818  22.585  1.00  0.00    -0.167 F 
ENDBRANCH  18  27
ENDBRANCH   6   9
ENDBRANCH   4   5
ENDBRANCH   3   4
ENDBRANCH   2   3
ENDBRANCH   1   2
BRANCH   1  31
ATOM     31  C   UNL A   1      40.321  22.226  26.942  1.00  0.00     0.021 C 
BRANCH  31  32
ATOM     32  C   UNL A   1      41.529  23.101  27.264  1.00  0.00     0.116 C 
BRANCH  32  33
ATOM     33  N   UNL A   1      41.878  23.959  26.143  1.00  0.00    -0.352 N 
ATOM     34  C   UNL A   1      41.811  25.327  26.045  1.00  0.00     0.251 C 
ATOM     35  H   UNL A   1      42.208  23.494  25.341  1.00  0.00     0.163 HD
ATOM     36  O   UNL A   1      41.903  25.866  24.947  1.00  0.00    -0.269 OA
BRANCH  34  37
ATOM     37  C   UNL A   1      41.624  26.143  27.263  1.00  0.00     0.039 A 
ATOM     38  C   UNL A   1      42.577  27.113  27.583  1.00  0.00     0.014 A 
ATOM     39  C   UNL A   1      40.523  25.935  28.101  1.00  0.00     0.014 A 
ATOM     40  C   UNL A   1      42.402  27.905  28.719  1.00  0.00     0.010 A 
ATOM     41  C   UNL A   1      40.316  26.771  29.194  1.00  0.00     0.010 A 
ATOM     42  C   UNL A   1      41.257  27.758  29.521  1.00  0.00    -0.014 A 
BRANCH  42  43
ATOM     43  C   UNL A   1      41.036  28.624  30.706  1.00  0.00     0.031 A 
ATOM     44  C   UNL A   1      39.939  29.657  30.694  1.00  0.00     0.074 A 
ATOM     45  C   UNL A   1      41.858  28.521  31.768  1.00  0.00     0.049 A 
ATOM     46  N   UNL A   1      39.627  30.539  31.607  1.00  0.00    -0.248 NA
ATOM     47  C   UNL A   1      39.101  29.724  29.485  1.00  0.00     0.031 C 
ATOM     48  C   UNL A   1      42.990  27.597  31.873  1.00  0.00     0.029 A 
ATOM     49  N   UNL A   1      41.879  29.207  32.956  1.00  0.00    -0.354 N 
ATOM     50  C   UNL A   1      38.571  31.275  31.080  1.00  0.00     0.074 A 
ATOM     51  C   UNL A   1      38.329  30.768  29.747  1.00  0.00     0.031 C 
ATOM     52  C   UNL A   1      43.582  27.761  33.067  1.00  0.00     0.029 A 
ATOM     53  C   UNL A   1      42.897  28.823  33.798  1.00  0.00     0.049 A 
ATOM     54  H   UNL A   1      41.227  29.908  33.186  1.00  0.00     0.167 HD
ATOM     55  C   UNL A   1      37.856  32.266  31.663  1.00  0.00     0.037 A 
ATOM     56  C   UNL A   1      43.243  29.280  35.018  1.00  0.00     0.037 A 
ATOM     57  C   UNL A   1      38.085  32.743  33.003  1.00  0.00     0.049 A 
ATOM     58  C   UNL A   1      42.421  30.369  35.651  1.00  0.00     0.074 A 
ATOM     59  C   UNL A   1      37.371  33.694  33.711  1.00  0.00     0.029 A 
ATOM     60  N   UNL A   1      39.104  32.306  33.836  1.00  0.00    -0.354 N 
ATOM     61  N   UNL A   1      41.380  31.002  35.166  1.00  0.00    -0.248 NA
ATOM     62  C   UNL A   1      42.814  30.799  37.000  1.00  0.00     0.031 C 
ATOM     63  C   UNL A   1      37.986  33.865  34.955  1.00  0.00     0.029 A 
ATOM     64  C   UNL A   1      39.051  32.984  35.043  1.00  0.00     0.049 A 
ATOM     65  H   UNL A   1      39.767  31.617  33.604  1.00  0.00     0.167 HD
ATOM     66  C   UNL A   1      40.977  31.887  36.161  1.00  0.00     0.074 A 
ATOM     67  C   UNL A   1      41.879  31.697  37.278  1.00  0.00     0.031 C 
ATOM     68  C   UNL A   1      39.954  32.777  36.149  1.00  0.00     0.037 A 
BRANCH  55  69
ATOM     69  C   UNL A   1      36.754  32.901  30.860  1.00  0.00     0.058 A 
ATOM     70  C   UNL A   1      35.411  32.525  31.023  1.00  0.00     0.135 A 
ATOM     71  C   UNL A   1      37.038  33.932  29.949  1.00  0.00     0.135 A 
ATOM     72  F   UNL A   1      35.084  31.536  31.869  1.00  0.00    -0.206 F 
ATOM     73  C   UNL A   1      34.392  33.130  30.295  1.00  0.00     0.059 A 
ATOM     74  C   UNL A   1      36.031  34.571  29.230  1.00  0.00     0.059 A 
ATOM     75  F   UNL A   1      38.304  34.331  29.752  1.00  0.00    -0.206 F 
ATOM     76  C   UNL A   1      34.711  34.154  29.401  1.00  0.00     0.060 A 
BRANCH  76  77
ATOM     77  S   UNL A   1      33.375  34.937  28.475  1.00  0.00     0.124 S 
ATOM     78  O   UNL A   1      32.768  33.787  27.811  1.00  0.00    -0.237 OA
ATOM     79  O   UNL A   1      32.580  35.551  29.532  1.00  0.00    -0.237 OA
ATOM     80  O   UNL A   1      34.073  35.872  27.596  1.00  0.00    -0.744 OA
ENDBRANCH  76  77
ENDBRANCH  55  69
BRANCH  56  81
ATOM     81  C   UNL A   1      44.412  28.693  35.725  1.00  0.00     0.058 A 
ATOM     82  C   UNL A   1      44.255  27.626  36.621  1.00  0.00     0.135 A 
ATOM     83  C   UNL A   1      45.711  29.180  35.512  1.00  0.00     0.135 A 
ATOM     84  F   UNL A   1      43.032  27.127  36.863  1.00  0.00    -0.206 F 
ATOM     85  C   UNL A   1      45.339  27.074  37.297  1.00  0.00     0.059 A 
ATOM     86  C   UNL A   1      46.814  28.628  36.155  1.00  0.00     0.059 A 
ATOM     87  F   UNL A   1      45.919  30.187  34.649  1.00  0.00    -0.206 F 
ATOM     88  C   UNL A   1      46.616  27.583  37.056  1.00  0.00     0.060 A 
BRANCH  88  89
ATOM     89  S   UNL A   1      48.023  26.832  37.904  1.00  0.00     0.124 S 
ATOM     90  O   UNL A   1      47.760  25.412  37.706  1.00  0.00    -0.237 OA
ATOM     91  O   UNL A   1      49.156  27.382  37.165  1.00  0.00    -0.237 OA
ATOM     92  O   UNL A   1      47.885  27.316  39.273  1.00  0.00    -0.744 OA
ENDBRANCH  88  89
ENDBRANCH  56  81
BRANCH  68  93
ATOM     93  C   UNL A   1      39.731  33.591  37.394  1.00  0.00     0.058 A 
ATOM     94  C   UNL A   1      40.412  34.798  37.619  1.00  0.00     0.135 A 
ATOM     95  C   UNL A   1      38.790  33.180  38.351  1.00  0.00     0.135 A 
ATOM     96  F   UNL A   1      41.328  35.231  36.738  1.00  0.00    -0.206 F 
ATOM     97  C   UNL A   1      40.185  35.556  38.762  1.00  0.00     0.059 A 
ATOM     98  C   UNL A   1      38.525  33.938  39.488  1.00  0.00     0.059 A 
ATOM     99  F   UNL A   1      38.103  32.040  38.179  1.00  0.00    -0.206 F 
ATOM    100  C   UNL A   1      39.239  35.118  39.691  1.00  0.00     0.060 A 
BRANCH 100 101
ATOM    101  S   UNL A   1      38.933  36.126  41.157  1.00  0.00     0.124 S 
ATOM    102  O   UNL A   1      37.767  35.464  41.730  1.00  0.00    -0.237 OA
ATOM    103  O   UNL A   1      40.178  35.978  41.904  1.00  0.00    -0.237 OA
ATOM    104  O   UNL A   1      38.694  37.458  40.608  1.00  0.00    -0.744 OA
ENDBRANCH 100 101
ENDBRANCH  68  93
ENDBRANCH  42  43
ENDBRANCH  34  37
ENDBRANCH  32  33
ENDBRANCH  31  32
ENDBRANCH   1  31
TORSDOF 21
ENDMDL
MODEL 2
REMARK VINA RESULT:     -10.7      1.753      2.978
REMARK SMILES CCCc1cc(OC(F)(F)F)cc2c1O[C@@H](C(F)(F)F)C(C(=O)NCCCCCCNC(=O)c1ccc(-c3c4nc(c(-c5c(F)cc(S(=O)(=O)[O-])cc5F)c5ccc([nH]5)c(-c5c(F)cc(S(=O)(=O)[O-])cc5F)c5nc(c(-c6c(F)cc(S(=O)(=O)[O-])cc6F)c6ccc3[nH]6)C=C5)C=C4)cc1)=C2
REMARK SMILES IDX 28 1 27 2 26 3 25 4 24 5 22 6 23 7 21 9 4 10 5 11 14 12 6 13
REMARK SMILES IDX 13 14 15 15 12 16 100 17 16 18 3 19 2 20 1 21 7 22 8 23 9 24
REMARK SMILES IDX 10 25 11 26 17 27 18 28 19 29 20 30 29 31 30 32 31 33 32 34
REMARK SMILES IDX 33 36 34 37 35 38 99 39 36 40 98 41 37 42 38 43 39 44 92 45
REMARK SMILES IDX 40 46 97 47 91 48 93 49 41 50 96 51 90 52 89 53 42 55 76 56
REMARK SMILES IDX 55 57 75 58 56 59 59 60 74 61 94 62 57 63 58 64 73 66 95 67
REMARK SMILES IDX 60 68 43 69 44 70 53 71 45 72 46 73 52 74 54 75 47 76 48 77
REMARK SMILES IDX 49 78 50 79 51 80 77 81 78 82 87 83 79 84 80 85 86 86 88 87
REMARK SMILES IDX 81 88 82 89 83 90 84 91 85 92 61 93 62 94 71 95 63 96 64 97
REMARK SMILES IDX 70 98 72 99 65 100 66 101 67 102 68 103 69 104
REMARK H PARENT 24 8 31 35 93 54 59 65
REMARK Flexibility Score: inf
ROOT
ATOM      1  C   UNL A   1      36.853  23.362  26.064  1.00  0.00     0.002 C 
ENDROOT
BRANCH   1   2
ATOM      2  C   UNL A   1      36.415  23.679  24.629  1.00  0.00     0.002 C 
BRANCH   2   3
ATOM      3  C   UNL A   1      35.533  22.604  23.978  1.00  0.00     0.021 C 
BRANCH   3   4
ATOM      4  C   UNL A   1      34.769  23.115  22.749  1.00  0.00     0.116 C 
BRANCH   4   5
ATOM      5  N   UNL A   1      33.412  22.594  22.777  1.00  0.00    -0.352 N 
ATOM      6  C   UNL A   1      32.242  23.103  23.240  1.00  0.00     0.251 C 
ATOM      7  O   UNL A   1      31.281  22.344  23.336  1.00  0.00    -0.270 OA
ATOM      8  H   UNL A   1      33.324  21.697  22.381  1.00  0.00     0.163 HD
BRANCH   6   9
ATOM      9  C   UNL A   1      32.059  24.545  23.549  1.00  0.00     0.067 C 
ATOM     10  C   UNL A   1      31.285  28.474  24.864  1.00  0.00    -0.002 A 
ATOM     11  C   UNL A   1      30.702  29.377  23.958  1.00  0.00     0.054 A 
ATOM     12  C   UNL A   1      31.569  27.170  24.415  1.00  0.00     0.131 A 
ATOM     13  C   UNL A   1      30.340  28.980  22.669  1.00  0.00     0.130 A 
ATOM     14  C   UNL A   1      31.261  26.779  23.112  1.00  0.00     0.021 A 
ATOM     15  O   UNL A   1      32.083  26.291  25.328  1.00  0.00    -0.475 OA
ATOM     16  C   UNL A   1      30.637  27.683  22.248  1.00  0.00     0.058 A 
ATOM     17  C   UNL A   1      31.490  25.405  22.691  1.00  0.00     0.025 C 
ATOM     18  C   UNL A   1      32.689  25.060  24.839  1.00  0.00     0.314 C 
BRANCH  10  19
ATOM     19  C   UNL A   1      31.638  28.860  26.289  1.00  0.00     0.039 C 
BRANCH  19  20
ATOM     20  C   UNL A   1      32.903  29.696  26.534  1.00  0.00     0.001 C 
ATOM     21  C   UNL A   1      34.183  28.869  26.557  1.00  0.00     0.004 C 
ENDBRANCH  19  20
ENDBRANCH  10  19
BRANCH  13  22
ATOM     22  O   UNL A   1      29.691  29.742  21.740  1.00  0.00    -0.406 OA
BRANCH  22  23
ATOM     23  C   UNL A   1      28.332  30.070  21.985  1.00  0.00     0.573 C 
ATOM     24  F   UNL A   1      28.217  31.025  22.933  1.00  0.00    -0.132 F 
ATOM     25  F   UNL A   1      27.733  30.491  20.850  1.00  0.00    -0.132 F 
ATOM     26  F   UNL A   1      27.687  28.966  22.418  1.00  0.00    -0.132 F 
ENDBRANCH  22  23
ENDBRANCH  13  22
BRANCH  18  27
ATOM     27  C   UNL A   1      32.751  24.085  26.037  1.00  0.00     0.429 C 
ATOM     28  F   UNL A   1      33.830  24.286  26.826  1.00  0.00    -0.167 F 
ATOM     29  F   UNL A   1      31.676  24.260  26.856  1.00  0.00    -0.167 F 
ATOM     30  F   UNL A   1      32.737  22.787  25.655  1.00  0.00    -0.167 F 
ENDBRANCH  18  27
ENDBRANCH   6   9
ENDBRANCH   4   5
ENDBRANCH   3   4
ENDBRANCH   2   3
ENDBRANCH   1   2
BRANCH   1  31
ATOM     31  C   UNL A   1      38.296  22.868  26.201  1.00  0.00     0.021 C 
BRANCH  31  32
ATOM     32  C   UNL A   1      39.223  23.835  26.931  1.00  0.00     0.116 C 
BRANCH  32  33
ATOM     33  N   UNL A   1      40.253  24.355  26.045  1.00  0.00    -0.352 N 
ATOM     34  C   UNL A   1      40.921  25.553  26.103  1.00  0.00     0.251 C 
ATOM     35  H   UNL A   1      40.506  23.766  25.299  1.00  0.00     0.163 HD
ATOM     36  O   UNL A   1      41.573  25.937  25.137  1.00  0.00    -0.269 OA
BRANCH  34  37
ATOM     37  C   UNL A   1      40.849  26.377  27.328  1.00  0.00     0.039 A 
ATOM     38  C   UNL A   1      41.703  27.475  27.459  1.00  0.00     0.014 A 
ATOM     39  C   UNL A   1      39.957  26.054  28.356  1.00  0.00     0.014 A 
ATOM     40  C   UNL A   1      41.631  28.274  28.601  1.00  0.00     0.010 A 
ATOM     41  C   UNL A   1      39.840  26.890  29.462  1.00  0.00     0.010 A 
ATOM     42  C   UNL A   1      40.682  28.004  29.601  1.00  0.00    -0.014 A 
BRANCH  42  43
ATOM     43  C   UNL A   1      40.562  28.872  30.800  1.00  0.00     0.031 A 
ATOM     44  C   UNL A   1      39.526  29.963  30.843  1.00  0.00     0.074 A 
ATOM     45  C   UNL A   1      41.426  28.715  31.822  1.00  0.00     0.049 A 
ATOM     46  N   UNL A   1      39.306  30.854  31.774  1.00  0.00    -0.248 NA
ATOM     47  C   UNL A   1      38.639  30.087  29.674  1.00  0.00     0.031 C 
ATOM     48  C   UNL A   1      42.508  27.729  31.871  1.00  0.00     0.029 A 
ATOM     49  N   UNL A   1      41.539  29.389  33.012  1.00  0.00    -0.354 N 
ATOM     50  C   UNL A   1      38.269  31.652  31.299  1.00  0.00     0.074 A 
ATOM     51  C   UNL A   1      37.938  31.170  29.977  1.00  0.00     0.031 C 
ATOM     52  C   UNL A   1      43.162  27.851  33.037  1.00  0.00     0.029 A 
ATOM     53  C   UNL A   1      42.570  28.943  33.804  1.00  0.00     0.049 A 
ATOM     54  H   UNL A   1      40.937  30.124  33.275  1.00  0.00     0.167 HD
ATOM     55  C   UNL A   1      37.638  32.676  31.920  1.00  0.00     0.037 A 
ATOM     56  C   UNL A   1      42.997  29.370  35.009  1.00  0.00     0.037 A 
ATOM     57  C   UNL A   1      37.954  33.129  33.251  1.00  0.00     0.049 A 
ATOM     58  C   UNL A   1      42.267  30.499  35.685  1.00  0.00     0.074 A 
ATOM     59  C   UNL A   1      37.327  34.113  33.995  1.00  0.00     0.029 A 
ATOM     60  N   UNL A   1      38.984  32.631  34.034  1.00  0.00    -0.354 N 
ATOM     61  N   UNL A   1      41.241  31.193  35.251  1.00  0.00    -0.248 NA
ATOM     62  C   UNL A   1      42.744  30.896  37.017  1.00  0.00     0.031 C 
ATOM     63  C   UNL A   1      38.006  34.240  35.211  1.00  0.00     0.029 A 
ATOM     64  C   UNL A   1      39.024  33.301  35.245  1.00  0.00     0.049 A 
ATOM     65  H   UNL A   1      39.596  31.908  33.769  1.00  0.00     0.167 HD
ATOM     66  C   UNL A   1      40.935  32.091  36.268  1.00  0.00     0.074 A 
ATOM     67  C   UNL A   1      41.874  31.842  37.342  1.00  0.00     0.031 C 
ATOM     68  C   UNL A   1      39.963  33.036  36.308  1.00  0.00     0.037 A 
BRANCH  55  69
ATOM     69  C   UNL A   1      36.537  33.378  31.172  1.00  0.00     0.058 A 
ATOM     70  C   UNL A   1      36.807  34.221  30.083  1.00  0.00     0.135 A 
ATOM     71  C   UNL A   1      35.192  33.167  31.518  1.00  0.00     0.135 A 
ATOM     72  F   UNL A   1      38.074  34.470  29.717  1.00  0.00    -0.206 F 
ATOM     73  C   UNL A   1      35.785  34.851  29.379  1.00  0.00     0.059 A 
ATOM     74  C   UNL A   1      34.152  33.764  30.810  1.00  0.00     0.059 A 
ATOM     75  F   UNL A   1      34.876  32.371  32.552  1.00  0.00    -0.206 F 
ATOM     76  C   UNL A   1      34.460  34.615  29.749  1.00  0.00     0.060 A 
BRANCH  76  77
ATOM     77  S   UNL A   1      33.146  35.429  28.817  1.00  0.00     0.124 S 
ATOM     78  O   UNL A   1      33.912  36.332  27.963  1.00  0.00    -0.237 OA
ATOM     79  O   UNL A   1      32.504  34.308  28.139  1.00  0.00    -0.237 OA
ATOM     80  O   UNL A   1      32.345  36.075  29.852  1.00  0.00    -0.744 OA
ENDBRANCH  76  77
ENDBRANCH  55  69
BRANCH  56  81
ATOM     81  C   UNL A   1      44.163  28.715  35.659  1.00  0.00     0.058 A 
ATOM     82  C   UNL A   1      45.472  29.150  35.407  1.00  0.00     0.135 A 
ATOM     83  C   UNL A   1      43.991  27.647  36.553  1.00  0.00     0.135 A 
ATOM     84  F   UNL A   1      45.689  30.165  34.556  1.00  0.00    -0.206 F 
ATOM     85  C   UNL A   1      46.572  28.539  36.001  1.00  0.00     0.059 A 
ATOM     86  C   UNL A   1      45.073  27.036  37.180  1.00  0.00     0.059 A 
ATOM     87  F   UNL A   1      42.758  27.204  36.844  1.00  0.00    -0.206 F 
ATOM     88  C   UNL A   1      46.361  27.482  36.888  1.00  0.00     0.060 A 
BRANCH  88  89
ATOM     89  S   UNL A   1      47.791  26.724  37.689  1.00  0.00     0.124 S 
ATOM     90  O   UNL A   1      48.769  26.730  36.609  1.00  0.00    -0.237 OA
ATOM     91  O   UNL A   1      48.050  27.645  38.792  1.00  0.00    -0.237 OA
ATOM     92  O   UNL A   1      47.294  25.410  38.085  1.00  0.00    -0.744 OA
ENDBRANCH  88  89
ENDBRANCH  56  81
BRANCH  68  93
ATOM     93  C   UNL A   1      39.843  33.852  37.566  1.00  0.00     0.058 A 
ATOM     94  C   UNL A   1      40.608  35.010  37.771  1.00  0.00     0.135 A 
ATOM     95  C   UNL A   1      38.915  33.494  38.557  1.00  0.00     0.135 A 
ATOM     96  F   UNL A   1      41.515  35.391  36.857  1.00  0.00    -0.206 F 
ATOM     97  C   UNL A   1      40.476  35.770  38.928  1.00  0.00     0.059 A 
ATOM     98  C   UNL A   1      38.745  34.256  39.708  1.00  0.00     0.059 A 
ATOM     99  F   UNL A   1      38.149  32.402  38.405  1.00  0.00    -0.206 F 
ATOM    100  C   UNL A   1      39.542  35.386  39.891  1.00  0.00     0.060 A 
BRANCH 100 101
ATOM    101  S   UNL A   1      39.360  36.399  41.374  1.00  0.00     0.124 S 
ATOM    102  O   UNL A   1      38.328  35.670  42.102  1.00  0.00    -0.237 OA
ATOM    103  O   UNL A   1      40.699  36.350  41.951  1.00  0.00    -0.237 OA
ATOM    104  O   UNL A   1      38.958  37.701  40.848  1.00  0.00    -0.744 OA
ENDBRANCH 100 101
ENDBRANCH  68  93
ENDBRANCH  42  43
ENDBRANCH  34  37
ENDBRANCH  32  33
ENDBRANCH  31  32
ENDBRANCH   1  31
TORSDOF 21
ENDMDL
MODEL 3
REMARK VINA RESULT:     -10.6      1.823      8.378
REMARK SMILES CCCc1cc(OC(F)(F)F)cc2c1O[C@@H](C(F)(F)F)C(C(=O)NCCCCCCNC(=O)c1ccc(-c3c4nc(c(-c5c(F)cc(S(=O)(=O)[O-])cc5F)c5ccc([nH]5)c(-c5c(F)cc(S(=O)(=O)[O-])cc5F)c5nc(c(-c6c(F)cc(S(=O)(=O)[O-])cc6F)c6ccc3[nH]6)C=C5)C=C4)cc1)=C2
REMARK SMILES IDX 28 1 27 2 26 3 25 4 24 5 22 6 23 7 21 9 4 10 5 11 14 12 6 13
REMARK SMILES IDX 13 14 15 15 12 16 100 17 16 18 3 19 2 20 1 21 7 22 8 23 9 24
REMARK SMILES IDX 10 25 11 26 17 27 18 28 19 29 20 30 29 31 30 32 31 33 32 34
REMARK SMILES IDX 33 36 34 37 35 38 99 39 36 40 98 41 37 42 38 43 39 44 92 45
REMARK SMILES IDX 40 46 97 47 91 48 93 49 41 50 96 51 90 52 89 53 42 55 76 56
REMARK SMILES IDX 55 57 75 58 56 59 59 60 74 61 94 62 57 63 58 64 73 66 95 67
REMARK SMILES IDX 60 68 43 69 44 70 53 71 45 72 46 73 52 74 54 75 47 76 48 77
REMARK SMILES IDX 49 78 50 79 51 80 77 81 78 82 87 83 79 84 80 85 86 86 88 87
REMARK SMILES IDX 81 88 82 89 83 90 84 91 85 92 61 93 62 94 71 95 63 96 64 97
REMARK SMILES IDX 70 98 72 99 65 100 66 101 67 102 68 103 69 104
REMARK H PARENT 24 8 31 35 93 54 59 65
REMARK Flexibility Score: inf
ROOT
ATOM      1  C   UNL A   1      37.164  23.324  26.106  1.00  0.00     0.002 C 
ENDROOT
BRANCH   1   2
ATOM      2  C   UNL A   1      36.653  23.619  24.691  1.00  0.00     0.002 C 
BRANCH   2   3
ATOM      3  C   UNL A   1      35.604  22.626  24.170  1.00  0.00     0.021 C 
BRANCH   3   4
ATOM      4  C   UNL A   1      34.848  23.138  22.937  1.00  0.00     0.116 C 
BRANCH   4   5
ATOM      5  N   UNL A   1      33.496  22.603  22.945  1.00  0.00    -0.352 N 
ATOM      6  C   UNL A   1      32.308  23.115  23.354  1.00  0.00     0.251 C 
ATOM      7  O   UNL A   1      31.353  22.349  23.451  1.00  0.00    -0.270 OA
ATOM      8  H   UNL A   1      33.430  21.691  22.580  1.00  0.00     0.163 HD
BRANCH   6   9
ATOM      9  C   UNL A   1      32.100  24.565  23.603  1.00  0.00     0.067 C 
ATOM     10  C   UNL A   1      31.254  28.530  24.752  1.00  0.00    -0.002 A 
ATOM     11  C   UNL A   1      30.665  29.387  23.805  1.00  0.00     0.054 A 
ATOM     12  C   UNL A   1      31.561  27.214  24.359  1.00  0.00     0.131 A 
ATOM     13  C   UNL A   1      30.322  28.934  22.530  1.00  0.00     0.130 A 
ATOM     14  C   UNL A   1      31.272  26.767  23.070  1.00  0.00     0.021 A 
ATOM     15  O   UNL A   1      32.081  26.380  25.311  1.00  0.00    -0.475 OA
ATOM     16  C   UNL A   1      30.643  27.626  22.164  1.00  0.00     0.058 A 
ATOM     17  C   UNL A   1      31.527  25.380  22.706  1.00  0.00     0.025 C 
ATOM     18  C   UNL A   1      32.710  25.141  24.877  1.00  0.00     0.314 C 
BRANCH  10  19
ATOM     19  C   UNL A   1      31.588  28.979  26.164  1.00  0.00     0.039 C 
BRANCH  19  20
ATOM     20  C   UNL A   1      32.365  30.288  26.357  1.00  0.00     0.001 C 
ATOM     21  C   UNL A   1      31.469  31.510  26.516  1.00  0.00     0.004 C 
ENDBRANCH  19  20
ENDBRANCH  10  19
BRANCH  13  22
ATOM     22  O   UNL A   1      29.670  29.647  21.566  1.00  0.00    -0.406 OA
BRANCH  22  23
ATOM     23  C   UNL A   1      28.329  30.036  21.821  1.00  0.00     0.573 C 
ATOM     24  F   UNL A   1      28.271  31.069  22.690  1.00  0.00    -0.132 F 
ATOM     25  F   UNL A   1      27.708  30.381  20.674  1.00  0.00    -0.132 F 
ATOM     26  F   UNL A   1      27.667  28.992  22.363  1.00  0.00    -0.132 F 
ENDBRANCH  22  23
ENDBRANCH  13  22
BRANCH  18  27
ATOM     27  C   UNL A   1      32.775  24.215  26.113  1.00  0.00     0.429 C 
ATOM     28  F   UNL A   1      32.573  22.913  25.809  1.00  0.00    -0.167 F 
ATOM     29  F   UNL A   1      34.013  24.257  26.681  1.00  0.00    -0.167 F 
ATOM     30  F   UNL A   1      31.895  24.569  27.078  1.00  0.00    -0.167 F 
ENDBRANCH  18  27
ENDBRANCH   6   9
ENDBRANCH   4   5
ENDBRANCH   3   4
ENDBRANCH   2   3
ENDBRANCH   1   2
BRANCH   1  31
ATOM     31  C   UNL A   1      38.569  22.717  26.168  1.00  0.00     0.021 C 
BRANCH  31  32
ATOM     32  C   UNL A   1      39.584  23.565  26.930  1.00  0.00     0.116 C 
BRANCH  32  33
ATOM     33  N   UNL A   1      40.692  23.961  26.076  1.00  0.00    -0.352 N 
ATOM     34  C   UNL A   1      41.369  25.156  26.034  1.00  0.00     0.251 C 
ATOM     35  H   UNL A   1      41.002  23.278  25.438  1.00  0.00     0.163 HD
ATOM     36  O   UNL A   1      42.105  25.408  25.086  1.00  0.00    -0.269 OA
BRANCH  34  37
ATOM     37  C   UNL A   1      41.201  26.135  27.129  1.00  0.00     0.039 A 
ATOM     38  C   UNL A   1      40.235  25.898  28.109  1.00  0.00     0.014 A 
ATOM     39  C   UNL A   1      41.980  27.296  27.174  1.00  0.00     0.014 A 
ATOM     40  C   UNL A   1      40.081  26.804  29.160  1.00  0.00     0.010 A 
ATOM     41  C   UNL A   1      41.872  28.162  28.258  1.00  0.00     0.010 A 
ATOM     42  C   UNL A   1      40.915  27.931  29.257  1.00  0.00    -0.014 A 
BRANCH  42  43
ATOM     43  C   UNL A   1      40.793  28.878  30.394  1.00  0.00     0.031 A 
ATOM     44  C   UNL A   1      41.686  28.735  31.597  1.00  0.00     0.074 A 
ATOM     45  C   UNL A   1      39.839  29.829  30.367  1.00  0.00     0.049 A 
ATOM     46  N   UNL A   1      41.694  29.427  32.706  1.00  0.00    -0.248 NA
ATOM     47  C   UNL A   1      42.685  27.653  31.560  1.00  0.00     0.031 C 
ATOM     48  C   UNL A   1      38.877  30.031  29.281  1.00  0.00     0.029 A 
ATOM     49  N   UNL A   1      39.511  30.797  31.283  1.00  0.00    -0.354 N 
ATOM     50  C   UNL A   1      42.681  28.859  33.504  1.00  0.00     0.074 A 
ATOM     51  C   UNL A   1      43.218  27.733  32.771  1.00  0.00     0.031 C 
ATOM     52  C   UNL A   1      38.081  31.068  29.585  1.00  0.00     0.029 A 
ATOM     53  C   UNL A   1      38.450  31.584  30.900  1.00  0.00     0.049 A 
ATOM     54  H   UNL A   1      39.990  30.917  32.135  1.00  0.00     0.167 HD
ATOM     55  C   UNL A   1      43.115  29.254  34.724  1.00  0.00     0.037 A 
ATOM     56  C   UNL A   1      37.839  32.601  31.538  1.00  0.00     0.037 A 
ATOM     57  C   UNL A   1      42.596  30.395  35.433  1.00  0.00     0.049 A 
ATOM     58  C   UNL A   1      38.352  33.033  32.885  1.00  0.00     0.074 A 
ATOM     59  C   UNL A   1      43.015  30.920  36.643  1.00  0.00     0.029 A 
ATOM     60  N   UNL A   1      41.544  31.187  34.997  1.00  0.00    -0.354 N 
ATOM     61  N   UNL A   1      39.337  32.528  33.591  1.00  0.00    -0.248 NA
ATOM     62  C   UNL A   1      37.680  34.175  33.518  1.00  0.00     0.031 C 
ATOM     63  C   UNL A   1      42.188  32.002  36.960  1.00  0.00     0.029 A 
ATOM     64  C   UNL A   1      41.286  32.183  35.924  1.00  0.00     0.049 A 
ATOM     65  H   UNL A   1      41.053  31.060  34.154  1.00  0.00     0.167 HD
ATOM     66  C   UNL A   1      39.418  33.309  34.739  1.00  0.00     0.074 A 
ATOM     67  C   UNL A   1      38.393  34.326  34.626  1.00  0.00     0.031 C 
ATOM     68  C   UNL A   1      40.265  33.193  35.792  1.00  0.00     0.037 A 
BRANCH  55  69
ATOM     69  C   UNL A   1      44.210  28.451  35.373  1.00  0.00     0.058 A 
ATOM     70  C   UNL A   1      45.563  28.672  35.074  1.00  0.00     0.135 A 
ATOM     71  C   UNL A   1      43.904  27.480  36.341  1.00  0.00     0.135 A 
ATOM     72  F   UNL A   1      45.912  29.577  34.146  1.00  0.00    -0.206 F 
ATOM     73  C   UNL A   1      46.574  27.942  35.692  1.00  0.00     0.059 A 
ATOM     74  C   UNL A   1      44.900  26.758  36.993  1.00  0.00     0.059 A 
ATOM     75  F   UNL A   1      42.626  27.226  36.665  1.00  0.00    -0.206 F 
ATOM     76  C   UNL A   1      46.233  26.988  36.652  1.00  0.00     0.060 A 
BRANCH  76  77
ATOM     77  S   UNL A   1      47.557  26.060  37.454  1.00  0.00     0.124 S 
ATOM     78  O   UNL A   1      47.870  26.923  38.589  1.00  0.00    -0.237 OA
ATOM     79  O   UNL A   1      46.902  24.798  37.779  1.00  0.00    -0.237 OA
ATOM     80  O   UNL A   1      48.589  25.982  36.424  1.00  0.00    -0.744 OA
ENDBRANCH  76  77
ENDBRANCH  55  69
BRANCH  56  81
ATOM     81  C   UNL A   1      36.687  33.293  30.901  1.00  0.00     0.058 A 
ATOM     82  C   UNL A   1      36.876  34.168  29.821  1.00  0.00     0.135 A 
ATOM     83  C   UNL A   1      35.374  33.084  31.350  1.00  0.00     0.135 A 
ATOM     84  F   UNL A   1      38.113  34.405  29.358  1.00  0.00    -0.206 F 
ATOM     85  C   UNL A   1      35.807  34.829  29.222  1.00  0.00     0.059 A 
ATOM     86  C   UNL A   1      34.287  33.712  30.751  1.00  0.00     0.059 A 
ATOM     87  F   UNL A   1      35.137  32.241  32.367  1.00  0.00    -0.206 F 
ATOM     88  C   UNL A   1      34.516  34.593  29.695  1.00  0.00     0.060 A 
BRANCH  88  89
ATOM     89  S   UNL A   1      33.131  35.420  28.883  1.00  0.00     0.124 S 
ATOM     90  O   UNL A   1      32.384  35.931  30.026  1.00  0.00    -0.237 OA
ATOM     91  O   UNL A   1      33.808  36.420  28.063  1.00  0.00    -0.237 OA
ATOM     92  O   UNL A   1      32.488  34.343  28.138  1.00  0.00    -0.744 OA
ENDBRANCH  88  89
ENDBRANCH  56  81
BRANCH  68  93
ATOM     93  C   UNL A   1      40.143  34.211  36.893  1.00  0.00     0.058 A 
ATOM     94  C   UNL A   1      40.917  35.382  36.905  1.00  0.00     0.135 A 
ATOM     95  C   UNL A   1      39.206  34.033  37.923  1.00  0.00     0.135 A 
ATOM     96  F   UNL A   1      41.832  35.597  35.946  1.00  0.00    -0.206 F 
ATOM     97  C   UNL A   1      40.783  36.329  37.914  1.00  0.00     0.059 A 
ATOM     98  C   UNL A   1      39.034  34.981  38.927  1.00  0.00     0.059 A 
ATOM     99  F   UNL A   1      38.432  32.936  37.952  1.00  0.00    -0.206 F 
ATOM    100  C   UNL A   1      39.839  36.120  38.921  1.00  0.00     0.060 A 
BRANCH 100 101
ATOM    101  S   UNL A   1      39.655  37.371  40.210  1.00  0.00     0.124 S 
ATOM    102  O   UNL A   1      40.043  36.624  41.401  1.00  0.00    -0.237 OA
ATOM    103  O   UNL A   1      40.589  38.405  39.776  1.00  0.00    -0.237 OA
ATOM    104  O   UNL A   1      38.243  37.737  40.129  1.00  0.00    -0.744 OA
ENDBRANCH 100 101
ENDBRANCH  68  93
ENDBRANCH  42  43
ENDBRANCH  34  37
ENDBRANCH  32  33
ENDBRANCH  31  32
ENDBRANCH   1  31
TORSDOF 21
ENDMDL
