MODEL 1
REMARK VINA RESULT:     -10.8      0.000      0.000
REMARK SMILES [NH3+][C@H](CC(=O)NCCCCCCNC(=O)c1ccc(-c2c3nc(c(-c4c(F)cc(S(=O)(=O)[O-])cc4F)c4ccc([nH]4)c(-c4c(F)cc(S(=O)(=O)[O-])cc4F)c4nc(c(-c5c(F)cc(S(=O)(=O)[O-])cc5F)c5ccc2[nH]5)C=C4)C=C3)cc1)c1ccc2c(c1)OC(F)(F)O2
REMARK SMILES IDX 10 1 9 2 8 3 7 4 6 5 4 6 5 7 3 9 2 10 1 11 82 15 83 16 87 17
REMARK SMILES IDX 84 18 86 19 85 20 88 21 92 22 89 23 90 24 91 25 11 26 12 27
REMARK SMILES IDX 13 28 14 29 15 31 16 32 17 33 81 34 18 35 80 36 19 37 20 38
REMARK SMILES IDX 21 39 74 40 22 41 79 42 73 43 75 44 23 45 78 46 72 47 71 48
REMARK SMILES IDX 24 50 58 51 37 52 57 53 38 54 41 55 56 56 76 57 39 58 40 59
REMARK SMILES IDX 55 61 77 62 42 63 25 64 26 65 35 66 27 67 28 68 34 69 36 70
REMARK SMILES IDX 29 71 30 72 31 73 32 74 33 75 59 76 60 77 69 78 61 79 62 80
REMARK SMILES IDX 68 81 70 82 63 83 64 84 65 85 66 86 67 87 43 88 44 89 53 90
REMARK SMILES IDX 45 91 46 92 52 93 54 94 47 95 48 96 49 97 50 98 51 99
REMARK H PARENT 6 8 1 12 1 13 1 14 13 30 75 49 41 60
REMARK Flexibility Score: inf
ROOT
ATOM      1  C   UNL A   1      32.155  27.656  25.139  1.00  0.00     0.002 C 
ENDROOT
BRANCH   1   2
ATOM      2  C   UNL A   1      31.125  28.718  24.746  1.00  0.00     0.002 C 
BRANCH   2   3
ATOM      3  C   UNL A   1      31.025  28.972  23.243  1.00  0.00     0.021 C 
BRANCH   3   4
ATOM      4  C   UNL A   1      30.532  27.764  22.440  1.00  0.00     0.116 C 
BRANCH   4   5
ATOM      5  N   UNL A   1      31.616  27.223  21.648  1.00  0.00    -0.356 N 
ATOM      6  C   UNL A   1      32.275  26.040  21.774  1.00  0.00     0.226 C 
ATOM      7  O   UNL A   1      33.288  25.870  21.092  1.00  0.00    -0.275 OA
ATOM      8  H   UNL A   1      31.922  27.798  20.909  1.00  0.00     0.163 HD
BRANCH   6   9
ATOM      9  C   UNL A   1      31.745  24.929  22.664  1.00  0.00     0.170 C 
BRANCH   9  10
ATOM     10  C   UNL A   1      32.638  23.676  22.768  1.00  0.00     0.221 C 
BRANCH  10  11
ATOM     11  N   UNL A   1      32.998  23.164  21.434  1.00  0.00    -0.351 N 
ATOM     12  H   UNL A   1      33.030  23.939  20.771  1.00  0.00     0.345 HD
ATOM     13  H   UNL A   1      32.300  22.486  21.131  1.00  0.00     0.345 HD
ATOM     14  H   UNL A   1      33.913  22.715  21.478  1.00  0.00     0.345 HD
ENDBRANCH  10  11
BRANCH  10  15
ATOM     15  C   UNL A   1      34.011  23.876  23.419  1.00  0.00     0.014 A 
ATOM     16  C   UNL A   1      34.052  24.654  24.614  1.00  0.00     0.014 A 
ATOM     17  C   UNL A   1      35.118  23.084  23.083  1.00  0.00     0.060 A 
ATOM     18  C   UNL A   1      35.104  24.538  25.526  1.00  0.00     0.051 A 
ATOM     19  C   UNL A   1      36.125  22.970  24.014  1.00  0.00     0.173 A 
ATOM     20  C   UNL A   1      36.102  23.647  25.214  1.00  0.00     0.172 A 
ATOM     21  O   UNL A   1      37.168  22.097  23.930  1.00  0.00    -0.395 OA
ATOM     22  O   UNL A   1      37.108  23.253  26.043  1.00  0.00    -0.395 OA
ATOM     23  C   UNL A   1      37.581  22.121  25.302  1.00  0.00     0.586 C 
ATOM     24  F   UNL A   1      37.130  20.987  25.897  1.00  0.00    -0.125 F 
ATOM     25  F   UNL A   1      38.935  22.096  25.352  1.00  0.00    -0.125 F 
ENDBRANCH  10  15
ENDBRANCH   9  10
ENDBRANCH   6   9
ENDBRANCH   4   5
ENDBRANCH   3   4
ENDBRANCH   2   3
ENDBRANCH   1   2
BRANCH   1  26
ATOM     26  C   UNL A   1      32.476  27.578  26.635  1.00  0.00     0.021 C 
BRANCH  26  27
ATOM     27  C   UNL A   1      33.791  28.240  27.044  1.00  0.00     0.116 C 
BRANCH  27  28
ATOM     28  N   UNL A   1      33.611  29.652  27.334  1.00  0.00    -0.352 N 
ATOM     29  C   UNL A   1      34.431  30.508  28.026  1.00  0.00     0.251 C 
ATOM     30  H   UNL A   1      32.781  30.051  26.986  1.00  0.00     0.163 HD
ATOM     31  O   UNL A   1      34.005  31.596  28.397  1.00  0.00    -0.269 OA
BRANCH  29  32
ATOM     32  C   UNL A   1      35.825  30.114  28.323  1.00  0.00     0.039 A 
ATOM     33  C   UNL A   1      36.781  30.189  27.307  1.00  0.00     0.014 A 
ATOM     34  C   UNL A   1      36.177  29.636  29.590  1.00  0.00     0.014 A 
ATOM     35  C   UNL A   1      38.103  29.826  27.575  1.00  0.00     0.010 A 
ATOM     36  C   UNL A   1      37.508  29.332  29.871  1.00  0.00     0.010 A 
ATOM     37  C   UNL A   1      38.480  29.415  28.863  1.00  0.00    -0.014 A 
BRANCH  37  38
ATOM     38  C   UNL A   1      39.888  29.054  29.172  1.00  0.00     0.031 A 
ATOM     39  C   UNL A   1      40.802  30.062  29.812  1.00  0.00     0.074 A 
ATOM     40  C   UNL A   1      40.357  27.841  28.817  1.00  0.00     0.049 A 
ATOM     41  N   UNL A   1      42.073  29.955  30.102  1.00  0.00    -0.248 NA
ATOM     42  C   UNL A   1      40.216  31.370  30.146  1.00  0.00     0.031 C 
ATOM     43  C   UNL A   1      39.580  26.799  28.142  1.00  0.00     0.029 A 
ATOM     44  N   UNL A   1      41.602  27.286  28.963  1.00  0.00    -0.354 N 
ATOM     45  C   UNL A   1      42.444  31.185  30.633  1.00  0.00     0.074 A 
ATOM     46  C   UNL A   1      41.274  32.036  30.584  1.00  0.00     0.031 C 
ATOM     47  C   UNL A   1      40.364  25.726  27.945  1.00  0.00     0.029 A 
ATOM     48  C   UNL A   1      41.702  26.013  28.453  1.00  0.00     0.049 A 
ATOM     49  H   UNL A   1      42.354  27.754  29.392  1.00  0.00     0.167 HD
ATOM     50  C   UNL A   1      43.645  31.565  31.134  1.00  0.00     0.037 A 
ATOM     51  C   UNL A   1      42.754  25.174  28.396  1.00  0.00     0.037 A 
ATOM     52  C   UNL A   1      44.795  30.703  31.208  1.00  0.00     0.049 A 
ATOM     53  C   UNL A   1      44.069  25.605  28.984  1.00  0.00     0.074 A 
ATOM     54  C   UNL A   1      46.036  30.968  31.760  1.00  0.00     0.029 A 
ATOM     55  N   UNL A   1      44.847  29.407  30.715  1.00  0.00    -0.354 N 
ATOM     56  N   UNL A   1      44.385  26.749  29.544  1.00  0.00    -0.248 NA
ATOM     57  C   UNL A   1      45.167  24.631  28.943  1.00  0.00     0.031 C 
ATOM     58  C   UNL A   1      46.850  29.844  31.570  1.00  0.00     0.029 A 
ATOM     59  C   UNL A   1      46.102  28.865  30.935  1.00  0.00     0.049 A 
ATOM     60  H   UNL A   1      44.100  28.941  30.274  1.00  0.00     0.167 HD
ATOM     61  C   UNL A   1      45.711  26.625  29.940  1.00  0.00     0.074 A 
ATOM     62  C   UNL A   1      46.134  25.290  29.567  1.00  0.00     0.031 C 
ATOM     63  C   UNL A   1      46.506  27.534  30.558  1.00  0.00     0.037 A 
BRANCH  50  64
ATOM     64  C   UNL A   1      43.771  32.975  31.643  1.00  0.00     0.058 A 
ATOM     65  C   UNL A   1      43.546  33.294  32.991  1.00  0.00     0.135 A 
ATOM     66  C   UNL A   1      44.138  34.016  30.775  1.00  0.00     0.135 A 
ATOM     67  F   UNL A   1      43.178  32.339  33.860  1.00  0.00    -0.206 F 
ATOM     68  C   UNL A   1      43.645  34.601  33.456  1.00  0.00     0.059 A 
ATOM     69  C   UNL A   1      44.269  35.328  31.224  1.00  0.00     0.059 A 
ATOM     70  F   UNL A   1      44.366  33.767  29.477  1.00  0.00    -0.206 F 
ATOM     71  C   UNL A   1      44.002  35.613  32.562  1.00  0.00     0.060 A 
BRANCH  71  72
ATOM     72  S   UNL A   1      44.116  37.307  33.176  1.00  0.00     0.124 S 
ATOM     73  O   UNL A   1      45.300  37.228  34.026  1.00  0.00    -0.237 OA
ATOM     74  O   UNL A   1      44.270  38.078  31.947  1.00  0.00    -0.237 OA
ATOM     75  O   UNL A   1      42.851  37.499  33.878  1.00  0.00    -0.744 OA
ENDBRANCH  71  72
ENDBRANCH  50  64
BRANCH  51  76
ATOM     76  C   UNL A   1      42.592  23.830  27.784  1.00  0.00     0.058 A 
ATOM     77  C   UNL A   1      42.658  23.660  26.394  1.00  0.00     0.135 A 
ATOM     78  C   UNL A   1      42.404  22.687  28.577  1.00  0.00     0.135 A 
ATOM     79  F   UNL A   1      42.831  24.724  25.595  1.00  0.00    -0.206 F 
ATOM     80  C   UNL A   1      42.536  22.405  25.808  1.00  0.00     0.059 A 
ATOM     81  C   UNL A   1      42.302  21.418  28.016  1.00  0.00     0.059 A 
ATOM     82  F   UNL A   1      42.353  22.797  29.913  1.00  0.00    -0.206 F 
ATOM     83  C   UNL A   1      42.363  21.289  26.628  1.00  0.00     0.060 A 
BRANCH  83  84
ATOM     84  S   UNL A   1      42.276  19.654  25.863  1.00  0.00     0.124 S 
ATOM     85  O   UNL A   1      43.249  19.783  24.785  1.00  0.00    -0.237 OA
ATOM     86  O   UNL A   1      42.657  18.777  26.966  1.00  0.00    -0.237 OA
ATOM     87  O   UNL A   1      40.880  19.554  25.448  1.00  0.00    -0.744 OA
ENDBRANCH  83  84
ENDBRANCH  51  76
BRANCH  63  88
ATOM     88  C   UNL A   1      47.908  27.107  30.892  1.00  0.00     0.058 A 
ATOM     89  C   UNL A   1      48.242  26.604  32.159  1.00  0.00     0.135 A 
ATOM     90  C   UNL A   1      48.918  27.158  29.917  1.00  0.00     0.135 A 
ATOM     91  F   UNL A   1      47.313  26.542  33.127  1.00  0.00    -0.206 F 
ATOM     92  C   UNL A   1      49.534  26.187  32.456  1.00  0.00     0.059 A 
ATOM     93  C   UNL A   1      50.212  26.724  30.186  1.00  0.00     0.059 A 
ATOM     94  F   UNL A   1      48.648  27.621  28.687  1.00  0.00    -0.206 F 
ATOM     95  C   UNL A   1      50.514  26.251  31.463  1.00  0.00     0.060 A 
BRANCH  95  96
ATOM     96  S   UNL A   1      52.181  25.679  31.850  1.00  0.00     0.124 S 
ATOM     97  O   UNL A   1      52.935  26.178  30.705  1.00  0.00    -0.237 OA
ATOM     98  O   UNL A   1      52.453  26.336  33.124  1.00  0.00    -0.237 OA
ATOM     99  O   UNL A   1      52.033  24.227  31.921  1.00  0.00    -0.744 OA
ENDBRANCH  95  96
ENDBRANCH  63  88
ENDBRANCH  37  38
ENDBRANCH  29  32
ENDBRANCH  27  28
ENDBRANCH  26  27
ENDBRANCH   1  26
TORSDOF 19
ENDMDL
MODEL 2
REMARK VINA RESULT:     -10.7      4.094      8.233
REMARK SMILES [NH3+][C@H](CC(=O)NCCCCCCNC(=O)c1ccc(-c2c3nc(c(-c4c(F)cc(S(=O)(=O)[O-])cc4F)c4ccc([nH]4)c(-c4c(F)cc(S(=O)(=O)[O-])cc4F)c4nc(c(-c5c(F)cc(S(=O)(=O)[O-])cc5F)c5ccc2[nH]5)C=C4)C=C3)cc1)c1ccc2c(c1)OC(F)(F)O2
REMARK SMILES IDX 10 1 9 2 8 3 7 4 6 5 4 6 5 7 3 9 2 10 1 11 82 15 83 16 87 17
REMARK SMILES IDX 84 18 86 19 85 20 88 21 92 22 89 23 90 24 91 25 11 26 12 27
REMARK SMILES IDX 13 28 14 29 15 31 16 32 17 33 81 34 18 35 80 36 19 37 20 38
REMARK SMILES IDX 21 39 74 40 22 41 79 42 73 43 75 44 23 45 78 46 72 47 71 48
REMARK SMILES IDX 24 50 58 51 37 52 57 53 38 54 41 55 56 56 76 57 39 58 40 59
REMARK SMILES IDX 55 61 77 62 42 63 25 64 26 65 35 66 27 67 28 68 34 69 36 70
REMARK SMILES IDX 29 71 30 72 31 73 32 74 33 75 59 76 60 77 69 78 61 79 62 80
REMARK SMILES IDX 68 81 70 82 63 83 64 84 65 85 66 86 67 87 43 88 44 89 53 90
REMARK SMILES IDX 45 91 46 92 52 93 54 94 47 95 48 96 49 97 50 98 51 99
REMARK H PARENT 6 8 1 12 1 13 1 14 13 30 75 49 41 60
REMARK Flexibility Score: inf
ROOT
ATOM      1  C   UNL A   1      36.981  20.465  24.971  1.00  0.00     0.002 C 
ENDROOT
BRANCH   1   2
ATOM      2  C   UNL A   1      37.116  21.856  24.346  1.00  0.00     0.002 C 
BRANCH   2   3
ATOM      3  C   UNL A   1      35.916  22.772  24.584  1.00  0.00     0.021 C 
BRANCH   3   4
ATOM      4  C   UNL A   1      35.260  23.284  23.297  1.00  0.00     0.116 C 
BRANCH   4   5
ATOM      5  N   UNL A   1      34.044  24.000  23.616  1.00  0.00    -0.356 N 
ATOM      6  C   UNL A   1      32.751  23.582  23.557  1.00  0.00     0.226 C 
ATOM      7  O   UNL A   1      31.866  24.427  23.707  1.00  0.00    -0.275 OA
ATOM      8  H   UNL A   1      34.172  24.928  23.920  1.00  0.00     0.163 HD
BRANCH   6   9
ATOM      9  C   UNL A   1      32.401  22.114  23.390  1.00  0.00     0.170 C 
BRANCH   9  10
ATOM     10  C   UNL A   1      32.583  21.238  24.647  1.00  0.00     0.221 C 
BRANCH  10  11
ATOM     11  N   UNL A   1      31.555  21.536  25.659  1.00  0.00    -0.351 N 
ATOM     12  H   UNL A   1      31.660  22.501  25.977  1.00  0.00     0.345 HD
ATOM     13  H   UNL A   1      31.664  20.904  26.452  1.00  0.00     0.345 HD
ATOM     14  H   UNL A   1      30.628  21.413  25.250  1.00  0.00     0.345 HD
ENDBRANCH  10  11
BRANCH  10  15
ATOM     15  C   UNL A   1      32.415  19.728  24.450  1.00  0.00     0.014 A 
ATOM     16  C   UNL A   1      32.453  19.244  23.108  1.00  0.00     0.014 A 
ATOM     17  C   UNL A   1      32.553  18.818  25.508  1.00  0.00     0.060 A 
ATOM     18  C   UNL A   1      32.765  17.913  22.821  1.00  0.00     0.051 A 
ATOM     19  C   UNL A   1      32.885  17.521  25.192  1.00  0.00     0.173 A 
ATOM     20  C   UNL A   1      33.024  17.090  23.890  1.00  0.00     0.172 A 
ATOM     21  O   UNL A   1      33.245  16.567  26.096  1.00  0.00    -0.395 OA
ATOM     22  O   UNL A   1      33.521  15.824  23.820  1.00  0.00    -0.395 OA
ATOM     23  C   UNL A   1      33.874  15.644  25.198  1.00  0.00     0.586 C 
ATOM     24  F   UNL A   1      35.219  15.781  25.328  1.00  0.00    -0.125 F 
ATOM     25  F   UNL A   1      33.555  14.381  25.573  1.00  0.00    -0.125 F 
ENDBRANCH  10  15
ENDBRANCH   9  10
ENDBRANCH   6   9
ENDBRANCH   4   5
ENDBRANCH   3   4
ENDBRANCH   2   3
ENDBRANCH   1   2
BRANCH   1  26
ATOM     26  C   UNL A   1      38.256  19.615  24.955  1.00  0.00     0.021 C 
BRANCH  26  27
ATOM     27  C   UNL A   1      39.377  20.124  25.860  1.00  0.00     0.116 C 
BRANCH  27  28
ATOM     28  N   UNL A   1      40.396  19.111  26.070  1.00  0.00    -0.352 N 
ATOM     29  C   UNL A   1      41.754  19.261  26.210  1.00  0.00     0.251 C 
ATOM     30  H   UNL A   1      40.066  18.184  26.117  1.00  0.00     0.163 HD
ATOM     31  O   UNL A   1      42.488  18.283  26.120  1.00  0.00    -0.269 OA
BRANCH  29  32
ATOM     32  C   UNL A   1      42.325  20.601  26.465  1.00  0.00     0.039 A 
ATOM     33  C   UNL A   1      42.789  21.356  25.385  1.00  0.00     0.014 A 
ATOM     34  C   UNL A   1      42.435  21.093  27.770  1.00  0.00     0.014 A 
ATOM     35  C   UNL A   1      43.325  22.626  25.611  1.00  0.00     0.010 A 
ATOM     36  C   UNL A   1      42.914  22.383  27.986  1.00  0.00     0.010 A 
ATOM     37  C   UNL A   1      43.373  23.157  26.910  1.00  0.00    -0.014 A 
BRANCH  37  38
ATOM     38  C   UNL A   1      43.913  24.517  27.163  1.00  0.00     0.031 A 
ATOM     39  C   UNL A   1      42.991  25.628  27.585  1.00  0.00     0.074 A 
ATOM     40  C   UNL A   1      45.220  24.764  26.950  1.00  0.00     0.049 A 
ATOM     41  N   UNL A   1      43.262  26.891  27.794  1.00  0.00    -0.248 NA
ATOM     42  C   UNL A   1      41.574  25.278  27.772  1.00  0.00     0.031 C 
ATOM     43  C   UNL A   1      46.202  23.781  26.489  1.00  0.00     0.029 A 
ATOM     44  N   UNL A   1      45.945  25.921  27.082  1.00  0.00    -0.354 N 
ATOM     45  C   UNL A   1      42.050  27.490  28.116  1.00  0.00     0.074 A 
ATOM     46  C   UNL A   1      41.035  26.461  28.033  1.00  0.00     0.031 C 
ATOM     47  C   UNL A   1      47.403  24.373  26.389  1.00  0.00     0.029 A 
ATOM     48  C   UNL A   1      47.272  25.781  26.752  1.00  0.00     0.049 A 
ATOM     49  H   UNL A   1      45.552  26.772  27.384  1.00  0.00     0.167 HD
ATOM     50  C   UNL A   1      41.807  28.776  28.469  1.00  0.00     0.037 A 
ATOM     51  C   UNL A   1      48.270  26.686  26.738  1.00  0.00     0.037 A 
ATOM     52  C   UNL A   1      42.826  29.786  28.581  1.00  0.00     0.049 A 
ATOM     53  C   UNL A   1      47.983  28.100  27.161  1.00  0.00     0.074 A 
ATOM     54  C   UNL A   1      42.695  31.099  28.997  1.00  0.00     0.029 A 
ATOM     55  N   UNL A   1      44.166  29.597  28.274  1.00  0.00    -0.354 N 
ATOM     56  N   UNL A   1      46.843  28.634  27.528  1.00  0.00    -0.248 NA
ATOM     57  C   UNL A   1      49.119  29.032  27.178  1.00  0.00     0.031 C 
ATOM     58  C   UNL A   1      43.950  31.714  28.910  1.00  0.00     0.029 A 
ATOM     59  C   UNL A   1      44.870  30.772  28.477  1.00  0.00     0.049 A 
ATOM     60  H   UNL A   1      44.559  28.751  27.959  1.00  0.00     0.167 HD
ATOM     61  C   UNL A   1      47.127  29.959  27.840  1.00  0.00     0.074 A 
ATOM     62  C   UNL A   1      48.549  30.141  27.630  1.00  0.00     0.031 C 
ATOM     63  C   UNL A   1      46.286  30.935  28.263  1.00  0.00     0.037 A 
BRANCH  50  64
ATOM     64  C   UNL A   1      40.382  29.158  28.762  1.00  0.00     0.058 A 
ATOM     65  C   UNL A   1      39.896  29.239  30.077  1.00  0.00     0.135 A 
ATOM     66  C   UNL A   1      39.496  29.463  27.717  1.00  0.00     0.135 A 
ATOM     67  F   UNL A   1      40.698  28.942  31.113  1.00  0.00    -0.206 F 
ATOM     68  C   UNL A   1      38.574  29.575  30.345  1.00  0.00     0.059 A 
ATOM     69  C   UNL A   1      38.174  29.828  27.963  1.00  0.00     0.059 A 
ATOM     70  F   UNL A   1      39.908  29.403  26.441  1.00  0.00    -0.206 F 
ATOM     71  C   UNL A   1      37.719  29.863  29.280  1.00  0.00     0.060 A 
BRANCH  71  72
ATOM     72  S   UNL A   1      36.001  30.286  29.641  1.00  0.00     0.124 S 
ATOM     73  O   UNL A   1      35.843  29.735  30.983  1.00  0.00    -0.237 OA
ATOM     74  O   UNL A   1      36.011  31.743  29.553  1.00  0.00    -0.237 OA
ATOM     75  O   UNL A   1      35.255  29.603  28.590  1.00  0.00    -0.744 OA
ENDBRANCH  71  72
ENDBRANCH  50  64
BRANCH  51  76
ATOM     76  C   UNL A   1      49.638  26.268  26.336  1.00  0.00     0.058 A 
ATOM     77  C   UNL A   1      50.071  26.403  25.009  1.00  0.00     0.135 A 
ATOM     78  C   UNL A   1      50.549  25.760  27.275  1.00  0.00     0.135 A 
ATOM     79  F   UNL A   1      49.233  26.880  24.076  1.00  0.00    -0.206 F 
ATOM     80  C   UNL A   1      51.357  26.043  24.624  1.00  0.00     0.059 A 
ATOM     81  C   UNL A   1      51.848  25.413  26.918  1.00  0.00     0.059 A 
ATOM     82  F   UNL A   1      50.186  25.629  28.560  1.00  0.00    -0.206 F 
ATOM     83  C   UNL A   1      52.241  25.553  25.587  1.00  0.00     0.060 A 
BRANCH  83  84
ATOM     84  S   UNL A   1      53.932  25.154  25.091  1.00  0.00     0.124 S 
ATOM     85  O   UNL A   1      53.849  23.710  24.902  1.00  0.00    -0.237 OA
ATOM     86  O   UNL A   1      54.093  25.949  23.879  1.00  0.00    -0.237 OA
ATOM     87  O   UNL A   1      54.727  25.598  26.232  1.00  0.00    -0.744 OA
ENDBRANCH  83  84
ENDBRANCH  51  76
BRANCH  63  88
ATOM     88  C   UNL A   1      46.886  32.283  28.551  1.00  0.00     0.058 A 
ATOM     89  C   UNL A   1      47.455  32.583  29.798  1.00  0.00     0.135 A 
ATOM     90  C   UNL A   1      46.933  33.269  27.551  1.00  0.00     0.135 A 
ATOM     91  F   UNL A   1      47.430  31.677  30.788  1.00  0.00    -0.206 F 
ATOM     92  C   UNL A   1      48.032  33.823  30.052  1.00  0.00     0.059 A 
ATOM     93  C   UNL A   1      47.525  34.506  27.776  1.00  0.00     0.059 A 
ATOM     94  F   UNL A   1      46.411  33.027  26.338  1.00  0.00    -0.206 F 
ATOM     95  C   UNL A   1      48.062  34.779  29.035  1.00  0.00     0.060 A 
BRANCH  95  96
ATOM     96  S   UNL A   1      48.840  36.374  29.366  1.00  0.00     0.124 S 
ATOM     97  O   UNL A   1      50.155  36.188  28.764  1.00  0.00    -0.237 OA
ATOM     98  O   UNL A   1      47.953  37.307  28.678  1.00  0.00    -0.237 OA
ATOM     99  O   UNL A   1      48.823  36.463  30.824  1.00  0.00    -0.744 OA
ENDBRANCH  95  96
ENDBRANCH  63  88
ENDBRANCH  37  38
ENDBRANCH  29  32
ENDBRANCH  27  28
ENDBRANCH  26  27
ENDBRANCH   1  26
TORSDOF 19
ENDMDL
MODEL 3
REMARK VINA RESULT:     -10.7      3.905      5.525
REMARK SMILES [NH3+][C@H](CC(=O)NCCCCCCNC(=O)c1ccc(-c2c3nc(c(-c4c(F)cc(S(=O)(=O)[O-])cc4F)c4ccc([nH]4)c(-c4c(F)cc(S(=O)(=O)[O-])cc4F)c4nc(c(-c5c(F)cc(S(=O)(=O)[O-])cc5F)c5ccc2[nH]5)C=C4)C=C3)cc1)c1ccc2c(c1)OC(F)(F)O2
REMARK SMILES IDX 10 1 9 2 8 3 7 4 6 5 4 6 5 7 3 9 2 10 1 11 82 15 83 16 87 17
REMARK SMILES IDX 84 18 86 19 85 20 88 21 92 22 89 23 90 24 91 25 11 26 12 27
REMARK SMILES IDX 13 28 14 29 15 31 16 32 17 33 81 34 18 35 80 36 19 37 20 38
REMARK SMILES IDX 21 39 74 40 22 41 79 42 73 43 75 44 23 45 78 46 72 47 71 48
REMARK SMILES IDX 24 50 58 51 37 52 57 53 38 54 41 55 56 56 76 57 39 58 40 59
REMARK SMILES IDX 55 61 77 62 42 63 25 64 26 65 35 66 27 67 28 68 34 69 36 70
REMARK SMILES IDX 29 71 30 72 31 73 32 74 33 75 59 76 60 77 69 78 61 79 62 80
REMARK SMILES IDX 68 81 70 82 63 83 64 84 65 85 66 86 67 87 43 88 44 89 53 90
REMARK SMILES IDX 45 91 46 92 52 93 54 94 47 95 48 96 49 97 50 98 51 99
REMARK H PARENT 6 8 1 12 1 13 1 14 13 30 75 49 41 60
REMARK Flexibility Score: inf
ROOT
ATOM      1  C   UNL A   1      34.652  32.050  28.086  1.00  0.00     0.002 C 
ENDROOT
BRANCH   1   2
ATOM      2  C   UNL A   1      34.587  30.699  27.369  1.00  0.00     0.002 C 
BRANCH   2   3
ATOM      3  C   UNL A   1      33.175  30.263  26.977  1.00  0.00     0.021 C 
BRANCH   3   4
ATOM      4  C   UNL A   1      32.771  28.894  27.532  1.00  0.00     0.116 C 
BRANCH   4   5
ATOM      5  N   UNL A   1      33.367  27.844  26.735  1.00  0.00    -0.356 N 
ATOM      6  C   UNL A   1      32.812  27.074  25.761  1.00  0.00     0.226 C 
ATOM      7  O   UNL A   1      33.465  26.117  25.341  1.00  0.00    -0.275 OA
ATOM      8  H   UNL A   1      34.314  27.658  26.927  1.00  0.00     0.163 HD
BRANCH   6   9
ATOM      9  C   UNL A   1      31.465  27.420  25.149  1.00  0.00     0.170 C 
BRANCH   9  10
ATOM     10  C   UNL A   1      31.385  27.317  23.612  1.00  0.00     0.221 C 
BRANCH  10  11
ATOM     11  N   UNL A   1      31.159  25.927  23.181  1.00  0.00    -0.351 N 
ATOM     12  H   UNL A   1      30.164  25.709  23.243  1.00  0.00     0.345 HD
ATOM     13  H   UNL A   1      31.684  25.294  23.784  1.00  0.00     0.345 HD
ATOM     14  H   UNL A   1      31.472  25.814  22.217  1.00  0.00     0.345 HD
ENDBRANCH  10  11
BRANCH  10  15
ATOM     15  C   UNL A   1      30.221  28.056  22.944  1.00  0.00     0.014 A 
ATOM     16  C   UNL A   1      28.903  27.641  23.301  1.00  0.00     0.014 A 
ATOM     17  C   UNL A   1      30.395  29.281  22.285  1.00  0.00     0.060 A 
ATOM     18  C   UNL A   1      27.803  28.486  23.139  1.00  0.00     0.051 A 
ATOM     19  C   UNL A   1      29.296  30.101  22.164  1.00  0.00     0.173 A 
ATOM     20  C   UNL A   1      28.046  29.730  22.610  1.00  0.00     0.172 A 
ATOM     21  O   UNL A   1      29.331  31.392  21.730  1.00  0.00    -0.395 OA
ATOM     22  O   UNL A   1      27.153  30.757  22.543  1.00  0.00    -0.395 OA
ATOM     23  C   UNL A   1      28.060  31.823  22.231  1.00  0.00     0.586 C 
ATOM     24  F   UNL A   1      28.276  32.558  23.353  1.00  0.00    -0.125 F 
ATOM     25  F   UNL A   1      27.482  32.638  21.315  1.00  0.00    -0.125 F 
ENDBRANCH  10  15
ENDBRANCH   9  10
ENDBRANCH   6   9
ENDBRANCH   4   5
ENDBRANCH   3   4
ENDBRANCH   2   3
ENDBRANCH   1   2
BRANCH   1  26
ATOM     26  C   UNL A   1      36.013  32.753  28.034  1.00  0.00     0.021 C 
BRANCH  26  27
ATOM     27  C   UNL A   1      36.608  33.099  29.398  1.00  0.00     0.116 C 
BRANCH  27  28
ATOM     28  N   UNL A   1      36.108  32.218  30.440  1.00  0.00    -0.352 N 
ATOM     29  C   UNL A   1      36.567  30.985  30.829  1.00  0.00     0.251 C 
ATOM     30  H   UNL A   1      35.326  32.554  30.935  1.00  0.00     0.163 HD
ATOM     31  O   UNL A   1      35.872  30.272  31.544  1.00  0.00    -0.269 OA
BRANCH  29  32
ATOM     32  C   UNL A   1      37.897  30.519  30.382  1.00  0.00     0.039 A 
ATOM     33  C   UNL A   1      38.061  30.107  29.056  1.00  0.00     0.014 A 
ATOM     34  C   UNL A   1      38.969  30.455  31.278  1.00  0.00     0.014 A 
ATOM     35  C   UNL A   1      39.313  29.672  28.618  1.00  0.00     0.010 A 
ATOM     36  C   UNL A   1      40.231  30.077  30.823  1.00  0.00     0.010 A 
ATOM     37  C   UNL A   1      40.412  29.672  29.492  1.00  0.00    -0.014 A 
BRANCH  37  38
ATOM     38  C   UNL A   1      41.757  29.239  29.034  1.00  0.00     0.031 A 
ATOM     39  C   UNL A   1      42.880  30.235  28.948  1.00  0.00     0.074 A 
ATOM     40  C   UNL A   1      41.946  27.966  28.637  1.00  0.00     0.049 A 
ATOM     41  N   UNL A   1      44.103  30.064  28.516  1.00  0.00    -0.248 NA
ATOM     42  C   UNL A   1      42.582  31.610  29.378  1.00  0.00     0.031 C 
ATOM     43  C   UNL A   1      40.919  26.922  28.625  1.00  0.00     0.029 A 
ATOM     44  N   UNL A   1      43.065  27.336  28.155  1.00  0.00    -0.354 N 
ATOM     45  C   UNL A   1      44.714  31.309  28.603  1.00  0.00     0.074 A 
ATOM     46  C   UNL A   1      43.714  32.236  29.089  1.00  0.00     0.031 C 
ATOM     47  C   UNL A   1      41.459  25.780  28.171  1.00  0.00     0.029 A 
ATOM     48  C   UNL A   1      42.860  26.015  27.835  1.00  0.00     0.049 A 
ATOM     49  H   UNL A   1      43.933  27.788  28.048  1.00  0.00     0.167 HD
ATOM     50  C   UNL A   1      45.997  31.646  28.324  1.00  0.00     0.037 A 
ATOM     51  C   UNL A   1      43.705  25.098  27.324  1.00  0.00     0.037 A 
ATOM     52  C   UNL A   1      46.994  30.712  27.873  1.00  0.00     0.049 A 
ATOM     53  C   UNL A   1      45.131  25.486  27.050  1.00  0.00     0.074 A 
ATOM     54  C   UNL A   1      48.338  30.937  27.629  1.00  0.00     0.029 A 
ATOM     55  N   UNL A   1      46.758  29.373  27.596  1.00  0.00    -0.354 N 
ATOM     56  N   UNL A   1      45.710  26.653  27.202  1.00  0.00    -0.248 NA
ATOM     57  C   UNL A   1      46.021  24.433  26.544  1.00  0.00     0.031 C 
ATOM     58  C   UNL A   1      48.907  29.742  27.171  1.00  0.00     0.029 A 
ATOM     59  C   UNL A   1      47.926  28.763  27.169  1.00  0.00     0.049 A 
ATOM     60  H   UNL A   1      45.888  28.922  27.690  1.00  0.00     0.167 HD
ATOM     61  C   UNL A   1      47.037  26.470  26.831  1.00  0.00     0.074 A 
ATOM     62  C   UNL A   1      47.177  25.077  26.459  1.00  0.00     0.031 C 
ATOM     63  C   UNL A   1      48.048  27.375  26.803  1.00  0.00     0.037 A 
BRANCH  50  64
ATOM     64  C   UNL A   1      46.391  33.086  28.504  1.00  0.00     0.058 A 
ATOM     65  C   UNL A   1      46.296  34.013  27.453  1.00  0.00     0.135 A 
ATOM     66  C   UNL A   1      46.854  33.550  29.746  1.00  0.00     0.135 A 
ATOM     67  F   UNL A   1      45.875  33.619  26.240  1.00  0.00    -0.206 F 
ATOM     68  C   UNL A   1      46.678  35.340  27.616  1.00  0.00     0.059 A 
ATOM     69  C   UNL A   1      47.217  34.881  29.939  1.00  0.00     0.059 A 
ATOM     70  F   UNL A   1      46.964  32.708  30.785  1.00  0.00    -0.206 F 
ATOM     71  C   UNL A   1      47.143  35.763  28.863  1.00  0.00     0.060 A 
BRANCH  71  72
ATOM     72  S   UNL A   1      47.646  37.486  29.057  1.00  0.00     0.124 S 
ATOM     73  O   UNL A   1      47.753  37.595  30.509  1.00  0.00    -0.237 OA
ATOM     74  O   UNL A   1      48.907  37.530  28.325  1.00  0.00    -0.237 OA
ATOM     75  O   UNL A   1      46.547  38.231  28.451  1.00  0.00    -0.744 OA
ENDBRANCH  71  72
ENDBRANCH  50  64
BRANCH  51  76
ATOM     76  C   UNL A   1      43.223  23.715  27.070  1.00  0.00     0.058 A 
ATOM     77  C   UNL A   1      42.875  23.301  25.777  1.00  0.00     0.135 A 
ATOM     78  C   UNL A   1      43.138  22.773  28.107  1.00  0.00     0.135 A 
ATOM     79  F   UNL A   1      42.937  24.169  24.755  1.00  0.00    -0.206 F 
ATOM     80  C   UNL A   1      42.450  22.002  25.519  1.00  0.00     0.059 A 
ATOM     81  C   UNL A   1      42.737  21.462  27.869  1.00  0.00     0.059 A 
ATOM     82  F   UNL A   1      43.478  23.117  29.358  1.00  0.00    -0.206 F 
ATOM     83  C   UNL A   1      42.389  21.088  26.571  1.00  0.00     0.060 A 
BRANCH  83  84
ATOM     84  S   UNL A   1      41.904  19.385  26.215  1.00  0.00     0.124 S 
ATOM     85  O   UNL A   1      42.749  19.073  25.068  1.00  0.00    -0.237 OA
ATOM     86  O   UNL A   1      42.239  18.702  27.459  1.00  0.00    -0.237 OA
ATOM     87  O   UNL A   1      40.475  19.497  25.937  1.00  0.00    -0.744 OA
ENDBRANCH  83  84
ENDBRANCH  51  76
BRANCH  63  88
ATOM     88  C   UNL A   1      49.402  26.879  26.377  1.00  0.00     0.058 A 
ATOM     89  C   UNL A   1      50.265  26.234  27.275  1.00  0.00     0.135 A 
ATOM     90  C   UNL A   1      49.819  27.011  25.042  1.00  0.00     0.135 A 
ATOM     91  F   UNL A   1      49.914  26.089  28.563  1.00  0.00    -0.206 F 
ATOM     92  C   UNL A   1      51.506  25.756  26.871  1.00  0.00     0.059 A 
ATOM     93  C   UNL A   1      51.046  26.519  24.611  1.00  0.00     0.059 A 
ATOM     94  F   UNL A   1      49.026  27.612  24.141  1.00  0.00    -0.206 F 
ATOM     95  C   UNL A   1      51.889  25.903  25.536  1.00  0.00     0.060 A 
BRANCH  95  96
ATOM     96  S   UNL A   1      53.489  25.251  25.016  1.00  0.00     0.124 S 
ATOM     97  O   UNL A   1      53.314  23.822  25.250  1.00  0.00    -0.237 OA
ATOM     98  O   UNL A   1      53.558  25.660  23.617  1.00  0.00    -0.237 OA
ATOM     99  O   UNL A   1      54.434  25.922  25.905  1.00  0.00    -0.744 OA
ENDBRANCH  95  96
ENDBRANCH  63  88
ENDBRANCH  37  38
ENDBRANCH  29  32
ENDBRANCH  27  28
ENDBRANCH  26  27
ENDBRANCH   1  26
TORSDOF 19
ENDMDL
