MODEL 1
REMARK VINA RESULT:     -11.8      0.000      0.000
REMARK SMILES O=C(NCc1ccc(C(=O)NCCCCCCNC(=O)c2ccc(-c3c4nc(c(-c5c(F)cc(S(=O)(=O)[O-])cc5F)c5ccc([nH]5)c(-c5c(F)cc(S(=O)(=O)[O-])cc5F)c5nc(c(-c6c(F)cc(S(=O)(=O)[O-])cc6F)c6ccc3[nH]6)C=C5)C=C4)cc2)cc1)Nc1ccccc1Br
REMARK SMILES IDX 14 1 13 2 12 3 11 4 9 5 10 6 8 8 5 9 6 10 88 11 7 12 87 13
REMARK SMILES IDX 4 14 3 15 1 16 2 17 89 18 90 21 91 22 95 23 92 24 94 25
REMARK SMILES IDX 96 26 93 27 15 28 16 29 17 30 18 31 19 32 20 34 21 35 22 36
REMARK SMILES IDX 86 37 23 38 85 39 24 40 25 41 26 42 79 43 27 44 84 45 78 46
REMARK SMILES IDX 80 47 28 48 83 49 77 50 76 51 29 53 63 54 42 55 62 56 43 57
REMARK SMILES IDX 46 58 61 59 81 60 44 61 45 62 60 64 82 65 47 66 30 67 31 68
REMARK SMILES IDX 40 69 32 70 33 71 39 72 41 73 34 74 35 75 36 76 37 77 38 78
REMARK SMILES IDX 64 79 65 80 74 81 66 82 67 83 73 84 75 85 68 86 69 87 70 88
REMARK SMILES IDX 71 89 72 90 48 91 49 92 58 93 50 94 51 95 57 96 59 97 52 98
REMARK SMILES IDX 53 99 54 100 55 101 56 102
REMARK H PARENT 11 7 3 19 89 20 18 33 80 52 46 63
REMARK Flexibility Score: inf
ROOT
ATOM      1  C   UNL A   1      39.964  22.599  27.257  1.00  0.00     0.002 C 
ENDROOT
BRANCH   1   2
ATOM      2  C   UNL A   1      38.865  23.205  26.375  1.00  0.00     0.021 C 
BRANCH   2   3
ATOM      3  C   UNL A   1      37.928  22.156  25.769  1.00  0.00     0.116 C 
BRANCH   3   4
ATOM      4  N   UNL A   1      37.713  22.438  24.362  1.00  0.00    -0.352 N 
ATOM      5  C   UNL A   1      36.589  22.770  23.653  1.00  0.00     0.251 C 
ATOM      6  O   UNL A   1      36.706  22.965  22.443  1.00  0.00    -0.269 OA
ATOM      7  H   UNL A   1      38.529  22.380  23.814  1.00  0.00     0.163 HD
BRANCH   5   8
ATOM      8  C   UNL A   1      35.258  22.963  24.290  1.00  0.00     0.039 A 
ATOM      9  C   UNL A   1      32.819  23.459  25.621  1.00  0.00    -0.029 A 
ATOM     10  C   UNL A   1      33.878  24.369  25.720  1.00  0.00     0.006 A 
ATOM     11  C   UNL A   1      32.975  22.327  24.813  1.00  0.00     0.006 A 
ATOM     12  C   UNL A   1      35.087  24.120  25.064  1.00  0.00     0.014 A 
ATOM     13  C   UNL A   1      34.175  22.095  24.131  1.00  0.00     0.014 A 
BRANCH   9  14
ATOM     14  C   UNL A   1      31.512  23.722  26.322  1.00  0.00     0.153 C 
BRANCH  14  15
ATOM     15  N   UNL A   1      31.451  25.063  26.865  1.00  0.00    -0.334 N 
ATOM     16  O   UNL A   1      31.137  27.263  26.952  1.00  0.00    -0.248 OA
ATOM     17  C   UNL A   1      31.082  26.238  26.283  1.00  0.00     0.319 C 
ATOM     18  N   UNL A   1      30.627  26.148  24.998  1.00  0.00    -0.307 N 
ATOM     19  H   UNL A   1      31.719  25.137  27.808  1.00  0.00     0.165 HD
ATOM     20  H   UNL A   1      30.428  25.244  24.665  1.00  0.00     0.171 HD
BRANCH  18  21
ATOM     21  C   UNL A   1      30.412  27.215  24.097  1.00  0.00     0.057 A 
ATOM     22  C   UNL A   1      29.070  27.418  23.727  1.00  0.00     0.027 A 
ATOM     23  C   UNL A   1      31.394  28.038  23.520  1.00  0.00     0.041 A 
ATOM     24  C   UNL A   1      28.703  28.459  22.871  1.00  0.00     0.002 A 
ATOM     25  C   UNL A   1      31.016  29.092  22.673  1.00  0.00     0.018 A 
ATOM     26  Br  UNL A   1      33.266  27.701  23.604  1.00  0.00    -0.049 Br
ATOM     27  C   UNL A   1      29.675  29.308  22.358  1.00  0.00     0.001 A 
ENDBRANCH  18  21
ENDBRANCH  14  15
ENDBRANCH   9  14
ENDBRANCH   5   8
ENDBRANCH   3   4
ENDBRANCH   2   3
ENDBRANCH   1   2
BRANCH   1  28
ATOM     28  C   UNL A   1      41.112  21.934  26.486  1.00  0.00     0.002 C 
BRANCH  28  29
ATOM     29  C   UNL A   1      42.485  22.036  27.156  1.00  0.00     0.021 C 
BRANCH  29  30
ATOM     30  C   UNL A   1      43.021  23.458  27.281  1.00  0.00     0.116 C 
BRANCH  30  31
ATOM     31  N   UNL A   1      42.884  24.193  26.034  1.00  0.00    -0.352 N 
ATOM     32  C   UNL A   1      42.345  25.437  25.817  1.00  0.00     0.251 C 
ATOM     33  H   UNL A   1      43.226  23.736  25.233  1.00  0.00     0.163 HD
ATOM     34  O   UNL A   1      42.097  25.807  24.675  1.00  0.00    -0.269 OA
BRANCH  32  35
ATOM     35  C   UNL A   1      42.055  26.322  26.966  1.00  0.00     0.039 A 
ATOM     36  C   UNL A   1      41.029  25.976  27.848  1.00  0.00     0.014 A 
ATOM     37  C   UNL A   1      42.780  27.503  27.158  1.00  0.00     0.014 A 
ATOM     38  C   UNL A   1      40.758  26.792  28.948  1.00  0.00     0.010 A 
ATOM     39  C   UNL A   1      42.555  28.279  28.291  1.00  0.00     0.010 A 
ATOM     40  C   UNL A   1      41.534  27.938  29.192  1.00  0.00    -0.014 A 
BRANCH  40  41
ATOM     41  C   UNL A   1      41.281  28.801  30.374  1.00  0.00     0.031 A 
ATOM     42  C   UNL A   1      42.117  28.641  31.615  1.00  0.00     0.074 A 
ATOM     43  C   UNL A   1      40.263  29.683  30.350  1.00  0.00     0.049 A 
ATOM     44  N   UNL A   1      42.009  29.249  32.768  1.00  0.00    -0.248 NA
ATOM     45  C   UNL A   1      43.200  27.645  31.563  1.00  0.00     0.031 C 
ATOM     46  C   UNL A   1      39.353  29.894  29.222  1.00  0.00     0.029 A 
ATOM     47  N   UNL A   1      39.815  30.560  31.305  1.00  0.00    -0.354 N 
ATOM     48  C   UNL A   1      42.995  28.702  33.580  1.00  0.00     0.074 A 
ATOM     49  C   UNL A   1      43.657  27.675  32.807  1.00  0.00     0.031 C 
ATOM     50  C   UNL A   1      38.469  30.853  29.542  1.00  0.00     0.029 A 
ATOM     51  C   UNL A   1      38.726  31.300  30.907  1.00  0.00     0.049 A 
ATOM     52  H   UNL A   1      40.234  30.651  32.192  1.00  0.00     0.167 HD
ATOM     53  C   UNL A   1      43.333  29.042  34.847  1.00  0.00     0.037 A 
ATOM     54  C   UNL A   1      38.014  32.231  31.571  1.00  0.00     0.037 A 
ATOM     55  C   UNL A   1      42.689  30.085  35.600  1.00  0.00     0.049 A 
ATOM     56  C   UNL A   1      38.415  32.600  32.973  1.00  0.00     0.074 A 
ATOM     57  C   UNL A   1      42.994  30.547  36.868  1.00  0.00     0.029 A 
ATOM     58  N   UNL A   1      41.609  30.834  35.152  1.00  0.00    -0.354 N 
ATOM     59  N   UNL A   1      39.389  32.113  33.705  1.00  0.00    -0.248 NA
ATOM     60  C   UNL A   1      37.629  33.648  33.637  1.00  0.00     0.031 C 
ATOM     61  C   UNL A   1      42.075  31.547  37.203  1.00  0.00     0.029 A 
ATOM     62  C   UNL A   1      41.226  31.742  36.126  1.00  0.00     0.049 A 
ATOM     63  H   UNL A   1      41.179  30.734  34.273  1.00  0.00     0.167 HD
ATOM     64  C   UNL A   1      39.351  32.817  34.904  1.00  0.00     0.074 A 
ATOM     65  C   UNL A   1      38.264  33.768  34.795  1.00  0.00     0.031 C 
ATOM     66  C   UNL A   1      40.146  32.688  35.996  1.00  0.00     0.037 A 
BRANCH  53  67
ATOM     67  C   UNL A   1      44.456  28.278  35.498  1.00  0.00     0.058 A 
ATOM     68  C   UNL A   1      45.790  28.710  35.407  1.00  0.00     0.135 A 
ATOM     69  C   UNL A   1      44.193  27.121  36.247  1.00  0.00     0.135 A 
ATOM     70  F   UNL A   1      46.100  29.802  34.691  1.00  0.00    -0.206 F 
ATOM     71  C   UNL A   1      46.826  28.003  36.009  1.00  0.00     0.059 A 
ATOM     72  C   UNL A   1      45.211  26.414  36.882  1.00  0.00     0.059 A 
ATOM     73  F   UNL A   1      42.937  26.663  36.368  1.00  0.00    -0.206 F 
ATOM     74  C   UNL A   1      46.526  26.855  36.744  1.00  0.00     0.060 A 
BRANCH  74  75
ATOM     75  S   UNL A   1      47.881  25.950  37.519  1.00  0.00     0.124 S 
ATOM     76  O   UNL A   1      47.521  26.041  38.931  1.00  0.00    -0.237 OA
ATOM     77  O   UNL A   1      47.757  24.625  36.920  1.00  0.00    -0.237 OA
ATOM     78  O   UNL A   1      49.066  26.705  37.125  1.00  0.00    -0.744 OA
ENDBRANCH  74  75
ENDBRANCH  53  67
BRANCH  54  79
ATOM     79  C   UNL A   1      36.864  32.899  30.904  1.00  0.00     0.058 A 
ATOM     80  C   UNL A   1      35.544  32.554  31.228  1.00  0.00     0.135 A 
ATOM     81  C   UNL A   1      37.061  33.905  29.946  1.00  0.00     0.135 A 
ATOM     82  F   UNL A   1      35.305  31.594  32.135  1.00  0.00    -0.206 F 
ATOM     83  C   UNL A   1      34.458  33.170  30.614  1.00  0.00     0.059 A 
ATOM     84  C   UNL A   1      35.991  34.553  29.337  1.00  0.00     0.059 A 
ATOM     85  F   UNL A   1      38.305  34.285  29.615  1.00  0.00    -0.206 F 
ATOM     86  C   UNL A   1      34.692  34.171  29.671  1.00  0.00     0.060 A 
BRANCH  86  87
ATOM     87  S   UNL A   1      33.275  35.000  28.916  1.00  0.00     0.124 S 
ATOM     88  O   UNL A   1      32.442  35.272  30.081  1.00  0.00    -0.237 OA
ATOM     89  O   UNL A   1      33.897  36.161  28.289  1.00  0.00    -0.237 OA
ATOM     90  O   UNL A   1      32.759  33.998  27.989  1.00  0.00    -0.744 OA
ENDBRANCH  86  87
ENDBRANCH  54  79
BRANCH  66  91
ATOM     91  C   UNL A   1      39.896  33.621  37.147  1.00  0.00     0.058 A 
ATOM     92  C   UNL A   1      40.503  34.885  37.218  1.00  0.00     0.135 A 
ATOM     93  C   UNL A   1      38.993  33.267  38.163  1.00  0.00     0.135 A 
ATOM     94  F   UNL A   1      41.379  35.268  36.276  1.00  0.00    -0.206 F 
ATOM     95  C   UNL A   1      40.241  35.757  38.270  1.00  0.00     0.059 A 
ATOM     96  C   UNL A   1      38.694  34.135  39.209  1.00  0.00     0.059 A 
ATOM     97  F   UNL A   1      38.377  32.075  38.136  1.00  0.00    -0.206 F 
ATOM     98  C   UNL A   1      39.332  35.374  39.259  1.00  0.00     0.060 A 
BRANCH  98  99
ATOM     99  S   UNL A   1      38.971  36.531  40.597  1.00  0.00     0.124 S 
ATOM    100  O   UNL A   1      37.889  35.843  41.295  1.00  0.00    -0.237 OA
ATOM    101  O   UNL A   1      40.245  36.594  41.308  1.00  0.00    -0.237 OA
ATOM    102  O   UNL A   1      38.590  37.753  39.896  1.00  0.00    -0.744 OA
ENDBRANCH  98  99
ENDBRANCH  66  91
ENDBRANCH  40  41
ENDBRANCH  32  35
ENDBRANCH  30  31
ENDBRANCH  29  30
ENDBRANCH  28  29
ENDBRANCH   1  28
TORSDOF 19
ENDMDL
MODEL 2
REMARK VINA RESULT:     -11.5      6.228     11.889
REMARK SMILES O=C(NCc1ccc(C(=O)NCCCCCCNC(=O)c2ccc(-c3c4nc(c(-c5c(F)cc(S(=O)(=O)[O-])cc5F)c5ccc([nH]5)c(-c5c(F)cc(S(=O)(=O)[O-])cc5F)c5nc(c(-c6c(F)cc(S(=O)(=O)[O-])cc6F)c6ccc3[nH]6)C=C5)C=C4)cc2)cc1)Nc1ccccc1Br
REMARK SMILES IDX 14 1 13 2 12 3 11 4 9 5 10 6 8 8 5 9 6 10 88 11 7 12 87 13
REMARK SMILES IDX 4 14 3 15 1 16 2 17 89 18 90 21 91 22 95 23 92 24 94 25
REMARK SMILES IDX 96 26 93 27 15 28 16 29 17 30 18 31 19 32 20 34 21 35 22 36
REMARK SMILES IDX 86 37 23 38 85 39 24 40 25 41 26 42 79 43 27 44 84 45 78 46
REMARK SMILES IDX 80 47 28 48 83 49 77 50 76 51 29 53 63 54 42 55 62 56 43 57
REMARK SMILES IDX 46 58 61 59 81 60 44 61 45 62 60 64 82 65 47 66 30 67 31 68
REMARK SMILES IDX 40 69 32 70 33 71 39 72 41 73 34 74 35 75 36 76 37 77 38 78
REMARK SMILES IDX 64 79 65 80 74 81 66 82 67 83 73 84 75 85 68 86 69 87 70 88
REMARK SMILES IDX 71 89 72 90 48 91 49 92 58 93 50 94 51 95 57 96 59 97 52 98
REMARK SMILES IDX 53 99 54 100 55 101 56 102
REMARK H PARENT 11 7 3 19 89 20 18 33 80 52 46 63
REMARK Flexibility Score: inf
ROOT
ATOM      1  C   UNL A   1      34.384  28.983  26.556  1.00  0.00     0.002 C 
ENDROOT
BRANCH   1   2
ATOM      2  C   UNL A   1      33.766  28.063  25.496  1.00  0.00     0.021 C 
BRANCH   2   3
ATOM      3  C   UNL A   1      33.627  28.727  24.124  1.00  0.00     0.116 C 
BRANCH   3   4
ATOM      4  N   UNL A   1      32.256  29.155  23.918  1.00  0.00    -0.352 N 
ATOM      5  C   UNL A   1      31.066  28.478  23.965  1.00  0.00     0.251 C 
ATOM      6  O   UNL A   1      30.032  29.112  23.752  1.00  0.00    -0.269 OA
ATOM      7  H   UNL A   1      32.164  30.112  23.705  1.00  0.00     0.163 HD
BRANCH   5   8
ATOM      8  C   UNL A   1      30.968  27.037  24.321  1.00  0.00     0.039 A 
ATOM      9  C   UNL A   1      30.802  24.355  25.185  1.00  0.00    -0.029 A 
ATOM     10  C   UNL A   1      30.565  25.405  26.081  1.00  0.00     0.006 A 
ATOM     11  C   UNL A   1      31.074  24.658  23.846  1.00  0.00     0.006 A 
ATOM     12  C   UNL A   1      30.652  26.732  25.652  1.00  0.00     0.014 A 
ATOM     13  C   UNL A   1      31.129  25.988  23.412  1.00  0.00     0.014 A 
BRANCH   9  14
ATOM     14  C   UNL A   1      30.707  22.922  25.638  1.00  0.00     0.153 C 
BRANCH  14  15
ATOM     15  N   UNL A   1      31.527  22.669  26.805  1.00  0.00    -0.334 N 
ATOM     16  O   UNL A   1      33.337  22.256  28.031  1.00  0.00    -0.248 OA
ATOM     17  C   UNL A   1      32.871  22.480  26.919  1.00  0.00     0.319 C 
ATOM     18  N   UNL A   1      33.591  22.614  25.767  1.00  0.00    -0.307 N 
ATOM     19  H   UNL A   1      31.032  22.629  27.654  1.00  0.00     0.165 HD
ATOM     20  H   UNL A   1      33.120  23.012  24.999  1.00  0.00     0.171 HD
BRANCH  18  21
ATOM     21  C   UNL A   1      34.938  22.243  25.558  1.00  0.00     0.057 A 
ATOM     22  C   UNL A   1      35.866  23.295  25.655  1.00  0.00     0.027 A 
ATOM     23  C   UNL A   1      35.415  20.962  25.230  1.00  0.00     0.041 A 
ATOM     24  C   UNL A   1      37.236  23.071  25.508  1.00  0.00     0.002 A 
ATOM     25  C   UNL A   1      36.796  20.741  25.099  1.00  0.00     0.018 A 
ATOM     26  Br  UNL A   1      34.309  19.504  24.702  1.00  0.00    -0.049 Br
ATOM     27  C   UNL A   1      37.703  21.788  25.248  1.00  0.00     0.001 A 
ENDBRANCH  18  21
ENDBRANCH  14  15
ENDBRANCH   9  14
ENDBRANCH   5   8
ENDBRANCH   3   4
ENDBRANCH   2   3
ENDBRANCH   1   2
BRANCH   1  28
ATOM     28  C   UNL A   1      33.447  30.080  27.080  1.00  0.00     0.002 C 
BRANCH  28  29
ATOM     29  C   UNL A   1      34.150  31.285  27.710  1.00  0.00     0.021 C 
BRANCH  29  30
ATOM     30  C   UNL A   1      35.501  30.966  28.340  1.00  0.00     0.116 C 
BRANCH  30  31
ATOM     31  N   UNL A   1      35.467  31.118  29.786  1.00  0.00    -0.352 N 
ATOM     32  C   UNL A   1      36.413  30.764  30.715  1.00  0.00     0.251 C 
ATOM     33  H   UNL A   1      34.652  31.532  30.149  1.00  0.00     0.163 HD
ATOM     34  O   UNL A   1      36.125  30.748  31.908  1.00  0.00    -0.269 OA
BRANCH  32  35
ATOM     35  C   UNL A   1      37.775  30.393  30.274  1.00  0.00     0.039 A 
ATOM     36  C   UNL A   1      38.730  30.050  31.235  1.00  0.00     0.014 A 
ATOM     37  C   UNL A   1      38.115  30.407  28.918  1.00  0.00     0.014 A 
ATOM     38  C   UNL A   1      40.014  29.678  30.831  1.00  0.00     0.010 A 
ATOM     39  C   UNL A   1      39.373  29.971  28.513  1.00  0.00     0.010 A 
ATOM     40  C   UNL A   1      40.339  29.613  29.465  1.00  0.00    -0.014 A 
BRANCH  40  41
ATOM     41  C   UNL A   1      41.690  29.190  29.016  1.00  0.00     0.031 A 
ATOM     42  C   UNL A   1      42.807  30.196  28.938  1.00  0.00     0.074 A 
ATOM     43  C   UNL A   1      41.894  27.919  28.622  1.00  0.00     0.049 A 
ATOM     44  N   UNL A   1      44.032  30.039  28.509  1.00  0.00    -0.248 NA
ATOM     45  C   UNL A   1      42.497  31.568  29.373  1.00  0.00     0.031 C 
ATOM     46  C   UNL A   1      40.876  26.865  28.606  1.00  0.00     0.029 A 
ATOM     47  N   UNL A   1      43.021  27.296  28.149  1.00  0.00    -0.354 N 
ATOM     48  C   UNL A   1      44.633  31.287  28.608  1.00  0.00     0.074 A 
ATOM     49  C   UNL A   1      43.623  32.205  29.087  1.00  0.00     0.031 C 
ATOM     50  C   UNL A   1      41.431  25.723  28.167  1.00  0.00     0.029 A 
ATOM     51  C   UNL A   1      42.831  25.970  27.838  1.00  0.00     0.049 A 
ATOM     52  H   UNL A   1      43.886  27.756  28.043  1.00  0.00     0.167 HD
ATOM     53  C   UNL A   1      45.917  31.633  28.346  1.00  0.00     0.037 A 
ATOM     54  C   UNL A   1      43.688  25.058  27.338  1.00  0.00     0.037 A 
ATOM     55  C   UNL A   1      46.924  30.708  27.898  1.00  0.00     0.049 A 
ATOM     56  C   UNL A   1      45.111  25.463  27.066  1.00  0.00     0.074 A 
ATOM     57  C   UNL A   1      48.266  30.944  27.660  1.00  0.00     0.029 A 
ATOM     58  N   UNL A   1      46.700  29.365  27.623  1.00  0.00    -0.354 N 
ATOM     59  N   UNL A   1      45.678  26.636  27.222  1.00  0.00    -0.248 NA
ATOM     60  C   UNL A   1      46.014  24.421  26.559  1.00  0.00     0.031 C 
ATOM     61  C   UNL A   1      48.845  29.756  27.204  1.00  0.00     0.029 A 
ATOM     62  C   UNL A   1      47.875  28.766  27.201  1.00  0.00     0.049 A 
ATOM     63  H   UNL A   1      45.833  28.908  27.713  1.00  0.00     0.167 HD
ATOM     64  C   UNL A   1      47.010  26.465  26.861  1.00  0.00     0.074 A 
ATOM     65  C   UNL A   1      47.166  25.074  26.487  1.00  0.00     0.031 C 
ATOM     66  C   UNL A   1      48.013  27.377  26.842  1.00  0.00     0.037 A 
BRANCH  53  67
ATOM     67  C   UNL A   1      46.305  33.074  28.543  1.00  0.00     0.058 A 
ATOM     68  C   UNL A   1      46.782  33.547  29.777  1.00  0.00     0.135 A 
ATOM     69  C   UNL A   1      46.231  33.986  27.479  1.00  0.00     0.135 A 
ATOM     70  F   UNL A   1      46.860  32.721  30.833  1.00  0.00    -0.206 F 
ATOM     71  C   UNL A   1      47.140  34.878  29.957  1.00  0.00     0.059 A 
ATOM     72  C   UNL A   1      46.612  35.317  27.628  1.00  0.00     0.059 A 
ATOM     73  F   UNL A   1      45.783  33.590  26.277  1.00  0.00    -0.206 F 
ATOM     74  C   UNL A   1      47.051  35.757  28.876  1.00  0.00     0.060 A 
BRANCH  74  75
ATOM     75  S   UNL A   1      47.520  37.481  29.126  1.00  0.00     0.124 S 
ATOM     76  O   UNL A   1      46.637  38.163  28.184  1.00  0.00    -0.237 OA
ATOM     77  O   UNL A   1      47.218  37.688  30.539  1.00  0.00    -0.237 OA
ATOM     78  O   UNL A   1      48.938  37.502  28.781  1.00  0.00    -0.744 OA
ENDBRANCH  74  75
ENDBRANCH  53  67
BRANCH  54  79
ATOM     79  C   UNL A   1      43.228  23.666  27.090  1.00  0.00     0.058 A 
ATOM     80  C   UNL A   1      42.937  23.224  25.792  1.00  0.00     0.135 A 
ATOM     81  C   UNL A   1      43.087  22.747  28.141  1.00  0.00     0.135 A 
ATOM     82  F   UNL A   1      43.052  24.068  24.754  1.00  0.00    -0.206 F 
ATOM     83  C   UNL A   1      42.507  21.924  25.543  1.00  0.00     0.059 A 
ATOM     84  C   UNL A   1      42.682  21.435  27.914  1.00  0.00     0.059 A 
ATOM     85  F   UNL A   1      43.370  23.115  29.400  1.00  0.00    -0.206 F 
ATOM     86  C   UNL A   1      42.384  21.036  26.612  1.00  0.00     0.060 A 
BRANCH  86  87
ATOM     87  S   UNL A   1      41.873  19.337  26.273  1.00  0.00     0.124 S 
ATOM     88  O   UNL A   1      40.428  19.487  26.144  1.00  0.00    -0.237 OA
ATOM     89  O   UNL A   1      42.597  19.039  25.042  1.00  0.00    -0.237 OA
ATOM     90  O   UNL A   1      42.331  18.609  27.453  1.00  0.00    -0.744 OA
ENDBRANCH  86  87
ENDBRANCH  54  79
BRANCH  66  91
ATOM     91  C   UNL A   1      49.379  26.895  26.440  1.00  0.00     0.058 A 
ATOM     92  C   UNL A   1      50.281  26.366  27.376  1.00  0.00     0.135 A 
ATOM     93  C   UNL A   1      49.767  26.910  25.090  1.00  0.00     0.135 A 
ATOM     94  F   UNL A   1      49.961  26.335  28.680  1.00  0.00    -0.206 F 
ATOM     95  C   UNL A   1      51.530  25.890  26.992  1.00  0.00     0.059 A 
ATOM     96  C   UNL A   1      51.000  26.413  24.679  1.00  0.00     0.059 A 
ATOM     97  F   UNL A   1      48.937  27.394  24.153  1.00  0.00    -0.206 F 
ATOM     98  C   UNL A   1      51.879  25.915  25.640  1.00  0.00     0.060 A 
BRANCH  98  99
ATOM     99  S   UNL A   1      53.488  25.259  25.148  1.00  0.00     0.124 S 
ATOM    100  O   UNL A   1      53.270  23.822  25.277  1.00  0.00    -0.237 OA
ATOM    101  O   UNL A   1      53.626  25.759  23.783  1.00  0.00    -0.237 OA
ATOM    102  O   UNL A   1      54.406  25.846  26.120  1.00  0.00    -0.744 OA
ENDBRANCH  98  99
ENDBRANCH  66  91
ENDBRANCH  40  41
ENDBRANCH  32  35
ENDBRANCH  30  31
ENDBRANCH  29  30
ENDBRANCH  28  29
ENDBRANCH   1  28
TORSDOF 19
ENDMDL
MODEL 3
REMARK VINA RESULT:     -11.4      1.270      1.869
REMARK SMILES O=C(NCc1ccc(C(=O)NCCCCCCNC(=O)c2ccc(-c3c4nc(c(-c5c(F)cc(S(=O)(=O)[O-])cc5F)c5ccc([nH]5)c(-c5c(F)cc(S(=O)(=O)[O-])cc5F)c5nc(c(-c6c(F)cc(S(=O)(=O)[O-])cc6F)c6ccc3[nH]6)C=C5)C=C4)cc2)cc1)Nc1ccccc1Br
REMARK SMILES IDX 14 1 13 2 12 3 11 4 9 5 10 6 8 8 5 9 6 10 88 11 7 12 87 13
REMARK SMILES IDX 4 14 3 15 1 16 2 17 89 18 90 21 91 22 95 23 92 24 94 25
REMARK SMILES IDX 96 26 93 27 15 28 16 29 17 30 18 31 19 32 20 34 21 35 22 36
REMARK SMILES IDX 86 37 23 38 85 39 24 40 25 41 26 42 79 43 27 44 84 45 78 46
REMARK SMILES IDX 80 47 28 48 83 49 77 50 76 51 29 53 63 54 42 55 62 56 43 57
REMARK SMILES IDX 46 58 61 59 81 60 44 61 45 62 60 64 82 65 47 66 30 67 31 68
REMARK SMILES IDX 40 69 32 70 33 71 39 72 41 73 34 74 35 75 36 76 37 77 38 78
REMARK SMILES IDX 64 79 65 80 74 81 66 82 67 83 73 84 75 85 68 86 69 87 70 88
REMARK SMILES IDX 71 89 72 90 48 91 49 92 58 93 50 94 51 95 57 96 59 97 52 98
REMARK SMILES IDX 53 99 54 100 55 101 56 102
REMARK H PARENT 11 7 3 19 89 20 18 33 80 52 46 63
REMARK Flexibility Score: inf
ROOT
ATOM      1  C   UNL A   1      38.629  22.466  25.853  1.00  0.00     0.002 C 
ENDROOT
BRANCH   1   2
ATOM      2  C   UNL A   1      37.597  21.446  25.355  1.00  0.00     0.021 C 
BRANCH   2   3
ATOM      3  C   UNL A   1      36.191  21.685  25.912  1.00  0.00     0.116 C 
BRANCH   3   4
ATOM      4  N   UNL A   1      35.332  20.561  25.590  1.00  0.00    -0.352 N 
ATOM      5  C   UNL A   1      34.129  20.481  24.941  1.00  0.00     0.251 C 
ATOM      6  O   UNL A   1      33.622  19.368  24.801  1.00  0.00    -0.269 OA
ATOM      7  H   UNL A   1      35.681  19.692  25.896  1.00  0.00     0.163 HD
BRANCH   5   8
ATOM      8  C   UNL A   1      33.447  21.664  24.351  1.00  0.00     0.039 A 
ATOM      9  C   UNL A   1      31.991  23.860  23.336  1.00  0.00    -0.029 A 
ATOM     10  C   UNL A   1      31.581  23.219  24.511  1.00  0.00     0.006 A 
ATOM     11  C   UNL A   1      33.162  23.424  22.703  1.00  0.00     0.006 A 
ATOM     12  C   UNL A   1      32.300  22.129  25.010  1.00  0.00     0.014 A 
ATOM     13  C   UNL A   1      33.897  22.352  23.222  1.00  0.00     0.014 A 
BRANCH   9  14
ATOM     14  C   UNL A   1      31.224  25.036  22.794  1.00  0.00     0.153 C 
BRANCH  14  15
ATOM     15  N   UNL A   1      30.018  25.291  23.554  1.00  0.00    -0.334 N 
ATOM     16  O   UNL A   1      28.305  26.404  24.434  1.00  0.00    -0.248 OA
ATOM     17  C   UNL A   1      29.293  26.433  23.709  1.00  0.00     0.319 C 
ATOM     18  N   UNL A   1      29.715  27.509  22.982  1.00  0.00    -0.307 N 
ATOM     19  H   UNL A   1      29.665  24.510  24.037  1.00  0.00     0.165 HD
ATOM     20  H   UNL A   1      30.380  27.330  22.278  1.00  0.00     0.171 HD
BRANCH  18  21
ATOM     21  C   UNL A   1      29.301  28.852  23.133  1.00  0.00     0.057 A 
ATOM     22  C   UNL A   1      28.181  29.218  22.365  1.00  0.00     0.027 A 
ATOM     23  C   UNL A   1      29.917  29.836  23.925  1.00  0.00     0.041 A 
ATOM     24  C   UNL A   1      27.639  30.502  22.439  1.00  0.00     0.002 A 
ATOM     25  C   UNL A   1      29.356  31.121  24.007  1.00  0.00     0.018 A 
ATOM     26  Br  UNL A   1      31.627  29.647  24.742  1.00  0.00    -0.049 Br
ATOM     27  C   UNL A   1      28.216  31.449  23.275  1.00  0.00     0.001 A 
ENDBRANCH  18  21
ENDBRANCH  14  15
ENDBRANCH   9  14
ENDBRANCH   5   8
ENDBRANCH   3   4
ENDBRANCH   2   3
ENDBRANCH   1   2
BRANCH   1  28
ATOM     28  C   UNL A   1      39.958  21.858  26.321  1.00  0.00     0.002 C 
BRANCH  28  29
ATOM     29  C   UNL A   1      40.428  22.318  27.703  1.00  0.00     0.021 C 
BRANCH  29  30
ATOM     30  C   UNL A   1      41.764  23.053  27.702  1.00  0.00     0.116 C 
BRANCH  30  31
ATOM     31  N   UNL A   1      41.981  23.769  26.455  1.00  0.00    -0.352 N 
ATOM     32  C   UNL A   1      41.794  25.100  26.178  1.00  0.00     0.251 C 
ATOM     33  H   UNL A   1      42.308  23.223  25.705  1.00  0.00     0.163 HD
ATOM     34  O   UNL A   1      41.801  25.490  25.015  1.00  0.00    -0.269 OA
BRANCH  32  35
ATOM     35  C   UNL A   1      41.574  26.057  27.283  1.00  0.00     0.039 A 
ATOM     36  C   UNL A   1      40.451  25.904  28.100  1.00  0.00     0.014 A 
ATOM     37  C   UNL A   1      42.461  27.116  27.498  1.00  0.00     0.014 A 
ATOM     38  C   UNL A   1      40.242  26.788  29.160  1.00  0.00     0.010 A 
ATOM     39  C   UNL A   1      42.288  27.955  28.595  1.00  0.00     0.010 A 
ATOM     40  C   UNL A   1      41.171  27.807  29.431  1.00  0.00    -0.014 A 
BRANCH  40  41
ATOM     41  C   UNL A   1      40.981  28.737  30.573  1.00  0.00     0.031 A 
ATOM     42  C   UNL A   1      41.834  28.600  31.805  1.00  0.00     0.074 A 
ATOM     43  C   UNL A   1      40.004  29.663  30.524  1.00  0.00     0.049 A 
ATOM     44  N   UNL A   1      41.777  29.268  32.928  1.00  0.00    -0.248 NA
ATOM     45  C   UNL A   1      42.869  27.554  31.783  1.00  0.00     0.031 C 
ATOM     46  C   UNL A   1      39.081  29.860  29.403  1.00  0.00     0.029 A 
ATOM     47  N   UNL A   1      39.615  30.605  31.441  1.00  0.00    -0.354 N 
ATOM     48  C   UNL A   1      42.753  28.716  33.749  1.00  0.00     0.074 A 
ATOM     49  C   UNL A   1      43.353  27.624  33.016  1.00  0.00     0.031 C 
ATOM     50  C   UNL A   1      38.248  30.873  29.691  1.00  0.00     0.029 A 
ATOM     51  C   UNL A   1      38.553  31.375  31.027  1.00  0.00     0.049 A 
ATOM     52  H   UNL A   1      40.055  30.720  32.315  1.00  0.00     0.167 HD
ATOM     53  C   UNL A   1      43.132  29.101  34.991  1.00  0.00     0.037 A 
ATOM     54  C   UNL A   1      37.896  32.369  31.656  1.00  0.00     0.037 A 
ATOM     55  C   UNL A   1      42.551  30.209  35.702  1.00  0.00     0.049 A 
ATOM     56  C   UNL A   1      38.343  32.787  33.031  1.00  0.00     0.074 A 
ATOM     57  C   UNL A   1      42.902  30.718  36.940  1.00  0.00     0.029 A 
ATOM     58  N   UNL A   1      41.497  30.984  35.237  1.00  0.00    -0.354 N 
ATOM     59  N   UNL A   1      39.308  32.292  33.769  1.00  0.00    -0.248 NA
ATOM     60  C   UNL A   1      37.618  33.901  33.657  1.00  0.00     0.031 C 
ATOM     61  C   UNL A   1      42.036  31.774  37.241  1.00  0.00     0.029 A 
ATOM     62  C   UNL A   1      41.175  31.955  36.171  1.00  0.00     0.049 A 
ATOM     63  H   UNL A   1      41.046  30.861  34.372  1.00  0.00     0.167 HD
ATOM     64  C   UNL A   1      39.326  33.054  34.932  1.00  0.00     0.074 A 
ATOM     65  C   UNL A   1      38.281  34.048  34.796  1.00  0.00     0.031 C 
ATOM     66  C   UNL A   1      40.136  32.942  36.014  1.00  0.00     0.037 A 
BRANCH  53  67
ATOM     67  C   UNL A   1      44.232  28.320  35.658  1.00  0.00     0.058 A 
ATOM     68  C   UNL A   1      45.576  28.718  35.571  1.00  0.00     0.135 A 
ATOM     69  C   UNL A   1      43.937  27.179  36.421  1.00  0.00     0.135 A 
ATOM     70  F   UNL A   1      45.918  29.793  34.842  1.00  0.00    -0.206 F 
ATOM     71  C   UNL A   1      46.591  27.995  36.188  1.00  0.00     0.059 A 
ATOM     72  C   UNL A   1      44.934  26.456  37.072  1.00  0.00     0.059 A 
ATOM     73  F   UNL A   1      42.670  26.753  36.540  1.00  0.00    -0.206 F 
ATOM     74  C   UNL A   1      46.260  26.864  36.936  1.00  0.00     0.060 A 
BRANCH  74  75
ATOM     75  S   UNL A   1      47.588  25.936  37.731  1.00  0.00     0.124 S 
ATOM     76  O   UNL A   1      48.535  25.782  36.631  1.00  0.00    -0.237 OA
ATOM     77  O   UNL A   1      48.004  26.839  38.801  1.00  0.00    -0.237 OA
ATOM     78  O   UNL A   1      46.932  24.709  38.170  1.00  0.00    -0.744 OA
ENDBRANCH  74  75
ENDBRANCH  53  67
BRANCH  54  79
ATOM     79  C   UNL A   1      36.765  33.055  30.978  1.00  0.00     0.058 A 
ATOM     80  C   UNL A   1      36.994  33.971  29.941  1.00  0.00     0.135 A 
ATOM     81  C   UNL A   1      35.433  32.797  31.341  1.00  0.00     0.135 A 
ATOM     82  F   UNL A   1      38.250  34.254  29.563  1.00  0.00    -0.206 F 
ATOM     83  C   UNL A   1      35.946  34.620  29.297  1.00  0.00     0.059 A 
ATOM     84  C   UNL A   1      34.368  33.416  30.694  1.00  0.00     0.059 A 
ATOM     85  F   UNL A   1      35.159  31.915  32.314  1.00  0.00    -0.206 F 
ATOM     86  C   UNL A   1      34.635  34.334  29.680  1.00  0.00     0.060 A 
BRANCH  86  87
ATOM     87  S   UNL A   1      33.280  35.145  28.803  1.00  0.00     0.124 S 
ATOM     88  O   UNL A   1      32.769  34.054  27.981  1.00  0.00    -0.237 OA
ATOM     89  O   UNL A   1      32.420  35.576  29.900  1.00  0.00    -0.237 OA
ATOM     90  O   UNL A   1      33.948  36.223  28.080  1.00  0.00    -0.744 OA
ENDBRANCH  86  87
ENDBRANCH  54  79
BRANCH  66  91
ATOM     91  C   UNL A   1      39.952  33.941  37.122  1.00  0.00     0.058 A 
ATOM     92  C   UNL A   1      40.538  35.216  37.072  1.00  0.00     0.135 A 
ATOM     93  C   UNL A   1      39.132  33.638  38.221  1.00  0.00     0.135 A 
ATOM     94  F   UNL A   1      41.336  35.553  36.046  1.00  0.00    -0.206 F 
ATOM     95  C   UNL A   1      40.335  36.147  38.085  1.00  0.00     0.059 A 
ATOM     96  C   UNL A   1      38.893  34.564  39.231  1.00  0.00     0.059 A 
ATOM     97  F   UNL A   1      38.539  32.437  38.311  1.00  0.00    -0.206 F 
ATOM     98  C   UNL A   1      39.508  35.813  39.159  1.00  0.00     0.060 A 
BRANCH  98  99
ATOM     99  S   UNL A   1      39.222  37.044  40.448  1.00  0.00     0.124 S 
ATOM    100  O   UNL A   1      38.410  36.292  41.398  1.00  0.00    -0.237 OA
ATOM    101  O   UNL A   1      40.579  37.361  40.885  1.00  0.00    -0.237 OA
ATOM    102  O   UNL A   1      38.532  38.120  39.742  1.00  0.00    -0.744 OA
ENDBRANCH  98  99
ENDBRANCH  66  91
ENDBRANCH  40  41
ENDBRANCH  32  35
ENDBRANCH  30  31
ENDBRANCH  29  30
ENDBRANCH  28  29
ENDBRANCH   1  28
TORSDOF 19
ENDMDL
