MODEL 1
REMARK VINA RESULT:     -12.9      0.000      0.000
REMARK SMILES O=C(Cn1nc(C(=O)NCCCCCCNC(=O)c2ccc(-c3c4nc(c(-c5c(F)cc(S(=O)(=O)[O-])cc5F)c5ccc([nH]5)c(-c5c(F)cc(S(=O)(=O)[O-])cc5F)c5nc(c(-c6c(F)cc(S(=O)(=O)[O-])cc6F)c6ccc3[nH]6)C=C5)C=C4)cc2)c2ccccc2c1=O)Nc1ccc2c(c1)C(=O)c1ccccc1C2=O
REMARK SMILES IDX 12 1 11 2 10 3 9 4 7 5 8 6 6 8 4 9 5 10 91 11 90 12 92 13
REMARK SMILES IDX 85 14 89 15 86 16 88 17 87 18 3 19 2 20 1 21 93 22 94 24
REMARK SMILES IDX 95 25 99 26 96 27 98 28 97 29 100 30 108 31 101 32 102 33
REMARK SMILES IDX 107 34 109 35 103 36 106 37 104 38 105 39 13 40 14 41 15 42
REMARK SMILES IDX 16 43 17 44 18 46 19 47 20 48 84 49 21 50 83 51 22 52 23 53
REMARK SMILES IDX 24 54 77 55 25 56 82 57 76 58 78 59 26 60 81 61 75 62 74 63
REMARK SMILES IDX 27 65 61 66 40 67 60 68 41 69 44 70 59 71 79 72 42 73 43 74
REMARK SMILES IDX 58 76 80 77 45 78 28 79 29 80 38 81 30 82 31 83 37 84 39 85
REMARK SMILES IDX 32 86 33 87 34 88 35 89 36 90 62 91 63 92 72 93 64 94 65 95
REMARK SMILES IDX 71 96 73 97 66 98 67 99 68 100 69 101 70 102 46 103 47 104
REMARK SMILES IDX 56 105 48 106 49 107 55 108 57 109 50 110 51 111 52 112
REMARK SMILES IDX 53 113 54 114
REMARK H PARENT 9 7 93 23 16 45 78 64 44 75
REMARK Flexibility Score: inf
ROOT
ATOM      1  C   UNL A   1      32.491  32.721  26.883  1.00  0.00     0.002 C 
ENDROOT
BRANCH   1   2
ATOM      2  C   UNL A   1      31.377  31.680  27.028  1.00  0.00     0.021 C 
BRANCH   2   3
ATOM      3  C   UNL A   1      31.784  30.249  26.669  1.00  0.00     0.116 C 
BRANCH   3   4
ATOM      4  N   UNL A   1      32.481  30.267  25.387  1.00  0.00    -0.351 N 
ATOM      5  C   UNL A   1      32.222  29.512  24.268  1.00  0.00     0.272 C 
ATOM      6  O   UNL A   1      33.131  29.221  23.495  1.00  0.00    -0.267 OA
ATOM      7  H   UNL A   1      33.231  30.902  25.314  1.00  0.00     0.163 HD
BRANCH   5   8
ATOM      8  C   UNL A   1      30.793  29.075  23.929  1.00  0.00     0.156 A 
ATOM      9  N   UNL A   1      29.245  27.374  23.602  1.00  0.00    -0.219 N 
ATOM     10  N   UNL A   1      30.537  27.800  23.849  1.00  0.00    -0.163 NA
ATOM     11  C   UNL A   1      28.170  28.248  23.421  1.00  0.00     0.275 A 
ATOM     12  C   UNL A   1      28.474  29.692  23.433  1.00  0.00     0.051 A 
ATOM     13  O   UNL A   1      27.009  27.882  23.261  1.00  0.00    -0.267 OA
ATOM     14  C   UNL A   1      29.770  30.121  23.690  1.00  0.00     0.020 A 
ATOM     15  C   UNL A   1      27.449  30.624  23.197  1.00  0.00     0.014 A 
ATOM     16  C   UNL A   1      30.043  31.500  23.695  1.00  0.00     0.011 A 
ATOM     17  C   UNL A   1      27.728  31.990  23.198  1.00  0.00     0.001 A 
ATOM     18  C   UNL A   1      29.027  32.427  23.442  1.00  0.00     0.001 A 
BRANCH   9  19
ATOM     19  C   UNL A   1      28.945  25.944  23.811  1.00  0.00     0.248 C 
BRANCH  19  20
ATOM     20  C   UNL A   1      30.161  25.038  24.033  1.00  0.00     0.246 C 
ATOM     21  O   UNL A   1      30.953  24.763  23.135  1.00  0.00    -0.273 OA
ATOM     22  N   UNL A   1      30.332  24.669  25.358  1.00  0.00    -0.324 N 
ATOM     23  H   UNL A   1      29.947  25.225  26.073  1.00  0.00     0.169 HD
BRANCH  22  24
ATOM     24  C   UNL A   1      31.049  23.508  25.690  1.00  0.00     0.042 A 
ATOM     25  C   UNL A   1      30.722  22.246  25.183  1.00  0.00     0.027 A 
ATOM     26  C   UNL A   1      32.249  23.697  26.351  1.00  0.00     0.039 A 
ATOM     27  C   UNL A   1      31.703  21.234  25.158  1.00  0.00     0.015 A 
ATOM     28  C   UNL A   1      33.135  22.643  26.457  1.00  0.00     0.036 A 
ATOM     29  C   UNL A   1      32.962  21.496  25.702  1.00  0.00     0.034 A 
ATOM     30  C   UNL A   1      34.418  22.798  27.117  1.00  0.00     0.194 C 
ATOM     31  C   UNL A   1      34.226  20.835  25.228  1.00  0.00     0.194 C 
ATOM     32  O   UNL A   1      34.567  22.868  28.322  1.00  0.00    -0.289 OA
ATOM     33  C   UNL A   1      35.542  22.706  26.226  1.00  0.00     0.034 A 
ATOM     34  C   UNL A   1      35.472  21.688  25.276  1.00  0.00     0.034 A 
ATOM     35  O   UNL A   1      34.222  19.738  24.692  1.00  0.00    -0.289 OA
ATOM     36  C   UNL A   1      36.548  23.667  26.277  1.00  0.00     0.013 A 
ATOM     37  C   UNL A   1      36.496  21.611  24.343  1.00  0.00     0.013 A 
ATOM     38  C   UNL A   1      37.536  23.612  25.310  1.00  0.00     0.001 A 
ATOM     39  C   UNL A   1      37.516  22.583  24.357  1.00  0.00     0.001 A 
ENDBRANCH  22  24
ENDBRANCH  19  20
ENDBRANCH   9  19
ENDBRANCH   5   8
ENDBRANCH   3   4
ENDBRANCH   2   3
ENDBRANCH   1   2
BRANCH   1  40
ATOM     40  C   UNL A   1      33.497  32.835  28.028  1.00  0.00     0.002 C 
BRANCH  40  41
ATOM     41  C   UNL A   1      34.765  31.974  28.012  1.00  0.00     0.021 C 
BRANCH  41  42
ATOM     42  C   UNL A   1      35.759  32.106  29.164  1.00  0.00     0.116 C 
BRANCH  42  43
ATOM     43  N   UNL A   1      35.638  31.079  30.192  1.00  0.00    -0.352 N 
ATOM     44  C   UNL A   1      36.559  30.137  30.599  1.00  0.00     0.251 C 
ATOM     45  H   UNL A   1      34.773  31.054  30.662  1.00  0.00     0.163 HD
ATOM     46  O   UNL A   1      36.272  29.283  31.431  1.00  0.00    -0.269 OA
BRANCH  44  47
ATOM     47  C   UNL A   1      37.908  30.151  29.993  1.00  0.00     0.039 A 
ATOM     48  C   UNL A   1      38.074  29.782  28.656  1.00  0.00     0.014 A 
ATOM     49  C   UNL A   1      39.016  30.445  30.791  1.00  0.00     0.014 A 
ATOM     50  C   UNL A   1      39.355  29.522  28.174  1.00  0.00     0.010 A 
ATOM     51  C   UNL A   1      40.303  30.241  30.283  1.00  0.00     0.010 A 
ATOM     52  C   UNL A   1      40.479  29.707  28.995  1.00  0.00    -0.014 A 
BRANCH  52  53
ATOM     53  C   UNL A   1      41.819  29.251  28.533  1.00  0.00     0.031 A 
ATOM     54  C   UNL A   1      42.987  30.207  28.536  1.00  0.00     0.074 A 
ATOM     55  C   UNL A   1      42.009  27.967  28.172  1.00  0.00     0.049 A 
ATOM     56  N   UNL A   1      44.225  30.005  28.158  1.00  0.00    -0.248 NA
ATOM     57  C   UNL A   1      42.732  31.572  29.026  1.00  0.00     0.031 C 
ATOM     58  C   UNL A   1      40.973  26.934  28.156  1.00  0.00     0.029 A 
ATOM     59  N   UNL A   1      43.143  27.308  27.768  1.00  0.00    -0.354 N 
ATOM     60  C   UNL A   1      44.888  31.212  28.349  1.00  0.00     0.074 A 
ATOM     61  C   UNL A   1      43.909  32.155  28.847  1.00  0.00     0.031 C 
ATOM     62  C   UNL A   1      41.525  25.764  27.799  1.00  0.00     0.029 A 
ATOM     63  C   UNL A   1      42.942  25.973  27.508  1.00  0.00     0.049 A 
ATOM     64  H   UNL A   1      44.018  27.749  27.671  1.00  0.00     0.167 HD
ATOM     65  C   UNL A   1      46.195  31.507  28.145  1.00  0.00     0.037 A 
ATOM     66  C   UNL A   1      43.795  25.025  27.073  1.00  0.00     0.037 A 
ATOM     67  C   UNL A   1      47.176  30.561  27.680  1.00  0.00     0.049 A 
ATOM     68  C   UNL A   1      45.230  25.388  26.806  1.00  0.00     0.074 A 
ATOM     69  C   UNL A   1      48.526  30.764  27.452  1.00  0.00     0.029 A 
ATOM     70  N   UNL A   1      46.917  29.231  27.380  1.00  0.00    -0.354 N 
ATOM     71  N   UNL A   1      45.832  26.541  26.972  1.00  0.00    -0.248 NA
ATOM     72  C   UNL A   1      46.098  24.323  26.285  1.00  0.00     0.031 C 
ATOM     73  C   UNL A   1      49.076  29.568  26.979  1.00  0.00     0.029 A 
ATOM     74  C   UNL A   1      48.079  28.608  26.954  1.00  0.00     0.049 A 
ATOM     75  H   UNL A   1      46.038  28.796  27.457  1.00  0.00     0.167 HD
ATOM     76  C   UNL A   1      47.154  26.336  26.591  1.00  0.00     0.074 A 
ATOM     77  C   UNL A   1      47.266  24.947  26.199  1.00  0.00     0.031 C 
ATOM     78  C   UNL A   1      48.179  27.222  26.567  1.00  0.00     0.037 A 
BRANCH  65  79
ATOM     79  C   UNL A   1      46.651  32.915  28.419  1.00  0.00     0.058 A 
ATOM     80  C   UNL A   1      47.239  33.275  29.642  1.00  0.00     0.135 A 
ATOM     81  C   UNL A   1      46.559  33.901  27.423  1.00  0.00     0.135 A 
ATOM     82  F   UNL A   1      47.338  32.376  30.634  1.00  0.00    -0.206 F 
ATOM     83  C   UNL A   1      47.703  34.566  29.874  1.00  0.00     0.059 A 
ATOM     84  C   UNL A   1      47.038  35.193  27.625  1.00  0.00     0.059 A 
ATOM     85  F   UNL A   1      46.007  33.611  26.234  1.00  0.00    -0.206 F 
ATOM     86  C   UNL A   1      47.601  35.519  28.858  1.00  0.00     0.060 A 
BRANCH  86  87
ATOM     87  S   UNL A   1      48.225  37.184  29.171  1.00  0.00     0.124 S 
ATOM     88  O   UNL A   1      47.511  37.959  28.162  1.00  0.00    -0.237 OA
ATOM     89  O   UNL A   1      47.817  37.415  30.554  1.00  0.00    -0.237 OA
ATOM     90  O   UNL A   1      49.664  37.055  28.959  1.00  0.00    -0.744 OA
ENDBRANCH  86  87
ENDBRANCH  65  79
BRANCH  66  91
ATOM     91  C   UNL A   1      43.305  23.637  26.865  1.00  0.00     0.058 A 
ATOM     92  C   UNL A   1      43.077  23.140  25.575  1.00  0.00     0.135 A 
ATOM     93  C   UNL A   1      43.089  22.773  27.950  1.00  0.00     0.135 A 
ATOM     94  F   UNL A   1      43.258  23.932  24.508  1.00  0.00    -0.206 F 
ATOM     95  C   UNL A   1      42.652  21.832  25.365  1.00  0.00     0.059 A 
ATOM     96  C   UNL A   1      42.688  21.454  27.764  1.00  0.00     0.059 A 
ATOM     97  F   UNL A   1      43.302  23.201  29.204  1.00  0.00    -0.206 F 
ATOM     98  C   UNL A   1      42.467  20.994  26.467  1.00  0.00     0.060 A 
BRANCH  98  99
ATOM     99  S   UNL A   1      41.982  19.278  26.177  1.00  0.00     0.124 S 
ATOM    100  O   UNL A   1      42.766  18.947  24.993  1.00  0.00    -0.237 OA
ATOM    101  O   UNL A   1      42.394  18.630  27.419  1.00  0.00    -0.237 OA
ATOM    102  O   UNL A   1      40.539  19.367  25.975  1.00  0.00    -0.744 OA
ENDBRANCH  98  99
ENDBRANCH  66  91
BRANCH  78 103
ATOM    103  C   UNL A   1      49.524  26.718  26.121  1.00  0.00     0.058 A 
ATOM    104  C   UNL A   1      49.994  26.938  24.817  1.00  0.00     0.135 A 
ATOM    105  C   UNL A   1      50.378  26.069  27.026  1.00  0.00     0.135 A 
ATOM    106  F   UNL A   1      49.213  27.549  23.911  1.00  0.00    -0.206 F 
ATOM    107  C   UNL A   1      51.258  26.516  24.421  1.00  0.00     0.059 A 
ATOM    108  C   UNL A   1      51.657  25.659  26.658  1.00  0.00     0.059 A 
ATOM    109  F   UNL A   1      49.981  25.843  28.288  1.00  0.00    -0.206 F 
ATOM    110  C   UNL A   1      52.084  25.881  25.350  1.00  0.00     0.060 A 
BRANCH 110 111
ATOM    111  S   UNL A   1      53.740  25.377  24.833  1.00  0.00     0.124 S 
ATOM    112  O   UNL A   1      53.621  23.922  24.840  1.00  0.00    -0.237 OA
ATOM    113  O   UNL A   1      53.857  25.997  23.516  1.00  0.00    -0.237 OA
ATOM    114  O   UNL A   1      54.606  25.941  25.863  1.00  0.00    -0.744 OA
ENDBRANCH 110 111
ENDBRANCH  78 103
ENDBRANCH  52  53
ENDBRANCH  44  47
ENDBRANCH  42  43
ENDBRANCH  41  42
ENDBRANCH  40  41
ENDBRANCH   1  40
TORSDOF 19
ENDMDL
MODEL 2
REMARK VINA RESULT:     -12.8      6.810     15.189
REMARK SMILES O=C(Cn1nc(C(=O)NCCCCCCNC(=O)c2ccc(-c3c4nc(c(-c5c(F)cc(S(=O)(=O)[O-])cc5F)c5ccc([nH]5)c(-c5c(F)cc(S(=O)(=O)[O-])cc5F)c5nc(c(-c6c(F)cc(S(=O)(=O)[O-])cc6F)c6ccc3[nH]6)C=C5)C=C4)cc2)c2ccccc2c1=O)Nc1ccc2c(c1)C(=O)c1ccccc1C2=O
REMARK SMILES IDX 12 1 11 2 10 3 9 4 7 5 8 6 6 8 4 9 5 10 91 11 90 12 92 13
REMARK SMILES IDX 85 14 89 15 86 16 88 17 87 18 3 19 2 20 1 21 93 22 94 24
REMARK SMILES IDX 95 25 99 26 96 27 98 28 97 29 100 30 108 31 101 32 102 33
REMARK SMILES IDX 107 34 109 35 103 36 106 37 104 38 105 39 13 40 14 41 15 42
REMARK SMILES IDX 16 43 17 44 18 46 19 47 20 48 84 49 21 50 83 51 22 52 23 53
REMARK SMILES IDX 24 54 77 55 25 56 82 57 76 58 78 59 26 60 81 61 75 62 74 63
REMARK SMILES IDX 27 65 61 66 40 67 60 68 41 69 44 70 59 71 79 72 42 73 43 74
REMARK SMILES IDX 58 76 80 77 45 78 28 79 29 80 38 81 30 82 31 83 37 84 39 85
REMARK SMILES IDX 32 86 33 87 34 88 35 89 36 90 62 91 63 92 72 93 64 94 65 95
REMARK SMILES IDX 71 96 73 97 66 98 67 99 68 100 69 101 70 102 46 103 47 104
REMARK SMILES IDX 56 105 48 106 49 107 55 108 57 109 50 110 51 111 52 112
REMARK SMILES IDX 53 113 54 114
REMARK H PARENT 9 7 93 23 16 45 78 64 44 75
REMARK Flexibility Score: inf
ROOT
ATOM      1  C   UNL A   1      44.784  36.854  27.698  1.00  0.00     0.002 C 
ENDROOT
BRANCH   1   2
ATOM      2  C   UNL A   1      43.633  37.395  26.844  1.00  0.00     0.021 C 
BRANCH   2   3
ATOM      3  C   UNL A   1      42.504  38.060  27.635  1.00  0.00     0.116 C 
BRANCH   3   4
ATOM      4  N   UNL A   1      41.681  38.837  26.713  1.00  0.00    -0.351 N 
ATOM      5  C   UNL A   1      41.627  40.204  26.569  1.00  0.00     0.272 C 
ATOM      6  O   UNL A   1      40.590  40.743  26.194  1.00  0.00    -0.267 OA
ATOM      7  H   UNL A   1      41.091  38.318  26.120  1.00  0.00     0.163 HD
BRANCH   5   8
ATOM      8  C   UNL A   1      42.869  41.068  26.808  1.00  0.00     0.156 A 
ATOM      9  N   UNL A   1      44.503  42.495  25.977  1.00  0.00    -0.219 N 
ATOM     10  N   UNL A   1      43.416  41.663  25.785  1.00  0.00    -0.163 NA
ATOM     11  C   UNL A   1      45.071  42.739  27.229  1.00  0.00     0.275 A 
ATOM     12  C   UNL A   1      44.502  42.005  28.376  1.00  0.00     0.051 A 
ATOM     13  O   UNL A   1      45.996  43.522  27.421  1.00  0.00    -0.267 OA
ATOM     14  C   UNL A   1      43.404  41.175  28.186  1.00  0.00     0.020 A 
ATOM     15  C   UNL A   1      45.065  42.159  29.654  1.00  0.00     0.014 A 
ATOM     16  C   UNL A   1      42.875  40.481  29.287  1.00  0.00     0.011 A 
ATOM     17  C   UNL A   1      44.539  41.462  30.742  1.00  0.00     0.001 A 
ATOM     18  C   UNL A   1      43.447  40.620  30.556  1.00  0.00     0.001 A 
BRANCH   9  19
ATOM     19  C   UNL A   1      44.902  43.368  24.855  1.00  0.00     0.248 C 
BRANCH  19  20
ATOM     20  C   UNL A   1      44.660  42.798  23.454  1.00  0.00     0.246 C 
ATOM     21  O   UNL A   1      45.333  41.881  22.989  1.00  0.00    -0.273 OA
ATOM     22  N   UNL A   1      43.546  43.336  22.829  1.00  0.00    -0.324 N 
ATOM     23  H   UNL A   1      42.827  43.733  23.372  1.00  0.00     0.169 HD
BRANCH  22  24
ATOM     24  C   UNL A   1      43.434  43.322  21.429  1.00  0.00     0.042 A 
ATOM     25  C   UNL A   1      42.424  42.626  20.759  1.00  0.00     0.027 A 
ATOM     26  C   UNL A   1      44.223  44.227  20.743  1.00  0.00     0.039 A 
ATOM     27  C   UNL A   1      42.075  43.005  19.446  1.00  0.00     0.015 A 
ATOM     28  C   UNL A   1      43.966  44.468  19.407  1.00  0.00     0.036 A 
ATOM     29  C   UNL A   1      42.793  44.026  18.821  1.00  0.00     0.034 A 
ATOM     30  C   UNL A   1      44.748  45.428  18.650  1.00  0.00     0.194 C 
ATOM     31  C   UNL A   1      42.209  44.933  17.776  1.00  0.00     0.194 C 
ATOM     32  O   UNL A   1      45.883  45.233  18.257  1.00  0.00    -0.289 OA
ATOM     33  C   UNL A   1      44.008  46.595  18.256  1.00  0.00     0.034 A 
ATOM     34  C   UNL A   1      42.721  46.355  17.778  1.00  0.00     0.034 A 
ATOM     35  O   UNL A   1      41.270  44.593  17.073  1.00  0.00    -0.289 OA
ATOM     36  C   UNL A   1      44.544  47.861  18.469  1.00  0.00     0.013 A 
ATOM     37  C   UNL A   1      41.939  47.457  17.460  1.00  0.00     0.013 A 
ATOM     38  C   UNL A   1      43.738  48.953  18.199  1.00  0.00     0.001 A 
ATOM     39  C   UNL A   1      42.448  48.751  17.686  1.00  0.00     0.001 A 
ENDBRANCH  22  24
ENDBRANCH  19  20
ENDBRANCH   9  19
ENDBRANCH   5   8
ENDBRANCH   3   4
ENDBRANCH   2   3
ENDBRANCH   1   2
BRANCH   1  40
ATOM     40  C   UNL A   1      45.057  37.552  29.030  1.00  0.00     0.002 C 
BRANCH  40  41
ATOM     41  C   UNL A   1      46.279  38.466  29.170  1.00  0.00     0.021 C 
BRANCH  41  42
ATOM     42  C   UNL A   1      47.374  38.398  28.105  1.00  0.00     0.116 C 
BRANCH  42  43
ATOM     43  N   UNL A   1      48.670  37.947  28.596  1.00  0.00    -0.352 N 
ATOM     44  C   UNL A   1      49.087  36.673  28.919  1.00  0.00     0.251 C 
ATOM     45  H   UNL A   1      49.345  38.653  28.715  1.00  0.00     0.163 HD
ATOM     46  O   UNL A   1      50.197  36.467  29.398  1.00  0.00    -0.269 OA
BRANCH  44  47
ATOM     47  C   UNL A   1      48.158  35.543  28.703  1.00  0.00     0.039 A 
ATOM     48  C   UNL A   1      47.676  34.819  29.796  1.00  0.00     0.014 A 
ATOM     49  C   UNL A   1      47.842  35.153  27.399  1.00  0.00     0.014 A 
ATOM     50  C   UNL A   1      47.041  33.598  29.580  1.00  0.00     0.010 A 
ATOM     51  C   UNL A   1      47.150  33.956  27.187  1.00  0.00     0.010 A 
ATOM     52  C   UNL A   1      46.810  33.133  28.275  1.00  0.00    -0.014 A 
BRANCH  52  53
ATOM     53  C   UNL A   1      46.302  31.750  28.058  1.00  0.00     0.031 A 
ATOM     54  C   UNL A   1      47.224  30.682  27.521  1.00  0.00     0.074 A 
ATOM     55  C   UNL A   1      45.040  31.431  28.401  1.00  0.00     0.049 A 
ATOM     56  N   UNL A   1      46.968  29.426  27.249  1.00  0.00    -0.248 NA
ATOM     57  C   UNL A   1      48.616  31.075  27.249  1.00  0.00     0.031 C 
ATOM     58  C   UNL A   1      44.059  32.360  28.962  1.00  0.00     0.029 A 
ATOM     59  N   UNL A   1      44.371  30.233  28.347  1.00  0.00    -0.354 N 
ATOM     60  C   UNL A   1      48.155  28.887  26.765  1.00  0.00     0.074 A 
ATOM     61  C   UNL A   1      49.126  29.959  26.747  1.00  0.00     0.031 C 
ATOM     62  C   UNL A   1      42.927  31.692  29.234  1.00  0.00     0.029 A 
ATOM     63  C   UNL A   1      43.082  30.300  28.819  1.00  0.00     0.049 A 
ATOM     64  H   UNL A   1      44.776  29.405  28.001  1.00  0.00     0.167 HD
ATOM     65  C   UNL A   1      48.417  27.613  26.384  1.00  0.00     0.037 A 
ATOM     66  C   UNL A   1      42.127  29.353  28.898  1.00  0.00     0.037 A 
ATOM     67  C   UNL A   1      47.459  26.539  26.431  1.00  0.00     0.049 A 
ATOM     68  C   UNL A   1      42.427  27.958  28.424  1.00  0.00     0.074 A 
ATOM     69  C   UNL A   1      47.636  25.213  26.076  1.00  0.00     0.029 A 
ATOM     70  N   UNL A   1      46.149  26.663  26.869  1.00  0.00    -0.354 N 
ATOM     71  N   UNL A   1      43.549  27.473  27.948  1.00  0.00    -0.248 NA
ATOM     72  C   UNL A   1      41.329  26.984  28.489  1.00  0.00     0.031 C 
ATOM     73  C   UNL A   1      46.423  24.543  26.263  1.00  0.00     0.029 A 
ATOM     74  C   UNL A   1      45.502  25.440  26.776  1.00  0.00     0.049 A 
ATOM     75  H   UNL A   1      45.738  27.495  27.195  1.00  0.00     0.167 HD
ATOM     76  C   UNL A   1      43.296  26.134  27.672  1.00  0.00     0.074 A 
ATOM     77  C   UNL A   1      41.921  25.881  28.046  1.00  0.00     0.031 C 
ATOM     78  C   UNL A   1      44.131  25.200  27.154  1.00  0.00     0.037 A 
BRANCH  65  79
ATOM     79  C   UNL A   1      49.799  27.301  25.876  1.00  0.00     0.058 A 
ATOM     80  C   UNL A   1      50.842  26.944  26.746  1.00  0.00     0.135 A 
ATOM     81  C   UNL A   1      50.068  27.294  24.497  1.00  0.00     0.135 A 
ATOM     82  F   UNL A   1      50.645  26.948  28.074  1.00  0.00    -0.206 F 
ATOM     83  C   UNL A   1      52.105  26.609  26.269  1.00  0.00     0.059 A 
ATOM     84  C   UNL A   1      51.317  26.940  23.996  1.00  0.00     0.059 A 
ATOM     85  F   UNL A   1      49.107  27.626  23.621  1.00  0.00    -0.206 F 
ATOM     86  C   UNL A   1      52.334  26.607  24.891  1.00  0.00     0.060 A 
BRANCH  86  87
ATOM     87  S   UNL A   1      53.974  26.152  24.290  1.00  0.00     0.124 S 
ATOM     88  O   UNL A   1      54.066  24.759  24.717  1.00  0.00    -0.237 OA
ATOM     89  O   UNL A   1      53.850  26.366  22.851  1.00  0.00    -0.237 OA
ATOM     90  O   UNL A   1      54.863  27.079  24.983  1.00  0.00    -0.744 OA
ENDBRANCH  86  87
ENDBRANCH  65  79
BRANCH  66  91
ATOM     91  C   UNL A   1      40.793  29.702  29.454  1.00  0.00     0.058 A 
ATOM     92  C   UNL A   1      40.623  29.933  30.826  1.00  0.00     0.135 A 
ATOM     93  C   UNL A   1      39.673  29.844  28.621  1.00  0.00     0.135 A 
ATOM     94  F   UNL A   1      41.662  29.798  31.664  1.00  0.00    -0.206 F 
ATOM     95  C   UNL A   1      39.388  30.295  31.355  1.00  0.00     0.059 A 
ATOM     96  C   UNL A   1      38.433  30.229  29.122  1.00  0.00     0.059 A 
ATOM     97  F   UNL A   1      39.787  29.641  27.299  1.00  0.00    -0.206 F 
ATOM     98  C   UNL A   1      38.300  30.447  30.492  1.00  0.00     0.060 A 
BRANCH  98  99
ATOM     99  S   UNL A   1      36.719  30.983  31.181  1.00  0.00     0.124 S 
ATOM    100  O   UNL A   1      37.143  32.008  32.127  1.00  0.00    -0.237 OA
ATOM    101  O   UNL A   1      36.014  31.460  29.995  1.00  0.00    -0.237 OA
ATOM    102  O   UNL A   1      36.179  29.763  31.773  1.00  0.00    -0.744 OA
ENDBRANCH  98  99
ENDBRANCH  66  91
BRANCH  78 103
ATOM    103  C   UNL A   1      43.592  23.808  26.975  1.00  0.00     0.058 A 
ATOM    104  C   UNL A   1      43.402  22.948  28.068  1.00  0.00     0.135 A 
ATOM    105  C   UNL A   1      43.200  23.353  25.705  1.00  0.00     0.135 A 
ATOM    106  F   UNL A   1      43.766  23.333  29.301  1.00  0.00    -0.206 F 
ATOM    107  C   UNL A   1      42.856  21.680  27.906  1.00  0.00     0.059 A 
ATOM    108  C   UNL A   1      42.630  22.097  25.524  1.00  0.00     0.059 A 
ATOM    109  F   UNL A   1      43.352  24.140  24.628  1.00  0.00    -0.206 F 
ATOM    110  C   UNL A   1      42.469  21.264  26.630  1.00  0.00     0.060 A 
BRANCH 110 111
ATOM    111  S   UNL A   1      41.723  19.631  26.442  1.00  0.00     0.124 S 
ATOM    112  O   UNL A   1      42.124  18.978  27.685  1.00  0.00    -0.237 OA
ATOM    113  O   UNL A   1      40.302  19.948  26.323  1.00  0.00    -0.237 OA
ATOM    114  O   UNL A   1      42.345  19.108  25.230  1.00  0.00    -0.744 OA
ENDBRANCH 110 111
ENDBRANCH  78 103
ENDBRANCH  52  53
ENDBRANCH  44  47
ENDBRANCH  42  43
ENDBRANCH  41  42
ENDBRANCH  40  41
ENDBRANCH   1  40
TORSDOF 19
ENDMDL
MODEL 3
REMARK VINA RESULT:     -12.5      5.416      9.041
REMARK SMILES O=C(Cn1nc(C(=O)NCCCCCCNC(=O)c2ccc(-c3c4nc(c(-c5c(F)cc(S(=O)(=O)[O-])cc5F)c5ccc([nH]5)c(-c5c(F)cc(S(=O)(=O)[O-])cc5F)c5nc(c(-c6c(F)cc(S(=O)(=O)[O-])cc6F)c6ccc3[nH]6)C=C5)C=C4)cc2)c2ccccc2c1=O)Nc1ccc2c(c1)C(=O)c1ccccc1C2=O
REMARK SMILES IDX 12 1 11 2 10 3 9 4 7 5 8 6 6 8 4 9 5 10 91 11 90 12 92 13
REMARK SMILES IDX 85 14 89 15 86 16 88 17 87 18 3 19 2 20 1 21 93 22 94 24
REMARK SMILES IDX 95 25 99 26 96 27 98 28 97 29 100 30 108 31 101 32 102 33
REMARK SMILES IDX 107 34 109 35 103 36 106 37 104 38 105 39 13 40 14 41 15 42
REMARK SMILES IDX 16 43 17 44 18 46 19 47 20 48 84 49 21 50 83 51 22 52 23 53
REMARK SMILES IDX 24 54 77 55 25 56 82 57 76 58 78 59 26 60 81 61 75 62 74 63
REMARK SMILES IDX 27 65 61 66 40 67 60 68 41 69 44 70 59 71 79 72 42 73 43 74
REMARK SMILES IDX 58 76 80 77 45 78 28 79 29 80 38 81 30 82 31 83 37 84 39 85
REMARK SMILES IDX 32 86 33 87 34 88 35 89 36 90 62 91 63 92 72 93 64 94 65 95
REMARK SMILES IDX 71 96 73 97 66 98 67 99 68 100 69 101 70 102 46 103 47 104
REMARK SMILES IDX 56 105 48 106 49 107 55 108 57 109 50 110 51 111 52 112
REMARK SMILES IDX 53 113 54 114
REMARK H PARENT 9 7 93 23 16 45 78 64 44 75
REMARK Flexibility Score: inf
ROOT
ATOM      1  C   UNL A   1      40.193  26.129  28.461  1.00  0.00     0.002 C 
ENDROOT
BRANCH   1   2
ATOM      2  C   UNL A   1      39.079  27.179  28.405  1.00  0.00     0.021 C 
BRANCH   2   3
ATOM      3  C   UNL A   1      39.242  28.341  29.388  1.00  0.00     0.116 C 
BRANCH   3   4
ATOM      4  N   UNL A   1      38.172  28.269  30.379  1.00  0.00    -0.351 N 
ATOM      5  C   UNL A   1      37.360  29.284  30.828  1.00  0.00     0.272 C 
ATOM      6  O   UNL A   1      36.905  29.251  31.968  1.00  0.00    -0.267 OA
ATOM      7  H   UNL A   1      38.012  27.382  30.775  1.00  0.00     0.163 HD
BRANCH   5   8
ATOM      8  C   UNL A   1      36.957  30.435  29.901  1.00  0.00     0.156 A 
ATOM      9  N   UNL A   1      35.489  31.320  28.333  1.00  0.00    -0.219 N 
ATOM     10  N   UNL A   1      35.912  30.279  29.138  1.00  0.00    -0.163 NA
ATOM     11  C   UNL A   1      36.132  32.558  28.279  1.00  0.00     0.275 A 
ATOM     12  C   UNL A   1      37.361  32.709  29.082  1.00  0.00     0.051 A 
ATOM     13  O   UNL A   1      35.732  33.510  27.615  1.00  0.00    -0.267 OA
ATOM     14  C   UNL A   1      37.782  31.667  29.899  1.00  0.00     0.020 A 
ATOM     15  C   UNL A   1      38.090  33.909  29.027  1.00  0.00     0.014 A 
ATOM     16  C   UNL A   1      38.955  31.825  30.656  1.00  0.00     0.011 A 
ATOM     17  C   UNL A   1      39.257  34.057  29.777  1.00  0.00     0.001 A 
ATOM     18  C   UNL A   1      39.692  33.012  30.586  1.00  0.00     0.001 A 
BRANCH   9  19
ATOM     19  C   UNL A   1      34.151  31.209  27.718  1.00  0.00     0.248 C 
BRANCH  19  20
ATOM     20  C   UNL A   1      33.819  29.847  27.098  1.00  0.00     0.246 C 
ATOM     21  O   UNL A   1      34.632  29.205  26.439  1.00  0.00    -0.273 OA
ATOM     22  N   UNL A   1      32.565  29.375  27.458  1.00  0.00    -0.324 N 
ATOM     23  H   UNL A   1      32.140  29.701  28.284  1.00  0.00     0.169 HD
BRANCH  22  24
ATOM     24  C   UNL A   1      31.897  28.437  26.655  1.00  0.00     0.042 A 
ATOM     25  C   UNL A   1      31.325  28.768  25.423  1.00  0.00     0.027 A 
ATOM     26  C   UNL A   1      32.038  27.110  27.017  1.00  0.00     0.039 A 
ATOM     27  C   UNL A   1      31.094  27.754  24.471  1.00  0.00     0.015 A 
ATOM     28  C   UNL A   1      31.655  26.124  26.129  1.00  0.00     0.036 A 
ATOM     29  C   UNL A   1      31.382  26.430  24.807  1.00  0.00     0.034 A 
ATOM     30  C   UNL A   1      31.807  24.717  26.452  1.00  0.00     0.194 C 
ATOM     31  C   UNL A   1      31.785  25.386  23.804  1.00  0.00     0.194 C 
ATOM     32  O   UNL A   1      31.093  24.108  27.226  1.00  0.00    -0.289 OA
ATOM     33  C   UNL A   1      32.792  24.044  25.651  1.00  0.00     0.034 A 
ATOM     34  C   UNL A   1      32.772  24.352  24.292  1.00  0.00     0.034 A 
ATOM     35  O   UNL A   1      31.462  25.458  22.629  1.00  0.00    -0.289 OA
ATOM     36  C   UNL A   1      33.751  23.240  26.262  1.00  0.00     0.013 A 
ATOM     37  C   UNL A   1      33.756  23.787  23.492  1.00  0.00     0.013 A 
ATOM     38  C   UNL A   1      34.757  22.724  25.464  1.00  0.00     0.001 A 
ATOM     39  C   UNL A   1      34.752  22.987  24.086  1.00  0.00     0.001 A 
ENDBRANCH  22  24
ENDBRANCH  19  20
ENDBRANCH   9  19
ENDBRANCH   5   8
ENDBRANCH   3   4
ENDBRANCH   2   3
ENDBRANCH   1   2
BRANCH   1  40
ATOM     40  C   UNL A   1      40.874  25.759  27.144  1.00  0.00     0.002 C 
BRANCH  40  41
ATOM     41  C   UNL A   1      40.196  24.766  26.193  1.00  0.00     0.021 C 
BRANCH  41  42
ATOM     42  C   UNL A   1      39.854  23.369  26.710  1.00  0.00     0.116 C 
BRANCH  42  43
ATOM     43  N   UNL A   1      40.602  22.289  26.079  1.00  0.00    -0.352 N 
ATOM     44  C   UNL A   1      41.889  21.859  26.323  1.00  0.00     0.251 C 
ATOM     45  H   UNL A   1      40.119  21.795  25.378  1.00  0.00     0.163 HD
ATOM     46  O   UNL A   1      42.406  20.977  25.644  1.00  0.00    -0.269 OA
BRANCH  44  47
ATOM     47  C   UNL A   1      42.662  22.500  27.409  1.00  0.00     0.039 A 
ATOM     48  C   UNL A   1      42.095  22.637  28.678  1.00  0.00     0.014 A 
ATOM     49  C   UNL A   1      43.917  23.043  27.129  1.00  0.00     0.014 A 
ATOM     50  C   UNL A   1      42.699  23.481  29.607  1.00  0.00     0.010 A 
ATOM     51  C   UNL A   1      44.550  23.842  28.088  1.00  0.00     0.010 A 
ATOM     52  C   UNL A   1      43.910  24.127  29.306  1.00  0.00    -0.014 A 
BRANCH  52  53
ATOM     53  C   UNL A   1      44.446  25.166  30.227  1.00  0.00     0.031 A 
ATOM     54  C   UNL A   1      44.578  26.595  29.761  1.00  0.00     0.074 A 
ATOM     55  C   UNL A   1      44.754  24.849  31.500  1.00  0.00     0.049 A 
ATOM     56  N   UNL A   1      45.037  27.639  30.406  1.00  0.00    -0.248 NA
ATOM     57  C   UNL A   1      44.141  26.893  28.386  1.00  0.00     0.031 C 
ATOM     58  C   UNL A   1      44.640  23.513  32.086  1.00  0.00     0.029 A 
ATOM     59  N   UNL A   1      45.207  25.630  32.534  1.00  0.00    -0.354 N 
ATOM     60  C   UNL A   1      44.957  28.706  29.518  1.00  0.00     0.074 A 
ATOM     61  C   UNL A   1      44.437  28.180  28.274  1.00  0.00     0.031 C 
ATOM     62  C   UNL A   1      44.977  23.574  33.384  1.00  0.00     0.029 A 
ATOM     63  C   UNL A   1      45.383  24.939  33.709  1.00  0.00     0.049 A 
ATOM     64  H   UNL A   1      45.390  26.592  32.443  1.00  0.00     0.167 HD
ATOM     65  C   UNL A   1      45.273  30.009  29.722  1.00  0.00     0.037 A 
ATOM     66  C   UNL A   1      45.831  25.352  34.911  1.00  0.00     0.037 A 
ATOM     67  C   UNL A   1      45.761  30.538  30.969  1.00  0.00     0.049 A 
ATOM     68  C   UNL A   1      46.221  26.792  35.100  1.00  0.00     0.074 A 
ATOM     69  C   UNL A   1      46.098  31.846  31.275  1.00  0.00     0.029 A 
ATOM     70  N   UNL A   1      45.972  29.793  32.120  1.00  0.00    -0.354 N 
ATOM     71  N   UNL A   1      46.160  27.782  34.241  1.00  0.00    -0.248 NA
ATOM     72  C   UNL A   1      46.750  27.170  36.418  1.00  0.00     0.031 C 
ATOM     73  C   UNL A   1      46.548  31.885  32.598  1.00  0.00     0.029 A 
ATOM     74  C   UNL A   1      46.450  30.611  33.131  1.00  0.00     0.049 A 
ATOM     75  H   UNL A   1      45.808  28.827  32.205  1.00  0.00     0.167 HD
ATOM     76  C   UNL A   1      46.627  28.902  34.920  1.00  0.00     0.074 A 
ATOM     77  C   UNL A   1      46.954  28.472  36.262  1.00  0.00     0.031 C 
ATOM     78  C   UNL A   1      46.772  30.171  34.467  1.00  0.00     0.037 A 
BRANCH  65  79
ATOM     79  C   UNL A   1      45.106  30.963  28.570  1.00  0.00     0.058 A 
ATOM     80  C   UNL A   1      43.941  31.732  28.412  1.00  0.00     0.135 A 
ATOM     81  C   UNL A   1      46.148  31.159  27.649  1.00  0.00     0.135 A 
ATOM     82  F   UNL A   1      42.908  31.574  29.254  1.00  0.00    -0.206 F 
ATOM     83  C   UNL A   1      43.810  32.648  27.373  1.00  0.00     0.059 A 
ATOM     84  C   UNL A   1      46.048  32.088  26.616  1.00  0.00     0.059 A 
ATOM     85  F   UNL A   1      47.284  30.451  27.754  1.00  0.00    -0.206 F 
ATOM     86  C   UNL A   1      44.871  32.822  26.481  1.00  0.00     0.060 A 
BRANCH  86  87
ATOM     87  S   UNL A   1      44.689  34.029  25.150  1.00  0.00     0.124 S 
ATOM     88  O   UNL A   1      46.040  34.574  25.063  1.00  0.00    -0.237 OA
ATOM     89  O   UNL A   1      44.269  33.195  24.028  1.00  0.00    -0.237 OA
ATOM     90  O   UNL A   1      43.675  34.948  25.658  1.00  0.00    -0.744 OA
ENDBRANCH  86  87
ENDBRANCH  65  79
BRANCH  66  91
ATOM     91  C   UNL A   1      45.931  24.379  36.031  1.00  0.00     0.058 A 
ATOM     92  C   UNL A   1      47.008  23.488  36.116  1.00  0.00     0.135 A 
ATOM     93  C   UNL A   1      44.969  24.348  37.053  1.00  0.00     0.135 A 
ATOM     94  F   UNL A   1      47.946  23.473  35.157  1.00  0.00    -0.206 F 
ATOM     95  C   UNL A   1      47.132  22.597  37.177  1.00  0.00     0.059 A 
ATOM     96  C   UNL A   1      45.084  23.483  38.137  1.00  0.00     0.059 A 
ATOM     97  F   UNL A   1      43.923  25.188  37.020  1.00  0.00    -0.206 F 
ATOM     98  C   UNL A   1      46.167  22.607  38.187  1.00  0.00     0.060 A 
BRANCH  98  99
ATOM     99  S   UNL A   1      46.375  21.493  39.593  1.00  0.00     0.124 S 
ATOM    100  O   UNL A   1      45.334  21.966  40.499  1.00  0.00    -0.237 OA
ATOM    101  O   UNL A   1      46.146  20.185  38.985  1.00  0.00    -0.237 OA
ATOM    102  O   UNL A   1      47.747  21.745  40.022  1.00  0.00    -0.744 OA
ENDBRANCH  98  99
ENDBRANCH  66  91
BRANCH  78 103
ATOM    103  C   UNL A   1      47.291  31.200  35.433  1.00  0.00     0.058 A 
ATOM    104  C   UNL A   1      48.660  31.488  35.533  1.00  0.00     0.135 A 
ATOM    105  C   UNL A   1      46.402  31.952  36.219  1.00  0.00     0.135 A 
ATOM    106  F   UNL A   1      49.552  30.793  34.809  1.00  0.00    -0.206 F 
ATOM    107  C   UNL A   1      49.133  32.475  36.391  1.00  0.00     0.059 A 
ATOM    108  C   UNL A   1      46.851  32.961  37.066  1.00  0.00     0.059 A 
ATOM    109  F   UNL A   1      45.081  31.723  36.153  1.00  0.00    -0.206 F 
ATOM    110  C   UNL A   1      48.220  33.209  37.150  1.00  0.00     0.060 A 
BRANCH 110 111
ATOM    111  S   UNL A   1      48.846  34.517  38.228  1.00  0.00     0.124 S 
ATOM    112  O   UNL A   1      47.895  35.593  37.968  1.00  0.00    -0.237 OA
ATOM    113  O   UNL A   1      48.761  33.900  39.548  1.00  0.00    -0.237 OA
ATOM    114  O   UNL A   1      50.201  34.745  37.736  1.00  0.00    -0.744 OA
ENDBRANCH 110 111
ENDBRANCH  78 103
ENDBRANCH  52  53
ENDBRANCH  44  47
ENDBRANCH  42  43
ENDBRANCH  41  42
ENDBRANCH  40  41
ENDBRANCH   1  40
TORSDOF 19
ENDMDL
