MODEL 1
REMARK VINA RESULT:     -11.9      0.000      0.000
REMARK SMILES O=C(NCCCCCCNC(=O)[C@H]1CC[C@@H]2CCCC[C@@H]2N1C(=O)NC1CC1)c1ccc(-c2c3nc(c(-c4c(F)cc(S(=O)(=O)[O-])cc4F)c4ccc([nH]4)c(-c4c(F)cc(S(=O)(=O)[O-])cc4F)c4nc(c(-c5c(F)cc(S(=O)(=O)[O-])cc5F)c5ccc2[nH]5)C=C4)C=C3)cc1
REMARK SMILES IDX 6 1 5 2 4 3 3 4 1 5 2 6 29 8 30 9 94 10 31 11 93 12 32 13
REMARK SMILES IDX 33 14 34 15 87 16 35 17 92 18 86 19 88 20 36 21 91 22 85 23
REMARK SMILES IDX 84 24 37 26 71 27 50 28 70 29 51 30 54 31 69 32 89 33 52 34
REMARK SMILES IDX 53 35 68 37 90 38 55 39 38 40 39 41 48 42 40 43 41 44 47 45
REMARK SMILES IDX 49 46 42 47 43 48 44 49 45 50 46 51 72 52 73 53 82 54 74 55
REMARK SMILES IDX 75 56 81 57 83 58 76 59 77 60 78 61 79 62 80 63 56 64 57 65
REMARK SMILES IDX 66 66 58 67 59 68 65 69 67 70 60 71 61 72 62 73 63 74 64 75
REMARK SMILES IDX 7 76 8 77 9 78 10 79 11 80 12 82 13 83 14 84 22 85 15 86
REMARK SMILES IDX 21 87 16 88 20 89 17 90 19 91 18 92 23 93 24 94 25 95 26 97
REMARK SMILES IDX 27 98 28 99
REMARK H PARENT 3 7 88 25 54 36 10 81 25 96
REMARK Flexibility Score: inf
ROOT
ATOM      1  C   UNL A   1      34.758  28.835  26.950  1.00  0.00     0.002 C 
ENDROOT
BRANCH   1   2
ATOM      2  C   UNL A   1      34.514  30.309  27.261  1.00  0.00     0.021 C 
BRANCH   2   3
ATOM      3  C   UNL A   1      35.637  30.989  28.029  1.00  0.00     0.116 C 
BRANCH   3   4
ATOM      4  N   UNL A   1      35.466  30.872  29.466  1.00  0.00    -0.352 N 
ATOM      5  O   UNL A   1      35.973  30.142  31.539  1.00  0.00    -0.269 OA
ATOM      6  C   UNL A   1      36.338  30.344  30.391  1.00  0.00     0.251 C 
ATOM      7  H   UNL A   1      34.616  31.216  29.826  1.00  0.00     0.163 HD
BRANCH   6   8
ATOM      8  C   UNL A   1      37.716  30.004  29.968  1.00  0.00     0.039 A 
ATOM      9  C   UNL A   1      38.697  29.714  30.922  1.00  0.00     0.014 A 
ATOM     10  C   UNL A   1      38.029  29.981  28.607  1.00  0.00     0.014 A 
ATOM     11  C   UNL A   1      40.013  29.522  30.522  1.00  0.00     0.010 A 
ATOM     12  C   UNL A   1      39.338  29.700  28.202  1.00  0.00     0.010 A 
ATOM     13  C   UNL A   1      40.344  29.484  29.156  1.00  0.00    -0.014 A 
BRANCH  13  14
ATOM     14  C   UNL A   1      41.723  29.107  28.758  1.00  0.00     0.031 A 
ATOM     15  C   UNL A   1      42.845  30.107  28.761  1.00  0.00     0.074 A 
ATOM     16  C   UNL A   1      41.951  27.827  28.402  1.00  0.00     0.049 A 
ATOM     17  N   UNL A   1      44.100  29.931  28.438  1.00  0.00    -0.248 NA
ATOM     18  C   UNL A   1      42.522  31.483  29.171  1.00  0.00     0.031 C 
ATOM     19  C   UNL A   1      40.927  26.777  28.340  1.00  0.00     0.029 A 
ATOM     20  N   UNL A   1      43.104  27.183  28.034  1.00  0.00    -0.354 N 
ATOM     21  C   UNL A   1      44.713  31.169  28.584  1.00  0.00     0.074 A 
ATOM     22  C   UNL A   1      43.688  32.096  29.013  1.00  0.00     0.031 C 
ATOM     23  C   UNL A   1      41.505  25.617  27.997  1.00  0.00     0.029 A 
ATOM     24  C   UNL A   1      42.922  25.851  27.751  1.00  0.00     0.049 A 
ATOM     25  H   UNL A   1      43.978  27.633  27.979  1.00  0.00     0.167 HD
ATOM     26  C   UNL A   1      46.013  31.494  28.381  1.00  0.00     0.037 A 
ATOM     27  C   UNL A   1      43.793  24.921  27.317  1.00  0.00     0.037 A 
ATOM     28  C   UNL A   1      47.029  30.554  27.975  1.00  0.00     0.049 A 
ATOM     29  C   UNL A   1      45.223  25.316  27.095  1.00  0.00     0.074 A 
ATOM     30  C   UNL A   1      48.383  30.778  27.793  1.00  0.00     0.029 A 
ATOM     31  N   UNL A   1      46.805  29.216  27.685  1.00  0.00    -0.354 N 
ATOM     32  N   UNL A   1      45.792  26.483  27.279  1.00  0.00    -0.248 NA
ATOM     33  C   UNL A   1      46.130  24.272  26.602  1.00  0.00     0.031 C 
ATOM     34  C   UNL A   1      48.970  29.586  27.354  1.00  0.00     0.029 A 
ATOM     35  C   UNL A   1      47.990  28.609  27.302  1.00  0.00     0.049 A 
ATOM     36  H   UNL A   1      45.932  28.765  27.742  1.00  0.00     0.167 HD
ATOM     37  C   UNL A   1      47.125  26.313  26.934  1.00  0.00     0.074 A 
ATOM     38  C   UNL A   1      47.284  24.923  26.552  1.00  0.00     0.031 C 
ATOM     39  C   UNL A   1      48.128  27.225  26.926  1.00  0.00     0.037 A 
BRANCH  26  40
ATOM     40  C   UNL A   1      46.428  32.926  28.581  1.00  0.00     0.058 A 
ATOM     41  C   UNL A   1      46.901  33.391  29.818  1.00  0.00     0.135 A 
ATOM     42  C   UNL A   1      46.443  33.819  27.497  1.00  0.00     0.135 A 
ATOM     43  F   UNL A   1      46.896  32.583  30.890  1.00  0.00    -0.206 F 
ATOM     44  C   UNL A   1      47.370  34.692  29.974  1.00  0.00     0.059 A 
ATOM     45  C   UNL A   1      46.926  35.119  27.625  1.00  0.00     0.059 A 
ATOM     46  F   UNL A   1      46.001  33.426  26.292  1.00  0.00    -0.206 F 
ATOM     47  C   UNL A   1      47.384  35.547  28.871  1.00  0.00     0.060 A 
BRANCH  47  48
ATOM     48  S   UNL A   1      48.032  37.220  29.082  1.00  0.00     0.124 S 
ATOM     49  O   UNL A   1      48.237  37.629  27.696  1.00  0.00    -0.237 OA
ATOM     50  O   UNL A   1      46.943  37.890  29.785  1.00  0.00    -0.237 OA
ATOM     51  O   UNL A   1      49.248  37.018  29.864  1.00  0.00    -0.744 OA
ENDBRANCH  47  48
ENDBRANCH  26  40
BRANCH  27  52
ATOM     52  C   UNL A   1      43.324  23.539  27.040  1.00  0.00     0.058 A 
ATOM     53  C   UNL A   1      43.083  22.633  28.083  1.00  0.00     0.135 A 
ATOM     54  C   UNL A   1      43.099  23.101  25.726  1.00  0.00     0.135 A 
ATOM     55  F   UNL A   1      43.285  23.005  29.355  1.00  0.00    -0.206 F 
ATOM     56  C   UNL A   1      42.658  21.332  27.831  1.00  0.00     0.059 A 
ATOM     57  C   UNL A   1      42.647  21.817  25.450  1.00  0.00     0.059 A 
ATOM     58  F   UNL A   1      43.296  23.939  24.695  1.00  0.00    -0.206 F 
ATOM     59  C   UNL A   1      42.445  20.933  26.510  1.00  0.00     0.060 A 
BRANCH  59  60
ATOM     60  S   UNL A   1      41.867  19.253  26.190  1.00  0.00     0.124 S 
ATOM     61  O   UNL A   1      42.207  18.586  27.441  1.00  0.00    -0.237 OA
ATOM     62  O   UNL A   1      40.443  19.457  25.940  1.00  0.00    -0.237 OA
ATOM     63  O   UNL A   1      42.647  18.849  25.024  1.00  0.00    -0.744 OA
ENDBRANCH  59  60
ENDBRANCH  27  52
BRANCH  39  64
ATOM     64  C   UNL A   1      49.487  26.739  26.510  1.00  0.00     0.058 A 
ATOM     65  C   UNL A   1      50.378  26.176  27.436  1.00  0.00     0.135 A 
ATOM     66  C   UNL A   1      49.889  26.813  25.168  1.00  0.00     0.135 A 
ATOM     67  F   UNL A   1      50.043  26.092  28.732  1.00  0.00    -0.206 F 
ATOM     68  C   UNL A   1      51.635  25.724  27.048  1.00  0.00     0.059 A 
ATOM     69  C   UNL A   1      51.131  26.345  24.754  1.00  0.00     0.059 A 
ATOM     70  F   UNL A   1      49.069  27.337  24.243  1.00  0.00    -0.206 F 
ATOM     71  C   UNL A   1      52.003  25.813  25.705  1.00  0.00     0.060 A 
BRANCH  71  72
ATOM     72  S   UNL A   1      53.627  25.202  25.208  1.00  0.00     0.124 S 
ATOM     73  O   UNL A   1      53.425  23.758  25.259  1.00  0.00    -0.237 OA
ATOM     74  O   UNL A   1      53.784  25.774  23.874  1.00  0.00    -0.237 OA
ATOM     75  O   UNL A   1      54.520  25.748  26.225  1.00  0.00    -0.744 OA
ENDBRANCH  71  72
ENDBRANCH  39  64
ENDBRANCH  13  14
ENDBRANCH   6   8
ENDBRANCH   3   4
ENDBRANCH   2   3
ENDBRANCH   1   2
BRANCH   1  76
ATOM     76  C   UNL A   1      33.761  28.196  25.980  1.00  0.00     0.002 C 
BRANCH  76  77
ATOM     77  C   UNL A   1      33.771  26.663  25.913  1.00  0.00     0.021 C 
BRANCH  77  78
ATOM     78  C   UNL A   1      32.579  26.023  25.202  1.00  0.00     0.116 C 
BRANCH  78  79
ATOM     79  N   UNL A   1      31.728  25.267  26.096  1.00  0.00    -0.354 N 
ATOM     80  C   UNL A   1      31.805  23.971  26.513  1.00  0.00     0.242 C 
ATOM     81  H   UNL A   1      30.968  25.773  26.464  1.00  0.00     0.163 HD
ATOM     82  O   UNL A   1      30.980  23.614  27.361  1.00  0.00    -0.273 OA
BRANCH  80  83
ATOM     83  C   UNL A   1      32.994  23.080  26.111  1.00  0.00     0.176 C 
ATOM     84  C   UNL A   1      33.362  21.975  27.106  1.00  0.00     0.036 C 
ATOM     85  N   UNL A   1      33.256  22.583  24.745  1.00  0.00    -0.310 N 
ATOM     86  C   UNL A   1      34.863  21.686  26.972  1.00  0.00     0.008 C 
ATOM     87  C   UNL A   1      34.711  22.392  24.484  1.00  0.00     0.091 C 
ATOM     88  C   UNL A   1      35.276  21.383  25.513  1.00  0.00     0.012 C 
ATOM     89  C   UNL A   1      35.488  23.716  24.346  1.00  0.00     0.025 C 
ATOM     90  C   UNL A   1      36.790  21.263  25.346  1.00  0.00     0.006 C 
ATOM     91  C   UNL A   1      36.946  23.762  24.809  1.00  0.00     0.002 C 
ATOM     92  C   UNL A   1      37.502  22.581  25.597  1.00  0.00     0.000 C 
BRANCH  85  93
ATOM     93  C   UNL A   1      32.418  21.856  23.932  1.00  0.00     0.318 C 
ATOM     94  O   UNL A   1      31.741  22.397  23.049  1.00  0.00    -0.249 OA
ATOM     95  N   UNL A   1      32.243  20.519  24.006  1.00  0.00    -0.335 N 
ATOM     96  H   UNL A   1      31.623  20.194  23.315  1.00  0.00     0.165 HD
BRANCH  95  97
ATOM     97  C   UNL A   1      32.724  19.466  24.820  1.00  0.00     0.084 C 
ATOM     98  C   UNL A   1      32.303  18.047  24.518  1.00  0.00     0.027 C 
ATOM     99  C   UNL A   1      33.726  18.464  24.326  1.00  0.00     0.027 C 
ENDBRANCH  95  97
ENDBRANCH  85  93
ENDBRANCH  80  83
ENDBRANCH  78  79
ENDBRANCH  77  78
ENDBRANCH  76  77
ENDBRANCH   1  76
TORSDOF 18
ENDMDL
MODEL 2
REMARK VINA RESULT:     -11.9      0.843      2.318
REMARK SMILES O=C(NCCCCCCNC(=O)[C@H]1CC[C@@H]2CCCC[C@@H]2N1C(=O)NC1CC1)c1ccc(-c2c3nc(c(-c4c(F)cc(S(=O)(=O)[O-])cc4F)c4ccc([nH]4)c(-c4c(F)cc(S(=O)(=O)[O-])cc4F)c4nc(c(-c5c(F)cc(S(=O)(=O)[O-])cc5F)c5ccc2[nH]5)C=C4)C=C3)cc1
REMARK SMILES IDX 6 1 5 2 4 3 3 4 1 5 2 6 29 8 30 9 94 10 31 11 93 12 32 13
REMARK SMILES IDX 33 14 34 15 87 16 35 17 92 18 86 19 88 20 36 21 91 22 85 23
REMARK SMILES IDX 84 24 37 26 71 27 50 28 70 29 51 30 54 31 69 32 89 33 52 34
REMARK SMILES IDX 53 35 68 37 90 38 55 39 38 40 39 41 48 42 40 43 41 44 47 45
REMARK SMILES IDX 49 46 42 47 43 48 44 49 45 50 46 51 72 52 73 53 82 54 74 55
REMARK SMILES IDX 75 56 81 57 83 58 76 59 77 60 78 61 79 62 80 63 56 64 57 65
REMARK SMILES IDX 66 66 58 67 59 68 65 69 67 70 60 71 61 72 62 73 63 74 64 75
REMARK SMILES IDX 7 76 8 77 9 78 10 79 11 80 12 82 13 83 14 84 22 85 15 86
REMARK SMILES IDX 21 87 16 88 20 89 17 90 19 91 18 92 23 93 24 94 25 95 26 97
REMARK SMILES IDX 27 98 28 99
REMARK H PARENT 3 7 88 25 54 36 10 81 25 96
REMARK Flexibility Score: inf
ROOT
ATOM      1  C   UNL A   1      33.870  28.489  26.123  1.00  0.00     0.002 C 
ENDROOT
BRANCH   1   2
ATOM      2  C   UNL A   1      34.135  29.645  27.084  1.00  0.00     0.021 C 
BRANCH   2   3
ATOM      3  C   UNL A   1      35.349  29.458  27.980  1.00  0.00     0.116 C 
BRANCH   3   4
ATOM      4  N   UNL A   1      35.321  30.341  29.131  1.00  0.00    -0.352 N 
ATOM      5  O   UNL A   1      36.128  31.276  31.019  1.00  0.00    -0.269 OA
ATOM      6  C   UNL A   1      36.352  30.670  29.983  1.00  0.00     0.251 C 
ATOM      7  H   UNL A   1      34.452  30.761  29.330  1.00  0.00     0.163 HD
BRANCH   6   8
ATOM      8  C   UNL A   1      37.731  30.257  29.635  1.00  0.00     0.039 A 
ATOM      9  C   UNL A   1      38.140  30.213  28.299  1.00  0.00     0.014 A 
ATOM     10  C   UNL A   1      38.620  29.908  30.655  1.00  0.00     0.014 A 
ATOM     11  C   UNL A   1      39.392  29.704  27.976  1.00  0.00     0.010 A 
ATOM     12  C   UNL A   1      39.911  29.479  30.332  1.00  0.00     0.010 A 
ATOM     13  C   UNL A   1      40.302  29.358  28.990  1.00  0.00    -0.014 A 
BRANCH  13  14
ATOM     14  C   UNL A   1      41.688  28.982  28.617  1.00  0.00     0.031 A 
ATOM     15  C   UNL A   1      42.807  29.987  28.624  1.00  0.00     0.074 A 
ATOM     16  C   UNL A   1      41.926  27.699  28.279  1.00  0.00     0.049 A 
ATOM     17  N   UNL A   1      44.067  29.811  28.322  1.00  0.00    -0.248 NA
ATOM     18  C   UNL A   1      42.472  31.366  29.012  1.00  0.00     0.031 C 
ATOM     19  C   UNL A   1      40.908  26.644  28.215  1.00  0.00     0.029 A 
ATOM     20  N   UNL A   1      43.087  27.055  27.937  1.00  0.00    -0.354 N 
ATOM     21  C   UNL A   1      44.674  31.053  28.462  1.00  0.00     0.074 A 
ATOM     22  C   UNL A   1      43.639  31.982  28.864  1.00  0.00     0.031 C 
ATOM     23  C   UNL A   1      41.495  25.482  27.894  1.00  0.00     0.029 A 
ATOM     24  C   UNL A   1      42.915  25.719  27.667  1.00  0.00     0.049 A 
ATOM     25  H   UNL A   1      43.960  27.508  27.889  1.00  0.00     0.167 HD
ATOM     26  C   UNL A   1      45.975  31.381  28.274  1.00  0.00     0.037 A 
ATOM     27  C   UNL A   1      43.795  24.787  27.257  1.00  0.00     0.037 A 
ATOM     28  C   UNL A   1      47.000  30.440  27.895  1.00  0.00     0.049 A 
ATOM     29  C   UNL A   1      45.227  25.184  27.051  1.00  0.00     0.074 A 
ATOM     30  C   UNL A   1      48.356  30.667  27.731  1.00  0.00     0.029 A 
ATOM     31  N   UNL A   1      46.785  29.098  27.618  1.00  0.00    -0.354 N 
ATOM     32  N   UNL A   1      45.788  26.357  27.230  1.00  0.00    -0.248 NA
ATOM     33  C   UNL A   1      46.145  24.138  26.585  1.00  0.00     0.031 C 
ATOM     34  C   UNL A   1      48.954  29.472  27.314  1.00  0.00     0.029 A 
ATOM     35  C   UNL A   1      47.978  28.490  27.260  1.00  0.00     0.049 A 
ATOM     36  H   UNL A   1      45.913  28.644  27.667  1.00  0.00     0.167 HD
ATOM     37  C   UNL A   1      47.128  26.187  26.907  1.00  0.00     0.074 A 
ATOM     38  C   UNL A   1      47.298  24.794  26.544  1.00  0.00     0.031 C 
ATOM     39  C   UNL A   1      48.127  27.103  26.903  1.00  0.00     0.037 A 
BRANCH  26  40
ATOM     40  C   UNL A   1      46.382  32.816  28.463  1.00  0.00     0.058 A 
ATOM     41  C   UNL A   1      46.329  33.743  27.410  1.00  0.00     0.135 A 
ATOM     42  C   UNL A   1      46.739  33.292  29.735  1.00  0.00     0.135 A 
ATOM     43  F   UNL A   1      46.007  33.340  26.171  1.00  0.00    -0.206 F 
ATOM     44  C   UNL A   1      46.619  35.089  27.611  1.00  0.00     0.059 A 
ATOM     45  C   UNL A   1      47.014  34.638  29.964  1.00  0.00     0.059 A 
ATOM     46  F   UNL A   1      46.807  32.448  30.777  1.00  0.00    -0.206 F 
ATOM     47  C   UNL A   1      46.955  35.529  28.893  1.00  0.00     0.060 A 
BRANCH  47  48
ATOM     48  S   UNL A   1      47.290  37.285  29.145  1.00  0.00     0.124 S 
ATOM     49  O   UNL A   1      45.939  37.834  29.196  1.00  0.00    -0.237 OA
ATOM     50  O   UNL A   1      48.020  37.286  30.408  1.00  0.00    -0.237 OA
ATOM     51  O   UNL A   1      48.074  37.655  27.971  1.00  0.00    -0.744 OA
ENDBRANCH  47  48
ENDBRANCH  26  40
BRANCH  27  52
ATOM     52  C   UNL A   1      43.336  23.400  26.990  1.00  0.00     0.058 A 
ATOM     53  C   UNL A   1      43.158  22.935  25.679  1.00  0.00     0.135 A 
ATOM     54  C   UNL A   1      43.076  22.508  28.043  1.00  0.00     0.135 A 
ATOM     55  F   UNL A   1      43.392  23.750  24.641  1.00  0.00    -0.206 F 
ATOM     56  C   UNL A   1      42.714  21.641  25.422  1.00  0.00     0.059 A 
ATOM     57  C   UNL A   1      42.661  21.203  27.811  1.00  0.00     0.059 A 
ATOM     58  F   UNL A   1      43.253  22.901  29.315  1.00  0.00    -0.206 F 
ATOM     59  C   UNL A   1      42.466  20.784  26.496  1.00  0.00     0.060 A 
BRANCH  59  60
ATOM     60  S   UNL A   1      41.918  19.098  26.155  1.00  0.00     0.124 S 
ATOM     61  O   UNL A   1      40.497  19.301  25.896  1.00  0.00    -0.237 OA
ATOM     62  O   UNL A   1      42.733  18.734  25.000  1.00  0.00    -0.237 OA
ATOM     63  O   UNL A   1      42.241  18.387  27.388  1.00  0.00    -0.744 OA
ENDBRANCH  59  60
ENDBRANCH  27  52
BRANCH  39  64
ATOM     64  C   UNL A   1      49.494  26.617  26.513  1.00  0.00     0.058 A 
ATOM     65  C   UNL A   1      49.975  26.757  25.203  1.00  0.00     0.135 A 
ATOM     66  C   UNL A   1      50.340  26.032  27.468  1.00  0.00     0.135 A 
ATOM     67  F   UNL A   1      49.200  27.301  24.253  1.00  0.00    -0.206 F 
ATOM     68  C   UNL A   1      51.242  26.309  24.845  1.00  0.00     0.059 A 
ATOM     69  C   UNL A   1      51.620  25.600  27.138  1.00  0.00     0.059 A 
ATOM     70  F   UNL A   1      49.928  25.883  28.737  1.00  0.00    -0.206 F 
ATOM     71  C   UNL A   1      52.057  25.731  25.820  1.00  0.00     0.060 A 
BRANCH  71  72
ATOM     72  S   UNL A   1      53.709  25.175  25.351  1.00  0.00     0.124 S 
ATOM     73  O   UNL A   1      53.850  25.761  24.022  1.00  0.00    -0.237 OA
ATOM     74  O   UNL A   1      54.546  25.759  26.394  1.00  0.00    -0.237 OA
ATOM     75  O   UNL A   1      53.599  23.719  25.386  1.00  0.00    -0.744 OA
ENDBRANCH  71  72
ENDBRANCH  39  64
ENDBRANCH  13  14
ENDBRANCH   6   8
ENDBRANCH   3   4
ENDBRANCH   2   3
ENDBRANCH   1   2
BRANCH   1  76
ATOM     76  C   UNL A   1      32.457  28.434  25.538  1.00  0.00     0.002 C 
BRANCH  76  77
ATOM     77  C   UNL A   1      31.598  27.234  25.959  1.00  0.00     0.021 C 
BRANCH  77  78
ATOM     78  C   UNL A   1      32.365  25.957  26.300  1.00  0.00     0.116 C 
BRANCH  78  79
ATOM     79  N   UNL A   1      31.508  24.900  26.793  1.00  0.00    -0.354 N 
ATOM     80  C   UNL A   1      31.588  23.547  26.644  1.00  0.00     0.242 C 
ATOM     81  H   UNL A   1      30.740  25.209  27.326  1.00  0.00     0.163 HD
ATOM     82  O   UNL A   1      30.756  22.872  27.260  1.00  0.00    -0.273 OA
BRANCH  80  83
ATOM     83  C   UNL A   1      32.789  22.900  25.929  1.00  0.00     0.176 C 
ATOM     84  C   UNL A   1      33.041  21.425  26.256  1.00  0.00     0.036 C 
ATOM     85  N   UNL A   1      33.161  23.134  24.519  1.00  0.00    -0.310 N 
ATOM     86  C   UNL A   1      34.542  21.145  26.096  1.00  0.00     0.008 C 
ATOM     87  C   UNL A   1      34.630  23.006  24.295  1.00  0.00     0.091 C 
ATOM     88  C   UNL A   1      35.076  21.584  24.713  1.00  0.00     0.012 C 
ATOM     89  C   UNL A   1      35.445  24.169  24.892  1.00  0.00     0.025 C 
ATOM     90  C   UNL A   1      36.596  21.466  24.609  1.00  0.00     0.006 C 
ATOM     91  C   UNL A   1      36.856  23.883  25.412  1.00  0.00     0.002 C 
ATOM     92  C   UNL A   1      37.312  22.434  25.535  1.00  0.00     0.000 C 
BRANCH  85  93
ATOM     93  C   UNL A   1      32.383  22.965  23.397  1.00  0.00     0.318 C 
ATOM     94  O   UNL A   1      32.085  21.839  22.980  1.00  0.00    -0.249 OA
ATOM     95  N   UNL A   1      31.878  23.971  22.652  1.00  0.00    -0.335 N 
ATOM     96  H   UNL A   1      31.326  23.634  21.911  1.00  0.00     0.165 HD
BRANCH  95  97
ATOM     97  C   UNL A   1      31.938  25.384  22.663  1.00  0.00     0.084 C 
ATOM     98  C   UNL A   1      33.129  26.079  22.046  1.00  0.00     0.027 C 
ATOM     99  C   UNL A   1      31.778  26.204  21.416  1.00  0.00     0.027 C 
ENDBRANCH  95  97
ENDBRANCH  85  93
ENDBRANCH  80  83
ENDBRANCH  78  79
ENDBRANCH  77  78
ENDBRANCH  76  77
ENDBRANCH   1  76
TORSDOF 18
ENDMDL
MODEL 3
REMARK VINA RESULT:     -11.8      2.776      8.673
REMARK SMILES O=C(NCCCCCCNC(=O)[C@H]1CC[C@@H]2CCCC[C@@H]2N1C(=O)NC1CC1)c1ccc(-c2c3nc(c(-c4c(F)cc(S(=O)(=O)[O-])cc4F)c4ccc([nH]4)c(-c4c(F)cc(S(=O)(=O)[O-])cc4F)c4nc(c(-c5c(F)cc(S(=O)(=O)[O-])cc5F)c5ccc2[nH]5)C=C4)C=C3)cc1
REMARK SMILES IDX 6 1 5 2 4 3 3 4 1 5 2 6 29 8 30 9 94 10 31 11 93 12 32 13
REMARK SMILES IDX 33 14 34 15 87 16 35 17 92 18 86 19 88 20 36 21 91 22 85 23
REMARK SMILES IDX 84 24 37 26 71 27 50 28 70 29 51 30 54 31 69 32 89 33 52 34
REMARK SMILES IDX 53 35 68 37 90 38 55 39 38 40 39 41 48 42 40 43 41 44 47 45
REMARK SMILES IDX 49 46 42 47 43 48 44 49 45 50 46 51 72 52 73 53 82 54 74 55
REMARK SMILES IDX 75 56 81 57 83 58 76 59 77 60 78 61 79 62 80 63 56 64 57 65
REMARK SMILES IDX 66 66 58 67 59 68 65 69 67 70 60 71 61 72 62 73 63 74 64 75
REMARK SMILES IDX 7 76 8 77 9 78 10 79 11 80 12 82 13 83 14 84 22 85 15 86
REMARK SMILES IDX 21 87 16 88 20 89 17 90 19 91 18 92 23 93 24 94 25 95 26 97
REMARK SMILES IDX 27 98 28 99
REMARK H PARENT 3 7 88 25 54 36 10 81 25 96
REMARK Flexibility Score: inf
ROOT
ATOM      1  C   UNL A   1      31.635  27.541  26.141  1.00  0.00     0.002 C 
ENDROOT
BRANCH   1   2
ATOM      2  C   UNL A   1      33.076  27.716  25.670  1.00  0.00     0.021 C 
BRANCH   2   3
ATOM      3  C   UNL A   1      34.036  28.214  26.739  1.00  0.00     0.116 C 
BRANCH   3   4
ATOM      4  N   UNL A   1      33.742  29.575  27.148  1.00  0.00    -0.352 N 
ATOM      5  O   UNL A   1      34.059  31.480  28.314  1.00  0.00    -0.269 OA
ATOM      6  C   UNL A   1      34.523  30.433  27.889  1.00  0.00     0.251 C 
ATOM      7  H   UNL A   1      32.871  29.931  26.858  1.00  0.00     0.163 HD
BRANCH   6   8
ATOM      8  C   UNL A   1      35.926  30.059  28.180  1.00  0.00     0.039 A 
ATOM      9  C   UNL A   1      36.916  30.211  27.204  1.00  0.00     0.014 A 
ATOM     10  C   UNL A   1      36.251  29.548  29.439  1.00  0.00     0.014 A 
ATOM     11  C   UNL A   1      38.200  29.739  27.443  1.00  0.00     0.010 A 
ATOM     12  C   UNL A   1      37.567  29.155  29.708  1.00  0.00     0.010 A 
ATOM     13  C   UNL A   1      38.547  29.232  28.708  1.00  0.00    -0.014 A 
BRANCH  13  14
ATOM     14  C   UNL A   1      39.966  28.897  28.985  1.00  0.00     0.031 A 
ATOM     15  C   UNL A   1      40.552  27.568  28.597  1.00  0.00     0.074 A 
ATOM     16  C   UNL A   1      40.730  29.828  29.591  1.00  0.00     0.049 A 
ATOM     17  N   UNL A   1      41.771  27.128  28.773  1.00  0.00    -0.248 NA
ATOM     18  C   UNL A   1      39.660  26.606  27.932  1.00  0.00     0.031 C 
ATOM     19  C   UNL A   1      40.256  31.145  30.034  1.00  0.00     0.029 A 
ATOM     20  N   UNL A   1      42.057  29.826  29.931  1.00  0.00    -0.354 N 
ATOM     21  C   UNL A   1      41.792  25.836  28.263  1.00  0.00     0.074 A 
ATOM     22  C   UNL A   1      40.457  25.554  27.781  1.00  0.00     0.031 C 
ATOM     23  C   UNL A   1      41.284  31.833  30.550  1.00  0.00     0.029 A 
ATOM     24  C   UNL A   1      42.471  30.989  30.535  1.00  0.00     0.049 A 
ATOM     25  H   UNL A   1      42.656  29.064  29.759  1.00  0.00     0.167 HD
ATOM     26  C   UNL A   1      42.833  24.970  28.203  1.00  0.00     0.037 A 
ATOM     27  C   UNL A   1      43.668  31.333  31.045  1.00  0.00     0.037 A 
ATOM     28  C   UNL A   1      44.165  25.273  28.668  1.00  0.00     0.049 A 
ATOM     29  C   UNL A   1      44.798  30.350  30.969  1.00  0.00     0.074 A 
ATOM     30  C   UNL A   1      45.298  24.480  28.603  1.00  0.00     0.029 A 
ATOM     31  N   UNL A   1      44.542  26.456  29.285  1.00  0.00    -0.354 N 
ATOM     32  N   UNL A   1      44.807  29.147  30.445  1.00  0.00    -0.248 NA
ATOM     33  C   UNL A   1      46.078  30.763  31.557  1.00  0.00     0.031 C 
ATOM     34  C   UNL A   1      46.350  25.166  29.218  1.00  0.00     0.029 A 
ATOM     35  C   UNL A   1      45.884  26.405  29.628  1.00  0.00     0.049 A 
ATOM     36  H   UNL A   1      43.945  27.219  29.456  1.00  0.00     0.167 HD
ATOM     37  C   UNL A   1      46.095  28.664  30.630  1.00  0.00     0.074 A 
ATOM     38  C   UNL A   1      46.844  29.713  31.294  1.00  0.00     0.031 C 
ATOM     39  C   UNL A   1      46.612  27.458  30.289  1.00  0.00     0.037 A 
BRANCH  26  40
ATOM     40  C   UNL A   1      42.590  23.604  27.624  1.00  0.00     0.058 A 
ATOM     41  C   UNL A   1      42.714  23.353  26.249  1.00  0.00     0.135 A 
ATOM     42  C   UNL A   1      42.324  22.512  28.467  1.00  0.00     0.135 A 
ATOM     43  F   UNL A   1      42.954  24.362  25.396  1.00  0.00    -0.206 F 
ATOM     44  C   UNL A   1      42.578  22.069  25.729  1.00  0.00     0.059 A 
ATOM     45  C   UNL A   1      42.204  21.216  27.972  1.00  0.00     0.059 A 
ATOM     46  F   UNL A   1      42.195  22.697  29.790  1.00  0.00    -0.206 F 
ATOM     47  C   UNL A   1      42.329  21.005  26.599  1.00  0.00     0.060 A 
BRANCH  47  48
ATOM     48  S   UNL A   1      42.195  19.340  25.913  1.00  0.00     0.124 S 
ATOM     49  O   UNL A   1      40.757  19.233  25.688  1.00  0.00    -0.237 OA
ATOM     50  O   UNL A   1      43.017  19.432  24.711  1.00  0.00    -0.237 OA
ATOM     51  O   UNL A   1      42.731  18.491  26.972  1.00  0.00    -0.744 OA
ENDBRANCH  47  48
ENDBRANCH  26  40
BRANCH  27  52
ATOM     52  C   UNL A   1      43.843  32.658  31.694  1.00  0.00     0.058 A 
ATOM     53  C   UNL A   1      43.575  32.838  33.059  1.00  0.00     0.135 A 
ATOM     54  C   UNL A   1      44.294  33.768  30.962  1.00  0.00     0.135 A 
ATOM     55  F   UNL A   1      43.142  31.807  33.799  1.00  0.00    -0.206 F 
ATOM     56  C   UNL A   1      43.724  34.079  33.671  1.00  0.00     0.059 A 
ATOM     57  C   UNL A   1      44.478  35.010  31.557  1.00  0.00     0.059 A 
ATOM     58  F   UNL A   1      44.584  33.640  29.658  1.00  0.00    -0.206 F 
ATOM     59  C   UNL A   1      44.174  35.160  32.909  1.00  0.00     0.060 A 
BRANCH  59  60
ATOM     60  S   UNL A   1      44.391  36.761  33.715  1.00  0.00     0.124 S 
ATOM     61  O   UNL A   1      45.645  37.215  33.125  1.00  0.00    -0.237 OA
ATOM     62  O   UNL A   1      43.191  37.482  33.301  1.00  0.00    -0.237 OA
ATOM     63  O   UNL A   1      44.447  36.416  35.132  1.00  0.00    -0.744 OA
ENDBRANCH  59  60
ENDBRANCH  27  52
BRANCH  39  64
ATOM     64  C   UNL A   1      48.059  27.222  30.611  1.00  0.00     0.058 A 
ATOM     65  C   UNL A   1      49.072  27.508  29.683  1.00  0.00     0.135 A 
ATOM     66  C   UNL A   1      48.436  26.730  31.870  1.00  0.00     0.135 A 
ATOM     67  F   UNL A   1      48.761  27.970  28.463  1.00  0.00    -0.206 F 
ATOM     68  C   UNL A   1      50.412  27.290  29.985  1.00  0.00     0.059 A 
ATOM     69  C   UNL A   1      49.772  26.529  32.202  1.00  0.00     0.059 A 
ATOM     70  F   UNL A   1      47.504  26.449  32.794  1.00  0.00    -0.206 F 
ATOM     71  C   UNL A   1      50.752  26.800  31.247  1.00  0.00     0.060 A 
BRANCH  71  72
ATOM     72  S   UNL A   1      52.496  26.544  31.637  1.00  0.00     0.124 S 
ATOM     73  O   UNL A   1      52.560  25.091  31.755  1.00  0.00    -0.237 OA
ATOM     74  O   UNL A   1      53.166  27.115  30.473  1.00  0.00    -0.237 OA
ATOM     75  O   UNL A   1      52.677  27.284  32.882  1.00  0.00    -0.744 OA
ENDBRANCH  71  72
ENDBRANCH  39  64
ENDBRANCH  13  14
ENDBRANCH   6   8
ENDBRANCH   3   4
ENDBRANCH   2   3
ENDBRANCH   1   2
BRANCH   1  76
ATOM     76  C   UNL A   1      30.774  26.609  25.286  1.00  0.00     0.002 C 
BRANCH  76  77
ATOM     77  C   UNL A   1      31.237  26.400  23.838  1.00  0.00     0.021 C 
BRANCH  77  78
ATOM     78  C   UNL A   1      31.411  24.945  23.402  1.00  0.00     0.116 C 
BRANCH  78  79
ATOM     79  N   UNL A   1      30.767  24.007  24.297  1.00  0.00    -0.354 N 
ATOM     80  C   UNL A   1      31.296  23.128  25.195  1.00  0.00     0.242 C 
ATOM     81  H   UNL A   1      29.784  24.005  24.251  1.00  0.00     0.163 HD
ATOM     82  O   UNL A   1      30.493  22.506  25.898  1.00  0.00    -0.273 OA
BRANCH  80  83
ATOM     83  C   UNL A   1      32.812  23.086  25.462  1.00  0.00     0.176 C 
ATOM     84  C   UNL A   1      33.352  24.178  26.390  1.00  0.00     0.036 C 
ATOM     85  N   UNL A   1      33.599  21.856  25.682  1.00  0.00    -0.310 N 
ATOM     86  C   UNL A   1      34.811  24.460  26.006  1.00  0.00     0.008 C 
ATOM     87  C   UNL A   1      35.009  21.999  25.216  1.00  0.00     0.091 C 
ATOM     88  C   UNL A   1      35.670  23.174  25.978  1.00  0.00     0.012 C 
ATOM     89  C   UNL A   1      35.148  22.031  23.682  1.00  0.00     0.025 C 
ATOM     90  C   UNL A   1      37.075  23.421  25.432  1.00  0.00     0.006 C 
ATOM     91  C   UNL A   1      36.274  22.866  23.065  1.00  0.00     0.002 C 
ATOM     92  C   UNL A   1      37.062  23.811  23.965  1.00  0.00     0.000 C 
BRANCH  85  93
ATOM     93  C   UNL A   1      33.393  20.873  26.621  1.00  0.00     0.318 C 
ATOM     94  O   UNL A   1      33.526  21.095  27.830  1.00  0.00    -0.249 OA
ATOM     95  N   UNL A   1      33.036  19.602  26.338  1.00  0.00    -0.335 N 
ATOM     96  H   UNL A   1      32.912  19.068  27.156  1.00  0.00     0.165 HD
BRANCH  95  97
ATOM     97  C   UNL A   1      32.795  18.841  25.170  1.00  0.00     0.084 C 
ATOM     98  C   UNL A   1      33.785  17.774  24.765  1.00  0.00     0.027 C 
ATOM     99  C   UNL A   1      32.415  17.390  25.223  1.00  0.00     0.027 C 
ENDBRANCH  95  97
ENDBRANCH  85  93
ENDBRANCH  80  83
ENDBRANCH  78  79
ENDBRANCH  77  78
ENDBRANCH  76  77
ENDBRANCH   1  76
TORSDOF 18
ENDMDL
