MODEL 1
REMARK VINA RESULT:     -11.0      0.000      0.000
REMARK SMILES O=C(NCCCCCCNC(=O)C1N=c2ccccc2=N1)c1ccc(-c2c3nc(c(-c4c(F)cc(S(=O)(=O)[O-])cc4F)c4ccc([nH]4)c(-c4c(F)cc(S(=O)(=O)[O-])cc4F)c4nc(c(-c5c(F)cc(S(=O)(=O)[O-])cc5F)c5ccc2[nH]5)C=C4)C=C3)cc1
REMARK SMILES IDX 5 1 4 2 3 3 1 4 2 5 22 7 23 8 87 9 24 10 86 11 25 12 26 13
REMARK SMILES IDX 27 14 80 15 28 16 85 17 79 18 81 19 29 20 84 21 78 22 77 23
REMARK SMILES IDX 30 25 64 26 43 27 63 28 44 29 47 30 62 31 82 32 45 33 46 34
REMARK SMILES IDX 61 36 83 37 48 38 31 39 32 40 41 41 33 42 34 43 40 44 42 45
REMARK SMILES IDX 35 46 36 47 37 48 38 49 39 50 65 51 66 52 75 53 67 54 68 55
REMARK SMILES IDX 74 56 76 57 69 58 70 59 71 60 72 61 73 62 49 63 50 64 59 65
REMARK SMILES IDX 51 66 52 67 58 68 60 69 53 70 54 71 55 72 56 73 57 74 6 75
REMARK SMILES IDX 7 76 8 77 9 78 10 79 11 80 12 82 13 83 14 84 21 85 15 86
REMARK SMILES IDX 20 87 16 88 19 89 17 90 18 91
REMARK H PARENT 3 6 81 24 47 35 10 81
REMARK Flexibility Score: inf
ROOT
ATOM      1  C   UNL A   1      33.713  28.370  25.759  1.00  0.00     0.021 C 
ENDROOT
BRANCH   1   2
ATOM      2  C   UNL A   1      33.356  28.548  27.231  1.00  0.00     0.116 C 
BRANCH   2   3
ATOM      3  N   UNL A   1      33.320  29.941  27.633  1.00  0.00    -0.352 N 
ATOM      4  O   UNL A   1      34.009  31.833  28.630  1.00  0.00    -0.269 OA
ATOM      5  C   UNL A   1      34.295  30.707  28.217  1.00  0.00     0.251 C 
ATOM      6  H   UNL A   1      32.470  30.406  27.460  1.00  0.00     0.163 HD
BRANCH   5   7
ATOM      7  C   UNL A   1      35.680  30.201  28.366  1.00  0.00     0.039 A 
ATOM      8  C   UNL A   1      36.092  29.736  29.619  1.00  0.00     0.014 A 
ATOM      9  C   UNL A   1      36.594  30.249  27.308  1.00  0.00     0.014 A 
ATOM     10  C   UNL A   1      37.410  29.310  29.809  1.00  0.00     0.010 A 
ATOM     11  C   UNL A   1      37.888  29.760  27.480  1.00  0.00     0.010 A 
ATOM     12  C   UNL A   1      38.319  29.318  28.740  1.00  0.00    -0.014 A 
BRANCH  12  13
ATOM     13  C   UNL A   1      39.751  28.980  28.942  1.00  0.00     0.031 A 
ATOM     14  C   UNL A   1      40.677  30.019  29.518  1.00  0.00     0.074 A 
ATOM     15  C   UNL A   1      40.227  27.770  28.593  1.00  0.00     0.049 A 
ATOM     16  N   UNL A   1      41.974  29.977  29.680  1.00  0.00    -0.248 NA
ATOM     17  C   UNL A   1      40.061  31.285  29.946  1.00  0.00     0.031 C 
ATOM     18  C   UNL A   1      39.435  26.679  28.027  1.00  0.00     0.029 A 
ATOM     19  N   UNL A   1      41.499  27.259  28.665  1.00  0.00    -0.354 N 
ATOM     20  C   UNL A   1      42.330  31.212  30.208  1.00  0.00     0.074 A 
ATOM     21  C   UNL A   1      41.120  32.002  30.289  1.00  0.00     0.031 C 
ATOM     22  C   UNL A   1      40.233  25.616  27.827  1.00  0.00     0.029 A 
ATOM     23  C   UNL A   1      41.599  25.964  28.215  1.00  0.00     0.049 A 
ATOM     24  H   UNL A   1      42.267  27.770  29.008  1.00  0.00     0.167 HD
ATOM     25  C   UNL A   1      43.547  31.645  30.613  1.00  0.00     0.037 A 
ATOM     26  C   UNL A   1      42.671  25.154  28.119  1.00  0.00     0.037 A 
ATOM     27  C   UNL A   1      44.742  30.845  30.567  1.00  0.00     0.049 A 
ATOM     28  C   UNL A   1      44.020  25.662  28.551  1.00  0.00     0.074 A 
ATOM     29  C   UNL A   1      46.019  31.178  30.985  1.00  0.00     0.029 A 
ATOM     30  N   UNL A   1      44.806  29.548  30.081  1.00  0.00    -0.354 N 
ATOM     31  N   UNL A   1      44.340  26.833  29.046  1.00  0.00    -0.248 NA
ATOM     32  C   UNL A   1      45.154  24.738  28.405  1.00  0.00     0.031 C 
ATOM     33  C   UNL A   1      46.861  30.091  30.724  1.00  0.00     0.029 A 
ATOM     34  C   UNL A   1      46.102  29.068  30.177  1.00  0.00     0.049 A 
ATOM     35  H   UNL A   1      44.041  29.041  29.723  1.00  0.00     0.167 HD
ATOM     36  C   UNL A   1      45.710  26.787  29.279  1.00  0.00     0.074 A 
ATOM     37  C   UNL A   1      46.154  25.464  28.888  1.00  0.00     0.031 C 
ATOM     38  C   UNL A   1      46.528  27.753  29.768  1.00  0.00     0.037 A 
BRANCH  25  39
ATOM     39  C   UNL A   1      43.636  33.048  31.147  1.00  0.00     0.058 A 
ATOM     40  C   UNL A   1      43.878  34.142  30.301  1.00  0.00     0.135 A 
ATOM     41  C   UNL A   1      43.479  33.304  32.519  1.00  0.00     0.135 A 
ATOM     42  F   UNL A   1      44.055  33.950  28.984  1.00  0.00    -0.206 F 
ATOM     43  C   UNL A   1      44.002  35.434  30.800  1.00  0.00     0.059 A 
ATOM     44  C   UNL A   1      43.571  34.593  33.036  1.00  0.00     0.059 A 
ATOM     45  F   UNL A   1      43.246  32.295  33.373  1.00  0.00    -0.206 F 
ATOM     46  C   UNL A   1      43.852  35.649  32.170  1.00  0.00     0.060 A 
BRANCH  46  47
ATOM     47  S   UNL A   1      44.036  37.329  32.804  1.00  0.00     0.124 S 
ATOM     48  O   UNL A   1      42.977  37.378  33.808  1.00  0.00    -0.237 OA
ATOM     49  O   UNL A   1      45.400  37.320  33.323  1.00  0.00    -0.237 OA
ATOM     50  O   UNL A   1      43.822  38.162  31.626  1.00  0.00    -0.744 OA
ENDBRANCH  46  47
ENDBRANCH  25  39
BRANCH  26  51
ATOM     51  C   UNL A   1      42.502  23.766  27.615  1.00  0.00     0.058 A 
ATOM     52  C   UNL A   1      42.489  23.502  26.238  1.00  0.00     0.135 A 
ATOM     53  C   UNL A   1      42.394  22.676  28.492  1.00  0.00     0.135 A 
ATOM     54  F   UNL A   1      42.577  24.515  25.361  1.00  0.00    -0.206 F 
ATOM     55  C   UNL A   1      42.378  22.206  25.745  1.00  0.00     0.059 A 
ATOM     56  C   UNL A   1      42.303  21.368  28.024  1.00  0.00     0.059 A 
ATOM     57  F   UNL A   1      42.412  22.875  29.819  1.00  0.00    -0.206 F 
ATOM     58  C   UNL A   1      42.295  21.144  26.647  1.00  0.00     0.060 A 
BRANCH  58  59
ATOM     59  S   UNL A   1      42.238  19.461  25.995  1.00  0.00     0.124 S 
ATOM     60  O   UNL A   1      43.139  19.555  24.853  1.00  0.00    -0.237 OA
ATOM     61  O   UNL A   1      42.721  18.678  27.129  1.00  0.00    -0.237 OA
ATOM     62  O   UNL A   1      40.826  19.275  25.672  1.00  0.00    -0.744 OA
ENDBRANCH  58  59
ENDBRANCH  26  51
BRANCH  38  63
ATOM     63  C   UNL A   1      47.986  27.416  29.903  1.00  0.00     0.058 A 
ATOM     64  C   UNL A   1      48.918  27.807  28.928  1.00  0.00     0.135 A 
ATOM     65  C   UNL A   1      48.464  26.743  31.038  1.00  0.00     0.135 A 
ATOM     66  F   UNL A   1      48.510  28.448  27.822  1.00  0.00    -0.206 F 
ATOM     67  C   UNL A   1      50.272  27.522  29.065  1.00  0.00     0.059 A 
ATOM     68  C   UNL A   1      49.818  26.468  31.206  1.00  0.00     0.059 A 
ATOM     69  F   UNL A   1      47.615  26.358  32.004  1.00  0.00    -0.206 F 
ATOM     70  C   UNL A   1      50.713  26.852  30.208  1.00  0.00     0.060 A 
BRANCH  70  71
ATOM     71  S   UNL A   1      52.478  26.513  30.385  1.00  0.00     0.124 S 
ATOM     72  O   UNL A   1      52.834  26.107  29.029  1.00  0.00    -0.237 OA
ATOM     73  O   UNL A   1      53.002  27.804  30.818  1.00  0.00    -0.237 OA
ATOM     74  O   UNL A   1      52.521  25.455  31.390  1.00  0.00    -0.744 OA
ENDBRANCH  70  71
ENDBRANCH  38  63
ENDBRANCH  12  13
ENDBRANCH   5   7
ENDBRANCH   2   3
ENDBRANCH   1   2
BRANCH   1  75
ATOM     75  C   UNL A   1      32.941  29.255  24.777  1.00  0.00     0.002 C 
BRANCH  75  76
ATOM     76  C   UNL A   1      31.472  28.888  24.555  1.00  0.00     0.002 C 
BRANCH  76  77
ATOM     77  C   UNL A   1      30.973  28.946  23.109  1.00  0.00     0.021 C 
BRANCH  77  78
ATOM     78  C   UNL A   1      30.608  27.608  22.470  1.00  0.00     0.116 C 
BRANCH  78  79
ATOM     79  N   UNL A   1      31.663  27.079  21.630  1.00  0.00    -0.353 N 
ATOM     80  C   UNL A   1      32.549  26.070  21.917  1.00  0.00     0.267 C 
ATOM     81  H   UNL A   1      31.756  27.493  20.742  1.00  0.00     0.163 HD
ATOM     82  O   UNL A   1      33.293  25.702  21.003  1.00  0.00    -0.270 OA
BRANCH  80  83
ATOM     83  C   UNL A   1      32.618  25.491  23.363  1.00  0.00     0.310 C 
ATOM     84  N   UNL A   1      31.985  24.137  23.398  1.00  0.00    -0.246 NA
ATOM     85  N   UNL A   1      34.047  25.394  23.798  1.00  0.00    -0.246 NA
ATOM     86  C   UNL A   1      32.958  23.374  23.743  1.00  0.00     0.086 A 
ATOM     87  C   UNL A   1      34.208  24.128  23.964  1.00  0.00     0.086 A 
ATOM     88  C   UNL A   1      32.940  21.923  23.942  1.00  0.00     0.030 A 
ATOM     89  C   UNL A   1      35.424  23.401  24.340  1.00  0.00     0.030 A 
ATOM     90  C   UNL A   1      34.092  21.337  24.295  1.00  0.00     0.002 A 
ATOM     91  C   UNL A   1      35.329  22.070  24.481  1.00  0.00     0.002 A 
ENDBRANCH  80  83
ENDBRANCH  78  79
ENDBRANCH  77  78
ENDBRANCH  76  77
ENDBRANCH  75  76
ENDBRANCH   1  75
TORSDOF 16
ENDMDL
MODEL 2
REMARK VINA RESULT:     -10.9      1.164      3.295
REMARK SMILES O=C(NCCCCCCNC(=O)C1N=c2ccccc2=N1)c1ccc(-c2c3nc(c(-c4c(F)cc(S(=O)(=O)[O-])cc4F)c4ccc([nH]4)c(-c4c(F)cc(S(=O)(=O)[O-])cc4F)c4nc(c(-c5c(F)cc(S(=O)(=O)[O-])cc5F)c5ccc2[nH]5)C=C4)C=C3)cc1
REMARK SMILES IDX 5 1 4 2 3 3 1 4 2 5 22 7 23 8 87 9 24 10 86 11 25 12 26 13
REMARK SMILES IDX 27 14 80 15 28 16 85 17 79 18 81 19 29 20 84 21 78 22 77 23
REMARK SMILES IDX 30 25 64 26 43 27 63 28 44 29 47 30 62 31 82 32 45 33 46 34
REMARK SMILES IDX 61 36 83 37 48 38 31 39 32 40 41 41 33 42 34 43 40 44 42 45
REMARK SMILES IDX 35 46 36 47 37 48 38 49 39 50 65 51 66 52 75 53 67 54 68 55
REMARK SMILES IDX 74 56 76 57 69 58 70 59 71 60 72 61 73 62 49 63 50 64 59 65
REMARK SMILES IDX 51 66 52 67 58 68 60 69 53 70 54 71 55 72 56 73 57 74 6 75
REMARK SMILES IDX 7 76 8 77 9 78 10 79 11 80 12 82 13 83 14 84 21 85 15 86
REMARK SMILES IDX 20 87 16 88 19 89 17 90 18 91
REMARK H PARENT 3 6 81 24 47 35 10 81
REMARK Flexibility Score: inf
ROOT
ATOM      1  C   UNL A   1      32.561  27.809  27.261  1.00  0.00     0.021 C 
ENDROOT
BRANCH   1   2
ATOM      2  C   UNL A   1      33.704  28.740  26.871  1.00  0.00     0.116 C 
BRANCH   2   3
ATOM      3  N   UNL A   1      33.608  30.040  27.510  1.00  0.00    -0.352 N 
ATOM      4  O   UNL A   1      34.185  31.734  28.868  1.00  0.00    -0.269 OA
ATOM      5  C   UNL A   1      34.525  30.705  28.280  1.00  0.00     0.251 C 
ATOM      6  H   UNL A   1      32.757  30.514  27.368  1.00  0.00     0.163 HD
BRANCH   5   7
ATOM      7  C   UNL A   1      35.912  30.202  28.424  1.00  0.00     0.039 A 
ATOM      8  C   UNL A   1      36.317  29.698  29.664  1.00  0.00     0.014 A 
ATOM      9  C   UNL A   1      36.834  30.291  27.376  1.00  0.00     0.014 A 
ATOM     10  C   UNL A   1      37.635  29.273  29.851  1.00  0.00     0.010 A 
ATOM     11  C   UNL A   1      38.130  29.805  27.543  1.00  0.00     0.010 A 
ATOM     12  C   UNL A   1      38.553  29.323  28.791  1.00  0.00    -0.014 A 
BRANCH  12  13
ATOM     13  C   UNL A   1      39.985  28.987  28.994  1.00  0.00     0.031 A 
ATOM     14  C   UNL A   1      40.909  30.025  29.577  1.00  0.00     0.074 A 
ATOM     15  C   UNL A   1      40.465  27.780  28.640  1.00  0.00     0.049 A 
ATOM     16  N   UNL A   1      42.205  29.984  29.742  1.00  0.00    -0.248 NA
ATOM     17  C   UNL A   1      40.288  31.287  30.011  1.00  0.00     0.031 C 
ATOM     18  C   UNL A   1      39.676  26.690  28.067  1.00  0.00     0.029 A 
ATOM     19  N   UNL A   1      41.737  27.271  28.712  1.00  0.00    -0.354 N 
ATOM     20  C   UNL A   1      42.557  31.218  30.277  1.00  0.00     0.074 A 
ATOM     21  C   UNL A   1      41.345  32.005  30.360  1.00  0.00     0.031 C 
ATOM     22  C   UNL A   1      40.477  25.630  27.863  1.00  0.00     0.029 A 
ATOM     23  C   UNL A   1      41.841  25.979  28.255  1.00  0.00     0.049 A 
ATOM     24  H   UNL A   1      42.504  27.782  29.059  1.00  0.00     0.167 HD
ATOM     25  C   UNL A   1      43.773  31.651  30.687  1.00  0.00     0.037 A 
ATOM     26  C   UNL A   1      42.916  25.171  28.157  1.00  0.00     0.037 A 
ATOM     27  C   UNL A   1      44.970  30.854  30.638  1.00  0.00     0.049 A 
ATOM     28  C   UNL A   1      44.262  25.680  28.594  1.00  0.00     0.074 A 
ATOM     29  C   UNL A   1      46.245  31.188  31.060  1.00  0.00     0.029 A 
ATOM     30  N   UNL A   1      45.037  29.559  30.146  1.00  0.00    -0.354 N 
ATOM     31  N   UNL A   1      44.579  26.850  29.096  1.00  0.00    -0.248 NA
ATOM     32  C   UNL A   1      45.399  24.759  28.446  1.00  0.00     0.031 C 
ATOM     33  C   UNL A   1      47.089  30.104  30.796  1.00  0.00     0.029 A 
ATOM     34  C   UNL A   1      46.334  29.083  30.241  1.00  0.00     0.049 A 
ATOM     35  H   UNL A   1      44.274  29.053  29.783  1.00  0.00     0.167 HD
ATOM     36  C   UNL A   1      45.949  26.805  29.331  1.00  0.00     0.074 A 
ATOM     37  C   UNL A   1      46.396  25.485  28.934  1.00  0.00     0.031 C 
ATOM     38  C   UNL A   1      46.763  27.770  29.827  1.00  0.00     0.037 A 
BRANCH  25  39
ATOM     39  C   UNL A   1      43.857  33.052  31.228  1.00  0.00     0.058 A 
ATOM     40  C   UNL A   1      43.674  33.324  32.593  1.00  0.00     0.135 A 
ATOM     41  C   UNL A   1      44.121  34.135  30.375  1.00  0.00     0.135 A 
ATOM     42  F   UNL A   1      43.401  32.326  33.449  1.00  0.00    -0.206 F 
ATOM     43  C   UNL A   1      43.710  34.623  33.087  1.00  0.00     0.059 A 
ATOM     44  C   UNL A   1      44.189  35.441  30.852  1.00  0.00     0.059 A 
ATOM     45  F   UNL A   1      44.303  33.932  29.060  1.00  0.00    -0.206 F 
ATOM     46  C   UNL A   1      43.962  35.676  32.208  1.00  0.00     0.060 A 
BRANCH  46  47
ATOM     47  S   UNL A   1      43.986  37.359  32.861  1.00  0.00     0.124 S 
ATOM     48  O   UNL A   1      45.328  37.431  33.430  1.00  0.00    -0.237 OA
ATOM     49  O   UNL A   1      43.761  38.162  31.663  1.00  0.00    -0.237 OA
ATOM     50  O   UNL A   1      42.893  37.363  33.828  1.00  0.00    -0.744 OA
ENDBRANCH  46  47
ENDBRANCH  25  39
BRANCH  26  51
ATOM     51  C   UNL A   1      42.751  23.785  27.646  1.00  0.00     0.058 A 
ATOM     52  C   UNL A   1      42.531  22.719  28.530  1.00  0.00     0.135 A 
ATOM     53  C   UNL A   1      42.767  23.504  26.271  1.00  0.00     0.135 A 
ATOM     54  F   UNL A   1      42.520  22.938  29.854  1.00  0.00    -0.206 F 
ATOM     55  C   UNL A   1      42.328  21.422  28.070  1.00  0.00     0.059 A 
ATOM     56  C   UNL A   1      42.546  22.219  25.786  1.00  0.00     0.059 A 
ATOM     57  F   UNL A   1      42.964  24.493  25.385  1.00  0.00    -0.206 F 
ATOM     58  C   UNL A   1      42.328  21.184  26.695  1.00  0.00     0.060 A 
BRANCH  58  59
ATOM     59  S   UNL A   1      41.978  19.511  26.110  1.00  0.00     0.124 S 
ATOM     60  O   UNL A   1      42.341  18.709  27.272  1.00  0.00    -0.237 OA
ATOM     61  O   UNL A   1      40.553  19.586  25.804  1.00  0.00    -0.237 OA
ATOM     62  O   UNL A   1      42.854  19.373  24.949  1.00  0.00    -0.744 OA
ENDBRANCH  58  59
ENDBRANCH  26  51
BRANCH  38  63
ATOM     63  C   UNL A   1      48.222  27.436  29.963  1.00  0.00     0.058 A 
ATOM     64  C   UNL A   1      49.140  27.751  28.949  1.00  0.00     0.135 A 
ATOM     65  C   UNL A   1      48.715  26.842  31.136  1.00  0.00     0.135 A 
ATOM     66  F   UNL A   1      48.718  28.314  27.806  1.00  0.00    -0.206 F 
ATOM     67  C   UNL A   1      50.495  27.469  29.084  1.00  0.00     0.059 A 
ATOM     68  C   UNL A   1      50.070  26.573  31.302  1.00  0.00     0.059 A 
ATOM     69  F   UNL A   1      47.880  26.532  32.139  1.00  0.00    -0.206 F 
ATOM     70  C   UNL A   1      50.951  26.880  30.265  1.00  0.00     0.060 A 
BRANCH  70  71
ATOM     71  S   UNL A   1      52.717  26.545  30.438  1.00  0.00     0.124 S 
ATOM     72  O   UNL A   1      53.075  26.155  29.077  1.00  0.00    -0.237 OA
ATOM     73  O   UNL A   1      53.237  27.832  30.887  1.00  0.00    -0.237 OA
ATOM     74  O   UNL A   1      52.764  25.475  31.431  1.00  0.00    -0.744 OA
ENDBRANCH  70  71
ENDBRANCH  38  63
ENDBRANCH  12  13
ENDBRANCH   5   7
ENDBRANCH   2   3
ENDBRANCH   1   2
BRANCH   1  75
ATOM     75  C   UNL A   1      32.342  26.605  26.341  1.00  0.00     0.002 C 
BRANCH  75  76
ATOM     76  C   UNL A   1      33.557  26.151  25.529  1.00  0.00     0.002 C 
BRANCH  76  77
ATOM     77  C   UNL A   1      33.276  25.173  24.385  1.00  0.00     0.021 C 
BRANCH  77  78
ATOM     78  C   UNL A   1      32.568  25.754  23.164  1.00  0.00     0.116 C 
BRANCH  78  79
ATOM     79  N   UNL A   1      33.051  27.072  22.806  1.00  0.00    -0.353 N 
ATOM     80  C   UNL A   1      32.400  28.274  22.926  1.00  0.00     0.267 C 
ATOM     81  H   UNL A   1      33.960  27.111  22.431  1.00  0.00     0.163 HD
ATOM     82  O   UNL A   1      33.050  29.291  22.665  1.00  0.00    -0.270 OA
BRANCH  80  83
ATOM     83  C   UNL A   1      30.891  28.300  23.315  1.00  0.00     0.310 C 
ATOM     84  N   UNL A   1      30.629  29.428  24.261  1.00  0.00    -0.246 NA
ATOM     85  N   UNL A   1      30.056  28.467  22.084  1.00  0.00    -0.246 NA
ATOM     86  C   UNL A   1      29.806  30.165  23.608  1.00  0.00     0.086 A 
ATOM     87  C   UNL A   1      29.475  29.597  22.286  1.00  0.00     0.086 A 
ATOM     88  C   UNL A   1      29.190  31.424  24.033  1.00  0.00     0.030 A 
ATOM     89  C   UNL A   1      28.564  30.330  21.402  1.00  0.00     0.030 A 
ATOM     90  C   UNL A   1      28.362  32.026  23.168  1.00  0.00     0.002 A 
ATOM     91  C   UNL A   1      28.060  31.488  21.856  1.00  0.00     0.002 A 
ENDBRANCH  80  83
ENDBRANCH  78  79
ENDBRANCH  77  78
ENDBRANCH  76  77
ENDBRANCH  75  76
ENDBRANCH   1  75
TORSDOF 16
ENDMDL
MODEL 3
REMARK VINA RESULT:     -10.8      2.650      3.544
REMARK SMILES O=C(NCCCCCCNC(=O)C1N=c2ccccc2=N1)c1ccc(-c2c3nc(c(-c4c(F)cc(S(=O)(=O)[O-])cc4F)c4ccc([nH]4)c(-c4c(F)cc(S(=O)(=O)[O-])cc4F)c4nc(c(-c5c(F)cc(S(=O)(=O)[O-])cc5F)c5ccc2[nH]5)C=C4)C=C3)cc1
REMARK SMILES IDX 5 1 4 2 3 3 1 4 2 5 22 7 23 8 87 9 24 10 86 11 25 12 26 13
REMARK SMILES IDX 27 14 80 15 28 16 85 17 79 18 81 19 29 20 84 21 78 22 77 23
REMARK SMILES IDX 30 25 64 26 43 27 63 28 44 29 47 30 62 31 82 32 45 33 46 34
REMARK SMILES IDX 61 36 83 37 48 38 31 39 32 40 41 41 33 42 34 43 40 44 42 45
REMARK SMILES IDX 35 46 36 47 37 48 38 49 39 50 65 51 66 52 75 53 67 54 68 55
REMARK SMILES IDX 74 56 76 57 69 58 70 59 71 60 72 61 73 62 49 63 50 64 59 65
REMARK SMILES IDX 51 66 52 67 58 68 60 69 53 70 54 71 55 72 56 73 57 74 6 75
REMARK SMILES IDX 7 76 8 77 9 78 10 79 11 80 12 82 13 83 14 84 21 85 15 86
REMARK SMILES IDX 20 87 16 88 19 89 17 90 18 91
REMARK H PARENT 3 6 81 24 47 35 10 81
REMARK Flexibility Score: inf
ROOT
ATOM      1  C   UNL A   1      33.582  29.525  26.956  1.00  0.00     0.021 C 
ENDROOT
BRANCH   1   2
ATOM      2  C   UNL A   1      34.941  29.432  27.644  1.00  0.00     0.116 C 
BRANCH   2   3
ATOM      3  N   UNL A   1      35.094  30.403  28.711  1.00  0.00    -0.352 N 
ATOM      4  O   UNL A   1      36.065  31.437  30.453  1.00  0.00    -0.269 OA
ATOM      5  C   UNL A   1      36.189  30.685  29.485  1.00  0.00     0.251 C 
ATOM      6  H   UNL A   1      34.292  30.938  28.908  1.00  0.00     0.163 HD
BRANCH   5   7
ATOM      7  C   UNL A   1      37.514  30.095  29.180  1.00  0.00     0.039 A 
ATOM      8  C   UNL A   1      38.338  29.713  30.243  1.00  0.00     0.014 A 
ATOM      9  C   UNL A   1      37.980  29.983  27.866  1.00  0.00     0.014 A 
ATOM     10  C   UNL A   1      39.618  29.210  29.992  1.00  0.00     0.010 A 
ATOM     11  C   UNL A   1      39.230  29.420  27.613  1.00  0.00     0.010 A 
ATOM     12  C   UNL A   1      40.074  29.059  28.674  1.00  0.00    -0.014 A 
BRANCH  12  13
ATOM     13  C   UNL A   1      41.468  28.637  28.383  1.00  0.00     0.031 A 
ATOM     14  C   UNL A   1      42.574  29.659  28.445  1.00  0.00     0.074 A 
ATOM     15  C   UNL A   1      41.744  27.364  28.042  1.00  0.00     0.049 A 
ATOM     16  N   UNL A   1      43.837  29.536  28.130  1.00  0.00    -0.248 NA
ATOM     17  C   UNL A   1      42.199  31.007  28.903  1.00  0.00     0.031 C 
ATOM     18  C   UNL A   1      40.765  26.282  27.947  1.00  0.00     0.029 A 
ATOM     19  N   UNL A   1      42.936  26.769  27.713  1.00  0.00    -0.354 N 
ATOM     20  C   UNL A   1      44.400  30.791  28.330  1.00  0.00     0.074 A 
ATOM     21  C   UNL A   1      43.331  31.674  28.744  1.00  0.00     0.031 C 
ATOM     22  C   UNL A   1      41.400  25.146  27.609  1.00  0.00     0.029 A 
ATOM     23  C   UNL A   1      42.823  25.430  27.426  1.00  0.00     0.049 A 
ATOM     24  H   UNL A   1      43.792  27.255  27.684  1.00  0.00     0.167 HD
ATOM     25  C   UNL A   1      45.694  31.171  28.207  1.00  0.00     0.037 A 
ATOM     26  C   UNL A   1      43.758  24.535  27.051  1.00  0.00     0.037 A 
ATOM     27  C   UNL A   1      46.762  30.283  27.832  1.00  0.00     0.049 A 
ATOM     28  C   UNL A   1      45.186  24.983  26.895  1.00  0.00     0.074 A 
ATOM     29  C   UNL A   1      48.112  30.562  27.711  1.00  0.00     0.029 A 
ATOM     30  N   UNL A   1      46.602  28.940  27.526  1.00  0.00    -0.354 N 
ATOM     31  N   UNL A   1      45.702  26.173  27.086  1.00  0.00    -0.248 NA
ATOM     32  C   UNL A   1      46.157  23.966  26.467  1.00  0.00     0.031 C 
ATOM     33  C   UNL A   1      48.764  29.392  27.304  1.00  0.00     0.029 A 
ATOM     34  C   UNL A   1      47.825  28.377  27.205  1.00  0.00     0.049 A 
ATOM     35  H   UNL A   1      45.743  28.457  27.537  1.00  0.00     0.167 HD
ATOM     36  C   UNL A   1      47.059  26.049  26.809  1.00  0.00     0.074 A 
ATOM     37  C   UNL A   1      47.286  24.661  26.456  1.00  0.00     0.031 C 
ATOM     38  C   UNL A   1      48.029  26.997  26.840  1.00  0.00     0.037 A 
BRANCH  25  39
ATOM     39  C   UNL A   1      46.017  32.613  28.488  1.00  0.00     0.058 A 
ATOM     40  C   UNL A   1      46.347  33.053  29.780  1.00  0.00     0.135 A 
ATOM     41  C   UNL A   1      45.994  33.567  27.458  1.00  0.00     0.135 A 
ATOM     42  F   UNL A   1      46.364  32.185  30.805  1.00  0.00    -0.206 F 
ATOM     43  C   UNL A   1      46.604  34.393  30.049  1.00  0.00     0.059 A 
ATOM     44  C   UNL A   1      46.275  34.908  27.699  1.00  0.00     0.059 A 
ATOM     45  F   UNL A   1      45.684  33.201  26.204  1.00  0.00    -0.206 F 
ATOM     46  C   UNL A   1      46.560  35.314  29.003  1.00  0.00     0.060 A 
BRANCH  46  47
ATOM     47  S   UNL A   1      46.876  37.053  29.372  1.00  0.00     0.124 S 
ATOM     48  O   UNL A   1      46.648  37.672  28.070  1.00  0.00    -0.237 OA
ATOM     49  O   UNL A   1      45.876  37.342  30.394  1.00  0.00    -0.237 OA
ATOM     50  O   UNL A   1      48.259  37.056  29.834  1.00  0.00    -0.744 OA
ENDBRANCH  46  47
ENDBRANCH  25  39
BRANCH  26  51
ATOM     51  C   UNL A   1      43.372  23.118  26.824  1.00  0.00     0.058 A 
ATOM     52  C   UNL A   1      43.341  22.584  25.528  1.00  0.00     0.135 A 
ATOM     53  C   UNL A   1      43.069  22.261  27.893  1.00  0.00     0.135 A 
ATOM     54  F   UNL A   1      43.612  23.369  24.474  1.00  0.00    -0.206 F 
ATOM     55  C   UNL A   1      43.028  21.248  25.297  1.00  0.00     0.059 A 
ATOM     56  C   UNL A   1      42.772  20.916  27.690  1.00  0.00     0.059 A 
ATOM     57  F   UNL A   1      43.094  22.722  29.153  1.00  0.00    -0.206 F 
ATOM     58  C   UNL A   1      42.754  20.420  26.387  1.00  0.00     0.060 A 
BRANCH  58  59
ATOM     59  S   UNL A   1      42.432  18.669  26.079  1.00  0.00     0.124 S 
ATOM     60  O   UNL A   1      41.018  18.686  25.728  1.00  0.00    -0.237 OA
ATOM     61  O   UNL A   1      43.358  18.376  24.989  1.00  0.00    -0.237 OA
ATOM     62  O   UNL A   1      42.759  18.039  27.356  1.00  0.00    -0.744 OA
ENDBRANCH  58  59
ENDBRANCH  26  51
BRANCH  38  63
ATOM     63  C   UNL A   1      49.423  26.567  26.478  1.00  0.00     0.058 A 
ATOM     64  C   UNL A   1      50.267  25.960  27.421  1.00  0.00     0.135 A 
ATOM     65  C   UNL A   1      49.901  26.718  25.167  1.00  0.00     0.135 A 
ATOM     66  F   UNL A   1      49.858  25.798  28.689  1.00  0.00    -0.206 F 
ATOM     67  C   UNL A   1      51.547  25.535  27.080  1.00  0.00     0.059 A 
ATOM     68  C   UNL A   1      51.169  26.279  24.799  1.00  0.00     0.059 A 
ATOM     69  F   UNL A   1      49.129  27.283  24.226  1.00  0.00    -0.206 F 
ATOM     70  C   UNL A   1      51.989  25.698  25.766  1.00  0.00     0.060 A 
BRANCH  70  71
ATOM     71  S   UNL A   1      53.643  25.117  25.333  1.00  0.00     0.124 S 
ATOM     72  O   UNL A   1      54.456  25.753  26.365  1.00  0.00    -0.237 OA
ATOM     73  O   UNL A   1      53.503  23.669  25.438  1.00  0.00    -0.237 OA
ATOM     74  O   UNL A   1      53.837  25.625  23.978  1.00  0.00    -0.744 OA
ENDBRANCH  70  71
ENDBRANCH  38  63
ENDBRANCH  12  13
ENDBRANCH   5   7
ENDBRANCH   2   3
ENDBRANCH   1   2
BRANCH   1  75
ATOM     75  C   UNL A   1      32.537  28.503  27.409  1.00  0.00     0.002 C 
BRANCH  75  76
ATOM     76  C   UNL A   1      32.292  27.328  26.459  1.00  0.00     0.002 C 
BRANCH  76  77
ATOM     77  C   UNL A   1      30.979  27.360  25.672  1.00  0.00     0.021 C 
BRANCH  77  78
ATOM     78  C   UNL A   1      30.334  26.006  25.387  1.00  0.00     0.116 C 
BRANCH  78  79
ATOM     79  N   UNL A   1      30.487  25.068  26.481  1.00  0.00    -0.353 N 
ATOM     80  C   UNL A   1      31.154  23.868  26.480  1.00  0.00     0.267 C 
ATOM     81  H   UNL A   1      30.061  25.322  27.331  1.00  0.00     0.163 HD
ATOM     82  O   UNL A   1      31.255  23.283  27.563  1.00  0.00    -0.270 OA
BRANCH  80  83
ATOM     83  C   UNL A   1      31.686  23.281  25.138  1.00  0.00     0.310 C 
ATOM     84  N   UNL A   1      33.028  23.861  24.826  1.00  0.00    -0.246 NA
ATOM     85  N   UNL A   1      31.790  21.791  25.246  1.00  0.00    -0.246 NA
ATOM     86  C   UNL A   1      33.794  22.830  24.830  1.00  0.00     0.086 A 
ATOM     87  C   UNL A   1      33.051  21.584  25.103  1.00  0.00     0.086 A 
ATOM     88  C   UNL A   1      35.237  22.777  24.585  1.00  0.00     0.030 A 
ATOM     89  C   UNL A   1      33.784  20.316  25.167  1.00  0.00     0.030 A 
ATOM     90  C   UNL A   1      35.829  21.577  24.653  1.00  0.00     0.002 A 
ATOM     91  C   UNL A   1      35.108  20.355  24.954  1.00  0.00     0.002 A 
ENDBRANCH  80  83
ENDBRANCH  78  79
ENDBRANCH  77  78
ENDBRANCH  76  77
ENDBRANCH  75  76
ENDBRANCH   1  75
TORSDOF 16
ENDMDL
