MODEL 1
REMARK VINA RESULT:      -8.0      0.000      0.000
REMARK SMILES COc1ccc(CCc2nnc(NC(=O)[C@@H]3[C@@H](C(=O)NCCCCCCNC(=O)c4ccc(-c5c6nc(c(-c7c(F)cc(S(=O)(=O)[O-])cc7F)c7ccc([nH]7)c(-c7c(F)cc(S(=O)(=O)[O-])cc7F)c7nc(c(-c8c(F)cc(S(=O)(=O)[O-])cc8F)c8ccc5[nH]8)C=C7)C=C6)cc4)C3(C)C)s2)cc1
REMARK SMILES IDX 22 1 21 2 20 3 18 4 19 5 17 7 16 8 96 9 97 10 98 11 14 12
REMARK SMILES IDX 13 13 15 15 12 16 9 17 10 18 99 19 11 20 8 21 7 22 6 23 3 24
REMARK SMILES IDX 4 25 101 26 5 27 100 28 2 29 1 30 23 31 24 32 25 33 26 34
REMARK SMILES IDX 27 35 28 36 29 38 30 39 31 40 95 41 32 42 94 43 33 44 34 45
REMARK SMILES IDX 35 46 88 47 36 48 93 49 87 50 89 51 37 52 92 53 86 54 85 55
REMARK SMILES IDX 38 57 72 58 51 59 71 60 52 61 55 62 70 63 90 64 53 65 54 66
REMARK SMILES IDX 69 68 91 69 56 70 39 71 40 72 49 73 41 74 42 75 48 76 50 77
REMARK SMILES IDX 43 78 44 79 45 80 46 81 47 82 73 83 74 84 83 85 75 86 76 87
REMARK SMILES IDX 82 88 84 89 77 90 78 91 79 92 80 93 81 94 57 95 58 96 67 97
REMARK SMILES IDX 59 98 60 99 66 100 68 101 61 102 62 103 63 104 64 105 65 106
REMARK H PARENT 20 6 13 14 27 37 89 56 55 67
REMARK Flexibility Score: inf
ROOT
ATOM      1  C   UNL A   1      46.123  24.822  28.574  1.00  0.00     0.021 C 
ENDROOT
BRANCH   1   2
ATOM      2  C   UNL A   1      44.628  24.786  28.250  1.00  0.00     0.116 C 
BRANCH   2   3
ATOM      3  N   UNL A   1      44.376  23.994  27.062  1.00  0.00    -0.356 N 
ATOM      4  C   UNL A   1      43.384  23.962  26.128  1.00  0.00     0.224 C 
ATOM      5  O   UNL A   1      43.434  23.041  25.309  1.00  0.00    -0.275 OA
ATOM      6  H   UNL A   1      45.081  23.328  26.892  1.00  0.00     0.163 HD
BRANCH   4   7
ATOM      7  C   UNL A   1      42.282  24.943  25.967  1.00  0.00     0.098 C 
ATOM      8  C   UNL A   1      42.083  26.264  26.650  1.00  0.00     0.098 C 
ATOM      9  C   UNL A   1      41.098  25.112  26.915  1.00  0.00    -0.011 C 
ATOM     10  C   UNL A   1      41.115  24.529  28.312  1.00  0.00     0.013 C 
ATOM     11  C   UNL A   1      39.715  25.125  26.306  1.00  0.00     0.013 C 
BRANCH   8  12
ATOM     12  C   UNL A   1      41.796  27.470  25.811  1.00  0.00     0.230 C 
ATOM     13  N   UNL A   1      41.097  28.522  26.351  1.00  0.00    -0.300 N 
ATOM     14  H   UNL A   1      40.741  29.197  25.729  1.00  0.00     0.172 HD
ATOM     15  O   UNL A   1      42.122  27.514  24.625  1.00  0.00    -0.274 OA
BRANCH  13  16
ATOM     16  C   UNL A   1      40.857  28.706  27.682  1.00  0.00     0.212 A 
ATOM     17  C   UNL A   1      39.797  28.726  29.794  1.00  0.00     0.119 A 
ATOM     18  N   UNL A   1      41.098  28.912  29.886  1.00  0.00    -0.142 NA
ATOM     19  S   UNL A   1      39.220  28.675  28.166  1.00  0.00    -0.080 S 
ATOM     20  N   UNL A   1      41.712  28.888  28.656  1.00  0.00    -0.120 NA
BRANCH  17  21
ATOM     21  C   UNL A   1      38.896  28.543  30.975  1.00  0.00     0.074 C 
BRANCH  21  22
ATOM     22  C   UNL A   1      37.437  28.954  30.719  1.00  0.00     0.043 C 
BRANCH  22  23
ATOM     23  C   UNL A   1      36.923  30.127  31.528  1.00  0.00    -0.047 A 
ATOM     24  C   UNL A   1      36.016  32.354  32.968  1.00  0.00     0.118 A 
ATOM     25  C   UNL A   1      35.450  32.055  31.737  1.00  0.00     0.046 A 
ATOM     26  C   UNL A   1      37.011  31.538  33.505  1.00  0.00     0.046 A 
ATOM     27  C   UNL A   1      35.922  30.965  31.010  1.00  0.00     0.007 A 
ATOM     28  C   UNL A   1      37.460  30.424  32.789  1.00  0.00     0.007 A 
BRANCH  24  29
ATOM     29  O   UNL A   1      35.498  33.411  33.665  1.00  0.00    -0.497 OA
ATOM     30  C   UNL A   1      36.263  34.592  33.425  1.00  0.00     0.278 C 
ENDBRANCH  24  29
ENDBRANCH  22  23
ENDBRANCH  21  22
ENDBRANCH  17  21
ENDBRANCH  13  16
ENDBRANCH   8  12
ENDBRANCH   4   7
ENDBRANCH   2   3
ENDBRANCH   1   2
BRANCH   1  31
ATOM     31  C   UNL A   1      47.041  24.495  27.390  1.00  0.00     0.002 C 
BRANCH  31  32
ATOM     32  C   UNL A   1      48.364  25.267  27.350  1.00  0.00     0.002 C 
BRANCH  32  33
ATOM     33  C   UNL A   1      48.884  25.601  25.950  1.00  0.00     0.021 C 
BRANCH  33  34
ATOM     34  C   UNL A   1      47.871  25.414  24.822  1.00  0.00     0.116 C 
BRANCH  34  35
ATOM     35  N   UNL A   1      47.860  26.543  23.906  1.00  0.00    -0.352 N 
ATOM     36  C   UNL A   1      47.265  27.772  24.052  1.00  0.00     0.251 C 
ATOM     37  H   UNL A   1      48.350  26.408  23.062  1.00  0.00     0.163 HD
ATOM     38  O   UNL A   1      47.163  28.522  23.085  1.00  0.00    -0.269 OA
BRANCH  36  39
ATOM     39  C   UNL A   1      46.734  28.193  25.369  1.00  0.00     0.039 A 
ATOM     40  C   UNL A   1      47.548  28.937  26.227  1.00  0.00     0.014 A 
ATOM     41  C   UNL A   1      45.449  27.829  25.777  1.00  0.00     0.014 A 
ATOM     42  C   UNL A   1      47.051  29.370  27.464  1.00  0.00     0.010 A 
ATOM     43  C   UNL A   1      44.943  28.306  26.988  1.00  0.00     0.010 A 
ATOM     44  C   UNL A   1      45.725  29.100  27.843  1.00  0.00    -0.014 A 
BRANCH  44  45
ATOM     45  C   UNL A   1      45.141  29.660  29.102  1.00  0.00     0.031 A 
ATOM     46  C   UNL A   1      44.619  31.076  29.155  1.00  0.00     0.074 A 
ATOM     47  C   UNL A   1      45.148  28.927  30.237  1.00  0.00     0.049 A 
ATOM     48  N   UNL A   1      44.148  31.747  30.177  1.00  0.00    -0.248 NA
ATOM     49  C   UNL A   1      44.674  31.852  27.907  1.00  0.00     0.031 C 
ATOM     50  C   UNL A   1      45.692  27.573  30.370  1.00  0.00     0.029 A 
ATOM     51  N   UNL A   1      44.694  29.220  31.502  1.00  0.00    -0.354 N 
ATOM     52  C   UNL A   1      43.868  33.023  29.701  1.00  0.00     0.074 A 
ATOM     53  C   UNL A   1      44.295  33.053  28.318  1.00  0.00     0.031 C 
ATOM     54  C   UNL A   1      45.511  27.144  31.629  1.00  0.00     0.029 A 
ATOM     55  C   UNL A   1      44.872  28.200  32.409  1.00  0.00     0.049 A 
ATOM     56  H   UNL A   1      44.278  30.081  31.737  1.00  0.00     0.167 HD
ATOM     57  C   UNL A   1      43.279  34.067  30.336  1.00  0.00     0.037 A 
ATOM     58  C   UNL A   1      44.564  28.114  33.719  1.00  0.00     0.037 A 
ATOM     59  C   UNL A   1      42.819  34.034  31.701  1.00  0.00     0.049 A 
ATOM     60  C   UNL A   1      43.885  29.271  34.403  1.00  0.00     0.074 A 
ATOM     61  C   UNL A   1      42.147  35.018  32.406  1.00  0.00     0.029 A 
ATOM     62  N   UNL A   1      42.981  32.965  32.570  1.00  0.00    -0.354 N 
ATOM     63  N   UNL A   1      43.558  30.441  33.910  1.00  0.00    -0.248 NA
ATOM     64  C   UNL A   1      43.525  29.093  35.816  1.00  0.00     0.031 C 
ATOM     65  C   UNL A   1      41.942  34.562  33.713  1.00  0.00     0.029 A 
ATOM     66  C   UNL A   1      42.438  33.272  33.808  1.00  0.00     0.049 A 
ATOM     67  H   UNL A   1      43.417  32.113  32.340  1.00  0.00     0.167 HD
ATOM     68  C   UNL A   1      42.932  31.128  34.946  1.00  0.00     0.074 A 
ATOM     69  C   UNL A   1      42.915  30.239  36.088  1.00  0.00     0.031 C 
ATOM     70  C   UNL A   1      42.418  32.384  34.945  1.00  0.00     0.037 A 
BRANCH  57  71
ATOM     71  C   UNL A   1      43.087  35.337  29.547  1.00  0.00     0.058 A 
ATOM     72  C   UNL A   1      44.068  36.343  29.520  1.00  0.00     0.135 A 
ATOM     73  C   UNL A   1      41.914  35.551  28.804  1.00  0.00     0.135 A 
ATOM     74  F   UNL A   1      45.207  36.195  30.216  1.00  0.00    -0.206 F 
ATOM     75  C   UNL A   1      43.868  37.537  28.837  1.00  0.00     0.059 A 
ATOM     76  C   UNL A   1      41.709  36.724  28.083  1.00  0.00     0.059 A 
ATOM     77  F   UNL A   1      40.947  34.620  28.781  1.00  0.00    -0.206 F 
ATOM     78  C   UNL A   1      42.682  37.722  28.127  1.00  0.00     0.060 A 
BRANCH  78  79
ATOM     79  S   UNL A   1      42.424  39.292  27.276  1.00  0.00     0.124 S 
ATOM     80  O   UNL A   1      41.226  39.002  26.492  1.00  0.00    -0.237 OA
ATOM     81  O   UNL A   1      42.244  40.224  28.385  1.00  0.00    -0.237 OA
ATOM     82  O   UNL A   1      43.651  39.467  26.505  1.00  0.00    -0.744 OA
ENDBRANCH  78  79
ENDBRANCH  57  71
BRANCH  58  83
ATOM     83  C   UNL A   1      44.869  26.864  34.467  1.00  0.00     0.058 A 
ATOM     84  C   UNL A   1      43.977  25.781  34.461  1.00  0.00     0.135 A 
ATOM     85  C   UNL A   1      46.071  26.715  35.176  1.00  0.00     0.135 A 
ATOM     86  F   UNL A   1      42.809  25.878  33.808  1.00  0.00    -0.206 F 
ATOM     87  C   UNL A   1      44.262  24.596  35.134  1.00  0.00     0.059 A 
ATOM     88  C   UNL A   1      46.391  25.532  35.835  1.00  0.00     0.059 A 
ATOM     89  F   UNL A   1      46.966  27.716  35.201  1.00  0.00    -0.206 F 
ATOM     90  C   UNL A   1      45.478  24.479  35.810  1.00  0.00     0.060 A 
BRANCH  90  91
ATOM     91  S   UNL A   1      45.876  22.909  36.610  1.00  0.00     0.124 S 
ATOM     92  O   UNL A   1      47.276  22.736  36.241  1.00  0.00    -0.237 OA
ATOM     93  O   UNL A   1      45.616  23.208  38.016  1.00  0.00    -0.237 OA
ATOM     94  O   UNL A   1      44.939  21.973  35.996  1.00  0.00    -0.744 OA
ENDBRANCH  90  91
ENDBRANCH  58  83
BRANCH  70  95
ATOM     95  C   UNL A   1      41.759  32.872  36.208  1.00  0.00     0.058 A 
ATOM     96  C   UNL A   1      40.397  32.653  36.465  1.00  0.00     0.135 A 
ATOM     97  C   UNL A   1      42.516  33.514  37.202  1.00  0.00     0.135 A 
ATOM     98  F   UNL A   1      39.624  32.051  35.547  1.00  0.00    -0.206 F 
ATOM     99  C   UNL A   1      39.804  33.071  37.654  1.00  0.00     0.059 A 
ATOM    100  C   UNL A   1      41.951  33.915  38.409  1.00  0.00     0.059 A 
ATOM    101  F   UNL A   1      43.826  33.741  37.013  1.00  0.00    -0.206 F 
ATOM    102  C   UNL A   1      40.591  33.698  38.622  1.00  0.00     0.060 A 
BRANCH 102 103
ATOM    103  S   UNL A   1      39.818  34.198  40.175  1.00  0.00     0.124 S 
ATOM    104  O   UNL A   1      39.193  32.951  40.608  1.00  0.00    -0.237 OA
ATOM    105  O   UNL A   1      40.962  34.641  40.966  1.00  0.00    -0.237 OA
ATOM    106  O   UNL A   1      38.894  35.255  39.772  1.00  0.00    -0.744 OA
ENDBRANCH 102 103
ENDBRANCH  70  95
ENDBRANCH  44  45
ENDBRANCH  36  39
ENDBRANCH  34  35
ENDBRANCH  33  34
ENDBRANCH  32  33
ENDBRANCH  31  32
ENDBRANCH   1  31
TORSDOF 22
ENDMDL
MODEL 2
REMARK VINA RESULT:      -7.8      4.790     11.338
REMARK SMILES COc1ccc(CCc2nnc(NC(=O)[C@@H]3[C@@H](C(=O)NCCCCCCNC(=O)c4ccc(-c5c6nc(c(-c7c(F)cc(S(=O)(=O)[O-])cc7F)c7ccc([nH]7)c(-c7c(F)cc(S(=O)(=O)[O-])cc7F)c7nc(c(-c8c(F)cc(S(=O)(=O)[O-])cc8F)c8ccc5[nH]8)C=C7)C=C6)cc4)C3(C)C)s2)cc1
REMARK SMILES IDX 22 1 21 2 20 3 18 4 19 5 17 7 16 8 96 9 97 10 98 11 14 12
REMARK SMILES IDX 13 13 15 15 12 16 9 17 10 18 99 19 11 20 8 21 7 22 6 23 3 24
REMARK SMILES IDX 4 25 101 26 5 27 100 28 2 29 1 30 23 31 24 32 25 33 26 34
REMARK SMILES IDX 27 35 28 36 29 38 30 39 31 40 95 41 32 42 94 43 33 44 34 45
REMARK SMILES IDX 35 46 88 47 36 48 93 49 87 50 89 51 37 52 92 53 86 54 85 55
REMARK SMILES IDX 38 57 72 58 51 59 71 60 52 61 55 62 70 63 90 64 53 65 54 66
REMARK SMILES IDX 69 68 91 69 56 70 39 71 40 72 49 73 41 74 42 75 48 76 50 77
REMARK SMILES IDX 43 78 44 79 45 80 46 81 47 82 73 83 74 84 83 85 75 86 76 87
REMARK SMILES IDX 82 88 84 89 77 90 78 91 79 92 80 93 81 94 57 95 58 96 67 97
REMARK SMILES IDX 59 98 60 99 66 100 68 101 61 102 62 103 63 104 64 105 65 106
REMARK H PARENT 20 6 13 14 27 37 89 56 55 67
REMARK Flexibility Score: inf
ROOT
ATOM      1  C   UNL A   1      41.253  34.398  31.488  1.00  0.00     0.021 C 
ENDROOT
BRANCH   1   2
ATOM      2  C   UNL A   1      41.314  33.153  32.374  1.00  0.00     0.116 C 
BRANCH   2   3
ATOM      3  N   UNL A   1      41.562  33.514  33.756  1.00  0.00    -0.356 N 
ATOM      4  C   UNL A   1      40.790  33.591  34.877  1.00  0.00     0.224 C 
ATOM      5  O   UNL A   1      41.324  34.077  35.876  1.00  0.00    -0.275 OA
ATOM      6  H   UNL A   1      42.500  33.761  33.922  1.00  0.00     0.163 HD
BRANCH   4   7
ATOM      7  C   UNL A   1      39.395  33.109  35.030  1.00  0.00     0.098 C 
ATOM      8  C   UNL A   1      38.656  32.728  36.279  1.00  0.00     0.098 C 
ATOM      9  C   UNL A   1      38.972  31.656  35.223  1.00  0.00    -0.011 C 
ATOM     10  C   UNL A   1      39.969  30.591  35.631  1.00  0.00     0.013 C 
ATOM     11  C   UNL A   1      37.887  31.121  34.318  1.00  0.00     0.013 C 
BRANCH   8  12
ATOM     12  C   UNL A   1      37.306  33.326  36.526  1.00  0.00     0.230 C 
ATOM     13  N   UNL A   1      36.729  33.208  37.767  1.00  0.00    -0.300 N 
ATOM     14  H   UNL A   1      35.769  33.416  37.842  1.00  0.00     0.172 HD
ATOM     15  O   UNL A   1      36.675  33.870  35.621  1.00  0.00    -0.274 OA
BRANCH  13  16
ATOM     16  C   UNL A   1      37.379  32.826  38.904  1.00  0.00     0.212 A 
ATOM     17  C   UNL A   1      38.018  31.614  40.830  1.00  0.00     0.119 A 
ATOM     18  N   UNL A   1      38.930  32.492  40.466  1.00  0.00    -0.142 NA
ATOM     19  S   UNL A   1      36.564  31.703  39.900  1.00  0.00    -0.080 S 
ATOM     20  N   UNL A   1      38.560  33.187  39.339  1.00  0.00    -0.120 NA
BRANCH  17  21
ATOM     21  C   UNL A   1      38.217  30.609  41.920  1.00  0.00     0.074 C 
BRANCH  21  22
ATOM     22  C   UNL A   1      38.040  31.178  43.337  1.00  0.00     0.043 C 
BRANCH  22  23
ATOM     23  C   UNL A   1      36.745  30.829  44.040  1.00  0.00    -0.047 A 
ATOM     24  C   UNL A   1      34.350  30.101  45.302  1.00  0.00     0.118 A 
ATOM     25  C   UNL A   1      35.552  29.576  45.755  1.00  0.00     0.046 A 
ATOM     26  C   UNL A   1      34.330  31.008  44.243  1.00  0.00     0.046 A 
ATOM     27  C   UNL A   1      36.739  29.918  45.108  1.00  0.00     0.007 A 
ATOM     28  C   UNL A   1      35.525  31.375  43.617  1.00  0.00     0.007 A 
BRANCH  24  29
ATOM     29  O   UNL A   1      33.214  29.768  45.987  1.00  0.00    -0.497 OA
ATOM     30  C   UNL A   1      32.919  30.754  46.976  1.00  0.00     0.278 C 
ENDBRANCH  24  29
ENDBRANCH  22  23
ENDBRANCH  21  22
ENDBRANCH  17  21
ENDBRANCH  13  16
ENDBRANCH   8  12
ENDBRANCH   4   7
ENDBRANCH   2   3
ENDBRANCH   1   2
BRANCH   1  31
ATOM     31  C   UNL A   1      40.713  34.149  30.075  1.00  0.00     0.002 C 
BRANCH  31  32
ATOM     32  C   UNL A   1      39.412  34.883  29.729  1.00  0.00     0.002 C 
BRANCH  32  33
ATOM     33  C   UNL A   1      38.179  34.433  30.515  1.00  0.00     0.021 C 
BRANCH  33  34
ATOM     34  C   UNL A   1      37.114  33.713  29.690  1.00  0.00     0.116 C 
BRANCH  34  35
ATOM     35  N   UNL A   1      36.372  32.747  30.484  1.00  0.00    -0.352 N 
ATOM     36  C   UNL A   1      36.619  31.409  30.674  1.00  0.00     0.251 C 
ATOM     37  H   UNL A   1      35.581  33.102  30.952  1.00  0.00     0.163 HD
ATOM     38  O   UNL A   1      35.761  30.695  31.188  1.00  0.00    -0.269 OA
BRANCH  36  39
ATOM     39  C   UNL A   1      37.910  30.820  30.251  1.00  0.00     0.039 A 
ATOM     40  C   UNL A   1      38.082  30.437  28.918  1.00  0.00     0.014 A 
ATOM     41  C   UNL A   1      38.940  30.611  31.169  1.00  0.00     0.014 A 
ATOM     42  C   UNL A   1      39.308  29.908  28.494  1.00  0.00     0.010 A 
ATOM     43  C   UNL A   1      40.176  30.131  30.730  1.00  0.00     0.010 A 
ATOM     44  C   UNL A   1      40.390  29.789  29.385  1.00  0.00    -0.014 A 
BRANCH  44  45
ATOM     45  C   UNL A   1      41.740  29.343  28.921  1.00  0.00     0.031 A 
ATOM     46  C   UNL A   1      42.884  30.322  28.800  1.00  0.00     0.074 A 
ATOM     47  C   UNL A   1      41.933  28.066  28.523  1.00  0.00     0.049 A 
ATOM     48  N   UNL A   1      44.097  30.125  28.347  1.00  0.00    -0.248 NA
ATOM     49  C   UNL A   1      42.615  31.711  29.200  1.00  0.00     0.031 C 
ATOM     50  C   UNL A   1      40.908  27.020  28.502  1.00  0.00     0.029 A 
ATOM     51  N   UNL A   1      43.057  27.430  28.050  1.00  0.00    -0.354 N 
ATOM     52  C   UNL A   1      44.728  31.364  28.391  1.00  0.00     0.074 A 
ATOM     53  C   UNL A   1      43.737  32.318  28.842  1.00  0.00     0.031 C 
ATOM     54  C   UNL A   1      41.454  25.872  28.072  1.00  0.00     0.029 A 
ATOM     55  C   UNL A   1      42.860  26.100  27.751  1.00  0.00     0.049 A 
ATOM     56  H   UNL A   1      43.923  27.884  27.936  1.00  0.00     0.167 HD
ATOM     57  C   UNL A   1      46.019  31.681  28.119  1.00  0.00     0.037 A 
ATOM     58  C   UNL A   1      43.705  25.165  27.272  1.00  0.00     0.037 A 
ATOM     59  C   UNL A   1      47.020  30.732  27.705  1.00  0.00     0.049 A 
ATOM     60  C   UNL A   1      45.141  25.526  27.000  1.00  0.00     0.074 A 
ATOM     61  C   UNL A   1      48.368  30.949  27.475  1.00  0.00     0.029 A 
ATOM     62  N   UNL A   1      46.787  29.387  27.455  1.00  0.00    -0.354 N 
ATOM     63  N   UNL A   1      45.735  26.688  27.126  1.00  0.00    -0.248 NA
ATOM     64  C   UNL A   1      46.024  24.448  26.533  1.00  0.00     0.031 C 
ATOM     65  C   UNL A   1      48.941  29.746  27.046  1.00  0.00     0.029 A 
ATOM     66  C   UNL A   1      47.962  28.766  27.059  1.00  0.00     0.049 A 
ATOM     67  H   UNL A   1      45.915  28.939  27.548  1.00  0.00     0.167 HD
ATOM     68  C   UNL A   1      47.065  26.475  26.776  1.00  0.00     0.074 A 
ATOM     69  C   UNL A   1      47.191  25.071  26.446  1.00  0.00     0.031 C 
ATOM     70  C   UNL A   1      48.088  27.366  26.734  1.00  0.00     0.037 A 
BRANCH  57  71
ATOM     71  C   UNL A   1      46.423  33.124  28.276  1.00  0.00     0.058 A 
ATOM     72  C   UNL A   1      46.945  33.615  29.485  1.00  0.00     0.135 A 
ATOM     73  C   UNL A   1      46.294  34.028  27.208  1.00  0.00     0.135 A 
ATOM     74  F   UNL A   1      47.086  32.798  30.542  1.00  0.00    -0.206 F 
ATOM     75  C   UNL A   1      47.268  34.958  29.648  1.00  0.00     0.059 A 
ATOM     76  C   UNL A   1      46.645  35.369  27.338  1.00  0.00     0.059 A 
ATOM     77  F   UNL A   1      45.813  33.614  26.025  1.00  0.00    -0.206 F 
ATOM     78  C   UNL A   1      47.106  35.829  28.571  1.00  0.00     0.060 A 
BRANCH  78  79
ATOM     79  S   UNL A   1      47.495  37.575  28.810  1.00  0.00     0.124 S 
ATOM     80  O   UNL A   1      48.953  37.560  28.727  1.00  0.00    -0.237 OA
ATOM     81  O   UNL A   1      46.804  38.206  27.690  1.00  0.00    -0.237 OA
ATOM     82  O   UNL A   1      46.946  37.868  30.130  1.00  0.00    -0.744 OA
ENDBRANCH  78  79
ENDBRANCH  57  71
BRANCH  58  83
ATOM     83  C   UNL A   1      43.216  23.777  27.046  1.00  0.00     0.058 A 
ATOM     84  C   UNL A   1      42.919  23.315  25.755  1.00  0.00     0.135 A 
ATOM     85  C   UNL A   1      43.066  22.875  28.112  1.00  0.00     0.135 A 
ATOM     86  F   UNL A   1      43.035  24.142  24.704  1.00  0.00    -0.206 F 
ATOM     87  C   UNL A   1      42.487  22.012  25.526  1.00  0.00     0.059 A 
ATOM     88  C   UNL A   1      42.661  21.560  27.906  1.00  0.00     0.059 A 
ATOM     89  F   UNL A   1      43.351  23.262  29.365  1.00  0.00    -0.206 F 
ATOM     90  C   UNL A   1      42.370  21.140  26.610  1.00  0.00     0.060 A 
BRANCH  90  91
ATOM     91  S   UNL A   1      41.889  19.427  26.294  1.00  0.00     0.124 S 
ATOM     92  O   UNL A   1      42.370  18.759  27.498  1.00  0.00    -0.237 OA
ATOM     93  O   UNL A   1      40.439  19.537  26.159  1.00  0.00    -0.237 OA
ATOM     94  O   UNL A   1      42.601  19.101  25.062  1.00  0.00    -0.744 OA
ENDBRANCH  90  91
ENDBRANCH  58  83
BRANCH  70  95
ATOM     95  C   UNL A   1      49.450  26.853  26.349  1.00  0.00     0.058 A 
ATOM     96  C   UNL A   1      50.235  26.099  27.235  1.00  0.00     0.135 A 
ATOM     97  C   UNL A   1      49.949  27.066  25.053  1.00  0.00     0.135 A 
ATOM     98  F   UNL A   1      49.811  25.871  28.488  1.00  0.00    -0.206 F 
ATOM     99  C   UNL A   1      51.476  25.593  26.857  1.00  0.00     0.059 A 
ATOM    100  C   UNL A   1      51.174  26.546  24.645  1.00  0.00     0.059 A 
ATOM    101  F   UNL A   1      49.235  27.772  24.162  1.00  0.00    -0.206 F 
ATOM    102  C   UNL A   1      51.935  25.818  25.558  1.00  0.00     0.060 A 
BRANCH 102 103
ATOM    103  S   UNL A   1      53.527  25.121  25.069  1.00  0.00     0.124 S 
ATOM    104  O   UNL A   1      54.448  25.858  25.929  1.00  0.00    -0.237 OA
ATOM    105  O   UNL A   1      53.359  23.706  25.385  1.00  0.00    -0.237 OA
ATOM    106  O   UNL A   1      53.613  25.433  23.645  1.00  0.00    -0.744 OA
ENDBRANCH 102 103
ENDBRANCH  70  95
ENDBRANCH  44  45
ENDBRANCH  36  39
ENDBRANCH  34  35
ENDBRANCH  33  34
ENDBRANCH  32  33
ENDBRANCH  31  32
ENDBRANCH   1  31
TORSDOF 22
ENDMDL
MODEL 3
REMARK VINA RESULT:      -7.5      4.014      8.527
REMARK SMILES COc1ccc(CCc2nnc(NC(=O)[C@@H]3[C@@H](C(=O)NCCCCCCNC(=O)c4ccc(-c5c6nc(c(-c7c(F)cc(S(=O)(=O)[O-])cc7F)c7ccc([nH]7)c(-c7c(F)cc(S(=O)(=O)[O-])cc7F)c7nc(c(-c8c(F)cc(S(=O)(=O)[O-])cc8F)c8ccc5[nH]8)C=C7)C=C6)cc4)C3(C)C)s2)cc1
REMARK SMILES IDX 22 1 21 2 20 3 18 4 19 5 17 7 16 8 96 9 97 10 98 11 14 12
REMARK SMILES IDX 13 13 15 15 12 16 9 17 10 18 99 19 11 20 8 21 7 22 6 23 3 24
REMARK SMILES IDX 4 25 101 26 5 27 100 28 2 29 1 30 23 31 24 32 25 33 26 34
REMARK SMILES IDX 27 35 28 36 29 38 30 39 31 40 95 41 32 42 94 43 33 44 34 45
REMARK SMILES IDX 35 46 88 47 36 48 93 49 87 50 89 51 37 52 92 53 86 54 85 55
REMARK SMILES IDX 38 57 72 58 51 59 71 60 52 61 55 62 70 63 90 64 53 65 54 66
REMARK SMILES IDX 69 68 91 69 56 70 39 71 40 72 49 73 41 74 42 75 48 76 50 77
REMARK SMILES IDX 43 78 44 79 45 80 46 81 47 82 73 83 74 84 83 85 75 86 76 87
REMARK SMILES IDX 82 88 84 89 77 90 78 91 79 92 80 93 81 94 57 95 58 96 67 97
REMARK SMILES IDX 59 98 60 99 66 100 68 101 61 102 62 103 63 104 64 105 65 106
REMARK H PARENT 20 6 13 14 27 37 89 56 55 67
REMARK Flexibility Score: inf
ROOT
ATOM      1  C   UNL A   1      45.381  24.373  32.201  1.00  0.00     0.021 C 
ENDROOT
BRANCH   1   2
ATOM      2  C   UNL A   1      45.594  23.636  33.525  1.00  0.00     0.116 C 
BRANCH   2   3
ATOM      3  N   UNL A   1      46.897  23.940  34.081  1.00  0.00    -0.356 N 
ATOM      4  C   UNL A   1      47.510  23.690  35.273  1.00  0.00     0.224 C 
ATOM      5  O   UNL A   1      48.605  24.230  35.449  1.00  0.00    -0.275 OA
ATOM      6  H   UNL A   1      47.470  24.442  33.457  1.00  0.00     0.163 HD
BRANCH   4   7
ATOM      7  C   UNL A   1      47.019  22.802  36.356  1.00  0.00     0.098 C 
ATOM      8  C   UNL A   1      46.011  21.693  36.288  1.00  0.00     0.098 C 
ATOM      9  C   UNL A   1      45.699  22.959  37.104  1.00  0.00    -0.011 C 
ATOM     10  C   UNL A   1      44.588  23.839  36.570  1.00  0.00     0.013 C 
ATOM     11  C   UNL A   1      45.747  22.934  38.614  1.00  0.00     0.013 C 
BRANCH   8  12
ATOM     12  C   UNL A   1      46.370  20.359  36.865  1.00  0.00     0.230 C 
ATOM     13  N   UNL A   1      47.341  19.598  36.261  1.00  0.00    -0.300 N 
ATOM     14  H   UNL A   1      47.406  18.652  36.526  1.00  0.00     0.172 HD
ATOM     15  O   UNL A   1      45.768  19.902  37.836  1.00  0.00    -0.274 OA
BRANCH  13  16
ATOM     16  C   UNL A   1      48.224  20.049  35.324  1.00  0.00     0.212 A 
ATOM     17  C   UNL A   1      50.233  20.634  34.224  1.00  0.00     0.119 A 
ATOM     18  N   UNL A   1      49.209  20.573  33.397  1.00  0.00    -0.142 NA
ATOM     19  S   UNL A   1      49.795  20.422  35.882  1.00  0.00    -0.080 S 
ATOM     20  N   UNL A   1      48.045  20.221  34.039  1.00  0.00    -0.120 NA
BRANCH  17  21
ATOM     21  C   UNL A   1      51.649  20.834  33.784  1.00  0.00     0.074 C 
BRANCH  21  22
ATOM     22  C   UNL A   1      51.810  21.833  32.627  1.00  0.00     0.043 C 
BRANCH  22  23
ATOM     23  C   UNL A   1      51.666  23.298  32.986  1.00  0.00    -0.047 A 
ATOM     24  C   UNL A   1      51.349  25.984  33.721  1.00  0.00     0.118 A 
ATOM     25  C   UNL A   1      52.219  25.174  34.437  1.00  0.00     0.046 A 
ATOM     26  C   UNL A   1      50.655  25.478  32.623  1.00  0.00     0.046 A 
ATOM     27  C   UNL A   1      52.354  23.832  34.087  1.00  0.00     0.007 A 
ATOM     28  C   UNL A   1      50.817  24.139  32.253  1.00  0.00     0.007 A 
BRANCH  24  29
ATOM     29  O   UNL A   1      51.275  27.303  34.075  1.00  0.00    -0.497 OA
ATOM     30  C   UNL A   1      52.219  27.601  35.103  1.00  0.00     0.278 C 
ENDBRANCH  24  29
ENDBRANCH  22  23
ENDBRANCH  21  22
ENDBRANCH  17  21
ENDBRANCH  13  16
ENDBRANCH   8  12
ENDBRANCH   4   7
ENDBRANCH   2   3
ENDBRANCH   1   2
BRANCH   1  31
ATOM     31  C   UNL A   1      44.210  23.851  31.362  1.00  0.00     0.002 C 
BRANCH  31  32
ATOM     32  C   UNL A   1      44.190  24.313  29.900  1.00  0.00     0.002 C 
BRANCH  32  33
ATOM     33  C   UNL A   1      44.292  23.195  28.860  1.00  0.00     0.021 C 
BRANCH  33  34
ATOM     34  C   UNL A   1      42.998  22.892  28.107  1.00  0.00     0.116 C 
BRANCH  34  35
ATOM     35  N   UNL A   1      42.965  23.530  26.802  1.00  0.00    -0.352 N 
ATOM     36  C   UNL A   1      42.494  24.774  26.457  1.00  0.00     0.251 C 
ATOM     37  H   UNL A   1      43.332  22.996  26.060  1.00  0.00     0.163 HD
ATOM     38  O   UNL A   1      42.333  25.061  25.273  1.00  0.00    -0.269 OA
BRANCH  36  39
ATOM     39  C   UNL A   1      42.168  25.767  27.506  1.00  0.00     0.039 A 
ATOM     40  C   UNL A   1      41.021  25.588  28.283  1.00  0.00     0.014 A 
ATOM     41  C   UNL A   1      42.970  26.893  27.704  1.00  0.00     0.014 A 
ATOM     42  C   UNL A   1      40.715  26.501  29.301  1.00  0.00     0.010 A 
ATOM     43  C   UNL A   1      42.687  27.771  28.753  1.00  0.00     0.010 A 
ATOM     44  C   UNL A   1      41.569  27.582  29.581  1.00  0.00    -0.014 A 
BRANCH  44  45
ATOM     45  C   UNL A   1      41.323  28.493  30.742  1.00  0.00     0.031 A 
ATOM     46  C   UNL A   1      40.205  29.508  30.712  1.00  0.00     0.074 A 
ATOM     47  C   UNL A   1      42.154  28.474  31.807  1.00  0.00     0.049 A 
ATOM     48  N   UNL A   1      39.894  30.423  31.596  1.00  0.00    -0.248 NA
ATOM     49  C   UNL A   1      39.354  29.524  29.513  1.00  0.00     0.031 C 
ATOM     50  C   UNL A   1      43.328  27.609  31.952  1.00  0.00     0.029 A 
ATOM     51  N   UNL A   1      42.148  29.211  32.968  1.00  0.00    -0.354 N 
ATOM     52  C   UNL A   1      38.827  31.132  31.055  1.00  0.00     0.074 A 
ATOM     53  C   UNL A   1      38.597  30.589  29.732  1.00  0.00     0.031 C 
ATOM     54  C   UNL A   1      43.906  27.841  33.141  1.00  0.00     0.029 A 
ATOM     55  C   UNL A   1      43.172  28.895  33.834  1.00  0.00     0.049 A 
ATOM     56  H   UNL A   1      41.473  29.900  33.163  1.00  0.00     0.167 HD
ATOM     57  C   UNL A   1      38.080  32.119  31.610  1.00  0.00     0.037 A 
ATOM     58  C   UNL A   1      43.492  29.392  35.046  1.00  0.00     0.037 A 
ATOM     59  C   UNL A   1      38.280  32.640  32.938  1.00  0.00     0.049 A 
ATOM     60  C   UNL A   1      42.638  30.468  35.662  1.00  0.00     0.074 A 
ATOM     61  C   UNL A   1      37.529  33.589  33.612  1.00  0.00     0.029 A 
ATOM     62  N   UNL A   1      39.302  32.262  33.797  1.00  0.00    -0.354 N 
ATOM     63  N   UNL A   1      41.584  31.068  35.162  1.00  0.00    -0.248 NA
ATOM     64  C   UNL A   1      43.008  30.927  37.007  1.00  0.00     0.031 C 
ATOM     65  C   UNL A   1      38.122  33.816  34.859  1.00  0.00     0.029 A 
ATOM     66  C   UNL A   1      39.211  32.970  34.985  1.00  0.00     0.049 A 
ATOM     67  H   UNL A   1      39.990  31.589  33.592  1.00  0.00     0.167 HD
ATOM     68  C   UNL A   1      41.153  31.957  36.142  1.00  0.00     0.074 A 
ATOM     69  C   UNL A   1      42.051  31.807  37.267  1.00  0.00     0.031 C 
ATOM     70  C   UNL A   1      40.104  32.818  36.108  1.00  0.00     0.037 A 
BRANCH  57  71
ATOM     71  C   UNL A   1      36.962  32.691  30.778  1.00  0.00     0.058 A 
ATOM     72  C   UNL A   1      37.180  33.748  29.878  1.00  0.00     0.135 A 
ATOM     73  C   UNL A   1      35.658  32.176  30.874  1.00  0.00     0.135 A 
ATOM     74  F   UNL A   1      38.405  34.284  29.749  1.00  0.00    -0.206 F 
ATOM     75  C   UNL A   1      36.138  34.313  29.150  1.00  0.00     0.059 A 
ATOM     76  C   UNL A   1      34.607  32.702  30.127  1.00  0.00     0.059 A 
ATOM     77  F   UNL A   1      35.392  31.158  31.707  1.00  0.00    -0.206 F 
ATOM     78  C   UNL A   1      34.853  33.788  29.288  1.00  0.00     0.060 A 
BRANCH  78  79
ATOM     79  S   UNL A   1      33.507  34.555  28.363  1.00  0.00     0.124 S 
ATOM     80  O   UNL A   1      32.943  33.404  27.664  1.00  0.00    -0.237 OA
ATOM     81  O   UNL A   1      32.679  35.118  29.425  1.00  0.00    -0.237 OA
ATOM     82  O   UNL A   1      34.187  35.530  27.517  1.00  0.00    -0.744 OA
ENDBRANCH  78  79
ENDBRANCH  57  71
BRANCH  58  83
ATOM     83  C   UNL A   1      44.671  28.849  35.776  1.00  0.00     0.058 A 
ATOM     84  C   UNL A   1      44.542  27.755  36.645  1.00  0.00     0.135 A 
ATOM     85  C   UNL A   1      45.953  29.392  35.596  1.00  0.00     0.135 A 
ATOM     86  F   UNL A   1      43.336  27.208  36.860  1.00  0.00    -0.206 F 
ATOM     87  C   UNL A   1      45.640  27.220  37.313  1.00  0.00     0.059 A 
ATOM     88  C   UNL A   1      47.069  28.859  36.232  1.00  0.00     0.059 A 
ATOM     89  F   UNL A   1      46.132  30.430  34.763  1.00  0.00    -0.206 F 
ATOM     90  C   UNL A   1      46.902  27.775  37.091  1.00  0.00     0.060 A 
BRANCH  90  91
ATOM     91  S   UNL A   1      48.333  27.022  37.898  1.00  0.00     0.124 S 
ATOM     92  O   UNL A   1      49.319  27.038  36.823  1.00  0.00    -0.237 OA
ATOM     93  O   UNL A   1      48.577  27.942  39.005  1.00  0.00    -0.237 OA
ATOM     94  O   UNL A   1      47.842  25.704  38.287  1.00  0.00    -0.744 OA
ENDBRANCH  90  91
ENDBRANCH  58  83
BRANCH  70  95
ATOM     95  C   UNL A   1      39.841  33.649  37.335  1.00  0.00     0.058 A 
ATOM     96  C   UNL A   1      40.468  34.888  37.541  1.00  0.00     0.135 A 
ATOM     97  C   UNL A   1      38.899  33.229  38.289  1.00  0.00     0.135 A 
ATOM     98  F   UNL A   1      41.382  35.336  36.665  1.00  0.00    -0.206 F 
ATOM     99  C   UNL A   1      40.187  35.670  38.658  1.00  0.00     0.059 A 
ATOM    100  C   UNL A   1      38.582  34.007  39.399  1.00  0.00     0.059 A 
ATOM    101  F   UNL A   1      38.261  32.057  38.139  1.00  0.00    -0.206 F 
ATOM    102  C   UNL A   1      39.239  35.223  39.580  1.00  0.00     0.060 A 
BRANCH 102 103
ATOM    103  S   UNL A   1      38.855  36.266  41.002  1.00  0.00     0.124 S 
ATOM    104  O   UNL A   1      38.485  37.521  40.356  1.00  0.00    -0.237 OA
ATOM    105  O   UNL A   1      37.765  35.536  41.640  1.00  0.00    -0.237 OA
ATOM    106  O   UNL A   1      40.108  36.293  41.753  1.00  0.00    -0.744 OA
ENDBRANCH 102 103
ENDBRANCH  70  95
ENDBRANCH  44  45
ENDBRANCH  36  39
ENDBRANCH  34  35
ENDBRANCH  33  34
ENDBRANCH  32  33
ENDBRANCH  31  32
ENDBRANCH   1  31
TORSDOF 22
ENDMDL
