MODEL 1
REMARK VINA RESULT:     -11.2      0.000      0.000
REMARK SMILES COc1ccc2[nH]cc([C@H](C(=O)NCCCCCCNC(=O)c3ccc(-c4c5nc(c(-c6c(F)cc(S(=O)(=O)[O-])cc6F)c6ccc([nH]6)c(-c6c(F)cc(S(=O)(=O)[O-])cc6F)c6nc(c(-c7c(F)cc(S(=O)(=O)[O-])cc7F)c7ccc4[nH]7)C=C6)C=C5)cc3)[NH+]3CC[NH+](Cc4cccc5ccccc45)CC3)c2c1
REMARK SMILES IDX 16 1 15 2 14 3 13 4 11 5 12 6 10 8 9 9 3 10 4 11 107 12 5 13
REMARK SMILES IDX 106 14 6 15 7 16 8 17 2 19 1 20 89 21 90 22 105 23 91 25
REMARK SMILES IDX 104 26 92 27 93 29 94 30 95 31 103 32 96 33 98 34 102 35
REMARK SMILES IDX 97 36 99 37 101 38 100 39 17 40 18 41 19 42 20 43 21 44
REMARK SMILES IDX 22 46 23 47 24 48 88 49 25 50 87 51 26 52 27 53 28 54 81 55
REMARK SMILES IDX 29 56 86 57 80 58 82 59 30 60 85 61 79 62 78 63 31 65 65 66
REMARK SMILES IDX 44 67 64 68 45 69 48 70 63 71 83 72 46 73 47 74 62 76 84 77
REMARK SMILES IDX 49 78 32 79 33 80 42 81 34 82 35 83 41 84 43 85 36 86 37 87
REMARK SMILES IDX 38 88 39 89 40 90 66 91 67 92 76 93 68 94 69 95 75 96 77 97
REMARK SMILES IDX 70 98 71 99 72 100 73 101 74 102 50 103 51 104 60 105 52 106
REMARK SMILES IDX 53 107 59 108 61 109 54 110 55 111 56 112 57 113 58 114
REMARK H PARENT 13 7 7 18 89 24 92 28 20 45 82 64 48 75
REMARK Flexibility Score: inf
ROOT
ATOM      1  C   UNL A   1      34.773  23.641  23.511  1.00  0.00     0.002 C 
ENDROOT
BRANCH   1   2
ATOM      2  C   UNL A   1      33.493  23.045  24.108  1.00  0.00     0.021 C 
BRANCH   2   3
ATOM      3  C   UNL A   1      32.188  23.819  23.830  1.00  0.00     0.116 C 
BRANCH   3   4
ATOM      4  N   UNL A   1      32.092  24.404  22.496  1.00  0.00    -0.351 N 
ATOM      5  C   UNL A   1      31.931  25.670  21.984  1.00  0.00     0.283 C 
ATOM      6  O   UNL A   1      32.040  25.704  20.755  1.00  0.00    -0.268 OA
ATOM      7  H   UNL A   1      32.159  23.724  21.787  1.00  0.00     0.163 HD
BRANCH   5   8
ATOM      8  C   UNL A   1      31.632  26.915  22.872  1.00  0.00     0.308 C 
BRANCH   8   9
ATOM      9  C   UNL A   1      30.181  27.246  23.218  1.00  0.00     0.045 A 
ATOM     10  C   UNL A   1      28.668  30.722  22.532  1.00  0.00     0.119 A 
ATOM     11  C   UNL A   1      27.348  30.374  22.775  1.00  0.00     0.048 A 
ATOM     12  C   UNL A   1      29.691  29.776  22.622  1.00  0.00     0.057 A 
ATOM     13  C   UNL A   1      27.024  29.073  23.162  1.00  0.00     0.030 A 
ATOM     14  C   UNL A   1      29.412  28.459  23.050  1.00  0.00     0.013 A 
ATOM     15  C   UNL A   1      28.070  28.147  23.303  1.00  0.00     0.046 A 
ATOM     16  N   UNL A   1      28.016  26.818  23.639  1.00  0.00    -0.361 N 
ATOM     17  C   UNL A   1      29.265  26.271  23.606  1.00  0.00     0.094 A 
ATOM     18  H   UNL A   1      27.193  26.328  23.871  1.00  0.00     0.166 HD
BRANCH  10  19
ATOM     19  O   UNL A   1      29.011  31.983  22.119  1.00  0.00    -0.497 OA
ATOM     20  C   UNL A   1      28.105  32.449  21.119  1.00  0.00     0.278 C 
ENDBRANCH  10  19
ENDBRANCH   8   9
BRANCH   8  21
ATOM     21  N   UNL A   1      32.410  26.975  24.121  1.00  0.00    -0.312 N 
ATOM     22  C   UNL A   1      33.863  27.108  24.184  1.00  0.00     0.325 C 
ATOM     23  C   UNL A   1      31.760  27.599  25.240  1.00  0.00     0.325 C 
ATOM     24  H   UNL A   1      32.382  25.957  24.174  1.00  0.00     0.349 HD
ATOM     25  C   UNL A   1      34.456  28.400  24.828  1.00  0.00     0.324 C 
ATOM     26  C   UNL A   1      32.243  29.045  25.493  1.00  0.00     0.324 C 
ATOM     27  N   UNL A   1      33.665  29.133  25.828  1.00  0.00    -0.322 N 
ATOM     28  H   UNL A   1      33.969  30.103  25.748  1.00  0.00     0.348 HD
BRANCH  27  29
ATOM     29  C   UNL A   1      33.983  28.925  27.256  1.00  0.00     0.300 C 
BRANCH  29  30
ATOM     30  C   UNL A   1      35.104  29.772  27.850  1.00  0.00     0.014 A 
ATOM     31  C   UNL A   1      36.373  29.168  28.015  1.00  0.00     0.010 A 
ATOM     32  C   UNL A   1      34.975  31.176  28.017  1.00  0.00    -0.010 A 
ATOM     33  C   UNL A   1      37.517  29.946  28.174  1.00  0.00     0.001 A 
ATOM     34  C   UNL A   1      36.155  31.959  28.085  1.00  0.00    -0.018 A 
ATOM     35  C   UNL A   1      33.733  31.844  28.062  1.00  0.00     0.009 A 
ATOM     36  C   UNL A   1      37.411  31.334  28.155  1.00  0.00     0.009 A 
ATOM     37  C   UNL A   1      36.059  33.359  28.036  1.00  0.00     0.009 A 
ATOM     38  C   UNL A   1      33.655  33.237  28.077  1.00  0.00     0.001 A 
ATOM     39  C   UNL A   1      34.817  33.993  28.023  1.00  0.00     0.001 A 
ENDBRANCH  29  30
ENDBRANCH  27  29
ENDBRANCH   8  21
ENDBRANCH   5   8
ENDBRANCH   3   4
ENDBRANCH   2   3
ENDBRANCH   1   2
BRANCH   1  40
ATOM     40  C   UNL A   1      36.039  23.279  24.283  1.00  0.00     0.002 C 
BRANCH  40  41
ATOM     41  C   UNL A   1      36.139  23.919  25.671  1.00  0.00     0.021 C 
BRANCH  41  42
ATOM     42  C   UNL A   1      37.558  23.990  26.230  1.00  0.00     0.116 C 
BRANCH  42  43
ATOM     43  N   UNL A   1      38.158  22.666  26.295  1.00  0.00    -0.352 N 
ATOM     44  C   UNL A   1      39.493  22.362  26.424  1.00  0.00     0.251 C 
ATOM     45  H   UNL A   1      37.538  21.902  26.241  1.00  0.00     0.163 HD
ATOM     46  O   UNL A   1      39.915  21.246  26.154  1.00  0.00    -0.269 OA
BRANCH  44  47
ATOM     47  C   UNL A   1      40.407  23.423  26.896  1.00  0.00     0.039 A 
ATOM     48  C   UNL A   1      40.489  24.625  26.193  1.00  0.00     0.014 A 
ATOM     49  C   UNL A   1      41.141  23.230  28.070  1.00  0.00     0.014 A 
ATOM     50  C   UNL A   1      41.277  25.661  26.701  1.00  0.00     0.010 A 
ATOM     51  C   UNL A   1      41.865  24.287  28.610  1.00  0.00     0.010 A 
ATOM     52  C   UNL A   1      41.948  25.510  27.928  1.00  0.00    -0.014 A 
BRANCH  52  53
ATOM     53  C   UNL A   1      42.749  26.615  28.511  1.00  0.00     0.031 A 
ATOM     54  C   UNL A   1      42.064  27.724  29.262  1.00  0.00     0.074 A 
ATOM     55  C   UNL A   1      44.082  26.655  28.311  1.00  0.00     0.049 A 
ATOM     56  N   UNL A   1      42.575  28.807  29.787  1.00  0.00    -0.248 NA
ATOM     57  C   UNL A   1      40.604  27.615  29.419  1.00  0.00     0.031 C 
ATOM     58  C   UNL A   1      44.854  25.661  27.562  1.00  0.00     0.029 A 
ATOM     59  N   UNL A   1      45.023  27.570  28.712  1.00  0.00    -0.354 N 
ATOM     60  C   UNL A   1      41.505  29.509  30.327  1.00  0.00     0.074 A 
ATOM     61  C   UNL A   1      40.308  28.762  30.011  1.00  0.00     0.031 C 
ATOM     62  C   UNL A   1      46.151  26.007  27.579  1.00  0.00     0.029 A 
ATOM     63  C   UNL A   1      46.300  27.266  28.302  1.00  0.00     0.049 A 
ATOM     64  H   UNL A   1      44.804  28.368  29.243  1.00  0.00     0.167 HD
ATOM     65  C   UNL A   1      41.520  30.659  31.043  1.00  0.00     0.037 A 
ATOM     66  C   UNL A   1      47.458  27.932  28.481  1.00  0.00     0.037 A 
ATOM     67  C   UNL A   1      42.719  31.387  31.366  1.00  0.00     0.049 A 
ATOM     68  C   UNL A   1      47.448  29.219  29.261  1.00  0.00     0.074 A 
ATOM     69  C   UNL A   1      42.850  32.533  32.130  1.00  0.00     0.029 A 
ATOM     70  N   UNL A   1      43.994  31.044  30.938  1.00  0.00    -0.354 N 
ATOM     71  N   UNL A   1      46.434  29.835  29.821  1.00  0.00    -0.248 NA
ATOM     72  C   UNL A   1      48.739  29.899  29.439  1.00  0.00     0.031 C 
ATOM     73  C   UNL A   1      44.196  32.915  32.119  1.00  0.00     0.029 A 
ATOM     74  C   UNL A   1      44.914  31.973  31.399  1.00  0.00     0.049 A 
ATOM     75  H   UNL A   1      44.214  30.258  30.389  1.00  0.00     0.167 HD
ATOM     76  C   UNL A   1      46.969  30.960  30.442  1.00  0.00     0.074 A 
ATOM     77  C   UNL A   1      48.396  30.932  30.197  1.00  0.00     0.031 C 
ATOM     78  C   UNL A   1      46.334  31.928  31.151  1.00  0.00     0.037 A 
BRANCH  65  79
ATOM     79  C   UNL A   1      40.200  31.198  31.524  1.00  0.00     0.058 A 
ATOM     80  C   UNL A   1      39.534  32.235  30.850  1.00  0.00     0.135 A 
ATOM     81  C   UNL A   1      39.576  30.655  32.660  1.00  0.00     0.135 A 
ATOM     82  F   UNL A   1      40.089  32.802  29.766  1.00  0.00    -0.206 F 
ATOM     83  C   UNL A   1      38.320  32.740  31.304  1.00  0.00     0.059 A 
ATOM     84  C   UNL A   1      38.346  31.123  33.114  1.00  0.00     0.059 A 
ATOM     85  F   UNL A   1      40.165  29.662  33.345  1.00  0.00    -0.206 F 
ATOM     86  C   UNL A   1      37.734  32.177  32.438  1.00  0.00     0.060 A 
BRANCH  86  87
ATOM     87  S   UNL A   1      36.160  32.847  33.016  1.00  0.00     0.124 S 
ATOM     88  O   UNL A   1      36.236  32.573  34.447  1.00  0.00    -0.237 OA
ATOM     89  O   UNL A   1      36.260  34.251  32.632  1.00  0.00    -0.237 OA
ATOM     90  O   UNL A   1      35.168  32.068  32.281  1.00  0.00    -0.744 OA
ENDBRANCH  86  87
ENDBRANCH  65  79
BRANCH  66  91
ATOM     91  C   UNL A   1      48.725  27.380  27.927  1.00  0.00     0.058 A 
ATOM     92  C   UNL A   1      49.154  27.716  26.635  1.00  0.00     0.135 A 
ATOM     93  C   UNL A   1      49.539  26.524  28.683  1.00  0.00     0.135 A 
ATOM     94  F   UNL A   1      48.406  28.526  25.869  1.00  0.00    -0.206 F 
ATOM     95  C   UNL A   1      50.339  27.213  26.105  1.00  0.00     0.059 A 
ATOM     96  C   UNL A   1      50.743  26.031  28.187  1.00  0.00     0.059 A 
ATOM     97  F   UNL A   1      49.183  26.183  29.932  1.00  0.00    -0.206 F 
ATOM     98  C   UNL A   1      51.130  26.375  26.893  1.00  0.00     0.060 A 
BRANCH  98  99
ATOM     99  S   UNL A   1      52.692  25.773  26.216  1.00  0.00     0.124 S 
ATOM    100  O   UNL A   1      53.581  25.908  27.363  1.00  0.00    -0.237 OA
ATOM    101  O   UNL A   1      52.350  24.408  25.829  1.00  0.00    -0.237 OA
ATOM    102  O   UNL A   1      52.949  26.686  25.105  1.00  0.00    -0.744 OA
ENDBRANCH  98  99
ENDBRANCH  66  91
BRANCH  78 103
ATOM    103  C   UNL A   1      47.180  33.021  31.746  1.00  0.00     0.058 A 
ATOM    104  C   UNL A   1      47.766  32.896  33.014  1.00  0.00     0.135 A 
ATOM    105  C   UNL A   1      47.459  34.182  31.007  1.00  0.00     0.135 A 
ATOM    106  F   UNL A   1      47.525  31.810  33.766  1.00  0.00    -0.206 F 
ATOM    107  C   UNL A   1      48.583  33.892  33.539  1.00  0.00     0.059 A 
ATOM    108  C   UNL A   1      48.297  35.178  31.498  1.00  0.00     0.059 A 
ATOM    109  F   UNL A   1      46.932  34.348  29.782  1.00  0.00    -0.206 F 
ATOM    110  C   UNL A   1      48.847  35.028  32.770  1.00  0.00     0.060 A 
BRANCH 110 111
ATOM    111  S   UNL A   1      49.945  36.292  33.445  1.00  0.00     0.124 S 
ATOM    112  O   UNL A   1      49.139  37.497  33.287  1.00  0.00    -0.237 OA
ATOM    113  O   UNL A   1      50.139  35.835  34.818  1.00  0.00    -0.237 OA
ATOM    114  O   UNL A   1      51.126  36.209  32.591  1.00  0.00    -0.744 OA
ENDBRANCH 110 111
ENDBRANCH  78 103
ENDBRANCH  52  53
ENDBRANCH  44  47
ENDBRANCH  42  43
ENDBRANCH  41  42
ENDBRANCH  40  41
ENDBRANCH   1  40
TORSDOF 21
ENDMDL
MODEL 2
REMARK VINA RESULT:     -11.1      3.818      7.024
REMARK SMILES COc1ccc2[nH]cc([C@H](C(=O)NCCCCCCNC(=O)c3ccc(-c4c5nc(c(-c6c(F)cc(S(=O)(=O)[O-])cc6F)c6ccc([nH]6)c(-c6c(F)cc(S(=O)(=O)[O-])cc6F)c6nc(c(-c7c(F)cc(S(=O)(=O)[O-])cc7F)c7ccc4[nH]7)C=C6)C=C5)cc3)[NH+]3CC[NH+](Cc4cccc5ccccc45)CC3)c2c1
REMARK SMILES IDX 16 1 15 2 14 3 13 4 11 5 12 6 10 8 9 9 3 10 4 11 107 12 5 13
REMARK SMILES IDX 106 14 6 15 7 16 8 17 2 19 1 20 89 21 90 22 105 23 91 25
REMARK SMILES IDX 104 26 92 27 93 29 94 30 95 31 103 32 96 33 98 34 102 35
REMARK SMILES IDX 97 36 99 37 101 38 100 39 17 40 18 41 19 42 20 43 21 44
REMARK SMILES IDX 22 46 23 47 24 48 88 49 25 50 87 51 26 52 27 53 28 54 81 55
REMARK SMILES IDX 29 56 86 57 80 58 82 59 30 60 85 61 79 62 78 63 31 65 65 66
REMARK SMILES IDX 44 67 64 68 45 69 48 70 63 71 83 72 46 73 47 74 62 76 84 77
REMARK SMILES IDX 49 78 32 79 33 80 42 81 34 82 35 83 41 84 43 85 36 86 37 87
REMARK SMILES IDX 38 88 39 89 40 90 66 91 67 92 76 93 68 94 69 95 75 96 77 97
REMARK SMILES IDX 70 98 71 99 72 100 73 101 74 102 50 103 51 104 60 105 52 106
REMARK SMILES IDX 53 107 59 108 61 109 54 110 55 111 56 112 57 113 58 114
REMARK H PARENT 13 7 7 18 89 24 92 28 20 45 82 64 48 75
REMARK Flexibility Score: inf
ROOT
ATOM      1  C   UNL A   1      31.836  28.659  26.306  1.00  0.00     0.002 C 
ENDROOT
BRANCH   1   2
ATOM      2  C   UNL A   1      31.238  27.272  26.566  1.00  0.00     0.021 C 
BRANCH   2   3
ATOM      3  C   UNL A   1      32.173  26.070  26.320  1.00  0.00     0.116 C 
BRANCH   3   4
ATOM      4  N   UNL A   1      31.518  24.880  25.785  1.00  0.00    -0.351 N 
ATOM      5  C   UNL A   1      31.573  24.169  24.610  1.00  0.00     0.283 C 
ATOM      6  O   UNL A   1      30.916  23.125  24.654  1.00  0.00    -0.268 OA
ATOM      7  H   UNL A   1      30.878  24.492  26.424  1.00  0.00     0.163 HD
BRANCH   5   8
ATOM      8  C   UNL A   1      32.372  24.649  23.361  1.00  0.00     0.308 C 
BRANCH   8   9
ATOM      9  C   UNL A   1      32.185  26.084  22.869  1.00  0.00     0.045 A 
ATOM     10  C   UNL A   1      28.830  27.941  23.245  1.00  0.00     0.119 A 
ATOM     11  C   UNL A   1      29.303  29.198  22.902  1.00  0.00     0.048 A 
ATOM     12  C   UNL A   1      29.686  26.838  23.295  1.00  0.00     0.057 A 
ATOM     13  C   UNL A   1      30.642  29.374  22.550  1.00  0.00     0.030 A 
ATOM     14  C   UNL A   1      31.039  26.964  22.908  1.00  0.00     0.013 A 
ATOM     15  C   UNL A   1      31.478  28.245  22.550  1.00  0.00     0.046 A 
ATOM     16  N   UNL A   1      32.819  28.155  22.276  1.00  0.00    -0.361 N 
ATOM     17  C   UNL A   1      33.252  26.873  22.448  1.00  0.00     0.094 A 
ATOM     18  H   UNL A   1      33.388  28.909  21.995  1.00  0.00     0.166 HD
BRANCH  10  19
ATOM     19  O   UNL A   1      27.528  27.745  23.626  1.00  0.00    -0.497 OA
ATOM     20  C   UNL A   1      26.721  28.860  23.249  1.00  0.00     0.278 C 
ENDBRANCH  10  19
ENDBRANCH   8   9
BRANCH   8  21
ATOM     21  N   UNL A   1      33.820  24.388  23.427  1.00  0.00    -0.312 N 
ATOM     22  C   UNL A   1      34.679  24.772  24.544  1.00  0.00     0.325 C 
ATOM     23  C   UNL A   1      34.275  23.187  22.782  1.00  0.00     0.325 C 
ATOM     24  H   UNL A   1      33.985  25.219  22.859  1.00  0.00     0.349 HD
ATOM     25  C   UNL A   1      35.364  23.637  25.369  1.00  0.00     0.324 C 
ATOM     26  C   UNL A   1      34.559  22.036  23.774  1.00  0.00     0.324 C 
ATOM     27  N   UNL A   1      35.627  22.340  24.727  1.00  0.00    -0.322 N 
ATOM     28  H   UNL A   1      35.604  21.659  25.485  1.00  0.00     0.348 HD
BRANCH  27  29
ATOM     29  C   UNL A   1      36.995  22.070  24.237  1.00  0.00     0.300 C 
BRANCH  29  30
ATOM     30  C   UNL A   1      37.963  21.402  25.208  1.00  0.00     0.014 A 
ATOM     31  C   UNL A   1      38.212  20.018  25.047  1.00  0.00     0.010 A 
ATOM     32  C   UNL A   1      38.776  22.156  26.094  1.00  0.00    -0.010 A 
ATOM     33  C   UNL A   1      39.338  19.427  25.613  1.00  0.00     0.001 A 
ATOM     34  C   UNL A   1      39.967  21.565  26.587  1.00  0.00    -0.018 A 
ATOM     35  C   UNL A   1      38.494  23.487  26.467  1.00  0.00     0.009 A 
ATOM     36  C   UNL A   1      40.236  20.209  26.334  1.00  0.00     0.009 A 
ATOM     37  C   UNL A   1      40.892  22.354  27.289  1.00  0.00     0.009 A 
ATOM     38  C   UNL A   1      39.397  24.240  27.220  1.00  0.00     0.001 A 
ATOM     39  C   UNL A   1      40.612  23.686  27.596  1.00  0.00     0.001 A 
ENDBRANCH  29  30
ENDBRANCH  27  29
ENDBRANCH   8  21
ENDBRANCH   5   8
ENDBRANCH   3   4
ENDBRANCH   2   3
ENDBRANCH   1   2
BRANCH   1  40
ATOM     40  C   UNL A   1      33.321  28.634  25.956  1.00  0.00     0.002 C 
BRANCH  40  41
ATOM     41  C   UNL A   1      34.259  28.691  27.166  1.00  0.00     0.021 C 
BRANCH  41  42
ATOM     42  C   UNL A   1      35.282  29.823  27.115  1.00  0.00     0.116 C 
BRANCH  42  43
ATOM     43  N   UNL A   1      34.866  30.937  27.954  1.00  0.00    -0.352 N 
ATOM     44  C   UNL A   1      35.409  31.321  29.158  1.00  0.00     0.251 C 
ATOM     45  H   UNL A   1      34.111  31.475  27.623  1.00  0.00     0.163 HD
ATOM     46  O   UNL A   1      34.798  32.056  29.921  1.00  0.00    -0.269 OA
BRANCH  44  47
ATOM     47  C   UNL A   1      36.754  30.817  29.508  1.00  0.00     0.039 A 
ATOM     48  C   UNL A   1      37.885  31.506  29.070  1.00  0.00     0.014 A 
ATOM     49  C   UNL A   1      36.876  29.684  30.319  1.00  0.00     0.014 A 
ATOM     50  C   UNL A   1      39.148  31.083  29.490  1.00  0.00     0.010 A 
ATOM     51  C   UNL A   1      38.129  29.310  30.793  1.00  0.00     0.010 A 
ATOM     52  C   UNL A   1      39.277  29.999  30.378  1.00  0.00    -0.014 A 
BRANCH  52  53
ATOM     53  C   UNL A   1      40.607  29.565  30.877  1.00  0.00     0.031 A 
ATOM     54  C   UNL A   1      41.199  30.215  32.097  1.00  0.00     0.074 A 
ATOM     55  C   UNL A   1      41.306  28.633  30.198  1.00  0.00     0.049 A 
ATOM     56  N   UNL A   1      42.369  30.024  32.651  1.00  0.00    -0.248 NA
ATOM     57  C   UNL A   1      40.379  31.236  32.770  1.00  0.00     0.031 C 
ATOM     58  C   UNL A   1      40.855  27.963  28.975  1.00  0.00     0.029 A 
ATOM     59  N   UNL A   1      42.547  28.095  30.431  1.00  0.00    -0.354 N 
ATOM     60  C   UNL A   1      42.428  30.902  33.725  1.00  0.00     0.074 A 
ATOM     61  C   UNL A   1      41.203  31.672  33.710  1.00  0.00     0.031 C 
ATOM     62  C   UNL A   1      41.794  27.087  28.583  1.00  0.00     0.029 A 
ATOM     63  C   UNL A   1      42.929  27.161  29.497  1.00  0.00     0.049 A 
ATOM     64  H   UNL A   1      43.108  28.353  31.197  1.00  0.00     0.167 HD
ATOM     65  C   UNL A   1      43.402  31.039  34.656  1.00  0.00     0.037 A 
ATOM     66  C   UNL A   1      44.070  26.452  29.385  1.00  0.00     0.037 A 
ATOM     67  C   UNL A   1      44.611  30.257  34.673  1.00  0.00     0.049 A 
ATOM     68  C   UNL A   1      45.149  26.635  30.419  1.00  0.00     0.074 A 
ATOM     69  C   UNL A   1      45.637  30.279  35.600  1.00  0.00     0.029 A 
ATOM     70  N   UNL A   1      44.960  29.317  33.713  1.00  0.00    -0.354 N 
ATOM     71  N   UNL A   1      45.160  27.425  31.467  1.00  0.00    -0.248 NA
ATOM     72  C   UNL A   1      46.367  25.829  30.260  1.00  0.00     0.031 C 
ATOM     73  C   UNL A   1      46.632  29.392  35.173  1.00  0.00     0.029 A 
ATOM     74  C   UNL A   1      46.199  28.772  34.012  1.00  0.00     0.049 A 
ATOM     75  H   UNL A   1      44.409  29.072  32.936  1.00  0.00     0.167 HD
ATOM     76  C   UNL A   1      46.373  27.189  32.108  1.00  0.00     0.074 A 
ATOM     77  C   UNL A   1      47.062  26.176  31.334  1.00  0.00     0.031 C 
ATOM     78  C   UNL A   1      46.870  27.759  33.234  1.00  0.00     0.037 A 
BRANCH  65  79
ATOM     79  C   UNL A   1      43.199  32.071  35.732  1.00  0.00     0.058 A 
ATOM     80  C   UNL A   1      42.571  31.758  36.950  1.00  0.00     0.135 A 
ATOM     81  C   UNL A   1      43.660  33.387  35.558  1.00  0.00     0.135 A 
ATOM     82  F   UNL A   1      42.097  30.521  37.167  1.00  0.00    -0.206 F 
ATOM     83  C   UNL A   1      42.373  32.718  37.937  1.00  0.00     0.059 A 
ATOM     84  C   UNL A   1      43.502  34.355  36.545  1.00  0.00     0.059 A 
ATOM     85  F   UNL A   1      44.269  33.744  34.415  1.00  0.00    -0.206 F 
ATOM     86  C   UNL A   1      42.843  34.015  37.725  1.00  0.00     0.060 A 
BRANCH  86  87
ATOM     87  S   UNL A   1      42.574  35.248  39.015  1.00  0.00     0.124 S 
ATOM     88  O   UNL A   1      42.662  36.490  38.253  1.00  0.00    -0.237 OA
ATOM     89  O   UNL A   1      41.246  34.900  39.508  1.00  0.00    -0.237 OA
ATOM     90  O   UNL A   1      43.669  35.008  39.950  1.00  0.00    -0.744 OA
ENDBRANCH  86  87
ENDBRANCH  65  79
BRANCH  66  91
ATOM     91  C   UNL A   1      44.239  25.490  28.263  1.00  0.00     0.058 A 
ATOM     92  C   UNL A   1      44.084  24.111  28.466  1.00  0.00     0.135 A 
ATOM     93  C   UNL A   1      44.540  25.928  26.965  1.00  0.00     0.135 A 
ATOM     94  F   UNL A   1      43.803  23.640  29.692  1.00  0.00    -0.206 F 
ATOM     95  C   UNL A   1      44.233  23.198  27.426  1.00  0.00     0.059 A 
ATOM     96  C   UNL A   1      44.666  25.039  25.902  1.00  0.00     0.059 A 
ATOM     97  F   UNL A   1      44.683  27.239  26.712  1.00  0.00    -0.206 F 
ATOM     98  C   UNL A   1      44.519  23.673  26.145  1.00  0.00     0.060 A 
BRANCH  98  99
ATOM     99  S   UNL A   1      44.656  22.485  24.792  1.00  0.00     0.124 S 
ATOM    100  O   UNL A   1      45.363  23.266  23.785  1.00  0.00    -0.237 OA
ATOM    101  O   UNL A   1      45.416  21.404  25.412  1.00  0.00    -0.237 OA
ATOM    102  O   UNL A   1      43.265  22.166  24.484  1.00  0.00    -0.744 OA
ENDBRANCH  98  99
ENDBRANCH  66  91
BRANCH  78 103
ATOM    103  C   UNL A   1      48.210  27.280  33.723  1.00  0.00     0.058 A 
ATOM    104  C   UNL A   1      49.404  27.910  33.343  1.00  0.00     0.135 A 
ATOM    105  C   UNL A   1      48.292  26.216  34.635  1.00  0.00     0.135 A 
ATOM    106  F   UNL A   1      49.383  28.927  32.466  1.00  0.00    -0.206 F 
ATOM    107  C   UNL A   1      50.636  27.490  33.834  1.00  0.00     0.059 A 
ATOM    108  C   UNL A   1      49.510  25.798  35.164  1.00  0.00     0.059 A 
ATOM    109  F   UNL A   1      47.178  25.584  35.041  1.00  0.00    -0.206 F 
ATOM    110  C   UNL A   1      50.677  26.435  34.749  1.00  0.00     0.060 A 
BRANCH 110 111
ATOM    111  S   UNL A   1      52.279  25.929  35.412  1.00  0.00     0.124 S 
ATOM    112  O   UNL A   1      51.894  25.325  36.682  1.00  0.00    -0.237 OA
ATOM    113  O   UNL A   1      52.761  25.006  34.390  1.00  0.00    -0.237 OA
ATOM    114  O   UNL A   1      53.018  27.184  35.511  1.00  0.00    -0.744 OA
ENDBRANCH 110 111
ENDBRANCH  78 103
ENDBRANCH  52  53
ENDBRANCH  44  47
ENDBRANCH  42  43
ENDBRANCH  41  42
ENDBRANCH  40  41
ENDBRANCH   1  40
TORSDOF 21
ENDMDL
MODEL 3
REMARK VINA RESULT:     -11.0      4.358     10.707
REMARK SMILES COc1ccc2[nH]cc([C@H](C(=O)NCCCCCCNC(=O)c3ccc(-c4c5nc(c(-c6c(F)cc(S(=O)(=O)[O-])cc6F)c6ccc([nH]6)c(-c6c(F)cc(S(=O)(=O)[O-])cc6F)c6nc(c(-c7c(F)cc(S(=O)(=O)[O-])cc7F)c7ccc4[nH]7)C=C6)C=C5)cc3)[NH+]3CC[NH+](Cc4cccc5ccccc45)CC3)c2c1
REMARK SMILES IDX 16 1 15 2 14 3 13 4 11 5 12 6 10 8 9 9 3 10 4 11 107 12 5 13
REMARK SMILES IDX 106 14 6 15 7 16 8 17 2 19 1 20 89 21 90 22 105 23 91 25
REMARK SMILES IDX 104 26 92 27 93 29 94 30 95 31 103 32 96 33 98 34 102 35
REMARK SMILES IDX 97 36 99 37 101 38 100 39 17 40 18 41 19 42 20 43 21 44
REMARK SMILES IDX 22 46 23 47 24 48 88 49 25 50 87 51 26 52 27 53 28 54 81 55
REMARK SMILES IDX 29 56 86 57 80 58 82 59 30 60 85 61 79 62 78 63 31 65 65 66
REMARK SMILES IDX 44 67 64 68 45 69 48 70 63 71 83 72 46 73 47 74 62 76 84 77
REMARK SMILES IDX 49 78 32 79 33 80 42 81 34 82 35 83 41 84 43 85 36 86 37 87
REMARK SMILES IDX 38 88 39 89 40 90 66 91 67 92 76 93 68 94 69 95 75 96 77 97
REMARK SMILES IDX 70 98 71 99 72 100 73 101 74 102 50 103 51 104 60 105 52 106
REMARK SMILES IDX 53 107 59 108 61 109 54 110 55 111 56 112 57 113 58 114
REMARK H PARENT 13 7 7 18 89 24 92 28 20 45 82 64 48 75
REMARK Flexibility Score: inf
ROOT
ATOM      1  C   UNL A   1      36.959  32.224  31.338  1.00  0.00     0.002 C 
ENDROOT
BRANCH   1   2
ATOM      2  C   UNL A   1      36.466  32.149  32.789  1.00  0.00     0.021 C 
BRANCH   2   3
ATOM      3  C   UNL A   1      37.530  32.381  33.881  1.00  0.00     0.116 C 
BRANCH   3   4
ATOM      4  N   UNL A   1      38.585  33.324  33.522  1.00  0.00    -0.351 N 
ATOM      5  C   UNL A   1      39.869  33.573  33.944  1.00  0.00     0.283 C 
ATOM      6  O   UNL A   1      40.447  34.409  33.242  1.00  0.00    -0.268 OA
ATOM      7  H   UNL A   1      38.307  33.933  32.800  1.00  0.00     0.163 HD
BRANCH   5   8
ATOM      8  C   UNL A   1      40.509  32.877  35.183  1.00  0.00     0.308 C 
BRANCH   8   9
ATOM      9  C   UNL A   1      39.616  32.508  36.366  1.00  0.00     0.045 A 
ATOM     10  C   UNL A   1      39.229  34.823  39.422  1.00  0.00     0.119 A 
ATOM     11  C   UNL A   1      38.164  34.150  40.001  1.00  0.00     0.048 A 
ATOM     12  C   UNL A   1      39.780  34.395  38.212  1.00  0.00     0.057 A 
ATOM     13  C   UNL A   1      37.654  32.996  39.403  1.00  0.00     0.030 A 
ATOM     14  C   UNL A   1      39.321  33.211  37.595  1.00  0.00     0.013 A 
ATOM     15  C   UNL A   1      38.256  32.546  38.217  1.00  0.00     0.046 A 
ATOM     16  N   UNL A   1      37.929  31.472  37.428  1.00  0.00    -0.361 N 
ATOM     17  C   UNL A   1      38.738  31.428  36.331  1.00  0.00     0.094 A 
ATOM     18  H   UNL A   1      37.213  30.825  37.626  1.00  0.00     0.166 HD
BRANCH  10  19
ATOM     19  O   UNL A   1      39.728  35.976  39.969  1.00  0.00    -0.497 OA
ATOM     20  C   UNL A   1      39.180  37.121  39.317  1.00  0.00     0.278 C 
ENDBRANCH  10  19
ENDBRANCH   8   9
BRANCH   8  21
ATOM     21  N   UNL A   1      41.331  31.698  34.862  1.00  0.00    -0.312 N 
ATOM     22  C   UNL A   1      41.991  30.855  35.856  1.00  0.00     0.325 C 
ATOM     23  C   UNL A   1      40.942  30.956  33.695  1.00  0.00     0.325 C 
ATOM     24  H   UNL A   1      42.124  32.314  34.683  1.00  0.00     0.349 HD
ATOM     25  C   UNL A   1      41.536  29.367  35.976  1.00  0.00     0.324 C 
ATOM     26  C   UNL A   1      40.164  29.663  34.030  1.00  0.00     0.324 C 
ATOM     27  N   UNL A   1      40.945  28.699  34.806  1.00  0.00    -0.322 N 
ATOM     28  H   UNL A   1      40.319  27.993  35.191  1.00  0.00     0.348 HD
BRANCH  27  29
ATOM     29  C   UNL A   1      41.809  27.807  34.004  1.00  0.00     0.300 C 
BRANCH  29  30
ATOM     30  C   UNL A   1      42.229  26.487  34.643  1.00  0.00     0.014 A 
ATOM     31  C   UNL A   1      41.476  26.016  35.744  1.00  0.00     0.010 A 
ATOM     32  C   UNL A   1      43.180  25.629  34.032  1.00  0.00    -0.010 A 
ATOM     33  C   UNL A   1      41.537  24.679  36.128  1.00  0.00     0.001 A 
ATOM     34  C   UNL A   1      43.164  24.252  34.371  1.00  0.00    -0.018 A 
ATOM     35  C   UNL A   1      44.108  26.059  33.060  1.00  0.00     0.009 A 
ATOM     36  C   UNL A   1      42.336  23.794  35.410  1.00  0.00     0.009 A 
ATOM     37  C   UNL A   1      43.944  23.348  33.633  1.00  0.00     0.009 A 
ATOM     38  C   UNL A   1      44.923  25.155  32.379  1.00  0.00     0.001 A 
ATOM     39  C   UNL A   1      44.811  23.796  32.637  1.00  0.00     0.001 A 
ENDBRANCH  29  30
ENDBRANCH  27  29
ENDBRANCH   8  21
ENDBRANCH   5   8
ENDBRANCH   3   4
ENDBRANCH   2   3
ENDBRANCH   1   2
BRANCH   1  40
ATOM     40  C   UNL A   1      36.115  33.131  30.448  1.00  0.00     0.002 C 
BRANCH  40  41
ATOM     41  C   UNL A   1      34.739  32.562  30.085  1.00  0.00     0.021 C 
BRANCH  41  42
ATOM     42  C   UNL A   1      34.510  32.378  28.587  1.00  0.00     0.116 C 
BRANCH  42  43
ATOM     43  N   UNL A   1      33.870  31.101  28.311  1.00  0.00    -0.352 N 
ATOM     44  C   UNL A   1      34.485  29.909  28.009  1.00  0.00     0.251 C 
ATOM     45  H   UNL A   1      32.886  31.090  28.345  1.00  0.00     0.163 HD
ATOM     46  O   UNL A   1      33.864  28.991  27.491  1.00  0.00    -0.269 OA
BRANCH  44  47
ATOM     47  C   UNL A   1      35.923  29.768  28.322  1.00  0.00     0.039 A 
ATOM     48  C   UNL A   1      36.312  29.271  29.566  1.00  0.00     0.014 A 
ATOM     49  C   UNL A   1      36.875  30.085  27.349  1.00  0.00     0.014 A 
ATOM     50  C   UNL A   1      37.667  29.044  29.817  1.00  0.00     0.010 A 
ATOM     51  C   UNL A   1      38.215  29.790  27.576  1.00  0.00     0.010 A 
ATOM     52  C   UNL A   1      38.626  29.274  28.814  1.00  0.00    -0.014 A 
BRANCH  52  53
ATOM     53  C   UNL A   1      40.066  28.992  29.042  1.00  0.00     0.031 A 
ATOM     54  C   UNL A   1      40.962  30.064  29.598  1.00  0.00     0.074 A 
ATOM     55  C   UNL A   1      40.578  27.795  28.691  1.00  0.00     0.049 A 
ATOM     56  N   UNL A   1      42.253  30.037  29.808  1.00  0.00    -0.248 NA
ATOM     57  C   UNL A   1      40.328  31.349  29.939  1.00  0.00     0.031 C 
ATOM     58  C   UNL A   1      39.817  26.691  28.101  1.00  0.00     0.029 A 
ATOM     59  N   UNL A   1      41.859  27.309  28.769  1.00  0.00    -0.354 N 
ATOM     60  C   UNL A   1      42.585  31.295  30.294  1.00  0.00     0.074 A 
ATOM     61  C   UNL A   1      41.372  32.084  30.289  1.00  0.00     0.031 C 
ATOM     62  C   UNL A   1      40.641  25.650  27.895  1.00  0.00     0.029 A 
ATOM     63  C   UNL A   1      41.993  26.024  28.297  1.00  0.00     0.049 A 
ATOM     64  H   UNL A   1      42.610  27.831  29.130  1.00  0.00     0.167 HD
ATOM     65  C   UNL A   1      43.786  31.746  30.729  1.00  0.00     0.037 A 
ATOM     66  C   UNL A   1      43.084  25.240  28.192  1.00  0.00     0.037 A 
ATOM     67  C   UNL A   1      44.985  30.949  30.745  1.00  0.00     0.049 A 
ATOM     68  C   UNL A   1      44.413  25.769  28.662  1.00  0.00     0.074 A 
ATOM     69  C   UNL A   1      46.240  31.292  31.214  1.00  0.00     0.029 A 
ATOM     70  N   UNL A   1      45.079  29.650  30.264  1.00  0.00    -0.354 N 
ATOM     71  N   UNL A   1      44.696  26.941  29.180  1.00  0.00    -0.248 NA
ATOM     72  C   UNL A   1      45.568  24.870  28.538  1.00  0.00     0.031 C 
ATOM     73  C   UNL A   1      47.107  30.222  30.968  1.00  0.00     0.029 A 
ATOM     74  C   UNL A   1      46.378  29.188  30.400  1.00  0.00     0.049 A 
ATOM     75  H   UNL A   1      44.333  29.133  29.884  1.00  0.00     0.167 HD
ATOM     76  C   UNL A   1      46.057  26.909  29.470  1.00  0.00     0.074 A 
ATOM     77  C   UNL A   1      46.535  25.599  29.079  1.00  0.00     0.031 C 
ATOM     78  C   UNL A   1      46.838  27.877  30.012  1.00  0.00     0.037 A 
BRANCH  65  79
ATOM     79  C   UNL A   1      43.860  33.167  31.222  1.00  0.00     0.058 A 
ATOM     80  C   UNL A   1      43.882  34.257  30.336  1.00  0.00     0.135 A 
ATOM     81  C   UNL A   1      43.884  33.446  32.598  1.00  0.00     0.135 A 
ATOM     82  F   UNL A   1      43.875  34.051  29.009  1.00  0.00    -0.206 F 
ATOM     83  C   UNL A   1      43.964  35.568  30.795  1.00  0.00     0.059 A 
ATOM     84  C   UNL A   1      43.933  34.751  33.080  1.00  0.00     0.059 A 
ATOM     85  F   UNL A   1      43.865  32.444  33.492  1.00  0.00    -0.206 F 
ATOM     86  C   UNL A   1      43.990  35.804  32.170  1.00  0.00     0.060 A 
BRANCH  86  87
ATOM     87  S   UNL A   1      44.099  37.512  32.747  1.00  0.00     0.124 S 
ATOM     88  O   UNL A   1      42.995  37.567  33.699  1.00  0.00    -0.237 OA
ATOM     89  O   UNL A   1      45.438  37.559  33.325  1.00  0.00    -0.237 OA
ATOM     90  O   UNL A   1      43.917  38.295  31.529  1.00  0.00    -0.744 OA
ENDBRANCH  86  87
ENDBRANCH  65  79
BRANCH  66  91
ATOM     91  C   UNL A   1      42.959  23.865  27.638  1.00  0.00     0.058 A 
ATOM     92  C   UNL A   1      42.687  22.772  28.474  1.00  0.00     0.135 A 
ATOM     93  C   UNL A   1      43.091  23.617  26.263  1.00  0.00     0.135 A 
ATOM     94  F   UNL A   1      42.559  22.955  29.797  1.00  0.00    -0.206 F 
ATOM     95  C   UNL A   1      42.562  21.480  27.970  1.00  0.00     0.059 A 
ATOM     96  C   UNL A   1      42.942  22.340  25.731  1.00  0.00     0.059 A 
ATOM     97  F   UNL A   1      43.336  24.630  25.416  1.00  0.00    -0.206 F 
ATOM     98  C   UNL A   1      42.686  21.276  26.595  1.00  0.00     0.060 A 
BRANCH  98  99
ATOM     99  S   UNL A   1      42.467  19.605  25.946  1.00  0.00     0.124 S 
ATOM    100  O   UNL A   1      42.706  18.794  27.134  1.00  0.00    -0.237 OA
ATOM    101  O   UNL A   1      41.090  19.643  25.464  1.00  0.00    -0.237 OA
ATOM    102  O   UNL A   1      43.485  19.515  24.903  1.00  0.00    -0.744 OA
ENDBRANCH  98  99
ENDBRANCH  66  91
BRANCH  78 103
ATOM    103  C   UNL A   1      48.288  27.549  30.249  1.00  0.00     0.058 A 
ATOM    104  C   UNL A   1      48.712  26.863  31.396  1.00  0.00     0.135 A 
ATOM    105  C   UNL A   1      49.253  27.871  29.282  1.00  0.00     0.135 A 
ATOM    106  F   UNL A   1      47.831  26.540  32.356  1.00  0.00    -0.206 F 
ATOM    107  C   UNL A   1      50.048  26.524  31.587  1.00  0.00     0.059 A 
ATOM    108  C   UNL A   1      50.590  27.515  29.437  1.00  0.00     0.059 A 
ATOM    109  F   UNL A   1      48.899  28.519  28.160  1.00  0.00    -0.206 F 
ATOM    110  C   UNL A   1      50.979  26.850  30.598  1.00  0.00     0.060 A 
BRANCH 110 111
ATOM    111  S   UNL A   1      52.701  26.364  30.839  1.00  0.00     0.124 S 
ATOM    112  O   UNL A   1      53.248  27.540  31.507  1.00  0.00    -0.237 OA
ATOM    113  O   UNL A   1      52.574  25.167  31.665  1.00  0.00    -0.237 OA
ATOM    114  O   UNL A   1      53.183  26.132  29.481  1.00  0.00    -0.744 OA
ENDBRANCH 110 111
ENDBRANCH  78 103
ENDBRANCH  52  53
ENDBRANCH  44  47
ENDBRANCH  42  43
ENDBRANCH  41  42
ENDBRANCH  40  41
ENDBRANCH   1  40
TORSDOF 21
ENDMDL
