MODEL 1
REMARK VINA RESULT:     -11.2      0.000      0.000
REMARK SMILES COc1ccc(C(=O)/C=C/c2c(F)cccc2F)cc1CC(=O)NCCCCCCNC(=O)c1ccc(-c2c3nc(c(-c4c(F)cc(S(=O)(=O)[O-])cc4F)c4ccc([nH]4)c(-c4c(F)cc(S(=O)(=O)[O-])cc4F)c4nc(c(-c5c(F)cc(S(=O)(=O)[O-])cc5F)c5ccc2[nH]5)C=C4)C=C3)cc1
REMARK SMILES IDX 27 1 26 2 25 3 24 4 22 5 23 6 21 8 20 9 3 10 4 11 5 12 19 13
REMARK SMILES IDX 6 14 2 15 1 16 7 17 8 18 9 19 10 20 11 21 12 22 17 23 13 24
REMARK SMILES IDX 14 25 16 26 18 27 15 28 28 29 29 30 30 31 31 32 32 33 33 35
REMARK SMILES IDX 34 36 35 37 99 38 36 39 98 40 37 41 38 42 39 43 92 44 40 45
REMARK SMILES IDX 97 46 91 47 93 48 41 49 96 50 90 51 89 52 42 54 76 55 55 56
REMARK SMILES IDX 75 57 56 58 59 59 74 60 94 61 57 62 58 63 73 65 95 66 60 67
REMARK SMILES IDX 43 68 44 69 53 70 45 71 46 72 52 73 54 74 47 75 48 76 49 77
REMARK SMILES IDX 50 78 51 79 77 80 78 81 87 82 79 83 80 84 86 85 88 86 81 87
REMARK SMILES IDX 82 88 83 89 84 90 85 91 61 92 62 93 71 94 63 95 64 96 70 97
REMARK SMILES IDX 72 98 65 99 66 100 67 101 68 102 69 103
REMARK H PARENT 24 7 31 34 93 53 59 64
REMARK Flexibility Score: inf
ROOT
ATOM      1  C   UNL A   1      34.066  26.298  23.319  1.00  0.00     0.002 C 
ENDROOT
BRANCH   1   2
ATOM      2  C   UNL A   1      33.643  25.185  22.356  1.00  0.00     0.021 C 
BRANCH   2   3
ATOM      3  C   UNL A   1      32.338  25.498  21.627  1.00  0.00     0.116 C 
BRANCH   3   4
ATOM      4  N   UNL A   1      31.476  26.322  22.451  1.00  0.00    -0.356 N 
ATOM      5  C   UNL A   1      30.430  25.913  23.225  1.00  0.00     0.224 C 
ATOM      6  O   UNL A   1      29.718  26.753  23.777  1.00  0.00    -0.275 OA
ATOM      7  H   UNL A   1      31.667  27.287  22.452  1.00  0.00     0.163 HD
BRANCH   5   8
ATOM      8  C   UNL A   1      30.207  24.428  23.419  1.00  0.00     0.139 C 
BRANCH   8   9
ATOM      9  C   UNL A   1      30.996  23.806  24.549  1.00  0.00     0.004 A 
ATOM     10  C   UNL A   1      30.796  24.143  25.894  1.00  0.00     0.122 A 
ATOM     11  C   UNL A   1      31.551  23.527  26.895  1.00  0.00     0.047 A 
ATOM     12  C   UNL A   1      32.470  22.522  26.571  1.00  0.00     0.016 A 
ATOM     13  C   UNL A   1      31.973  22.842  24.241  1.00  0.00     0.020 A 
ATOM     14  C   UNL A   1      32.683  22.156  25.236  1.00  0.00     0.022 A 
BRANCH  10  15
ATOM     15  O   UNL A   1      30.030  25.216  26.267  1.00  0.00    -0.496 OA
ATOM     16  C   UNL A   1      28.770  24.843  26.816  1.00  0.00     0.278 C 
ENDBRANCH  10  15
BRANCH  14  17
ATOM     17  C   UNL A   1      33.699  21.100  24.934  1.00  0.00     0.185 C 
ATOM     18  O   UNL A   1      33.358  20.073  24.350  1.00  0.00    -0.289 OA
BRANCH  17  19
ATOM     19  C   UNL A   1      35.128  21.223  25.357  1.00  0.00     0.053 C 
ATOM     20  C   UNL A   1      35.990  22.146  24.909  1.00  0.00     0.018 C 
BRANCH  20  21
ATOM     21  C   UNL A   1      37.360  22.306  25.400  1.00  0.00     0.046 A 
ATOM     22  C   UNL A   1      38.263  21.238  25.344  1.00  0.00     0.133 A 
ATOM     23  C   UNL A   1      37.767  23.476  26.038  1.00  0.00     0.133 A 
ATOM     24  F   UNL A   1      37.920  20.095  24.732  1.00  0.00    -0.206 F 
ATOM     25  C   UNL A   1      39.521  21.319  25.941  1.00  0.00     0.040 A 
ATOM     26  C   UNL A   1      39.023  23.573  26.638  1.00  0.00     0.040 A 
ATOM     27  F   UNL A   1      36.935  24.524  26.120  1.00  0.00    -0.206 F 
ATOM     28  C   UNL A   1      39.899  22.488  26.601  1.00  0.00     0.006 A 
ENDBRANCH  20  21
ENDBRANCH  17  19
ENDBRANCH  14  17
ENDBRANCH   8   9
ENDBRANCH   5   8
ENDBRANCH   3   4
ENDBRANCH   2   3
ENDBRANCH   1   2
BRANCH   1  29
ATOM     29  C   UNL A   1      33.852  25.964  24.800  1.00  0.00     0.002 C 
BRANCH  29  30
ATOM     30  C   UNL A   1      33.114  27.047  25.592  1.00  0.00     0.021 C 
BRANCH  30  31
ATOM     31  C   UNL A   1      34.006  27.821  26.556  1.00  0.00     0.116 C 
BRANCH  31  32
ATOM     32  N   UNL A   1      33.666  29.236  26.572  1.00  0.00    -0.352 N 
ATOM     33  C   UNL A   1      34.234  30.255  27.292  1.00  0.00     0.251 C 
ATOM     34  H   UNL A   1      32.925  29.498  25.980  1.00  0.00     0.163 HD
ATOM     35  O   UNL A   1      33.666  31.338  27.376  1.00  0.00    -0.269 OA
BRANCH  33  36
ATOM     36  C   UNL A   1      35.526  30.031  27.975  1.00  0.00     0.039 A 
ATOM     37  C   UNL A   1      35.524  29.634  29.314  1.00  0.00     0.014 A 
ATOM     38  C   UNL A   1      36.733  30.220  27.295  1.00  0.00     0.014 A 
ATOM     39  C   UNL A   1      36.736  29.375  29.955  1.00  0.00     0.010 A 
ATOM     40  C   UNL A   1      37.934  29.889  27.914  1.00  0.00     0.010 A 
ATOM     41  C   UNL A   1      37.949  29.470  29.253  1.00  0.00    -0.014 A 
BRANCH  41  42
ATOM     42  C   UNL A   1      39.242  29.134  29.901  1.00  0.00     0.031 A 
ATOM     43  C   UNL A   1      39.725  29.933  31.081  1.00  0.00     0.074 A 
ATOM     44  C   UNL A   1      40.006  28.147  29.388  1.00  0.00     0.049 A 
ATOM     45  N   UNL A   1      40.851  29.831  31.740  1.00  0.00    -0.248 NA
ATOM     46  C   UNL A   1      38.842  31.004  31.573  1.00  0.00     0.031 C 
ATOM     47  C   UNL A   1      39.664  27.334  28.218  1.00  0.00     0.029 A 
ATOM     48  N   UNL A   1      41.232  27.667  29.775  1.00  0.00    -0.354 N 
ATOM     49  C   UNL A   1      40.820  30.832  32.705  1.00  0.00     0.074 A 
ATOM     50  C   UNL A   1      39.582  31.558  32.522  1.00  0.00     0.031 C 
ATOM     51  C   UNL A   1      40.644  26.442  27.998  1.00  0.00     0.029 A 
ATOM     52  C   UNL A   1      41.703  26.647  28.981  1.00  0.00     0.049 A 
ATOM     53  H   UNL A   1      41.727  28.017  30.550  1.00  0.00     0.167 HD
ATOM     54  C   UNL A   1      41.732  31.105  33.667  1.00  0.00     0.037 A 
ATOM     55  C   UNL A   1      42.863  25.964  29.032  1.00  0.00     0.037 A 
ATOM     56  C   UNL A   1      42.941  30.351  33.867  1.00  0.00     0.049 A 
ATOM     57  C   UNL A   1      43.858  26.294  30.114  1.00  0.00     0.074 A 
ATOM     58  C   UNL A   1      43.888  30.499  34.866  1.00  0.00     0.029 A 
ATOM     59  N   UNL A   1      43.374  29.314  33.056  1.00  0.00    -0.354 N 
ATOM     60  N   UNL A   1      43.771  27.188  31.070  1.00  0.00    -0.248 NA
ATOM     61  C   UNL A   1      45.108  25.521  30.128  1.00  0.00     0.031 C 
ATOM     62  C   UNL A   1      44.922  29.590  34.625  1.00  0.00     0.029 A 
ATOM     63  C   UNL A   1      44.590  28.833  33.512  1.00  0.00     0.049 A 
ATOM     64  H   UNL A   1      42.889  28.970  32.271  1.00  0.00     0.167 HD
ATOM     65  C   UNL A   1      44.936  27.056  31.820  1.00  0.00     0.074 A 
ATOM     66  C   UNL A   1      45.705  25.990  31.214  1.00  0.00     0.031 C 
ATOM     67  C   UNL A   1      45.333  27.756  32.912  1.00  0.00     0.037 A 
BRANCH  54  68
ATOM     68  C   UNL A   1      41.469  32.263  34.590  1.00  0.00     0.058 A 
ATOM     69  C   UNL A   1      41.872  33.569  34.271  1.00  0.00     0.135 A 
ATOM     70  C   UNL A   1      40.721  32.078  35.764  1.00  0.00     0.135 A 
ATOM     71  F   UNL A   1      42.604  33.802  33.171  1.00  0.00    -0.206 F 
ATOM     72  C   UNL A   1      41.546  34.650  35.085  1.00  0.00     0.059 A 
ATOM     73  C   UNL A   1      40.360  33.147  36.579  1.00  0.00     0.059 A 
ATOM     74  F   UNL A   1      40.314  30.848  36.119  1.00  0.00    -0.206 F 
ATOM     75  C   UNL A   1      40.780  34.430  36.231  1.00  0.00     0.060 A 
BRANCH  75  76
ATOM     76  S   UNL A   1      40.317  35.851  37.243  1.00  0.00     0.124 S 
ATOM     77  O   UNL A   1      39.871  36.800  36.227  1.00  0.00    -0.237 OA
ATOM     78  O   UNL A   1      39.270  35.298  38.095  1.00  0.00    -0.237 OA
ATOM     79  O   UNL A   1      41.557  36.203  37.926  1.00  0.00    -0.744 OA
ENDBRANCH  75  76
ENDBRANCH  54  68
BRANCH  55  80
ATOM     80  C   UNL A   1      43.159  24.896  28.036  1.00  0.00     0.058 A 
ATOM     81  C   UNL A   1      42.944  23.544  28.341  1.00  0.00     0.135 A 
ATOM     82  C   UNL A   1      43.698  25.202  26.776  1.00  0.00     0.135 A 
ATOM     83  F   UNL A   1      42.433  23.198  29.532  1.00  0.00    -0.206 F 
ATOM     84  C   UNL A   1      43.294  22.530  27.454  1.00  0.00     0.059 A 
ATOM     85  C   UNL A   1      44.025  24.208  25.859  1.00  0.00     0.059 A 
ATOM     86  F   UNL A   1      43.905  26.481  26.424  1.00  0.00    -0.206 F 
ATOM     87  C   UNL A   1      43.840  22.874  26.216  1.00  0.00     0.060 A 
BRANCH  87  88
ATOM     88  S   UNL A   1      44.296  21.553  25.072  1.00  0.00     0.124 S 
ATOM     89  O   UNL A   1      44.240  22.246  23.790  1.00  0.00    -0.237 OA
ATOM     90  O   UNL A   1      45.627  21.185  25.543  1.00  0.00    -0.237 OA
ATOM     91  O   UNL A   1      43.261  20.547  25.292  1.00  0.00    -0.744 OA
ENDBRANCH  87  88
ENDBRANCH  55  80
BRANCH  67  92
ATOM     92  C   UNL A   1      46.633  27.357  33.557  1.00  0.00     0.058 A 
ATOM     93  C   UNL A   1      47.850  27.963  33.210  1.00  0.00     0.135 A 
ATOM     94  C   UNL A   1      46.649  26.393  34.578  1.00  0.00     0.135 A 
ATOM     95  F   UNL A   1      47.893  28.887  32.236  1.00  0.00    -0.206 F 
ATOM     96  C   UNL A   1      49.041  27.607  33.833  1.00  0.00     0.059 A 
ATOM     97  C   UNL A   1      47.823  26.045  35.237  1.00  0.00     0.059 A 
ATOM     98  F   UNL A   1      45.510  25.791  34.957  1.00  0.00    -0.206 F 
ATOM     99  C   UNL A   1      49.017  26.649  34.848  1.00  0.00     0.060 A 
BRANCH  99 100
ATOM    100  S   UNL A   1      50.565  26.222  35.672  1.00  0.00     0.124 S 
ATOM    101  O   UNL A   1      51.370  27.413  35.421  1.00  0.00    -0.237 OA
ATOM    102  O   UNL A   1      50.139  26.023  37.053  1.00  0.00    -0.237 OA
ATOM    103  O   UNL A   1      50.999  25.014  34.976  1.00  0.00    -0.744 OA
ENDBRANCH  99 100
ENDBRANCH  67  92
ENDBRANCH  41  42
ENDBRANCH  33  36
ENDBRANCH  31  32
ENDBRANCH  30  31
ENDBRANCH  29  30
ENDBRANCH   1  29
TORSDOF 21
ENDMDL
MODEL 2
REMARK VINA RESULT:     -11.2      3.085      8.810
REMARK SMILES COc1ccc(C(=O)/C=C/c2c(F)cccc2F)cc1CC(=O)NCCCCCCNC(=O)c1ccc(-c2c3nc(c(-c4c(F)cc(S(=O)(=O)[O-])cc4F)c4ccc([nH]4)c(-c4c(F)cc(S(=O)(=O)[O-])cc4F)c4nc(c(-c5c(F)cc(S(=O)(=O)[O-])cc5F)c5ccc2[nH]5)C=C4)C=C3)cc1
REMARK SMILES IDX 27 1 26 2 25 3 24 4 22 5 23 6 21 8 20 9 3 10 4 11 5 12 19 13
REMARK SMILES IDX 6 14 2 15 1 16 7 17 8 18 9 19 10 20 11 21 12 22 17 23 13 24
REMARK SMILES IDX 14 25 16 26 18 27 15 28 28 29 29 30 30 31 31 32 32 33 33 35
REMARK SMILES IDX 34 36 35 37 99 38 36 39 98 40 37 41 38 42 39 43 92 44 40 45
REMARK SMILES IDX 97 46 91 47 93 48 41 49 96 50 90 51 89 52 42 54 76 55 55 56
REMARK SMILES IDX 75 57 56 58 59 59 74 60 94 61 57 62 58 63 73 65 95 66 60 67
REMARK SMILES IDX 43 68 44 69 53 70 45 71 46 72 52 73 54 74 47 75 48 76 49 77
REMARK SMILES IDX 50 78 51 79 77 80 78 81 87 82 79 83 80 84 86 85 88 86 81 87
REMARK SMILES IDX 82 88 83 89 84 90 85 91 61 92 62 93 71 94 63 95 64 96 70 97
REMARK SMILES IDX 72 98 65 99 66 100 67 101 68 102 69 103
REMARK H PARENT 24 7 31 34 93 53 59 64
REMARK Flexibility Score: inf
ROOT
ATOM      1  C   UNL A   1      35.103  23.545  23.066  1.00  0.00     0.002 C 
ENDROOT
BRANCH   1   2
ATOM      2  C   UNL A   1      33.862  23.267  22.213  1.00  0.00     0.021 C 
BRANCH   2   3
ATOM      3  C   UNL A   1      32.825  24.386  22.295  1.00  0.00     0.116 C 
BRANCH   3   4
ATOM      4  N   UNL A   1      33.356  25.617  21.743  1.00  0.00    -0.356 N 
ATOM      5  C   UNL A   1      33.632  26.774  22.409  1.00  0.00     0.224 C 
ATOM      6  O   UNL A   1      33.969  27.775  21.775  1.00  0.00    -0.275 OA
ATOM      7  H   UNL A   1      33.537  25.617  20.775  1.00  0.00     0.163 HD
BRANCH   5   8
ATOM      8  C   UNL A   1      33.558  26.777  23.921  1.00  0.00     0.139 C 
BRANCH   8   9
ATOM      9  C   UNL A   1      32.217  26.381  24.496  1.00  0.00     0.004 A 
ATOM     10  C   UNL A   1      31.081  27.195  24.412  1.00  0.00     0.122 A 
ATOM     11  C   UNL A   1      29.866  26.770  24.955  1.00  0.00     0.047 A 
ATOM     12  C   UNL A   1      29.757  25.501  25.537  1.00  0.00     0.016 A 
ATOM     13  C   UNL A   1      32.101  25.138  25.145  1.00  0.00     0.020 A 
ATOM     14  C   UNL A   1      30.874  24.661  25.626  1.00  0.00     0.022 A 
BRANCH  10  15
ATOM     15  O   UNL A   1      31.152  28.498  23.997  1.00  0.00    -0.496 OA
ATOM     16  C   UNL A   1      30.533  28.721  22.733  1.00  0.00     0.278 C 
ENDBRANCH  10  15
BRANCH  14  17
ATOM     17  C   UNL A   1      30.717  23.326  26.285  1.00  0.00     0.185 C 
ATOM     18  O   UNL A   1      30.377  23.263  27.465  1.00  0.00    -0.289 OA
BRANCH  17  19
ATOM     19  C   UNL A   1      31.000  22.044  25.569  1.00  0.00     0.053 C 
ATOM     20  C   UNL A   1      32.221  21.542  25.337  1.00  0.00     0.018 C 
BRANCH  20  21
ATOM     21  C   UNL A   1      32.475  20.242  24.713  1.00  0.00     0.046 A 
ATOM     22  C   UNL A   1      32.210  20.045  23.353  1.00  0.00     0.133 A 
ATOM     23  C   UNL A   1      32.873  19.142  25.470  1.00  0.00     0.133 A 
ATOM     24  F   UNL A   1      31.834  21.076  22.582  1.00  0.00    -0.206 F 
ATOM     25  C   UNL A   1      32.300  18.780  22.772  1.00  0.00     0.040 A 
ATOM     26  C   UNL A   1      32.970  17.871  24.902  1.00  0.00     0.040 A 
ATOM     27  F   UNL A   1      33.133  19.282  26.778  1.00  0.00    -0.206 F 
ATOM     28  C   UNL A   1      32.671  17.685  23.552  1.00  0.00     0.006 A 
ENDBRANCH  20  21
ENDBRANCH  17  19
ENDBRANCH  14  17
ENDBRANCH   8   9
ENDBRANCH   5   8
ENDBRANCH   3   4
ENDBRANCH   2   3
ENDBRANCH   1   2
BRANCH   1  29
ATOM     29  C   UNL A   1      35.394  22.474  24.122  1.00  0.00     0.002 C 
BRANCH  29  30
ATOM     30  C   UNL A   1      35.458  23.004  25.558  1.00  0.00     0.021 C 
BRANCH  30  31
ATOM     31  C   UNL A   1      36.749  23.745  25.885  1.00  0.00     0.116 C 
BRANCH  31  32
ATOM     32  N   UNL A   1      37.879  22.831  25.962  1.00  0.00    -0.352 N 
ATOM     33  C   UNL A   1      39.171  23.081  26.349  1.00  0.00     0.251 C 
ATOM     34  H   UNL A   1      37.688  21.901  25.700  1.00  0.00     0.163 HD
ATOM     35  O   UNL A   1      40.051  22.260  26.117  1.00  0.00    -0.269 OA
BRANCH  33  36
ATOM     36  C   UNL A   1      39.491  24.350  27.036  1.00  0.00     0.039 A 
ATOM     37  C   UNL A   1      39.071  24.531  28.355  1.00  0.00     0.014 A 
ATOM     38  C   UNL A   1      40.197  25.359  26.374  1.00  0.00     0.014 A 
ATOM     39  C   UNL A   1      39.408  25.706  29.029  1.00  0.00     0.010 A 
ATOM     40  C   UNL A   1      40.595  26.496  27.071  1.00  0.00     0.010 A 
ATOM     41  C   UNL A   1      40.198  26.685  28.403  1.00  0.00    -0.014 A 
BRANCH  41  42
ATOM     42  C   UNL A   1      40.621  27.910  29.127  1.00  0.00     0.031 A 
ATOM     43  C   UNL A   1      41.976  27.972  29.779  1.00  0.00     0.074 A 
ATOM     44  C   UNL A   1      39.761  28.942  29.246  1.00  0.00     0.049 A 
ATOM     45  N   UNL A   1      42.499  28.927  30.505  1.00  0.00    -0.248 NA
ATOM     46  C   UNL A   1      42.852  26.799  29.617  1.00  0.00     0.031 C 
ATOM     47  C   UNL A   1      38.402  28.979  28.698  1.00  0.00     0.029 A 
ATOM     48  N   UNL A   1      39.893  30.154  29.877  1.00  0.00    -0.354 N 
ATOM     49  C   UNL A   1      43.748  28.464  30.901  1.00  0.00     0.074 A 
ATOM     50  C   UNL A   1      43.893  27.127  30.370  1.00  0.00     0.031 C 
ATOM     51  C   UNL A   1      37.837  30.161  28.995  1.00  0.00     0.029 A 
ATOM     52  C   UNL A   1      38.772  30.948  29.792  1.00  0.00     0.049 A 
ATOM     53  H   UNL A   1      40.714  30.430  30.345  1.00  0.00     0.167 HD
ATOM     54  C   UNL A   1      44.696  29.106  31.624  1.00  0.00     0.037 A 
ATOM     55  C   UNL A   1      38.523  32.167  30.309  1.00  0.00     0.037 A 
ATOM     56  C   UNL A   1      44.560  30.453  32.114  1.00  0.00     0.049 A 
ATOM     57  C   UNL A   1      39.598  32.853  31.111  1.00  0.00     0.074 A 
ATOM     58  C   UNL A   1      45.496  31.219  32.785  1.00  0.00     0.029 A 
ATOM     59  N   UNL A   1      43.420  31.231  31.991  1.00  0.00    -0.354 N 
ATOM     60  N   UNL A   1      40.807  32.433  31.402  1.00  0.00    -0.248 NA
ATOM     61  C   UNL A   1      39.279  34.182  31.653  1.00  0.00     0.031 C 
ATOM     62  C   UNL A   1      44.903  32.440  33.120  1.00  0.00     0.029 A 
ATOM     63  C   UNL A   1      43.618  32.458  32.602  1.00  0.00     0.049 A 
ATOM     64  H   UNL A   1      42.591  30.953  31.536  1.00  0.00     0.167 HD
ATOM     65  C   UNL A   1      41.402  33.462  32.126  1.00  0.00     0.074 A 
ATOM     66  C   UNL A   1      40.426  34.527  32.218  1.00  0.00     0.031 C 
ATOM     67  C   UNL A   1      42.645  33.518  32.666  1.00  0.00     0.037 A 
BRANCH  54  68
ATOM     68  C   UNL A   1      45.973  28.375  31.935  1.00  0.00     0.058 A 
ATOM     69  C   UNL A   1      46.110  27.581  33.085  1.00  0.00     0.135 A 
ATOM     70  C   UNL A   1      47.040  28.394  31.022  1.00  0.00     0.135 A 
ATOM     71  F   UNL A   1      45.130  27.540  34.000  1.00  0.00    -0.206 F 
ATOM     72  C   UNL A   1      47.261  26.835  33.319  1.00  0.00     0.059 A 
ATOM     73  C   UNL A   1      48.189  27.634  31.222  1.00  0.00     0.059 A 
ATOM     74  F   UNL A   1      46.963  29.139  29.908  1.00  0.00    -0.206 F 
ATOM     75  C   UNL A   1      48.290  26.859  32.377  1.00  0.00     0.060 A 
BRANCH  75  76
ATOM     76  S   UNL A   1      49.751  25.839  32.670  1.00  0.00     0.124 S 
ATOM     77  O   UNL A   1      49.317  25.029  33.805  1.00  0.00    -0.237 OA
ATOM     78  O   UNL A   1      49.892  25.128  31.404  1.00  0.00    -0.237 OA
ATOM     79  O   UNL A   1      50.796  26.814  32.960  1.00  0.00    -0.744 OA
ENDBRANCH  75  76
ENDBRANCH  54  68
BRANCH  55  80
ATOM     80  C   UNL A   1      37.207  32.829  30.090  1.00  0.00     0.058 A 
ATOM     81  C   UNL A   1      37.013  33.714  29.018  1.00  0.00     0.135 A 
ATOM     82  C   UNL A   1      36.131  32.622  30.967  1.00  0.00     0.135 A 
ATOM     83  F   UNL A   1      38.010  33.948  28.152  1.00  0.00    -0.206 F 
ATOM     84  C   UNL A   1      35.817  34.404  28.849  1.00  0.00     0.059 A 
ATOM     85  C   UNL A   1      34.915  33.276  30.799  1.00  0.00     0.059 A 
ATOM     86  F   UNL A   1      36.255  31.771  31.997  1.00  0.00    -0.206 F 
ATOM     87  C   UNL A   1      34.774  34.182  29.750  1.00  0.00     0.060 A 
BRANCH  87  88
ATOM     88  S   UNL A   1      33.227  35.085  29.526  1.00  0.00     0.124 S 
ATOM     89  O   UNL A   1      32.640  34.993  30.858  1.00  0.00    -0.237 OA
ATOM     90  O   UNL A   1      33.697  36.407  29.126  1.00  0.00    -0.237 OA
ATOM     91  O   UNL A   1      32.544  34.328  28.482  1.00  0.00    -0.744 OA
ENDBRANCH  87  88
ENDBRANCH  55  80
BRANCH  67  92
ATOM     92  C   UNL A   1      43.043  34.792  33.360  1.00  0.00     0.058 A 
ATOM     93  C   UNL A   1      42.956  34.937  34.753  1.00  0.00     0.135 A 
ATOM     94  C   UNL A   1      43.573  35.864  32.621  1.00  0.00     0.135 A 
ATOM     95  F   UNL A   1      42.451  33.947  35.506  1.00  0.00    -0.206 F 
ATOM     96  C   UNL A   1      43.354  36.110  35.387  1.00  0.00     0.059 A 
ATOM     97  C   UNL A   1      44.008  37.032  33.238  1.00  0.00     0.059 A 
ATOM     98  F   UNL A   1      43.690  35.772  31.287  1.00  0.00    -0.206 F 
ATOM     99  C   UNL A   1      43.882  37.150  34.621  1.00  0.00     0.060 A 
BRANCH  99 100
ATOM    100  S   UNL A   1      44.426  38.653  35.460  1.00  0.00     0.124 S 
ATOM    101  O   UNL A   1      43.744  39.685  34.686  1.00  0.00    -0.237 OA
ATOM    102  O   UNL A   1      43.931  38.448  36.818  1.00  0.00    -0.237 OA
ATOM    103  O   UNL A   1      45.878  38.617  35.315  1.00  0.00    -0.744 OA
ENDBRANCH  99 100
ENDBRANCH  67  92
ENDBRANCH  41  42
ENDBRANCH  33  36
ENDBRANCH  31  32
ENDBRANCH  30  31
ENDBRANCH  29  30
ENDBRANCH   1  29
TORSDOF 21
ENDMDL
MODEL 3
REMARK VINA RESULT:     -11.1      4.234      9.339
REMARK SMILES COc1ccc(C(=O)/C=C/c2c(F)cccc2F)cc1CC(=O)NCCCCCCNC(=O)c1ccc(-c2c3nc(c(-c4c(F)cc(S(=O)(=O)[O-])cc4F)c4ccc([nH]4)c(-c4c(F)cc(S(=O)(=O)[O-])cc4F)c4nc(c(-c5c(F)cc(S(=O)(=O)[O-])cc5F)c5ccc2[nH]5)C=C4)C=C3)cc1
REMARK SMILES IDX 27 1 26 2 25 3 24 4 22 5 23 6 21 8 20 9 3 10 4 11 5 12 19 13
REMARK SMILES IDX 6 14 2 15 1 16 7 17 8 18 9 19 10 20 11 21 12 22 17 23 13 24
REMARK SMILES IDX 14 25 16 26 18 27 15 28 28 29 29 30 30 31 31 32 32 33 33 35
REMARK SMILES IDX 34 36 35 37 99 38 36 39 98 40 37 41 38 42 39 43 92 44 40 45
REMARK SMILES IDX 97 46 91 47 93 48 41 49 96 50 90 51 89 52 42 54 76 55 55 56
REMARK SMILES IDX 75 57 56 58 59 59 74 60 94 61 57 62 58 63 73 65 95 66 60 67
REMARK SMILES IDX 43 68 44 69 53 70 45 71 46 72 52 73 54 74 47 75 48 76 49 77
REMARK SMILES IDX 50 78 51 79 77 80 78 81 87 82 79 83 80 84 86 85 88 86 81 87
REMARK SMILES IDX 82 88 83 89 84 90 85 91 61 92 62 93 71 94 63 95 64 96 70 97
REMARK SMILES IDX 72 98 65 99 66 100 67 101 68 102 69 103
REMARK H PARENT 24 7 31 34 93 53 59 64
REMARK Flexibility Score: inf
ROOT
ATOM      1  C   UNL A   1      35.010  23.623  22.866  1.00  0.00     0.002 C 
ENDROOT
BRANCH   1   2
ATOM      2  C   UNL A   1      33.747  23.328  22.052  1.00  0.00     0.021 C 
BRANCH   2   3
ATOM      3  C   UNL A   1      32.730  24.467  22.103  1.00  0.00     0.116 C 
BRANCH   3   4
ATOM      4  N   UNL A   1      33.322  25.702  21.627  1.00  0.00    -0.356 N 
ATOM      5  C   UNL A   1      33.638  26.808  22.361  1.00  0.00     0.224 C 
ATOM      6  O   UNL A   1      34.027  27.826  21.788  1.00  0.00    -0.275 OA
ATOM      7  H   UNL A   1      33.518  25.748  20.664  1.00  0.00     0.163 HD
BRANCH   5   8
ATOM      8  C   UNL A   1      33.542  26.730  23.869  1.00  0.00     0.139 C 
BRANCH   8   9
ATOM      9  C   UNL A   1      32.181  26.345  24.404  1.00  0.00     0.004 A 
ATOM     10  C   UNL A   1      31.033  27.121  24.198  1.00  0.00     0.122 A 
ATOM     11  C   UNL A   1      29.801  26.708  24.710  1.00  0.00     0.047 A 
ATOM     12  C   UNL A   1      29.688  25.486  25.382  1.00  0.00     0.016 A 
ATOM     13  C   UNL A   1      32.056  25.153  25.141  1.00  0.00     0.020 A 
ATOM     14  C   UNL A   1      30.816  24.683  25.594  1.00  0.00     0.022 A 
BRANCH  10  15
ATOM     15  O   UNL A   1      31.098  28.391  23.688  1.00  0.00    -0.496 OA
ATOM     16  C   UNL A   1      30.397  28.539  22.456  1.00  0.00     0.278 C 
ENDBRANCH  10  15
BRANCH  14  17
ATOM     17  C   UNL A   1      30.653  23.399  26.345  1.00  0.00     0.185 C 
ATOM     18  O   UNL A   1      30.243  23.417  27.505  1.00  0.00    -0.289 OA
BRANCH  17  19
ATOM     19  C   UNL A   1      31.012  22.075  25.751  1.00  0.00     0.053 C 
ATOM     20  C   UNL A   1      32.052  21.850  24.936  1.00  0.00     0.018 C 
BRANCH  20  21
ATOM     21  C   UNL A   1      32.439  20.530  24.435  1.00  0.00     0.046 A 
ATOM     22  C   UNL A   1      32.153  20.160  23.115  1.00  0.00     0.133 A 
ATOM     23  C   UNL A   1      32.992  19.570  25.279  1.00  0.00     0.133 A 
ATOM     24  F   UNL A   1      31.629  21.053  22.262  1.00  0.00    -0.206 F 
ATOM     25  C   UNL A   1      32.374  18.860  22.661  1.00  0.00     0.040 A 
ATOM     26  C   UNL A   1      33.221  18.265  24.839  1.00  0.00     0.040 A 
ATOM     27  F   UNL A   1      33.278  19.876  26.553  1.00  0.00    -0.206 F 
ATOM     28  C   UNL A   1      32.900  17.905  23.530  1.00  0.00     0.006 A 
ENDBRANCH  20  21
ENDBRANCH  17  19
ENDBRANCH  14  17
ENDBRANCH   8   9
ENDBRANCH   5   8
ENDBRANCH   3   4
ENDBRANCH   2   3
ENDBRANCH   1   2
BRANCH   1  29
ATOM     29  C   UNL A   1      35.369  22.537  23.885  1.00  0.00     0.002 C 
BRANCH  29  30
ATOM     30  C   UNL A   1      35.303  22.994  25.345  1.00  0.00     0.021 C 
BRANCH  30  31
ATOM     31  C   UNL A   1      36.595  23.623  25.854  1.00  0.00     0.116 C 
BRANCH  31  32
ATOM     32  N   UNL A   1      37.596  22.610  26.151  1.00  0.00    -0.352 N 
ATOM     33  C   UNL A   1      38.912  22.768  26.501  1.00  0.00     0.251 C 
ATOM     34  H   UNL A   1      37.283  21.678  26.093  1.00  0.00     0.163 HD
ATOM     35  O   UNL A   1      39.676  21.810  26.471  1.00  0.00    -0.269 OA
BRANCH  33  36
ATOM     36  C   UNL A   1      39.402  24.104  26.902  1.00  0.00     0.039 A 
ATOM     37  C   UNL A   1      39.278  24.498  28.236  1.00  0.00     0.014 A 
ATOM     38  C   UNL A   1      39.974  24.965  25.961  1.00  0.00     0.014 A 
ATOM     39  C   UNL A   1      39.778  25.738  28.636  1.00  0.00     0.010 A 
ATOM     40  C   UNL A   1      40.538  26.168  26.377  1.00  0.00     0.010 A 
ATOM     41  C   UNL A   1      40.439  26.570  27.717  1.00  0.00    -0.014 A 
BRANCH  41  42
ATOM     42  C   UNL A   1      41.036  27.862  28.140  1.00  0.00     0.031 A 
ATOM     43  C   UNL A   1      42.525  28.068  28.063  1.00  0.00     0.074 A 
ATOM     44  C   UNL A   1      40.241  28.826  28.649  1.00  0.00     0.049 A 
ATOM     45  N   UNL A   1      43.236  29.099  28.442  1.00  0.00    -0.248 NA
ATOM     46  C   UNL A   1      43.326  26.962  27.510  1.00  0.00     0.031 C 
ATOM     47  C   UNL A   1      38.789  28.724  28.818  1.00  0.00     0.029 A 
ATOM     48  N   UNL A   1      40.541  30.076  29.130  1.00  0.00    -0.354 N 
ATOM     49  C   UNL A   1      44.560  28.760  28.194  1.00  0.00     0.074 A 
ATOM     50  C   UNL A   1      44.562  27.412  27.670  1.00  0.00     0.031 C 
ATOM     51  C   UNL A   1      38.323  29.871  29.341  1.00  0.00     0.029 A 
ATOM     52  C   UNL A   1      39.444  30.772  29.586  1.00  0.00     0.049 A 
ATOM     53  H   UNL A   1      41.454  30.442  29.145  1.00  0.00     0.167 HD
ATOM     54  C   UNL A   1      45.672  29.514  28.370  1.00  0.00     0.037 A 
ATOM     55  C   UNL A   1      39.355  31.993  30.149  1.00  0.00     0.037 A 
ATOM     56  C   UNL A   1      45.656  30.869  28.854  1.00  0.00     0.049 A 
ATOM     57  C   UNL A   1      40.611  32.805  30.333  1.00  0.00     0.074 A 
ATOM     58  C   UNL A   1      46.720  31.743  28.989  1.00  0.00     0.029 A 
ATOM     59  N   UNL A   1      44.526  31.546  29.286  1.00  0.00    -0.354 N 
ATOM     60  N   UNL A   1      41.846  32.500  30.012  1.00  0.00    -0.248 NA
ATOM     61  C   UNL A   1      40.462  34.131  30.951  1.00  0.00     0.031 C 
ATOM     62  C   UNL A   1      46.244  32.928  29.557  1.00  0.00     0.029 A 
ATOM     63  C   UNL A   1      44.872  32.815  29.718  1.00  0.00     0.049 A 
ATOM     64  H   UNL A   1      43.612  31.178  29.287  1.00  0.00     0.167 HD
ATOM     65  C   UNL A   1      42.612  33.610  30.354  1.00  0.00     0.074 A 
ATOM     66  C   UNL A   1      41.700  34.596  30.895  1.00  0.00     0.031 C 
ATOM     67  C   UNL A   1      43.950  33.795  30.232  1.00  0.00     0.037 A 
BRANCH  54  68
ATOM     68  C   UNL A   1      47.006  28.905  28.036  1.00  0.00     0.058 A 
ATOM     69  C   UNL A   1      47.778  28.241  29.002  1.00  0.00     0.135 A 
ATOM     70  C   UNL A   1      47.473  28.907  26.712  1.00  0.00     0.135 A 
ATOM     71  F   UNL A   1      47.388  28.225  30.286  1.00  0.00    -0.206 F 
ATOM     72  C   UNL A   1      48.968  27.602  28.667  1.00  0.00     0.059 A 
ATOM     73  C   UNL A   1      48.646  28.250  26.349  1.00  0.00     0.059 A 
ATOM     74  F   UNL A   1      46.776  29.531  25.749  1.00  0.00    -0.206 F 
ATOM     75  C   UNL A   1      49.388  27.603  27.335  1.00  0.00     0.060 A 
BRANCH  75  76
ATOM     76  S   UNL A   1      50.903  26.718  26.910  1.00  0.00     0.124 S 
ATOM     77  O   UNL A   1      50.377  25.419  26.502  1.00  0.00    -0.237 OA
ATOM     78  O   UNL A   1      51.453  27.543  25.839  1.00  0.00    -0.237 OA
ATOM     79  O   UNL A   1      51.663  26.723  28.155  1.00  0.00    -0.744 OA
ENDBRANCH  75  76
ENDBRANCH  54  68
BRANCH  55  80
ATOM     80  C   UNL A   1      38.037  32.534  30.582  1.00  0.00     0.058 A 
ATOM     81  C   UNL A   1      37.223  33.252  29.693  1.00  0.00     0.135 A 
ATOM     82  C   UNL A   1      37.582  32.379  31.901  1.00  0.00     0.135 A 
ATOM     83  F   UNL A   1      37.613  33.430  28.422  1.00  0.00    -0.206 F 
ATOM     84  C   UNL A   1      36.029  33.835  30.105  1.00  0.00     0.059 A 
ATOM     85  C   UNL A   1      36.376  32.925  32.328  1.00  0.00     0.059 A 
ATOM     86  F   UNL A   1      38.311  31.683  32.788  1.00  0.00    -0.206 F 
ATOM     87  C   UNL A   1      35.617  33.670  31.428  1.00  0.00     0.060 A 
BRANCH  87  88
ATOM     88  S   UNL A   1      34.068  34.434  31.956  1.00  0.00     0.124 S 
ATOM     89  O   UNL A   1      33.365  34.576  30.686  1.00  0.00    -0.237 OA
ATOM     90  O   UNL A   1      33.531  33.437  32.876  1.00  0.00    -0.237 OA
ATOM     91  O   UNL A   1      34.505  35.680  32.579  1.00  0.00    -0.744 OA
ENDBRANCH  87  88
ENDBRANCH  55  80
BRANCH  67  92
ATOM     92  C   UNL A   1      44.506  35.132  30.640  1.00  0.00     0.058 A 
ATOM     93  C   UNL A   1      44.999  35.368  31.933  1.00  0.00     0.135 A 
ATOM     94  C   UNL A   1      44.598  36.176  29.703  1.00  0.00     0.135 A 
ATOM     95  F   UNL A   1      44.930  34.408  32.869  1.00  0.00    -0.206 F 
ATOM     96  C   UNL A   1      45.537  36.600  32.291  1.00  0.00     0.059 A 
ATOM     97  C   UNL A   1      45.161  37.404  30.030  1.00  0.00     0.059 A 
ATOM     98  F   UNL A   1      44.152  35.998  28.449  1.00  0.00    -0.206 F 
ATOM     99  C   UNL A   1      45.617  37.611  31.331  1.00  0.00     0.060 A 
BRANCH  99 100
ATOM    100  S   UNL A   1      46.349  39.192  31.800  1.00  0.00     0.124 S 
ATOM    101  O   UNL A   1      46.390  39.078  33.254  1.00  0.00    -0.237 OA
ATOM    102  O   UNL A   1      47.641  39.151  31.123  1.00  0.00    -0.237 OA
ATOM    103  O   UNL A   1      45.404  40.174  31.275  1.00  0.00    -0.744 OA
ENDBRANCH  99 100
ENDBRANCH  67  92
ENDBRANCH  41  42
ENDBRANCH  33  36
ENDBRANCH  31  32
ENDBRANCH  30  31
ENDBRANCH  29  30
ENDBRANCH   1  29
TORSDOF 21
ENDMDL
