MODEL 1
REMARK VINA RESULT:     -10.8      0.000      0.000
REMARK SMILES CCOC(=O)c1cccc(NC(=O)CCC(=O)NCCCCCCNC(=O)c2ccc(-c3c4nc(c(-c5c(F)cc(S(=O)(=O)[O-])cc5F)c5ccc([nH]5)c(-c5c(F)cc(S(=O)(=O)[O-])cc5F)c5nc(c(-c6c(F)cc(S(=O)(=O)[O-])cc6F)c6ccc3[nH]6)C=C5)C=C4)cc2)c1
REMARK SMILES IDX 20 1 19 2 18 3 16 4 17 5 15 7 14 8 12 9 11 10 13 12 10 13
REMARK SMILES IDX 6 14 7 15 94 16 8 17 9 18 4 19 5 20 3 21 2 22 1 23 21 24
REMARK SMILES IDX 22 25 23 26 24 27 25 28 26 29 27 31 28 32 29 33 93 34 30 35
REMARK SMILES IDX 92 36 31 37 32 38 33 39 86 40 34 41 91 42 85 43 87 44 35 45
REMARK SMILES IDX 90 46 84 47 83 48 36 50 70 51 49 52 69 53 50 54 53 55 68 56
REMARK SMILES IDX 88 57 51 58 52 59 67 61 89 62 54 63 37 64 38 65 47 66 39 67
REMARK SMILES IDX 40 68 46 69 48 70 41 71 42 72 43 73 44 74 45 75 71 76 72 77
REMARK SMILES IDX 81 78 73 79 74 80 80 81 82 82 75 83 76 84 77 85 78 86 79 87
REMARK SMILES IDX 55 88 56 89 65 90 57 91 58 92 64 93 66 94 59 95 60 96 61 97
REMARK SMILES IDX 62 98 63 99
REMARK H PARENT 18 6 11 11 25 30 87 49 53 60
REMARK Flexibility Score: inf
ROOT
ATOM      1  C   UNL A   1      36.777  20.682  25.089  1.00  0.00     0.021 C 
ENDROOT
BRANCH   1   2
ATOM      2  C   UNL A   1      35.376  21.279  25.126  1.00  0.00     0.116 C 
BRANCH   2   3
ATOM      3  N   UNL A   1      34.344  20.269  25.286  1.00  0.00    -0.356 N 
ATOM      4  C   UNL A   1      32.999  20.357  25.095  1.00  0.00     0.220 C 
ATOM      5  O   UNL A   1      32.318  19.333  25.180  1.00  0.00    -0.275 OA
ATOM      6  H   UNL A   1      34.667  19.386  25.577  1.00  0.00     0.163 HD
BRANCH   4   7
ATOM      7  C   UNL A   1      32.356  21.686  24.783  1.00  0.00     0.110 C 
BRANCH   7   8
ATOM      8  C   UNL A   1      31.393  22.198  25.846  1.00  0.00     0.110 C 
BRANCH   8   9
ATOM      9  C   UNL A   1      31.967  23.197  26.828  1.00  0.00     0.224 C 
ATOM     10  N   UNL A   1      32.096  24.533  26.571  1.00  0.00    -0.326 N 
ATOM     11  H   UNL A   1      32.575  25.035  27.268  1.00  0.00     0.169 HD
ATOM     12  O   UNL A   1      32.276  22.815  27.963  1.00  0.00    -0.275 OA
BRANCH  10  13
ATOM     13  C   UNL A   1      31.666  25.317  25.489  1.00  0.00     0.042 A 
ATOM     14  C   UNL A   1      32.318  26.457  23.455  1.00  0.00     0.062 A 
ATOM     15  C   UNL A   1      31.128  27.184  23.474  1.00  0.00     0.016 A 
ATOM     16  C   UNL A   1      32.568  25.483  24.429  1.00  0.00     0.041 A 
ATOM     17  C   UNL A   1      30.171  26.912  24.447  1.00  0.00     0.003 A 
ATOM     18  C   UNL A   1      30.441  25.978  25.449  1.00  0.00     0.026 A 
BRANCH  14  19
ATOM     19  C   UNL A   1      33.346  26.847  22.471  1.00  0.00     0.338 C 
ATOM     20  O   UNL A   1      33.605  28.010  22.208  1.00  0.00    -0.246 OA
BRANCH  19  21
ATOM     21  O   UNL A   1      33.865  25.746  21.876  1.00  0.00    -0.462 OA
BRANCH  21  22
ATOM     22  C   UNL A   1      32.930  25.006  21.072  1.00  0.00     0.230 C 
ATOM     23  C   UNL A   1      33.031  23.517  21.364  1.00  0.00     0.049 C 
ENDBRANCH  21  22
ENDBRANCH  19  21
ENDBRANCH  14  19
ENDBRANCH  10  13
ENDBRANCH   8   9
ENDBRANCH   7   8
ENDBRANCH   4   7
ENDBRANCH   2   3
ENDBRANCH   1   2
BRANCH   1  24
ATOM     24  C   UNL A   1      37.902  21.644  25.483  1.00  0.00     0.002 C 
BRANCH  24  25
ATOM     25  C   UNL A   1      37.590  23.124  25.264  1.00  0.00     0.002 C 
BRANCH  25  26
ATOM     26  C   UNL A   1      38.103  24.063  26.358  1.00  0.00     0.021 C 
BRANCH  26  27
ATOM     27  C   UNL A   1      39.443  23.667  26.970  1.00  0.00     0.116 C 
BRANCH  27  28
ATOM     28  N   UNL A   1      40.564  23.978  26.099  1.00  0.00    -0.352 N 
ATOM     29  C   UNL A   1      41.447  25.027  26.185  1.00  0.00     0.251 C 
ATOM     30  H   UNL A   1      40.709  23.356  25.350  1.00  0.00     0.163 HD
ATOM     31  O   UNL A   1      42.233  25.258  25.274  1.00  0.00    -0.269 OA
BRANCH  29  32
ATOM     32  C   UNL A   1      41.412  25.890  27.383  1.00  0.00     0.039 A 
ATOM     33  C   UNL A   1      42.335  26.931  27.499  1.00  0.00     0.014 A 
ATOM     34  C   UNL A   1      40.429  25.698  28.360  1.00  0.00     0.014 A 
ATOM     35  C   UNL A   1      42.231  27.823  28.567  1.00  0.00     0.010 A 
ATOM     36  C   UNL A   1      40.285  26.630  29.382  1.00  0.00     0.010 A 
ATOM     37  C   UNL A   1      41.184  27.702  29.498  1.00  0.00    -0.014 A 
BRANCH  37  38
ATOM     38  C   UNL A   1      41.014  28.683  30.600  1.00  0.00     0.031 A 
ATOM     39  C   UNL A   1      41.883  28.593  31.825  1.00  0.00     0.074 A 
ATOM     40  C   UNL A   1      40.035  29.607  30.530  1.00  0.00     0.049 A 
ATOM     41  N   UNL A   1      41.840  29.303  32.922  1.00  0.00    -0.248 NA
ATOM     42  C   UNL A   1      42.920  27.548  31.827  1.00  0.00     0.031 C 
ATOM     43  C   UNL A   1      39.094  29.761  29.418  1.00  0.00     0.029 A 
ATOM     44  N   UNL A   1      39.660  30.585  31.418  1.00  0.00    -0.354 N 
ATOM     45  C   UNL A   1      42.828  28.781  33.750  1.00  0.00     0.074 A 
ATOM     46  C   UNL A   1      43.419  27.662  33.049  1.00  0.00     0.031 C 
ATOM     47  C   UNL A   1      38.263  30.783  29.682  1.00  0.00     0.029 A 
ATOM     48  C   UNL A   1      38.586  31.333  30.996  1.00  0.00     0.049 A 
ATOM     49  H   UNL A   1      40.116  30.734  32.278  1.00  0.00     0.167 HD
ATOM     50  C   UNL A   1      43.222  29.211  34.972  1.00  0.00     0.037 A 
ATOM     51  C   UNL A   1      37.932  32.343  31.601  1.00  0.00     0.037 A 
ATOM     52  C   UNL A   1      42.650  30.344  35.650  1.00  0.00     0.049 A 
ATOM     53  C   UNL A   1      38.393  32.807  32.957  1.00  0.00     0.074 A 
ATOM     54  C   UNL A   1      43.023  30.898  36.862  1.00  0.00     0.029 A 
ATOM     55  N   UNL A   1      41.583  31.093  35.177  1.00  0.00    -0.354 N 
ATOM     56  N   UNL A   1      39.373  32.346  33.696  1.00  0.00    -0.248 NA
ATOM     57  C   UNL A   1      37.663  33.932  33.559  1.00  0.00     0.031 C 
ATOM     58  C   UNL A   1      42.155  31.958  37.141  1.00  0.00     0.029 A 
ATOM     59  C   UNL A   1      41.271  32.095  36.083  1.00  0.00     0.049 A 
ATOM     60  H   UNL A   1      41.117  30.937  34.325  1.00  0.00     0.167 HD
ATOM     61  C   UNL A   1      39.395  33.139  34.838  1.00  0.00     0.074 A 
ATOM     62  C   UNL A   1      38.337  34.116  34.687  1.00  0.00     0.031 C 
ATOM     63  C   UNL A   1      40.218  33.064  35.913  1.00  0.00     0.037 A 
BRANCH  50  64
ATOM     64  C   UNL A   1      44.332  28.454  35.651  1.00  0.00     0.058 A 
ATOM     65  C   UNL A   1      45.681  28.779  35.440  1.00  0.00     0.135 A 
ATOM     66  C   UNL A   1      44.041  27.412  36.546  1.00  0.00     0.135 A 
ATOM     67  F   UNL A   1      46.016  29.756  34.584  1.00  0.00    -0.206 F 
ATOM     68  C   UNL A   1      46.706  28.076  36.068  1.00  0.00     0.059 A 
ATOM     69  C   UNL A   1      45.049  26.713  37.206  1.00  0.00     0.059 A 
ATOM     70  F   UNL A   1      42.769  27.058  36.784  1.00  0.00    -0.206 F 
ATOM     71  C   UNL A   1      46.379  27.044  36.949  1.00  0.00     0.060 A 
BRANCH  71  72
ATOM     72  S   UNL A   1      47.719  26.144  37.757  1.00  0.00     0.124 S 
ATOM     73  O   UNL A   1      47.641  26.668  39.118  1.00  0.00    -0.237 OA
ATOM     74  O   UNL A   1      47.307  24.754  37.589  1.00  0.00    -0.237 OA
ATOM     75  O   UNL A   1      48.901  26.541  36.999  1.00  0.00    -0.744 OA
ENDBRANCH  71  72
ENDBRANCH  50  64
BRANCH  51  76
ATOM     76  C   UNL A   1      36.782  32.997  30.919  1.00  0.00     0.058 A 
ATOM     77  C   UNL A   1      35.466  32.775  31.351  1.00  0.00     0.135 A 
ATOM     78  C   UNL A   1      36.977  33.867  29.835  1.00  0.00     0.135 A 
ATOM     79  F   UNL A   1      35.229  31.947  32.379  1.00  0.00    -0.206 F 
ATOM     80  C   UNL A   1      34.381  33.381  30.725  1.00  0.00     0.059 A 
ATOM     81  C   UNL A   1      35.910  34.503  29.209  1.00  0.00     0.059 A 
ATOM     82  F   UNL A   1      38.217  34.126  29.393  1.00  0.00    -0.206 F 
ATOM     83  C   UNL A   1      34.614  34.246  29.655  1.00  0.00     0.060 A 
BRANCH  83  84
ATOM     84  S   UNL A   1      33.203  35.069  28.882  1.00  0.00     0.124 S 
ATOM     85  O   UNL A   1      33.831  36.256  28.314  1.00  0.00    -0.237 OA
ATOM     86  O   UNL A   1      32.749  34.065  27.926  1.00  0.00    -0.237 OA
ATOM     87  O   UNL A   1      32.299  35.306  30.005  1.00  0.00    -0.744 OA
ENDBRANCH  83  84
ENDBRANCH  51  76
BRANCH  63  88
ATOM     88  C   UNL A   1      40.031  34.084  37.002  1.00  0.00     0.058 A 
ATOM     89  C   UNL A   1      40.629  35.352  36.934  1.00  0.00     0.135 A 
ATOM     90  C   UNL A   1      39.193  33.810  38.095  1.00  0.00     0.135 A 
ATOM     91  F   UNL A   1      41.445  35.661  35.913  1.00  0.00    -0.206 F 
ATOM     92  C   UNL A   1      40.415  36.308  37.922  1.00  0.00     0.059 A 
ATOM     93  C   UNL A   1      38.944  34.760  39.080  1.00  0.00     0.059 A 
ATOM     94  F   UNL A   1      38.589  32.616  38.201  1.00  0.00    -0.206 F 
ATOM     95  C   UNL A   1      39.568  36.004  38.990  1.00  0.00     0.060 A 
BRANCH  95  96
ATOM     96  S   UNL A   1      39.264  37.269  40.242  1.00  0.00     0.124 S 
ATOM     97  O   UNL A   1      38.542  36.509  41.257  1.00  0.00    -0.237 OA
ATOM     98  O   UNL A   1      40.617  37.683  40.603  1.00  0.00    -0.237 OA
ATOM     99  O   UNL A   1      38.478  38.270  39.529  1.00  0.00    -0.744 OA
ENDBRANCH  95  96
ENDBRANCH  63  88
ENDBRANCH  37  38
ENDBRANCH  29  32
ENDBRANCH  27  28
ENDBRANCH  26  27
ENDBRANCH  25  26
ENDBRANCH  24  25
ENDBRANCH   1  24
TORSDOF 22
ENDMDL
MODEL 2
REMARK VINA RESULT:     -10.8      6.382     11.831
REMARK SMILES CCOC(=O)c1cccc(NC(=O)CCC(=O)NCCCCCCNC(=O)c2ccc(-c3c4nc(c(-c5c(F)cc(S(=O)(=O)[O-])cc5F)c5ccc([nH]5)c(-c5c(F)cc(S(=O)(=O)[O-])cc5F)c5nc(c(-c6c(F)cc(S(=O)(=O)[O-])cc6F)c6ccc3[nH]6)C=C5)C=C4)cc2)c1
REMARK SMILES IDX 20 1 19 2 18 3 16 4 17 5 15 7 14 8 12 9 11 10 13 12 10 13
REMARK SMILES IDX 6 14 7 15 94 16 8 17 9 18 4 19 5 20 3 21 2 22 1 23 21 24
REMARK SMILES IDX 22 25 23 26 24 27 25 28 26 29 27 31 28 32 29 33 93 34 30 35
REMARK SMILES IDX 92 36 31 37 32 38 33 39 86 40 34 41 91 42 85 43 87 44 35 45
REMARK SMILES IDX 90 46 84 47 83 48 36 50 70 51 49 52 69 53 50 54 53 55 68 56
REMARK SMILES IDX 88 57 51 58 52 59 67 61 89 62 54 63 37 64 38 65 47 66 39 67
REMARK SMILES IDX 40 68 46 69 48 70 41 71 42 72 43 73 44 74 45 75 71 76 72 77
REMARK SMILES IDX 81 78 73 79 74 80 80 81 82 82 75 83 76 84 77 85 78 86 79 87
REMARK SMILES IDX 55 88 56 89 65 90 57 91 58 92 64 93 66 94 59 95 60 96 61 97
REMARK SMILES IDX 62 98 63 99
REMARK H PARENT 18 6 11 11 25 30 87 49 53 60
REMARK Flexibility Score: inf
ROOT
ATOM      1  C   UNL A   1      31.654  28.655  26.014  1.00  0.00     0.021 C 
ENDROOT
BRANCH   1   2
ATOM      2  C   UNL A   1      32.022  29.545  24.833  1.00  0.00     0.116 C 
BRANCH   2   3
ATOM      3  N   UNL A   1      31.178  29.311  23.674  1.00  0.00    -0.356 N 
ATOM      4  C   UNL A   1      31.096  28.224  22.858  1.00  0.00     0.220 C 
ATOM      5  O   UNL A   1      30.219  28.194  21.993  1.00  0.00    -0.275 OA
ATOM      6  H   UNL A   1      30.572  30.051  23.444  1.00  0.00     0.163 HD
BRANCH   4   7
ATOM      7  C   UNL A   1      32.064  27.076  23.014  1.00  0.00     0.110 C 
BRANCH   7   8
ATOM      8  C   UNL A   1      31.437  25.691  22.914  1.00  0.00     0.110 C 
BRANCH   8   9
ATOM      9  C   UNL A   1      30.855  25.137  24.197  1.00  0.00     0.224 C 
ATOM     10  N   UNL A   1      31.345  24.037  24.844  1.00  0.00    -0.326 N 
ATOM     11  H   UNL A   1      30.801  23.743  25.610  1.00  0.00     0.169 HD
ATOM     12  O   UNL A   1      29.929  25.743  24.749  1.00  0.00    -0.275 OA
BRANCH  10  13
ATOM     13  C   UNL A   1      32.484  23.252  24.610  1.00  0.00     0.042 A 
ATOM     14  C   UNL A   1      33.417  21.017  24.627  1.00  0.00     0.062 A 
ATOM     15  C   UNL A   1      34.706  21.549  24.585  1.00  0.00     0.016 A 
ATOM     16  C   UNL A   1      32.301  21.862  24.584  1.00  0.00     0.041 A 
ATOM     17  C   UNL A   1      34.878  22.924  24.464  1.00  0.00     0.003 A 
ATOM     18  C   UNL A   1      33.769  23.771  24.474  1.00  0.00     0.026 A 
BRANCH  14  19
ATOM     19  C   UNL A   1      33.278  19.566  24.858  1.00  0.00     0.338 C 
ATOM     20  O   UNL A   1      32.262  19.060  25.305  1.00  0.00    -0.246 OA
BRANCH  19  21
ATOM     21  O   UNL A   1      34.446  18.937  24.584  1.00  0.00    -0.462 OA
BRANCH  21  22
ATOM     22  C   UNL A   1      34.310  17.541  24.264  1.00  0.00     0.230 C 
ATOM     23  C   UNL A   1      33.517  17.359  22.980  1.00  0.00     0.049 C 
ENDBRANCH  21  22
ENDBRANCH  19  21
ENDBRANCH  14  19
ENDBRANCH  10  13
ENDBRANCH   8   9
ENDBRANCH   7   8
ENDBRANCH   4   7
ENDBRANCH   2   3
ENDBRANCH   1   2
BRANCH   1  24
ATOM     24  C   UNL A   1      32.838  28.168  26.853  1.00  0.00     0.002 C 
BRANCH  24  25
ATOM     25  C   UNL A   1      34.192  28.758  26.459  1.00  0.00     0.002 C 
BRANCH  25  26
ATOM     26  C   UNL A   1      34.683  29.903  27.348  1.00  0.00     0.021 C 
BRANCH  26  27
ATOM     27  C   UNL A   1      35.655  29.491  28.450  1.00  0.00     0.116 C 
BRANCH  27  28
ATOM     28  N   UNL A   1      35.538  30.326  29.633  1.00  0.00    -0.352 N 
ATOM     29  C   UNL A   1      36.529  30.734  30.492  1.00  0.00     0.251 C 
ATOM     30  H   UNL A   1      34.630  30.641  29.846  1.00  0.00     0.163 HD
ATOM     31  O   UNL A   1      36.250  31.291  31.548  1.00  0.00    -0.269 OA
BRANCH  29  32
ATOM     32  C   UNL A   1      37.936  30.463  30.136  1.00  0.00     0.039 A 
ATOM     33  C   UNL A   1      38.819  30.032  31.127  1.00  0.00     0.014 A 
ATOM     34  C   UNL A   1      38.361  30.584  28.808  1.00  0.00     0.014 A 
ATOM     35  C   UNL A   1      40.117  29.659  30.775  1.00  0.00     0.010 A 
ATOM     36  C   UNL A   1      39.630  30.143  28.450  1.00  0.00     0.010 A 
ATOM     37  C   UNL A   1      40.522  29.677  29.429  1.00  0.00    -0.014 A 
BRANCH  37  38
ATOM     38  C   UNL A   1      41.875  29.216  29.025  1.00  0.00     0.031 A 
ATOM     39  C   UNL A   1      43.018  30.194  28.979  1.00  0.00     0.074 A 
ATOM     40  C   UNL A   1      42.060  27.939  28.634  1.00  0.00     0.049 A 
ATOM     41  N   UNL A   1      44.250  30.006  28.582  1.00  0.00    -0.248 NA
ATOM     42  C   UNL A   1      42.730  31.571  29.411  1.00  0.00     0.031 C 
ATOM     43  C   UNL A   1      41.018  26.910  28.584  1.00  0.00     0.029 A 
ATOM     44  N   UNL A   1      43.186  27.291  28.191  1.00  0.00    -0.354 N 
ATOM     45  C   UNL A   1      44.877  31.242  28.699  1.00  0.00     0.074 A 
ATOM     46  C   UNL A   1      43.878  32.182  29.154  1.00  0.00     0.031 C 
ATOM     47  C   UNL A   1      41.558  25.758  28.155  1.00  0.00     0.029 A 
ATOM     48  C   UNL A   1      42.972  25.973  27.862  1.00  0.00     0.049 A 
ATOM     49  H   UNL A   1      44.064  27.730  28.114  1.00  0.00     0.167 HD
ATOM     50  C   UNL A   1      46.174  31.557  28.470  1.00  0.00     0.037 A 
ATOM     51  C   UNL A   1      43.818  25.045  27.374  1.00  0.00     0.037 A 
ATOM     52  C   UNL A   1      47.171  30.610  28.045  1.00  0.00     0.049 A 
ATOM     53  C   UNL A   1      45.256  25.418  27.133  1.00  0.00     0.074 A 
ATOM     54  C   UNL A   1      48.525  30.816  27.848  1.00  0.00     0.029 A 
ATOM     55  N   UNL A   1      46.921  29.277  27.750  1.00  0.00    -0.354 N 
ATOM     56  N   UNL A   1      45.849  26.574  27.314  1.00  0.00    -0.248 NA
ATOM     57  C   UNL A   1      46.143  24.360  26.629  1.00  0.00     0.031 C 
ATOM     58  C   UNL A   1      49.086  29.618  27.395  1.00  0.00     0.029 A 
ATOM     59  C   UNL A   1      48.093  28.653  27.354  1.00  0.00     0.049 A 
ATOM     60  H   UNL A   1      46.041  28.840  27.813  1.00  0.00     0.167 HD
ATOM     61  C   UNL A   1      47.181  26.377  26.970  1.00  0.00     0.074 A 
ATOM     62  C   UNL A   1      47.310  24.988  26.581  1.00  0.00     0.031 C 
ATOM     63  C   UNL A   1      48.205  27.266  26.976  1.00  0.00     0.037 A 
BRANCH  50  64
ATOM     64  C   UNL A   1      46.590  32.988  28.680  1.00  0.00     0.058 A 
ATOM     65  C   UNL A   1      47.140  33.423  29.897  1.00  0.00     0.135 A 
ATOM     66  C   UNL A   1      46.465  33.928  27.645  1.00  0.00     0.135 A 
ATOM     67  F   UNL A   1      47.267  32.571  30.925  1.00  0.00    -0.206 F 
ATOM     68  C   UNL A   1      47.521  34.748  30.091  1.00  0.00     0.059 A 
ATOM     69  C   UNL A   1      46.867  35.252  27.807  1.00  0.00     0.059 A 
ATOM     70  F   UNL A   1      45.945  33.567  26.461  1.00  0.00    -0.206 F 
ATOM     71  C   UNL A   1      47.380  35.654  29.039  1.00  0.00     0.060 A 
BRANCH  71  72
ATOM     72  S   UNL A   1      47.883  37.368  29.306  1.00  0.00     0.124 S 
ATOM     73  O   UNL A   1      48.419  37.305  30.662  1.00  0.00    -0.237 OA
ATOM     74  O   UNL A   1      48.865  37.573  28.246  1.00  0.00    -0.237 OA
ATOM     75  O   UNL A   1      46.639  38.115  29.157  1.00  0.00    -0.744 OA
ENDBRANCH  71  72
ENDBRANCH  50  64
BRANCH  51  76
ATOM     76  C   UNL A   1      43.329  23.666  27.099  1.00  0.00     0.058 A 
ATOM     77  C   UNL A   1      43.122  22.753  28.143  1.00  0.00     0.135 A 
ATOM     78  C   UNL A   1      43.047  23.240  25.792  1.00  0.00     0.135 A 
ATOM     79  F   UNL A   1      43.384  23.112  29.409  1.00  0.00    -0.206 F 
ATOM     80  C   UNL A   1      42.664  21.461  27.903  1.00  0.00     0.059 A 
ATOM     81  C   UNL A   1      42.565  21.961  25.529  1.00  0.00     0.059 A 
ATOM     82  F   UNL A   1      43.213  24.080  24.759  1.00  0.00    -0.206 F 
ATOM     83  C   UNL A   1      42.386  21.076  26.591  1.00  0.00     0.060 A 
BRANCH  83  84
ATOM     84  S   UNL A   1      41.742  19.414  26.294  1.00  0.00     0.124 S 
ATOM     85  O   UNL A   1      42.105  18.734  27.532  1.00  0.00    -0.237 OA
ATOM     86  O   UNL A   1      40.319  19.667  26.097  1.00  0.00    -0.237 OA
ATOM     87  O   UNL A   1      42.464  18.984  25.100  1.00  0.00    -0.744 OA
ENDBRANCH  83  84
ENDBRANCH  51  76
BRANCH  63  88
ATOM     88  C   UNL A   1      49.564  26.762  26.580  1.00  0.00     0.058 A 
ATOM     89  C   UNL A   1      50.398  26.095  27.492  1.00  0.00     0.135 A 
ATOM     90  C   UNL A   1      50.012  26.893  25.256  1.00  0.00     0.135 A 
ATOM     91  F   UNL A   1      50.020  25.951  28.772  1.00  0.00    -0.206 F 
ATOM     92  C   UNL A   1      51.636  25.591  27.107  1.00  0.00     0.059 A 
ATOM     93  C   UNL A   1      51.234  26.373  24.843  1.00  0.00     0.059 A 
ATOM     94  F   UNL A   1      49.248  27.514  24.342  1.00  0.00    -0.206 F 
ATOM     95  C   UNL A   1      52.044  25.732  25.779  1.00  0.00     0.060 A 
BRANCH  95  96
ATOM     96  S   UNL A   1      53.633  25.033  25.283  1.00  0.00     0.124 S 
ATOM     97  O   UNL A   1      54.447  25.285  26.467  1.00  0.00    -0.237 OA
ATOM     98  O   UNL A   1      53.296  23.635  25.032  1.00  0.00    -0.237 OA
ATOM     99  O   UNL A   1      53.990  25.808  24.099  1.00  0.00    -0.744 OA
ENDBRANCH  95  96
ENDBRANCH  63  88
ENDBRANCH  37  38
ENDBRANCH  29  32
ENDBRANCH  27  28
ENDBRANCH  26  27
ENDBRANCH  25  26
ENDBRANCH  24  25
ENDBRANCH   1  24
TORSDOF 22
ENDMDL
MODEL 3
REMARK VINA RESULT:     -10.1      5.101     10.179
REMARK SMILES CCOC(=O)c1cccc(NC(=O)CCC(=O)NCCCCCCNC(=O)c2ccc(-c3c4nc(c(-c5c(F)cc(S(=O)(=O)[O-])cc5F)c5ccc([nH]5)c(-c5c(F)cc(S(=O)(=O)[O-])cc5F)c5nc(c(-c6c(F)cc(S(=O)(=O)[O-])cc6F)c6ccc3[nH]6)C=C5)C=C4)cc2)c1
REMARK SMILES IDX 20 1 19 2 18 3 16 4 17 5 15 7 14 8 12 9 11 10 13 12 10 13
REMARK SMILES IDX 6 14 7 15 94 16 8 17 9 18 4 19 5 20 3 21 2 22 1 23 21 24
REMARK SMILES IDX 22 25 23 26 24 27 25 28 26 29 27 31 28 32 29 33 93 34 30 35
REMARK SMILES IDX 92 36 31 37 32 38 33 39 86 40 34 41 91 42 85 43 87 44 35 45
REMARK SMILES IDX 90 46 84 47 83 48 36 50 70 51 49 52 69 53 50 54 53 55 68 56
REMARK SMILES IDX 88 57 51 58 52 59 67 61 89 62 54 63 37 64 38 65 47 66 39 67
REMARK SMILES IDX 40 68 46 69 48 70 41 71 42 72 43 73 44 74 45 75 71 76 72 77
REMARK SMILES IDX 81 78 73 79 74 80 80 81 82 82 75 83 76 84 77 85 78 86 79 87
REMARK SMILES IDX 55 88 56 89 65 90 57 91 58 92 64 93 66 94 59 95 60 96 61 97
REMARK SMILES IDX 62 98 63 99
REMARK H PARENT 18 6 11 11 25 30 87 49 53 60
REMARK Flexibility Score: inf
ROOT
ATOM      1  C   UNL A   1      31.181  27.652  25.903  1.00  0.00     0.021 C 
ENDROOT
BRANCH   1   2
ATOM      2  C   UNL A   1      31.582  28.826  25.019  1.00  0.00     0.116 C 
BRANCH   2   3
ATOM      3  N   UNL A   1      30.803  28.892  23.794  1.00  0.00    -0.356 N 
ATOM      4  C   UNL A   1      30.861  28.113  22.680  1.00  0.00     0.220 C 
ATOM      5  O   UNL A   1      30.019  28.276  21.794  1.00  0.00    -0.275 OA
ATOM      6  H   UNL A   1      30.131  29.610  23.766  1.00  0.00     0.163 HD
BRANCH   4   7
ATOM      7  C   UNL A   1      31.938  27.065  22.533  1.00  0.00     0.110 C 
BRANCH   7   8
ATOM      8  C   UNL A   1      31.429  25.662  22.224  1.00  0.00     0.110 C 
BRANCH   8   9
ATOM      9  C   UNL A   1      30.615  25.001  23.316  1.00  0.00     0.224 C 
ATOM     10  N   UNL A   1      31.008  23.878  23.987  1.00  0.00    -0.326 N 
ATOM     11  H   UNL A   1      30.328  23.513  24.598  1.00  0.00     0.169 HD
ATOM     12  O   UNL A   1      29.564  25.535  23.689  1.00  0.00    -0.275 OA
BRANCH  10  13
ATOM     13  C   UNL A   1      32.207  23.150  23.960  1.00  0.00     0.042 A 
ATOM     14  C   UNL A   1      33.258  21.001  24.332  1.00  0.00     0.062 A 
ATOM     15  C   UNL A   1      34.512  21.611  24.351  1.00  0.00     0.016 A 
ATOM     16  C   UNL A   1      32.107  21.757  24.082  1.00  0.00     0.041 A 
ATOM     17  C   UNL A   1      34.619  22.972  24.085  1.00  0.00     0.003 A 
ATOM     18  C   UNL A   1      33.468  23.737  23.887  1.00  0.00     0.026 A 
BRANCH  14  19
ATOM     19  C   UNL A   1      33.179  19.579  24.720  1.00  0.00     0.338 C 
ATOM     20  O   UNL A   1      32.177  19.079  25.205  1.00  0.00    -0.246 OA
BRANCH  19  21
ATOM     21  O   UNL A   1      34.378  18.977  24.534  1.00  0.00    -0.462 OA
BRANCH  21  22
ATOM     22  C   UNL A   1      34.326  17.540  24.508  1.00  0.00     0.230 C 
ATOM     23  C   UNL A   1      34.044  17.038  23.100  1.00  0.00     0.049 C 
ENDBRANCH  21  22
ENDBRANCH  19  21
ENDBRANCH  14  19
ENDBRANCH  10  13
ENDBRANCH   8   9
ENDBRANCH   7   8
ENDBRANCH   4   7
ENDBRANCH   2   3
ENDBRANCH   1   2
BRANCH   1  24
ATOM     24  C   UNL A   1      32.274  26.601  26.119  1.00  0.00     0.002 C 
BRANCH  24  25
ATOM     25  C   UNL A   1      33.659  26.999  25.611  1.00  0.00     0.002 C 
BRANCH  25  26
ATOM     26  C   UNL A   1      34.163  28.358  26.100  1.00  0.00     0.021 C 
BRANCH  26  27
ATOM     27  C   UNL A   1      34.245  28.507  27.617  1.00  0.00     0.116 C 
BRANCH  27  28
ATOM     28  N   UNL A   1      34.107  29.888  28.046  1.00  0.00    -0.352 N 
ATOM     29  C   UNL A   1      35.046  30.696  28.638  1.00  0.00     0.251 C 
ATOM     30  H   UNL A   1      33.225  30.297  27.892  1.00  0.00     0.163 HD
ATOM     31  O   UNL A   1      34.729  31.784  29.106  1.00  0.00    -0.269 OA
BRANCH  29  32
ATOM     32  C   UNL A   1      36.441  30.219  28.727  1.00  0.00     0.039 A 
ATOM     33  C   UNL A   1      37.231  30.207  27.576  1.00  0.00     0.014 A 
ATOM     34  C   UNL A   1      36.976  29.839  29.962  1.00  0.00     0.014 A 
ATOM     35  C   UNL A   1      38.583  29.873  27.676  1.00  0.00     0.010 A 
ATOM     36  C   UNL A   1      38.338  29.579  30.070  1.00  0.00     0.010 A 
ATOM     37  C   UNL A   1      39.156  29.591  28.929  1.00  0.00    -0.014 A 
BRANCH  37  38
ATOM     38  C   UNL A   1      40.607  29.304  29.066  1.00  0.00     0.031 A 
ATOM     39  C   UNL A   1      41.139  27.943  28.708  1.00  0.00     0.074 A 
ATOM     40  C   UNL A   1      41.431  30.241  29.576  1.00  0.00     0.049 A 
ATOM     41  N   UNL A   1      42.353  27.473  28.829  1.00  0.00    -0.248 NA
ATOM     42  C   UNL A   1      40.172  26.973  28.169  1.00  0.00     0.031 C 
ATOM     43  C   UNL A   1      41.024  31.580  30.010  1.00  0.00     0.029 A 
ATOM     44  N   UNL A   1      42.779  30.207  29.830  1.00  0.00    -0.354 N 
ATOM     45  C   UNL A   1      42.293  26.152  28.399  1.00  0.00     0.074 A 
ATOM     46  C   UNL A   1      40.913  25.880  28.063  1.00  0.00     0.031 C 
ATOM     47  C   UNL A   1      42.102  32.244  30.458  1.00  0.00     0.029 A 
ATOM     48  C   UNL A   1      43.269  31.369  30.380  1.00  0.00     0.049 A 
ATOM     49  H   UNL A   1      43.343  29.423  29.638  1.00  0.00     0.167 HD
ATOM     50  C   UNL A   1      43.300  25.256  28.273  1.00  0.00     0.037 A 
ATOM     51  C   UNL A   1      44.514  31.690  30.781  1.00  0.00     0.037 A 
ATOM     52  C   UNL A   1      44.677  25.543  28.580  1.00  0.00     0.049 A 
ATOM     53  C   UNL A   1      45.618  30.680  30.624  1.00  0.00     0.074 A 
ATOM     54  C   UNL A   1      45.781  24.725  28.425  1.00  0.00     0.029 A 
ATOM     55  N   UNL A   1      45.136  26.741  29.108  1.00  0.00    -0.354 N 
ATOM     56  N   UNL A   1      45.556  29.458  30.152  1.00  0.00    -0.248 NA
ATOM     57  C   UNL A   1      46.963  31.092  31.050  1.00  0.00     0.031 C 
ATOM     58  C   UNL A   1      46.903  25.413  28.896  1.00  0.00     0.029 A 
ATOM     59  C   UNL A   1      46.507  26.677  29.302  1.00  0.00     0.049 A 
ATOM     60  H   UNL A   1      44.573  27.521  29.313  1.00  0.00     0.167 HD
ATOM     61  C   UNL A   1      46.855  28.964  30.199  1.00  0.00     0.074 A 
ATOM     62  C   UNL A   1      47.683  30.023  30.737  1.00  0.00     0.031 C 
ATOM     63  C   UNL A   1      47.318  27.745  29.831  1.00  0.00     0.037 A 
BRANCH  50  64
ATOM     64  C   UNL A   1      42.949  23.880  27.774  1.00  0.00     0.058 A 
ATOM     65  C   UNL A   1      42.680  22.823  28.658  1.00  0.00     0.135 A 
ATOM     66  C   UNL A   1      42.851  23.623  26.397  1.00  0.00     0.135 A 
ATOM     67  F   UNL A   1      42.774  23.009  29.984  1.00  0.00    -0.206 F 
ATOM     68  C   UNL A   1      42.358  21.551  28.195  1.00  0.00     0.059 A 
ATOM     69  C   UNL A   1      42.503  22.365  25.912  1.00  0.00     0.059 A 
ATOM     70  F   UNL A   1      43.099  24.597  25.507  1.00  0.00    -0.206 F 
ATOM     71  C   UNL A   1      42.273  21.332  26.819  1.00  0.00     0.060 A 
BRANCH  71  72
ATOM     72  S   UNL A   1      41.852  19.677  26.235  1.00  0.00     0.124 S 
ATOM     73  O   UNL A   1      42.285  18.853  27.360  1.00  0.00    -0.237 OA
ATOM     74  O   UNL A   1      40.409  19.773  26.039  1.00  0.00    -0.237 OA
ATOM     75  O   UNL A   1      42.640  19.535  25.015  1.00  0.00    -0.744 OA
ENDBRANCH  71  72
ENDBRANCH  50  64
BRANCH  51  76
ATOM     76  C   UNL A   1      44.786  33.038  31.350  1.00  0.00     0.058 A 
ATOM     77  C   UNL A   1      44.680  33.273  32.729  1.00  0.00     0.135 A 
ATOM     78  C   UNL A   1      45.170  34.112  30.532  1.00  0.00     0.135 A 
ATOM     79  F   UNL A   1      44.309  32.279  33.552  1.00  0.00    -0.206 F 
ATOM     80  C   UNL A   1      44.932  34.526  33.277  1.00  0.00     0.059 A 
ATOM     81  C   UNL A   1      45.451  35.368  31.060  1.00  0.00     0.059 A 
ATOM     82  F   UNL A   1      45.301  33.936  29.208  1.00  0.00    -0.206 F 
ATOM     83  C   UNL A   1      45.320  35.568  32.433  1.00  0.00     0.060 A 
BRANCH  83  84
ATOM     84  S   UNL A   1      45.697  37.178  33.161  1.00  0.00     0.124 S 
ATOM     85  O   UNL A   1      44.487  37.930  32.850  1.00  0.00    -0.237 OA
ATOM     86  O   UNL A   1      45.897  36.841  34.566  1.00  0.00    -0.237 OA
ATOM     87  O   UNL A   1      46.902  37.594  32.448  1.00  0.00    -0.744 OA
ENDBRANCH  83  84
ENDBRANCH  51  76
BRANCH  63  88
ATOM     88  C   UNL A   1      48.794  27.494  29.965  1.00  0.00     0.058 A 
ATOM     89  C   UNL A   1      49.323  26.760  31.038  1.00  0.00     0.135 A 
ATOM     90  C   UNL A   1      49.683  27.940  28.974  1.00  0.00     0.135 A 
ATOM     91  F   UNL A   1      48.517  26.317  32.016  1.00  0.00    -0.206 F 
ATOM     92  C   UNL A   1      50.685  26.492  31.132  1.00  0.00     0.059 A 
ATOM     93  C   UNL A   1      51.045  27.662  29.033  1.00  0.00     0.059 A 
ATOM     94  F   UNL A   1      49.227  28.638  27.921  1.00  0.00    -0.206 F 
ATOM     95  C   UNL A   1      51.537  26.944  30.123  1.00  0.00     0.060 A 
BRANCH  95  96
ATOM     96  S   UNL A   1      53.296  26.551  30.235  1.00  0.00     0.124 S 
ATOM     97  O   UNL A   1      53.870  27.858  30.537  1.00  0.00    -0.237 OA
ATOM     98  O   UNL A   1      53.331  25.577  31.321  1.00  0.00    -0.237 OA
ATOM     99  O   UNL A   1      53.609  26.018  28.913  1.00  0.00    -0.744 OA
ENDBRANCH  95  96
ENDBRANCH  63  88
ENDBRANCH  37  38
ENDBRANCH  29  32
ENDBRANCH  27  28
ENDBRANCH  26  27
ENDBRANCH  25  26
ENDBRANCH  24  25
ENDBRANCH   1  24
TORSDOF 22
ENDMDL
