MODEL 1
REMARK VINA RESULT:      -9.9      0.000      0.000
REMARK SMILES CC[C@H](C)[C@H](C(=O)NCCCCCCNC(=O)c1ccc(-c2c3nc(c(-c4c(F)cc(S(=O)(=O)[O-])cc4F)c4ccc([nH]4)c(-c4c(F)cc(S(=O)(=O)[O-])cc4F)c4nc(c(-c5c(F)cc(S(=O)(=O)[O-])cc5F)c5ccc2[nH]5)C=C4)C=C3)cc1)[NH+]1CC2(CC2)C1
REMARK SMILES IDX 12 1 11 2 10 3 9 4 8 5 6 6 7 7 5 9 3 10 4 11 2 12 1 13 84 14
REMARK SMILES IDX 85 15 89 16 86 18 87 19 88 20 13 21 14 22 15 23 16 24 17 26
REMARK SMILES IDX 18 27 19 28 83 29 20 30 82 31 21 32 22 33 23 34 76 35 24 36
REMARK SMILES IDX 81 37 75 38 77 39 25 40 80 41 74 42 73 43 26 45 60 46 39 47
REMARK SMILES IDX 59 48 40 49 43 50 58 51 78 52 41 53 42 54 57 56 79 57 44 58
REMARK SMILES IDX 27 59 28 60 37 61 29 62 30 63 36 64 38 65 31 66 32 67 33 68
REMARK SMILES IDX 34 69 35 70 61 71 62 72 71 73 63 74 64 75 70 76 72 77 65 78
REMARK SMILES IDX 66 79 67 80 68 81 69 82 45 83 46 84 55 85 47 86 48 87 54 88
REMARK SMILES IDX 56 89 49 90 50 91 51 92 52 93 53 94
REMARK H PARENT 8 8 84 17 15 25 77 44 43 55
REMARK Flexibility Score: inf
ROOT
ATOM      1  C   UNL A   1      32.262  28.095  24.822  1.00  0.00     0.002 C 
ENDROOT
BRANCH   1   2
ATOM      2  C   UNL A   1      31.212  27.234  24.114  1.00  0.00     0.002 C 
BRANCH   2   3
ATOM      3  C   UNL A   1      31.714  25.873  23.608  1.00  0.00     0.021 C 
BRANCH   3   4
ATOM      4  C   UNL A   1      30.739  24.716  23.823  1.00  0.00     0.116 C 
BRANCH   4   5
ATOM      5  N   UNL A   1      30.613  24.404  25.233  1.00  0.00    -0.351 N 
ATOM      6  C   UNL A   1      31.427  23.729  26.089  1.00  0.00     0.278 C 
ATOM      7  O   UNL A   1      31.048  23.694  27.261  1.00  0.00    -0.268 OA
ATOM      8  H   UNL A   1      29.788  24.744  25.648  1.00  0.00     0.163 HD
BRANCH   6   9
ATOM      9  C   UNL A   1      32.777  23.172  25.588  1.00  0.00     0.277 C 
BRANCH   9  10
ATOM     10  C   UNL A   1      33.916  23.913  26.368  1.00  0.00     0.054 C 
ATOM     11  C   UNL A   1      34.712  23.011  27.323  1.00  0.00     0.014 C 
BRANCH  10  12
ATOM     12  C   UNL A   1      34.827  24.729  25.422  1.00  0.00     0.006 C 
ATOM     13  C   UNL A   1      36.069  23.985  24.949  1.00  0.00     0.004 C 
ENDBRANCH  10  12
ENDBRANCH   9  10
BRANCH   9  14
ATOM     14  N   UNL A   1      32.909  21.692  25.506  1.00  0.00    -0.323 N 
ATOM     15  C   UNL A   1      31.736  20.960  25.024  1.00  0.00     0.275 C 
ATOM     16  C   UNL A   1      33.712  21.245  24.352  1.00  0.00     0.275 C 
ATOM     17  H   UNL A   1      33.221  21.517  26.462  1.00  0.00     0.348 HD
ATOM     18  C   UNL A   1      32.468  20.705  23.767  1.00  0.00     0.068 C 
ATOM     19  C   UNL A   1      31.957  20.954  22.378  1.00  0.00     0.020 C 
ATOM     20  C   UNL A   1      32.274  19.557  22.829  1.00  0.00     0.020 C 
ENDBRANCH   9  14
ENDBRANCH   6   9
ENDBRANCH   4   5
ENDBRANCH   3   4
ENDBRANCH   2   3
ENDBRANCH   1   2
BRANCH   1  21
ATOM     21  C   UNL A   1      32.748  27.544  26.162  1.00  0.00     0.021 C 
BRANCH  21  22
ATOM     22  C   UNL A   1      34.006  28.212  26.700  1.00  0.00     0.116 C 
BRANCH  22  23
ATOM     23  N   UNL A   1      33.746  29.547  27.209  1.00  0.00    -0.352 N 
ATOM     24  C   UNL A   1      34.553  30.344  27.986  1.00  0.00     0.251 C 
ATOM     25  H   UNL A   1      32.875  29.934  26.966  1.00  0.00     0.163 HD
ATOM     26  O   UNL A   1      34.109  31.373  28.478  1.00  0.00    -0.269 OA
BRANCH  24  27
ATOM     27  C   UNL A   1      35.954  29.935  28.238  1.00  0.00     0.039 A 
ATOM     28  C   UNL A   1      36.899  30.105  27.226  1.00  0.00     0.014 A 
ATOM     29  C   UNL A   1      36.330  29.386  29.468  1.00  0.00     0.014 A 
ATOM     30  C   UNL A   1      38.231  29.759  27.461  1.00  0.00     0.010 A 
ATOM     31  C   UNL A   1      37.672  29.124  29.729  1.00  0.00     0.010 A 
ATOM     32  C   UNL A   1      38.634  29.287  28.722  1.00  0.00    -0.014 A 
BRANCH  32  33
ATOM     33  C   UNL A   1      40.050  28.924  28.987  1.00  0.00     0.031 A 
ATOM     34  C   UNL A   1      40.983  29.931  29.607  1.00  0.00     0.074 A 
ATOM     35  C   UNL A   1      40.504  27.704  28.639  1.00  0.00     0.049 A 
ATOM     36  N   UNL A   1      42.252  29.812  29.896  1.00  0.00    -0.248 NA
ATOM     37  C   UNL A   1      40.422  31.257  29.915  1.00  0.00     0.031 C 
ATOM     38  C   UNL A   1      39.710  26.660  27.984  1.00  0.00     0.029 A 
ATOM     39  N   UNL A   1      41.743  27.133  28.787  1.00  0.00    -0.354 N 
ATOM     40  C   UNL A   1      42.642  31.043  30.410  1.00  0.00     0.074 A 
ATOM     41  C   UNL A   1      41.494  31.917  30.329  1.00  0.00     0.031 C 
ATOM     42  C   UNL A   1      40.473  25.568  27.818  1.00  0.00     0.029 A 
ATOM     43  C   UNL A   1      41.817  25.842  28.316  1.00  0.00     0.049 A 
ATOM     44  H   UNL A   1      42.508  27.603  29.190  1.00  0.00     0.167 HD
ATOM     45  C   UNL A   1      43.839  31.406  30.931  1.00  0.00     0.037 A 
ATOM     46  C   UNL A   1      42.851  24.979  28.292  1.00  0.00     0.037 A 
ATOM     47  C   UNL A   1      44.972  30.523  31.029  1.00  0.00     0.049 A 
ATOM     48  C   UNL A   1      44.171  25.403  28.877  1.00  0.00     0.074 A 
ATOM     49  C   UNL A   1      46.214  30.774  31.586  1.00  0.00     0.029 A 
ATOM     50  N   UNL A   1      45.003  29.217  30.558  1.00  0.00    -0.354 N 
ATOM     51  N   UNL A   1      44.504  26.551  29.419  1.00  0.00    -0.248 NA
ATOM     52  C   UNL A   1      45.254  24.411  28.861  1.00  0.00     0.031 C 
ATOM     53  C   UNL A   1      47.011  29.640  31.403  1.00  0.00     0.029 A 
ATOM     54  C   UNL A   1      46.248  28.658  30.792  1.00  0.00     0.049 A 
ATOM     55  H   UNL A   1      44.251  28.757  30.121  1.00  0.00     0.167 HD
ATOM     56  C   UNL A   1      45.822  26.407  29.840  1.00  0.00     0.074 A 
ATOM     57  C   UNL A   1      46.220  25.056  29.499  1.00  0.00     0.031 C 
ATOM     58  C   UNL A   1      46.628  27.308  30.455  1.00  0.00     0.037 A 
BRANCH  45  59
ATOM     59  C   UNL A   1      43.983  32.817  31.437  1.00  0.00     0.058 A 
ATOM     60  C   UNL A   1      44.288  33.884  30.576  1.00  0.00     0.135 A 
ATOM     61  C   UNL A   1      43.781  33.113  32.795  1.00  0.00     0.135 A 
ATOM     62  F   UNL A   1      44.507  33.659  29.270  1.00  0.00    -0.206 F 
ATOM     63  C   UNL A   1      44.421  35.186  31.047  1.00  0.00     0.059 A 
ATOM     64  C   UNL A   1      43.876  34.414  33.283  1.00  0.00     0.059 A 
ATOM     65  F   UNL A   1      43.489  32.134  33.665  1.00  0.00    -0.206 F 
ATOM     66  C   UNL A   1      44.211  35.442  32.403  1.00  0.00     0.060 A 
BRANCH  66  67
ATOM     67  S   UNL A   1      44.382  37.138  32.996  1.00  0.00     0.124 S 
ATOM     68  O   UNL A   1      44.874  37.816  31.800  1.00  0.00    -0.237 OA
ATOM     69  O   UNL A   1      43.017  37.466  33.395  1.00  0.00    -0.237 OA
ATOM     70  O   UNL A   1      45.341  37.022  34.090  1.00  0.00    -0.744 OA
ENDBRANCH  66  67
ENDBRANCH  45  59
BRANCH  46  71
ATOM     71  C   UNL A   1      42.670  23.617  27.719  1.00  0.00     0.058 A 
ATOM     72  C   UNL A   1      42.771  23.391  26.338  1.00  0.00     0.135 A 
ATOM     73  C   UNL A   1      42.400  22.512  28.542  1.00  0.00     0.135 A 
ATOM     74  F   UNL A   1      43.022  24.415  25.508  1.00  0.00    -0.206 F 
ATOM     75  C   UNL A   1      42.589  22.125  25.790  1.00  0.00     0.059 A 
ATOM     76  C   UNL A   1      42.244  21.232  28.020  1.00  0.00     0.059 A 
ATOM     77  F   UNL A   1      42.311  22.669  29.872  1.00  0.00    -0.206 F 
ATOM     78  C   UNL A   1      42.328  21.050  26.641  1.00  0.00     0.060 A 
BRANCH  78  79
ATOM     79  S   UNL A   1      42.137  19.404  25.923  1.00  0.00     0.124 S 
ATOM     80  O   UNL A   1      40.696  19.340  25.715  1.00  0.00    -0.237 OA
ATOM     81  O   UNL A   1      42.955  19.500  24.718  1.00  0.00    -0.237 OA
ATOM     82  O   UNL A   1      42.665  18.522  26.961  1.00  0.00    -0.744 OA
ENDBRANCH  78  79
ENDBRANCH  46  71
BRANCH  58  83
ATOM     83  C   UNL A   1      48.007  26.849  30.846  1.00  0.00     0.058 A 
ATOM     84  C   UNL A   1      49.131  27.104  30.045  1.00  0.00     0.135 A 
ATOM     85  C   UNL A   1      48.209  26.176  32.062  1.00  0.00     0.135 A 
ATOM     86  F   UNL A   1      48.997  27.741  28.872  1.00  0.00    -0.206 F 
ATOM     87  C   UNL A   1      50.401  26.672  30.417  1.00  0.00     0.059 A 
ATOM     88  C   UNL A   1      49.474  25.765  32.470  1.00  0.00     0.059 A 
ATOM     89  F   UNL A   1      47.171  25.920  32.874  1.00  0.00    -0.206 F 
ATOM     90  C   UNL A   1      50.561  26.002  31.633  1.00  0.00     0.060 A 
BRANCH  90  91
ATOM     91  S   UNL A   1      52.215  25.459  32.109  1.00  0.00     0.124 S 
ATOM     92  O   UNL A   1      51.998  24.037  32.355  1.00  0.00    -0.237 OA
ATOM     93  O   UNL A   1      53.004  25.785  30.925  1.00  0.00    -0.237 OA
ATOM     94  O   UNL A   1      52.510  26.263  33.291  1.00  0.00    -0.744 OA
ENDBRANCH  90  91
ENDBRANCH  58  83
ENDBRANCH  32  33
ENDBRANCH  24  27
ENDBRANCH  22  23
ENDBRANCH  21  22
ENDBRANCH   1  21
TORSDOF 19
ENDMDL
MODEL 2
REMARK VINA RESULT:      -9.9      4.906     10.371
REMARK SMILES CC[C@H](C)[C@H](C(=O)NCCCCCCNC(=O)c1ccc(-c2c3nc(c(-c4c(F)cc(S(=O)(=O)[O-])cc4F)c4ccc([nH]4)c(-c4c(F)cc(S(=O)(=O)[O-])cc4F)c4nc(c(-c5c(F)cc(S(=O)(=O)[O-])cc5F)c5ccc2[nH]5)C=C4)C=C3)cc1)[NH+]1CC2(CC2)C1
REMARK SMILES IDX 12 1 11 2 10 3 9 4 8 5 6 6 7 7 5 9 3 10 4 11 2 12 1 13 84 14
REMARK SMILES IDX 85 15 89 16 86 18 87 19 88 20 13 21 14 22 15 23 16 24 17 26
REMARK SMILES IDX 18 27 19 28 83 29 20 30 82 31 21 32 22 33 23 34 76 35 24 36
REMARK SMILES IDX 81 37 75 38 77 39 25 40 80 41 74 42 73 43 26 45 60 46 39 47
REMARK SMILES IDX 59 48 40 49 43 50 58 51 78 52 41 53 42 54 57 56 79 57 44 58
REMARK SMILES IDX 27 59 28 60 37 61 29 62 30 63 36 64 38 65 31 66 32 67 33 68
REMARK SMILES IDX 34 69 35 70 61 71 62 72 71 73 63 74 64 75 70 76 72 77 65 78
REMARK SMILES IDX 66 79 67 80 68 81 69 82 45 83 46 84 55 85 47 86 48 87 54 88
REMARK SMILES IDX 56 89 49 90 50 91 51 92 52 93 53 94
REMARK H PARENT 8 8 84 17 15 25 77 44 43 55
REMARK Flexibility Score: inf
ROOT
ATOM      1  C   UNL A   1      38.249  23.760  26.064  1.00  0.00     0.002 C 
ENDROOT
BRANCH   1   2
ATOM      2  C   UNL A   1      36.865  23.165  25.787  1.00  0.00     0.002 C 
BRANCH   2   3
ATOM      3  C   UNL A   1      36.748  21.649  26.006  1.00  0.00     0.021 C 
BRANCH   3   4
ATOM      4  C   UNL A   1      36.134  20.883  24.834  1.00  0.00     0.116 C 
BRANCH   4   5
ATOM      5  N   UNL A   1      35.363  21.770  23.986  1.00  0.00    -0.351 N 
ATOM      6  C   UNL A   1      34.046  22.111  23.989  1.00  0.00     0.278 C 
ATOM      7  O   UNL A   1      33.717  22.956  23.155  1.00  0.00    -0.268 OA
ATOM      8  H   UNL A   1      35.889  22.208  23.278  1.00  0.00     0.163 HD
BRANCH   6   9
ATOM      9  C   UNL A   1      33.105  21.533  25.068  1.00  0.00     0.277 C 
BRANCH   9  10
ATOM     10  C   UNL A   1      32.331  22.731  25.716  1.00  0.00     0.054 C 
ATOM     11  C   UNL A   1      30.834  22.467  25.932  1.00  0.00     0.014 C 
BRANCH  10  12
ATOM     12  C   UNL A   1      33.034  23.249  26.992  1.00  0.00     0.006 C 
ATOM     13  C   UNL A   1      33.498  22.154  27.944  1.00  0.00     0.004 C 
ENDBRANCH  10  12
ENDBRANCH   9  10
BRANCH   9  14
ATOM     14  N   UNL A   1      32.273  20.361  24.681  1.00  0.00    -0.323 N 
ATOM     15  C   UNL A   1      32.632  19.695  23.427  1.00  0.00     0.275 C 
ATOM     16  C   UNL A   1      32.583  19.148  25.461  1.00  0.00     0.275 C 
ATOM     17  H   UNL A   1      31.355  20.803  24.741  1.00  0.00     0.348 HD
ATOM     18  C   UNL A   1      33.152  18.568  24.227  1.00  0.00     0.068 C 
ATOM     19  C   UNL A   1      34.504  17.931  24.085  1.00  0.00     0.020 C 
ATOM     20  C   UNL A   1      33.259  17.138  23.806  1.00  0.00     0.020 C 
ENDBRANCH   9  14
ENDBRANCH   6   9
ENDBRANCH   4   5
ENDBRANCH   3   4
ENDBRANCH   2   3
ENDBRANCH   1   2
BRANCH   1  21
ATOM     21  C   UNL A   1      39.306  22.749  26.508  1.00  0.00     0.021 C 
BRANCH  21  22
ATOM     22  C   UNL A   1      40.575  23.371  27.074  1.00  0.00     0.116 C 
BRANCH  22  23
ATOM     23  N   UNL A   1      41.356  24.053  26.056  1.00  0.00    -0.352 N 
ATOM     24  C   UNL A   1      41.751  25.369  26.013  1.00  0.00     0.251 C 
ATOM     25  H   UNL A   1      41.640  23.499  25.294  1.00  0.00     0.163 HD
ATOM     26  O   UNL A   1      42.253  25.826  24.995  1.00  0.00    -0.269 OA
BRANCH  24  27
ATOM     27  C   UNL A   1      41.543  26.230  27.200  1.00  0.00     0.039 A 
ATOM     28  C   UNL A   1      42.384  27.326  27.393  1.00  0.00     0.014 A 
ATOM     29  C   UNL A   1      40.523  25.955  28.117  1.00  0.00     0.014 A 
ATOM     30  C   UNL A   1      42.178  28.170  28.487  1.00  0.00     0.010 A 
ATOM     31  C   UNL A   1      40.266  26.844  29.155  1.00  0.00     0.010 A 
ATOM     32  C   UNL A   1      41.103  27.950  29.364  1.00  0.00    -0.014 A 
BRANCH  32  33
ATOM     33  C   UNL A   1      40.868  28.845  30.526  1.00  0.00     0.031 A 
ATOM     34  C   UNL A   1      41.704  28.700  31.771  1.00  0.00     0.074 A 
ATOM     35  C   UNL A   1      39.882  29.763  30.475  1.00  0.00     0.049 A 
ATOM     36  N   UNL A   1      41.639  29.370  32.892  1.00  0.00    -0.248 NA
ATOM     37  C   UNL A   1      42.730  27.644  31.765  1.00  0.00     0.031 C 
ATOM     38  C   UNL A   1      38.971  29.964  29.346  1.00  0.00     0.029 A 
ATOM     39  N   UNL A   1      39.481  30.699  31.395  1.00  0.00    -0.354 N 
ATOM     40  C   UNL A   1      42.604  28.813  33.723  1.00  0.00     0.074 A 
ATOM     41  C   UNL A   1      43.193  27.706  33.004  1.00  0.00     0.031 C 
ATOM     42  C   UNL A   1      38.141  30.981  29.627  1.00  0.00     0.029 A 
ATOM     43  C   UNL A   1      38.432  31.480  30.967  1.00  0.00     0.049 A 
ATOM     44  H   UNL A   1      39.903  30.801  32.278  1.00  0.00     0.167 HD
ATOM     45  C   UNL A   1      42.987  29.206  34.962  1.00  0.00     0.037 A 
ATOM     46  C   UNL A   1      37.781  32.484  31.586  1.00  0.00     0.037 A 
ATOM     47  C   UNL A   1      42.410  30.323  35.663  1.00  0.00     0.049 A 
ATOM     48  C   UNL A   1      38.224  32.904  32.962  1.00  0.00     0.074 A 
ATOM     49  C   UNL A   1      42.760  30.837  36.900  1.00  0.00     0.029 A 
ATOM     50  N   UNL A   1      41.362  31.101  35.190  1.00  0.00    -0.354 N 
ATOM     51  N   UNL A   1      39.183  32.407  33.708  1.00  0.00    -0.248 NA
ATOM     52  C   UNL A   1      37.508  34.030  33.576  1.00  0.00     0.031 C 
ATOM     53  C   UNL A   1      41.889  31.889  37.198  1.00  0.00     0.029 A 
ATOM     54  C   UNL A   1      41.039  32.076  36.119  1.00  0.00     0.049 A 
ATOM     55  H   UNL A   1      40.914  30.977  34.323  1.00  0.00     0.167 HD
ATOM     56  C   UNL A   1      39.207  33.183  34.863  1.00  0.00     0.074 A 
ATOM     57  C   UNL A   1      38.175  34.187  34.710  1.00  0.00     0.031 C 
ATOM     58  C   UNL A   1      40.013  33.075  35.949  1.00  0.00     0.037 A 
BRANCH  45  59
ATOM     59  C   UNL A   1      44.082  28.423  35.637  1.00  0.00     0.058 A 
ATOM     60  C   UNL A   1      45.439  28.736  35.449  1.00  0.00     0.135 A 
ATOM     61  C   UNL A   1      43.773  27.365  36.508  1.00  0.00     0.135 A 
ATOM     62  F   UNL A   1      45.796  29.726  34.614  1.00  0.00    -0.206 F 
ATOM     63  C   UNL A   1      46.448  28.009  36.072  1.00  0.00     0.059 A 
ATOM     64  C   UNL A   1      44.765  26.646  37.168  1.00  0.00     0.059 A 
ATOM     65  F   UNL A   1      42.494  27.020  36.724  1.00  0.00    -0.206 F 
ATOM     66  C   UNL A   1      46.101  26.966  36.932  1.00  0.00     0.060 A 
BRANCH  66  67
ATOM     67  S   UNL A   1      47.423  26.038  37.738  1.00  0.00     0.124 S 
ATOM     68  O   UNL A   1      46.786  25.658  38.996  1.00  0.00    -0.237 OA
ATOM     69  O   UNL A   1      47.659  24.951  36.794  1.00  0.00    -0.237 OA
ATOM     70  O   UNL A   1      48.503  27.013  37.852  1.00  0.00    -0.744 OA
ENDBRANCH  66  67
ENDBRANCH  45  59
BRANCH  46  71
ATOM     71  C   UNL A   1      36.661  33.181  30.897  1.00  0.00     0.058 A 
ATOM     72  C   UNL A   1      35.330  32.995  31.303  1.00  0.00     0.135 A 
ATOM     73  C   UNL A   1      36.898  34.054  29.823  1.00  0.00     0.135 A 
ATOM     74  F   UNL A   1      35.051  32.167  32.321  1.00  0.00    -0.206 F 
ATOM     75  C   UNL A   1      34.275  33.630  30.658  1.00  0.00     0.059 A 
ATOM     76  C   UNL A   1      35.861  34.723  29.181  1.00  0.00     0.059 A 
ATOM     77  F   UNL A   1      38.153  34.282  29.406  1.00  0.00    -0.206 F 
ATOM     78  C   UNL A   1      34.551  34.495  29.598  1.00  0.00     0.060 A 
BRANCH  78  79
ATOM     79  S   UNL A   1      33.175  35.347  28.795  1.00  0.00     0.124 S 
ATOM     80  O   UNL A   1      33.874  36.364  28.018  1.00  0.00    -0.237 OA
ATOM     81  O   UNL A   1      32.555  34.271  28.029  1.00  0.00    -0.237 OA
ATOM     82  O   UNL A   1      32.386  35.842  29.919  1.00  0.00    -0.744 OA
ENDBRANCH  78  79
ENDBRANCH  46  71
BRANCH  58  83
ATOM     83  C   UNL A   1      39.845  34.100  37.039  1.00  0.00     0.058 A 
ATOM     84  C   UNL A   1      38.999  33.886  38.139  1.00  0.00     0.135 A 
ATOM     85  C   UNL A   1      40.574  35.300  36.998  1.00  0.00     0.135 A 
ATOM     86  F   UNL A   1      38.277  32.759  38.228  1.00  0.00    -0.206 F 
ATOM     87  C   UNL A   1      38.850  34.843  39.138  1.00  0.00     0.059 A 
ATOM     88  C   UNL A   1      40.467  36.256  38.004  1.00  0.00     0.059 A 
ATOM     89  F   UNL A   1      41.409  35.550  35.978  1.00  0.00    -0.206 F 
ATOM     90  C   UNL A   1      39.590  36.026  39.061  1.00  0.00     0.060 A 
BRANCH  90  91
ATOM     91  S   UNL A   1      39.398  37.252  40.370  1.00  0.00     0.124 S 
ATOM     92  O   UNL A   1      40.778  37.677  40.581  1.00  0.00    -0.237 OA
ATOM     93  O   UNL A   1      38.519  38.238  39.748  1.00  0.00    -0.237 OA
ATOM     94  O   UNL A   1      38.801  36.492  41.464  1.00  0.00    -0.744 OA
ENDBRANCH  90  91
ENDBRANCH  58  83
ENDBRANCH  32  33
ENDBRANCH  24  27
ENDBRANCH  22  23
ENDBRANCH  21  22
ENDBRANCH   1  21
TORSDOF 19
ENDMDL
MODEL 3
REMARK VINA RESULT:      -9.7      4.819     10.454
REMARK SMILES CC[C@H](C)[C@H](C(=O)NCCCCCCNC(=O)c1ccc(-c2c3nc(c(-c4c(F)cc(S(=O)(=O)[O-])cc4F)c4ccc([nH]4)c(-c4c(F)cc(S(=O)(=O)[O-])cc4F)c4nc(c(-c5c(F)cc(S(=O)(=O)[O-])cc5F)c5ccc2[nH]5)C=C4)C=C3)cc1)[NH+]1CC2(CC2)C1
REMARK SMILES IDX 12 1 11 2 10 3 9 4 8 5 6 6 7 7 5 9 3 10 4 11 2 12 1 13 84 14
REMARK SMILES IDX 85 15 89 16 86 18 87 19 88 20 13 21 14 22 15 23 16 24 17 26
REMARK SMILES IDX 18 27 19 28 83 29 20 30 82 31 21 32 22 33 23 34 76 35 24 36
REMARK SMILES IDX 81 37 75 38 77 39 25 40 80 41 74 42 73 43 26 45 60 46 39 47
REMARK SMILES IDX 59 48 40 49 43 50 58 51 78 52 41 53 42 54 57 56 79 57 44 58
REMARK SMILES IDX 27 59 28 60 37 61 29 62 30 63 36 64 38 65 31 66 32 67 33 68
REMARK SMILES IDX 34 69 35 70 61 71 62 72 71 73 63 74 64 75 70 76 72 77 65 78
REMARK SMILES IDX 66 79 67 80 68 81 69 82 45 83 46 84 55 85 47 86 48 87 54 88
REMARK SMILES IDX 56 89 49 90 50 91 51 92 52 93 53 94
REMARK H PARENT 8 8 84 17 15 25 77 44 43 55
REMARK Flexibility Score: inf
ROOT
ATOM      1  C   UNL A   1      38.467  23.586  26.334  1.00  0.00     0.002 C 
ENDROOT
BRANCH   1   2
ATOM      2  C   UNL A   1      37.245  22.837  25.794  1.00  0.00     0.002 C 
BRANCH   2   3
ATOM      3  C   UNL A   1      36.892  23.130  24.328  1.00  0.00     0.021 C 
BRANCH   3   4
ATOM      4  C   UNL A   1      35.420  23.460  24.081  1.00  0.00     0.116 C 
BRANCH   4   5
ATOM      5  N   UNL A   1      35.001  24.582  24.899  1.00  0.00    -0.351 N 
ATOM      6  C   UNL A   1      33.807  24.888  25.475  1.00  0.00     0.278 C 
ATOM      7  O   UNL A   1      33.802  25.904  26.171  1.00  0.00    -0.268 OA
ATOM      8  H   UNL A   1      35.710  25.243  25.069  1.00  0.00     0.163 HD
BRANCH   6   9
ATOM      9  C   UNL A   1      32.612  23.922  25.327  1.00  0.00     0.277 C 
BRANCH   9  10
ATOM     10  C   UNL A   1      32.103  23.570  26.766  1.00  0.00     0.054 C 
ATOM     11  C   UNL A   1      30.663  23.038  26.809  1.00  0.00     0.014 C 
BRANCH  10  12
ATOM     12  C   UNL A   1      33.097  22.660  27.523  1.00  0.00     0.006 C 
ATOM     13  C   UNL A   1      33.535  21.424  26.747  1.00  0.00     0.004 C 
ENDBRANCH  10  12
ENDBRANCH   9  10
BRANCH   9  14
ATOM     14  N   UNL A   1      31.558  24.297  24.344  1.00  0.00    -0.323 N 
ATOM     15  C   UNL A   1      31.515  25.704  23.942  1.00  0.00     0.275 C 
ATOM     16  C   UNL A   1      31.876  23.872  22.967  1.00  0.00     0.275 C 
ATOM     17  H   UNL A   1      30.751  23.916  24.837  1.00  0.00     0.348 HD
ATOM     18  C   UNL A   1      32.051  25.299  22.627  1.00  0.00     0.068 C 
ATOM     19  C   UNL A   1      33.230  25.907  21.925  1.00  0.00     0.020 C 
ATOM     20  C   UNL A   1      31.858  26.000  21.321  1.00  0.00     0.020 C 
ENDBRANCH   9  14
ENDBRANCH   6   9
ENDBRANCH   4   5
ENDBRANCH   3   4
ENDBRANCH   2   3
ENDBRANCH   1   2
BRANCH   1  21
ATOM     21  C   UNL A   1      39.630  22.693  26.766  1.00  0.00     0.021 C 
BRANCH  21  22
ATOM     22  C   UNL A   1      40.885  23.448  27.180  1.00  0.00     0.116 C 
BRANCH  22  23
ATOM     23  N   UNL A   1      41.451  24.217  26.085  1.00  0.00    -0.352 N 
ATOM     24  C   UNL A   1      41.647  25.574  25.998  1.00  0.00     0.251 C 
ATOM     25  H   UNL A   1      41.731  23.696  25.298  1.00  0.00     0.163 HD
ATOM     26  O   UNL A   1      41.971  26.081  24.932  1.00  0.00    -0.269 OA
BRANCH  24  27
ATOM     27  C   UNL A   1      41.441  26.417  27.198  1.00  0.00     0.039 A 
ATOM     28  C   UNL A   1      42.287  27.506  27.411  1.00  0.00     0.014 A 
ATOM     29  C   UNL A   1      40.418  26.132  28.108  1.00  0.00     0.014 A 
ATOM     30  C   UNL A   1      42.083  28.332  28.518  1.00  0.00     0.010 A 
ATOM     31  C   UNL A   1      40.163  27.007  29.160  1.00  0.00     0.010 A 
ATOM     32  C   UNL A   1      41.005  28.104  29.389  1.00  0.00    -0.014 A 
BRANCH  32  33
ATOM     33  C   UNL A   1      40.772  28.981  30.565  1.00  0.00     0.031 A 
ATOM     34  C   UNL A   1      41.613  28.820  31.804  1.00  0.00     0.074 A 
ATOM     35  C   UNL A   1      39.785  29.898  30.531  1.00  0.00     0.049 A 
ATOM     36  N   UNL A   1      41.551  29.473  32.935  1.00  0.00    -0.248 NA
ATOM     37  C   UNL A   1      42.641  27.765  31.780  1.00  0.00     0.031 C 
ATOM     38  C   UNL A   1      38.869  30.115  29.407  1.00  0.00     0.029 A 
ATOM     39  N   UNL A   1      39.385  30.820  31.465  1.00  0.00    -0.354 N 
ATOM     40  C   UNL A   1      42.519  28.906  33.756  1.00  0.00     0.074 A 
ATOM     41  C   UNL A   1      43.108  27.811  33.018  1.00  0.00     0.031 C 
ATOM     42  C   UNL A   1      38.038  31.126  29.706  1.00  0.00     0.029 A 
ATOM     43  C   UNL A   1      38.333  31.605  31.053  1.00  0.00     0.049 A 
ATOM     44  H   UNL A   1      39.809  30.910  32.349  1.00  0.00     0.167 HD
ATOM     45  C   UNL A   1      42.905  29.281  34.999  1.00  0.00     0.037 A 
ATOM     46  C   UNL A   1      37.682  32.598  31.688  1.00  0.00     0.037 A 
ATOM     47  C   UNL A   1      42.329  30.386  35.718  1.00  0.00     0.049 A 
ATOM     48  C   UNL A   1      38.129  32.999  33.069  1.00  0.00     0.074 A 
ATOM     49  C   UNL A   1      42.681  30.883  36.961  1.00  0.00     0.029 A 
ATOM     50  N   UNL A   1      41.277  31.169  35.260  1.00  0.00    -0.354 N 
ATOM     51  N   UNL A   1      39.091  32.493  33.804  1.00  0.00    -0.248 NA
ATOM     52  C   UNL A   1      37.413  34.114  33.701  1.00  0.00     0.031 C 
ATOM     53  C   UNL A   1      41.809  31.929  37.277  1.00  0.00     0.029 A 
ATOM     54  C   UNL A   1      40.955  32.130  36.205  1.00  0.00     0.049 A 
ATOM     55  H   UNL A   1      40.827  31.057  34.393  1.00  0.00     0.167 HD
ATOM     56  C   UNL A   1      39.118  33.252  34.970  1.00  0.00     0.074 A 
ATOM     57  C   UNL A   1      38.083  34.256  34.836  1.00  0.00     0.031 C 
ATOM     58  C   UNL A   1      39.927  33.130  36.053  1.00  0.00     0.037 A 
BRANCH  45  59
ATOM     59  C   UNL A   1      44.004  28.490  35.658  1.00  0.00     0.058 A 
ATOM     60  C   UNL A   1      43.728  27.401  36.502  1.00  0.00     0.135 A 
ATOM     61  C   UNL A   1      45.352  28.802  35.419  1.00  0.00     0.135 A 
ATOM     62  F   UNL A   1      42.457  27.065  36.781  1.00  0.00    -0.206 F 
ATOM     63  C   UNL A   1      44.745  26.674  37.110  1.00  0.00     0.059 A 
ATOM     64  C   UNL A   1      46.387  28.067  35.990  1.00  0.00     0.059 A 
ATOM     65  F   UNL A   1      45.676  29.833  34.623  1.00  0.00    -0.206 F 
ATOM     66  C   UNL A   1      46.073  27.013  36.847  1.00  0.00     0.060 A 
BRANCH  66  67
ATOM     67  S   UNL A   1      47.381  26.054  37.639  1.00  0.00     0.124 S 
ATOM     68  O   UNL A   1      47.875  25.257  36.520  1.00  0.00    -0.237 OA
ATOM     69  O   UNL A   1      48.282  27.096  38.121  1.00  0.00    -0.237 OA
ATOM     70  O   UNL A   1      46.677  25.308  38.677  1.00  0.00    -0.744 OA
ENDBRANCH  66  67
ENDBRANCH  45  59
BRANCH  46  71
ATOM     71  C   UNL A   1      36.558  33.304  31.013  1.00  0.00     0.058 A 
ATOM     72  C   UNL A   1      36.792  34.189  29.950  1.00  0.00     0.135 A 
ATOM     73  C   UNL A   1      35.228  33.102  31.414  1.00  0.00     0.135 A 
ATOM     74  F   UNL A   1      38.046  34.420  29.533  1.00  0.00    -0.206 F 
ATOM     75  C   UNL A   1      35.752  34.866  29.321  1.00  0.00     0.059 A 
ATOM     76  C   UNL A   1      34.169  33.745  30.781  1.00  0.00     0.059 A 
ATOM     77  F   UNL A   1      34.947  32.253  32.414  1.00  0.00    -0.206 F 
ATOM     78  C   UNL A   1      34.442  34.634  29.743  1.00  0.00     0.060 A 
BRANCH  78  79
ATOM     79  S   UNL A   1      33.095  35.485  28.891  1.00  0.00     0.124 S 
ATOM     80  O   UNL A   1      32.306  35.983  30.012  1.00  0.00    -0.237 OA
ATOM     81  O   UNL A   1      33.812  36.493  28.117  1.00  0.00    -0.237 OA
ATOM     82  O   UNL A   1      32.474  34.424  28.103  1.00  0.00    -0.744 OA
ENDBRANCH  78  79
ENDBRANCH  46  71
BRANCH  58  83
ATOM     83  C   UNL A   1      39.761  34.138  37.158  1.00  0.00     0.058 A 
ATOM     84  C   UNL A   1      38.924  33.903  38.260  1.00  0.00     0.135 A 
ATOM     85  C   UNL A   1      40.482  35.343  37.129  1.00  0.00     0.135 A 
ATOM     86  F   UNL A   1      38.209  32.770  38.338  1.00  0.00    -0.206 F 
ATOM     87  C   UNL A   1      38.777  34.845  39.274  1.00  0.00     0.059 A 
ATOM     88  C   UNL A   1      40.377  36.283  38.149  1.00  0.00     0.059 A 
ATOM     89  F   UNL A   1      41.309  35.612  36.106  1.00  0.00    -0.206 F 
ATOM     90  C   UNL A   1      39.509  36.033  39.209  1.00  0.00     0.060 A 
BRANCH  90  91
ATOM     91  S   UNL A   1      39.319  37.240  40.537  1.00  0.00     0.124 S 
ATOM     92  O   UNL A   1      38.266  38.099  40.006  1.00  0.00    -0.237 OA
ATOM     93  O   UNL A   1      38.941  36.401  41.670  1.00  0.00    -0.237 OA
ATOM     94  O   UNL A   1      40.641  37.852  40.632  1.00  0.00    -0.744 OA
ENDBRANCH  90  91
ENDBRANCH  58  83
ENDBRANCH  32  33
ENDBRANCH  24  27
ENDBRANCH  22  23
ENDBRANCH  21  22
ENDBRANCH   1  21
TORSDOF 19
ENDMDL
