MODEL 1
REMARK VINA RESULT:     -11.7      0.000      0.000
REMARK SMILES O=C(NCCCCCCNC(=O)c1cccn1C[C@@H]1C[N@@H+]2CCC[C@@H]2CO1)c1ccc(-c2c3nc(c(-c4c(F)cc(S(=O)(=O)[O-])cc4F)c4ccc([nH]4)c(-c4c(F)cc(S(=O)(=O)[O-])cc4F)c4nc(c(-c5c(F)cc(S(=O)(=O)[O-])cc5F)c5ccc2[nH]5)C=C4)C=C3)cc1
REMARK SMILES IDX 6 1 5 2 4 3 3 4 1 5 2 6 28 8 29 9 93 10 30 11 92 12 31 13
REMARK SMILES IDX 32 14 33 15 86 16 34 17 91 18 85 19 87 20 35 21 90 22 84 23
REMARK SMILES IDX 83 24 36 26 70 27 49 28 69 29 50 30 53 31 68 32 88 33 51 34
REMARK SMILES IDX 52 35 67 37 89 38 54 39 37 40 38 41 47 42 39 43 40 44 46 45
REMARK SMILES IDX 48 46 41 47 42 48 43 49 44 50 45 51 71 52 72 53 81 54 73 55
REMARK SMILES IDX 74 56 80 57 82 58 75 59 76 60 77 61 78 62 79 63 55 64 56 65
REMARK SMILES IDX 65 66 57 67 58 68 64 69 66 70 59 71 60 72 61 73 62 74 63 75
REMARK SMILES IDX 7 76 8 77 9 78 10 79 11 80 12 82 13 83 14 84 17 85 15 86
REMARK SMILES IDX 16 87 18 88 19 89 20 90 27 91 21 92 26 93 22 94 25 95 23 97
REMARK SMILES IDX 24 98
REMARK H PARENT 3 7 87 25 53 36 10 81 21 96
REMARK Flexibility Score: inf
ROOT
ATOM      1  C   UNL A   1      32.352  28.908  24.914  1.00  0.00     0.002 C 
ENDROOT
BRANCH   1   2
ATOM      2  C   UNL A   1      32.178  28.568  26.397  1.00  0.00     0.021 C 
BRANCH   2   3
ATOM      3  C   UNL A   1      33.360  28.980  27.274  1.00  0.00     0.116 C 
BRANCH   3   4
ATOM      4  N   UNL A   1      33.339  30.363  27.712  1.00  0.00    -0.352 N 
ATOM      5  O   UNL A   1      34.018  32.361  28.446  1.00  0.00    -0.269 OA
ATOM      6  C   UNL A   1      34.319  31.195  28.194  1.00  0.00     0.251 C 
ATOM      7  H   UNL A   1      32.452  30.785  27.652  1.00  0.00     0.163 HD
BRANCH   6   8
ATOM      8  C   UNL A   1      35.690  30.714  28.491  1.00  0.00     0.039 A 
ATOM      9  C   UNL A   1      36.674  30.572  27.512  1.00  0.00     0.014 A 
ATOM     10  C   UNL A   1      35.998  30.410  29.828  1.00  0.00     0.014 A 
ATOM     11  C   UNL A   1      37.905  30.018  27.832  1.00  0.00     0.010 A 
ATOM     12  C   UNL A   1      37.253  29.905  30.168  1.00  0.00     0.010 A 
ATOM     13  C   UNL A   1      38.200  29.699  29.161  1.00  0.00    -0.014 A 
BRANCH  13  14
ATOM     14  C   UNL A   1      39.616  29.384  29.455  1.00  0.00     0.031 A 
ATOM     15  C   UNL A   1      40.407  30.682  29.782  1.00  0.00     0.074 A 
ATOM     16  C   UNL A   1      39.996  28.081  29.274  1.00  0.00     0.049 A 
ATOM     17  N   UNL A   1      41.655  30.986  29.586  1.00  0.00    -0.248 NA
ATOM     18  C   UNL A   1      39.662  31.860  30.321  1.00  0.00     0.031 C 
ATOM     19  C   UNL A   1      39.075  26.959  28.975  1.00  0.00     0.029 A 
ATOM     20  N   UNL A   1      41.211  27.425  29.284  1.00  0.00    -0.354 N 
ATOM     21  C   UNL A   1      41.886  32.264  30.158  1.00  0.00     0.074 A 
ATOM     22  C   UNL A   1      40.600  32.798  30.479  1.00  0.00     0.031 C 
ATOM     23  C   UNL A   1      39.757  25.813  28.747  1.00  0.00     0.029 A 
ATOM     24  C   UNL A   1      41.180  26.056  28.884  1.00  0.00     0.049 A 
ATOM     25  H   UNL A   1      42.046  27.874  29.551  1.00  0.00     0.167 HD
ATOM     26  C   UNL A   1      43.131  32.762  30.428  1.00  0.00     0.037 A 
ATOM     27  C   UNL A   1      42.231  25.208  28.636  1.00  0.00     0.037 A 
ATOM     28  C   UNL A   1      44.121  31.828  30.015  1.00  0.00     0.049 A 
ATOM     29  C   UNL A   1      43.421  25.977  29.025  1.00  0.00     0.074 A 
ATOM     30  C   UNL A   1      44.613  31.511  28.778  1.00  0.00     0.029 A 
ATOM     31  N   UNL A   1      44.466  30.844  30.909  1.00  0.00    -0.354 N 
ATOM     32  N   UNL A   1      43.755  26.257  30.248  1.00  0.00    -0.248 NA
ATOM     33  C   UNL A   1      44.250  26.567  27.967  1.00  0.00     0.031 C 
ATOM     34  C   UNL A   1      44.824  30.122  28.859  1.00  0.00     0.029 A 
ATOM     35  C   UNL A   1      44.667  29.693  30.183  1.00  0.00     0.049 A 
ATOM     36  H   UNL A   1      44.553  30.943  31.885  1.00  0.00     0.167 HD
ATOM     37  C   UNL A   1      44.618  27.312  30.086  1.00  0.00     0.074 A 
ATOM     38  C   UNL A   1      45.110  27.238  28.728  1.00  0.00     0.031 C 
ATOM     39  C   UNL A   1      44.476  28.424  30.849  1.00  0.00     0.037 A 
BRANCH  26  40
ATOM     40  C   UNL A   1      43.615  33.963  31.201  1.00  0.00     0.058 A 
ATOM     41  C   UNL A   1      43.477  33.953  32.614  1.00  0.00     0.135 A 
ATOM     42  C   UNL A   1      43.893  35.209  30.623  1.00  0.00     0.135 A 
ATOM     43  F   UNL A   1      43.285  32.800  33.279  1.00  0.00    -0.206 F 
ATOM     44  C   UNL A   1      43.470  35.113  33.381  1.00  0.00     0.059 A 
ATOM     45  C   UNL A   1      43.932  36.388  31.382  1.00  0.00     0.059 A 
ATOM     46  F   UNL A   1      44.061  35.329  29.299  1.00  0.00    -0.206 F 
ATOM     47  C   UNL A   1      43.664  36.334  32.751  1.00  0.00     0.060 A 
BRANCH  47  48
ATOM     48  S   UNL A   1      43.516  37.835  33.744  1.00  0.00     0.124 S 
ATOM     49  O   UNL A   1      43.469  38.871  32.718  1.00  0.00    -0.237 OA
ATOM     50  O   UNL A   1      42.269  37.605  34.467  1.00  0.00    -0.237 OA
ATOM     51  O   UNL A   1      44.721  37.814  34.569  1.00  0.00    -0.744 OA
ENDBRANCH  47  48
ENDBRANCH  26  40
BRANCH  27  52
ATOM     52  C   UNL A   1      42.502  23.854  27.992  1.00  0.00     0.058 A 
ATOM     53  C   UNL A   1      43.013  22.713  28.624  1.00  0.00     0.135 A 
ATOM     54  C   UNL A   1      42.078  23.619  26.648  1.00  0.00     0.135 A 
ATOM     55  F   UNL A   1      43.592  22.792  29.828  1.00  0.00    -0.206 F 
ATOM     56  C   UNL A   1      42.936  21.427  28.045  1.00  0.00     0.059 A 
ATOM     57  C   UNL A   1      41.937  22.357  26.076  1.00  0.00     0.059 A 
ATOM     58  F   UNL A   1      41.733  24.625  25.830  1.00  0.00    -0.206 F 
ATOM     59  C   UNL A   1      42.333  21.253  26.799  1.00  0.00     0.060 A 
BRANCH  59  60
ATOM     60  S   UNL A   1      41.928  19.603  26.180  1.00  0.00     0.124 S 
ATOM     61  O   UNL A   1      40.483  19.681  26.016  1.00  0.00    -0.237 OA
ATOM     62  O   UNL A   1      42.708  19.530  24.949  1.00  0.00    -0.237 OA
ATOM     63  O   UNL A   1      42.395  18.722  27.250  1.00  0.00    -0.744 OA
ENDBRANCH  59  60
ENDBRANCH  27  52
BRANCH  39  64
ATOM     64  C   UNL A   1      43.780  28.197  32.181  1.00  0.00     0.058 A 
ATOM     65  C   UNL A   1      44.405  27.427  33.175  1.00  0.00     0.135 A 
ATOM     66  C   UNL A   1      42.481  28.642  32.484  1.00  0.00     0.135 A 
ATOM     67  F   UNL A   1      45.645  26.955  32.972  1.00  0.00    -0.206 F 
ATOM     68  C   UNL A   1      43.784  27.129  34.393  1.00  0.00     0.059 A 
ATOM     69  C   UNL A   1      41.838  28.370  33.696  1.00  0.00     0.059 A 
ATOM     70  F   UNL A   1      41.789  29.359  31.603  1.00  0.00    -0.206 F 
ATOM     71  C   UNL A   1      42.501  27.612  34.650  1.00  0.00     0.060 A 
BRANCH  71  72
ATOM     72  S   UNL A   1      41.736  27.264  36.250  1.00  0.00     0.124 S 
ATOM     73  O   UNL A   1      41.171  25.934  36.044  1.00  0.00    -0.237 OA
ATOM     74  O   UNL A   1      42.879  27.331  37.154  1.00  0.00    -0.237 OA
ATOM     75  O   UNL A   1      40.756  28.336  36.407  1.00  0.00    -0.744 OA
ENDBRANCH  71  72
ENDBRANCH  39  64
ENDBRANCH  13  14
ENDBRANCH   6   8
ENDBRANCH   3   4
ENDBRANCH   2   3
ENDBRANCH   1   2
BRANCH   1  76
ATOM     76  C   UNL A   1      31.047  29.066  24.126  1.00  0.00     0.002 C 
BRANCH  76  77
ATOM     77  C   UNL A   1      31.073  28.509  22.696  1.00  0.00     0.021 C 
BRANCH  77  78
ATOM     78  C   UNL A   1      30.821  27.005  22.593  1.00  0.00     0.116 C 
BRANCH  78  79
ATOM     79  N   UNL A   1      31.498  26.445  21.439  1.00  0.00    -0.351 N 
ATOM     80  C   UNL A   1      32.753  25.905  21.344  1.00  0.00     0.267 C 
ATOM     81  H   UNL A   1      30.980  26.455  20.602  1.00  0.00     0.163 HD
ATOM     82  O   UNL A   1      33.223  25.729  20.224  1.00  0.00    -0.268 OA
BRANCH  80  83
ATOM     83  C   UNL A   1      33.458  25.555  22.558  1.00  0.00     0.107 A 
ATOM     84  C   UNL A   1      34.032  26.408  23.493  1.00  0.00     0.033 A 
ATOM     85  N   UNL A   1      33.621  24.270  23.048  1.00  0.00    -0.341 N 
ATOM     86  C   UNL A   1      34.467  25.637  24.591  1.00  0.00     0.020 A 
ATOM     87  C   UNL A   1      34.126  24.333  24.322  1.00  0.00     0.086 A 
BRANCH  85  88
ATOM     88  C   UNL A   1      33.257  23.037  22.374  1.00  0.00     0.160 C 
BRANCH  88  89
ATOM     89  C   UNL A   1      31.955  22.324  22.809  1.00  0.00     0.193 C 
ATOM     90  C   UNL A   1      30.804  23.236  23.308  1.00  0.00     0.296 C 
ATOM     91  O   UNL A   1      32.174  21.166  23.635  1.00  0.00    -0.364 OA
ATOM     92  N   UNL A   1      30.564  23.280  24.732  1.00  0.00    -0.328 N 
ATOM     93  C   UNL A   1      32.334  21.488  25.018  1.00  0.00     0.225 C 
ATOM     94  C   UNL A   1      30.379  24.536  25.421  1.00  0.00     0.262 C 
ATOM     95  C   UNL A   1      31.133  22.248  25.584  1.00  0.00     0.210 C 
ATOM     96  H   UNL A   1      29.601  22.991  24.557  1.00  0.00     0.348 HD
ATOM     97  C   UNL A   1      30.483  24.150  26.890  1.00  0.00     0.068 C 
ATOM     98  C   UNL A   1      31.454  22.980  26.885  1.00  0.00     0.073 C 
ENDBRANCH  88  89
ENDBRANCH  85  88
ENDBRANCH  80  83
ENDBRANCH  78  79
ENDBRANCH  77  78
ENDBRANCH  76  77
ENDBRANCH   1  76
TORSDOF 18
ENDMDL
MODEL 2
REMARK VINA RESULT:     -11.7      3.340      9.269
REMARK SMILES O=C(NCCCCCCNC(=O)c1cccn1C[C@@H]1C[N@@H+]2CCC[C@@H]2CO1)c1ccc(-c2c3nc(c(-c4c(F)cc(S(=O)(=O)[O-])cc4F)c4ccc([nH]4)c(-c4c(F)cc(S(=O)(=O)[O-])cc4F)c4nc(c(-c5c(F)cc(S(=O)(=O)[O-])cc5F)c5ccc2[nH]5)C=C4)C=C3)cc1
REMARK SMILES IDX 6 1 5 2 4 3 3 4 1 5 2 6 28 8 29 9 93 10 30 11 92 12 31 13
REMARK SMILES IDX 32 14 33 15 86 16 34 17 91 18 85 19 87 20 35 21 90 22 84 23
REMARK SMILES IDX 83 24 36 26 70 27 49 28 69 29 50 30 53 31 68 32 88 33 51 34
REMARK SMILES IDX 52 35 67 37 89 38 54 39 37 40 38 41 47 42 39 43 40 44 46 45
REMARK SMILES IDX 48 46 41 47 42 48 43 49 44 50 45 51 71 52 72 53 81 54 73 55
REMARK SMILES IDX 74 56 80 57 82 58 75 59 76 60 77 61 78 62 79 63 55 64 56 65
REMARK SMILES IDX 65 66 57 67 58 68 64 69 66 70 59 71 60 72 61 73 62 74 63 75
REMARK SMILES IDX 7 76 8 77 9 78 10 79 11 80 12 82 13 83 14 84 17 85 15 86
REMARK SMILES IDX 16 87 18 88 19 89 20 90 27 91 21 92 26 93 22 94 25 95 23 97
REMARK SMILES IDX 24 98
REMARK H PARENT 3 7 87 25 53 36 10 81 21 96
REMARK Flexibility Score: inf
ROOT
ATOM      1  C   UNL A   1      32.401  28.581  26.941  1.00  0.00     0.002 C 
ENDROOT
BRANCH   1   2
ATOM      2  C   UNL A   1      33.545  28.103  26.043  1.00  0.00     0.021 C 
BRANCH   2   3
ATOM      3  C   UNL A   1      34.865  28.839  26.269  1.00  0.00     0.116 C 
BRANCH   3   4
ATOM      4  N   UNL A   1      34.789  29.954  27.194  1.00  0.00    -0.352 N 
ATOM      5  O   UNL A   1      35.355  31.461  28.743  1.00  0.00    -0.269 OA
ATOM      6  C   UNL A   1      35.675  30.451  28.116  1.00  0.00     0.251 C 
ATOM      7  H   UNL A   1      33.938  30.447  27.153  1.00  0.00     0.163 HD
BRANCH   6   8
ATOM      8  C   UNL A   1      36.954  29.771  28.432  1.00  0.00     0.039 A 
ATOM      9  C   UNL A   1      38.089  29.873  27.626  1.00  0.00     0.014 A 
ATOM     10  C   UNL A   1      37.013  29.009  29.612  1.00  0.00     0.014 A 
ATOM     11  C   UNL A   1      39.223  29.130  27.916  1.00  0.00     0.010 A 
ATOM     12  C   UNL A   1      38.170  28.303  29.941  1.00  0.00     0.010 A 
ATOM     13  C   UNL A   1      39.270  28.358  29.081  1.00  0.00    -0.014 A 
BRANCH  13  14
ATOM     14  C   UNL A   1      40.600  27.830  29.458  1.00  0.00     0.031 A 
ATOM     15  C   UNL A   1      40.920  26.538  28.655  1.00  0.00     0.074 A 
ATOM     16  C   UNL A   1      41.235  28.468  30.489  1.00  0.00     0.049 A 
ATOM     17  N   UNL A   1      41.630  25.496  28.973  1.00  0.00    -0.248 NA
ATOM     18  C   UNL A   1      40.263  26.334  27.328  1.00  0.00     0.031 C 
ATOM     19  C   UNL A   1      40.772  29.723  31.127  1.00  0.00     0.029 A 
ATOM     20  N   UNL A   1      42.373  28.205  31.226  1.00  0.00    -0.354 N 
ATOM     21  C   UNL A   1      41.680  24.643  27.840  1.00  0.00     0.074 A 
ATOM     22  C   UNL A   1      40.722  25.152  26.911  1.00  0.00     0.031 C 
ATOM     23  C   UNL A   1      41.550  30.050  32.185  1.00  0.00     0.029 A 
ATOM     24  C   UNL A   1      42.601  29.063  32.342  1.00  0.00     0.049 A 
ATOM     25  H   UNL A   1      42.989  27.473  30.994  1.00  0.00     0.167 HD
ATOM     26  C   UNL A   1      42.586  23.628  27.693  1.00  0.00     0.037 A 
ATOM     27  C   UNL A   1      43.536  28.947  33.340  1.00  0.00     0.037 A 
ATOM     28  C   UNL A   1      43.412  23.552  28.848  1.00  0.00     0.049 A 
ATOM     29  C   UNL A   1      44.375  27.813  32.925  1.00  0.00     0.074 A 
ATOM     30  C   UNL A   1      43.183  23.048  30.099  1.00  0.00     0.029 A 
ATOM     31  N   UNL A   1      44.523  24.359  28.878  1.00  0.00    -0.354 N 
ATOM     32  N   UNL A   1      45.222  27.839  31.942  1.00  0.00    -0.248 NA
ATOM     33  C   UNL A   1      44.181  26.519  33.591  1.00  0.00     0.031 C 
ATOM     34  C   UNL A   1      43.872  23.941  30.941  1.00  0.00     0.029 A 
ATOM     35  C   UNL A   1      44.661  24.807  30.171  1.00  0.00     0.049 A 
ATOM     36  H   UNL A   1      45.110  24.578  28.118  1.00  0.00     0.167 HD
ATOM     37  C   UNL A   1      45.402  26.505  31.671  1.00  0.00     0.074 A 
ATOM     38  C   UNL A   1      45.019  25.785  32.866  1.00  0.00     0.031 C 
ATOM     39  C   UNL A   1      45.343  26.062  30.390  1.00  0.00     0.037 A 
BRANCH  26  40
ATOM     40  C   UNL A   1      42.967  22.746  26.530  1.00  0.00     0.058 A 
ATOM     41  C   UNL A   1      42.527  21.396  26.539  1.00  0.00     0.135 A 
ATOM     42  C   UNL A   1      43.977  23.054  25.609  1.00  0.00     0.135 A 
ATOM     43  F   UNL A   1      41.512  21.007  27.330  1.00  0.00    -0.206 F 
ATOM     44  C   UNL A   1      43.143  20.396  25.794  1.00  0.00     0.059 A 
ATOM     45  C   UNL A   1      44.584  22.070  24.816  1.00  0.00     0.059 A 
ATOM     46  F   UNL A   1      44.452  24.303  25.504  1.00  0.00    -0.206 F 
ATOM     47  C   UNL A   1      44.197  20.736  24.958  1.00  0.00     0.060 A 
BRANCH  47  48
ATOM     48  S   UNL A   1      45.068  19.404  24.105  1.00  0.00     0.124 S 
ATOM     49  O   UNL A   1      44.519  18.220  24.757  1.00  0.00    -0.237 OA
ATOM     50  O   UNL A   1      44.658  19.607  22.718  1.00  0.00    -0.237 OA
ATOM     51  O   UNL A   1      46.473  19.687  24.381  1.00  0.00    -0.744 OA
ENDBRANCH  47  48
ENDBRANCH  26  40
BRANCH  27  52
ATOM     52  C   UNL A   1      43.844  29.526  34.716  1.00  0.00     0.058 A 
ATOM     53  C   UNL A   1      44.793  30.511  35.016  1.00  0.00     0.135 A 
ATOM     54  C   UNL A   1      43.017  29.173  35.826  1.00  0.00     0.135 A 
ATOM     55  F   UNL A   1      45.743  30.847  34.136  1.00  0.00    -0.206 F 
ATOM     56  C   UNL A   1      44.795  31.212  36.243  1.00  0.00     0.059 A 
ATOM     57  C   UNL A   1      42.959  29.884  37.022  1.00  0.00     0.059 A 
ATOM     58  F   UNL A   1      42.180  28.125  35.779  1.00  0.00    -0.206 F 
ATOM     59  C   UNL A   1      43.829  30.936  37.212  1.00  0.00     0.060 A 
BRANCH  59  60
ATOM     60  S   UNL A   1      43.603  32.021  38.640  1.00  0.00     0.124 S 
ATOM     61  O   UNL A   1      44.677  31.593  39.526  1.00  0.00    -0.237 OA
ATOM     62  O   UNL A   1      43.751  33.349  38.050  1.00  0.00    -0.237 OA
ATOM     63  O   UNL A   1      42.249  31.702  39.089  1.00  0.00    -0.744 OA
ENDBRANCH  59  60
ENDBRANCH  27  52
BRANCH  39  64
ATOM     64  C   UNL A   1      45.665  27.112  29.339  1.00  0.00     0.058 A 
ATOM     65  C   UNL A   1      44.643  27.620  28.522  1.00  0.00     0.135 A 
ATOM     66  C   UNL A   1      46.960  27.577  29.051  1.00  0.00     0.135 A 
ATOM     67  F   UNL A   1      43.374  27.231  28.720  1.00  0.00    -0.206 F 
ATOM     68  C   UNL A   1      44.891  28.538  27.494  1.00  0.00     0.059 A 
ATOM     69  C   UNL A   1      47.239  28.500  28.039  1.00  0.00     0.059 A 
ATOM     70  F   UNL A   1      48.006  27.141  29.749  1.00  0.00    -0.206 F 
ATOM     71  C   UNL A   1      46.193  28.980  27.263  1.00  0.00     0.060 A 
BRANCH  71  72
ATOM     72  S   UNL A   1      46.488  30.205  25.968  1.00  0.00     0.124 S 
ATOM     73  O   UNL A   1      47.764  30.787  26.372  1.00  0.00    -0.237 OA
ATOM     74  O   UNL A   1      46.522  29.377  24.768  1.00  0.00    -0.237 OA
ATOM     75  O   UNL A   1      45.339  31.102  26.071  1.00  0.00    -0.744 OA
ENDBRANCH  71  72
ENDBRANCH  39  64
ENDBRANCH  13  14
ENDBRANCH   6   8
ENDBRANCH   3   4
ENDBRANCH   2   3
ENDBRANCH   1   2
BRANCH   1  76
ATOM     76  C   UNL A   1      31.396  27.498  27.347  1.00  0.00     0.002 C 
BRANCH  76  77
ATOM     77  C   UNL A   1      31.426  26.222  26.495  1.00  0.00     0.021 C 
BRANCH  77  78
ATOM     78  C   UNL A   1      30.163  25.975  25.671  1.00  0.00     0.116 C 
BRANCH  78  79
ATOM     79  N   UNL A   1      30.262  24.733  24.930  1.00  0.00    -0.351 N 
ATOM     80  C   UNL A   1      30.822  24.495  23.702  1.00  0.00     0.267 C 
ATOM     81  H   UNL A   1      29.870  23.946  25.373  1.00  0.00     0.163 HD
ATOM     82  O   UNL A   1      30.567  23.430  23.148  1.00  0.00    -0.268 OA
BRANCH  80  83
ATOM     83  C   UNL A   1      31.692  25.496  23.124  1.00  0.00     0.107 A 
ATOM     84  C   UNL A   1      31.351  26.755  22.645  1.00  0.00     0.033 A 
ATOM     85  N   UNL A   1      33.069  25.395  23.015  1.00  0.00    -0.341 N 
ATOM     86  C   UNL A   1      32.539  27.446  22.324  1.00  0.00     0.020 A 
ATOM     87  C   UNL A   1      33.583  26.611  22.640  1.00  0.00     0.086 A 
BRANCH  85  88
ATOM     88  C   UNL A   1      33.874  24.224  23.313  1.00  0.00     0.160 C 
BRANCH  88  89
ATOM     89  C   UNL A   1      33.929  23.729  24.778  1.00  0.00     0.193 C 
ATOM     90  C   UNL A   1      35.164  24.167  25.607  1.00  0.00     0.296 C 
ATOM     91  O   UNL A   1      33.591  22.339  24.934  1.00  0.00    -0.364 OA
ATOM     92  N   UNL A   1      36.186  23.175  25.847  1.00  0.00    -0.328 N 
ATOM     93  C   UNL A   1      34.700  21.466  24.709  1.00  0.00     0.225 C 
ATOM     94  C   UNL A   1      37.586  23.480  25.655  1.00  0.00     0.262 C 
ATOM     95  C   UNL A   1      35.881  21.770  25.633  1.00  0.00     0.210 C 
ATOM     96  H   UNL A   1      36.072  23.331  26.849  1.00  0.00     0.348 HD
ATOM     97  C   UNL A   1      38.252  22.113  25.700  1.00  0.00     0.068 C 
ATOM     98  C   UNL A   1      37.195  21.179  25.129  1.00  0.00     0.073 C 
ENDBRANCH  88  89
ENDBRANCH  85  88
ENDBRANCH  80  83
ENDBRANCH  78  79
ENDBRANCH  77  78
ENDBRANCH  76  77
ENDBRANCH   1  76
TORSDOF 18
ENDMDL
MODEL 3
REMARK VINA RESULT:     -11.6      4.767     11.517
REMARK SMILES O=C(NCCCCCCNC(=O)c1cccn1C[C@@H]1C[N@@H+]2CCC[C@@H]2CO1)c1ccc(-c2c3nc(c(-c4c(F)cc(S(=O)(=O)[O-])cc4F)c4ccc([nH]4)c(-c4c(F)cc(S(=O)(=O)[O-])cc4F)c4nc(c(-c5c(F)cc(S(=O)(=O)[O-])cc5F)c5ccc2[nH]5)C=C4)C=C3)cc1
REMARK SMILES IDX 6 1 5 2 4 3 3 4 1 5 2 6 28 8 29 9 93 10 30 11 92 12 31 13
REMARK SMILES IDX 32 14 33 15 86 16 34 17 91 18 85 19 87 20 35 21 90 22 84 23
REMARK SMILES IDX 83 24 36 26 70 27 49 28 69 29 50 30 53 31 68 32 88 33 51 34
REMARK SMILES IDX 52 35 67 37 89 38 54 39 37 40 38 41 47 42 39 43 40 44 46 45
REMARK SMILES IDX 48 46 41 47 42 48 43 49 44 50 45 51 71 52 72 53 81 54 73 55
REMARK SMILES IDX 74 56 80 57 82 58 75 59 76 60 77 61 78 62 79 63 55 64 56 65
REMARK SMILES IDX 65 66 57 67 58 68 64 69 66 70 59 71 60 72 61 73 62 74 63 75
REMARK SMILES IDX 7 76 8 77 9 78 10 79 11 80 12 82 13 83 14 84 17 85 15 86
REMARK SMILES IDX 16 87 18 88 19 89 20 90 27 91 21 92 26 93 22 94 25 95 23 97
REMARK SMILES IDX 24 98
REMARK H PARENT 3 7 87 25 53 36 10 81 21 96
REMARK Flexibility Score: inf
ROOT
ATOM      1  C   UNL A   1      37.384  31.923  30.460  1.00  0.00     0.002 C 
ENDROOT
BRANCH   1   2
ATOM      2  C   UNL A   1      36.056  32.262  29.778  1.00  0.00     0.021 C 
BRANCH   2   3
ATOM      3  C   UNL A   1      36.124  32.276  28.251  1.00  0.00     0.116 C 
BRANCH   3   4
ATOM      4  N   UNL A   1      35.513  31.130  27.605  1.00  0.00    -0.352 N 
ATOM      5  O   UNL A   1      35.134  29.034  26.929  1.00  0.00    -0.269 OA
ATOM      6  C   UNL A   1      35.889  29.813  27.512  1.00  0.00     0.251 C 
ATOM      7  H   UNL A   1      34.667  31.337  27.145  1.00  0.00     0.163 HD
BRANCH   6   8
ATOM      8  C   UNL A   1      37.195  29.325  28.015  1.00  0.00     0.039 A 
ATOM      9  C   UNL A   1      37.329  28.591  29.194  1.00  0.00     0.014 A 
ATOM     10  C   UNL A   1      38.336  29.607  27.245  1.00  0.00     0.014 A 
ATOM     11  C   UNL A   1      38.588  28.253  29.669  1.00  0.00     0.010 A 
ATOM     12  C   UNL A   1      39.602  29.221  27.687  1.00  0.00     0.010 A 
ATOM     13  C   UNL A   1      39.722  28.553  28.909  1.00  0.00    -0.014 A 
BRANCH  13  14
ATOM     14  C   UNL A   1      40.984  27.914  29.344  1.00  0.00     0.031 A 
ATOM     15  C   UNL A   1      41.239  26.609  28.539  1.00  0.00     0.074 A 
ATOM     16  C   UNL A   1      41.616  28.488  30.415  1.00  0.00     0.049 A 
ATOM     17  N   UNL A   1      41.846  25.510  28.876  1.00  0.00    -0.248 NA
ATOM     18  C   UNL A   1      40.636  26.474  27.178  1.00  0.00     0.031 C 
ATOM     19  C   UNL A   1      41.224  29.770  31.047  1.00  0.00     0.029 A 
ATOM     20  N   UNL A   1      42.690  28.125  31.203  1.00  0.00    -0.354 N 
ATOM     21  C   UNL A   1      41.884  24.667  27.735  1.00  0.00     0.074 A 
ATOM     22  C   UNL A   1      41.019  25.263  26.767  1.00  0.00     0.031 C 
ATOM     23  C   UNL A   1      41.971  30.021  32.147  1.00  0.00     0.029 A 
ATOM     24  C   UNL A   1      42.929  28.950  32.342  1.00  0.00     0.049 A 
ATOM     25  H   UNL A   1      43.256  27.348  30.991  1.00  0.00     0.167 HD
ATOM     26  C   UNL A   1      42.711  23.584  27.618  1.00  0.00     0.037 A 
ATOM     27  C   UNL A   1      43.801  28.747  33.383  1.00  0.00     0.037 A 
ATOM     28  C   UNL A   1      43.469  23.428  28.812  1.00  0.00     0.049 A 
ATOM     29  C   UNL A   1      44.564  27.553  32.994  1.00  0.00     0.074 A 
ATOM     30  C   UNL A   1      43.137  22.932  30.043  1.00  0.00     0.029 A 
ATOM     31  N   UNL A   1      44.638  24.142  28.909  1.00  0.00    -0.354 N 
ATOM     32  N   UNL A   1      45.460  27.520  32.055  1.00  0.00    -0.248 NA
ATOM     33  C   UNL A   1      44.233  26.272  33.630  1.00  0.00     0.031 C 
ATOM     34  C   UNL A   1      43.852  23.757  30.930  1.00  0.00     0.029 A 
ATOM     35  C   UNL A   1      44.746  24.563  30.213  1.00  0.00     0.049 A 
ATOM     36  H   UNL A   1      45.279  24.320  28.182  1.00  0.00     0.167 HD
ATOM     37  C   UNL A   1      45.545  26.180  31.773  1.00  0.00     0.074 A 
ATOM     38  C   UNL A   1      45.045  25.480  32.937  1.00  0.00     0.031 C 
ATOM     39  C   UNL A   1      45.515  25.757  30.485  1.00  0.00     0.037 A 
BRANCH  26  40
ATOM     40  C   UNL A   1      43.078  22.686  26.463  1.00  0.00     0.058 A 
ATOM     41  C   UNL A   1      42.629  21.340  26.490  1.00  0.00     0.135 A 
ATOM     42  C   UNL A   1      44.085  22.976  25.532  1.00  0.00     0.135 A 
ATOM     43  F   UNL A   1      41.615  20.968  27.291  1.00  0.00    -0.206 F 
ATOM     44  C   UNL A   1      43.232  20.327  25.751  1.00  0.00     0.059 A 
ATOM     45  C   UNL A   1      44.679  21.978  24.747  1.00  0.00     0.059 A 
ATOM     46  F   UNL A   1      44.569  24.220  25.411  1.00  0.00    -0.206 F 
ATOM     47  C   UNL A   1      44.283  20.650  24.906  1.00  0.00     0.060 A 
BRANCH  47  48
ATOM     48  S   UNL A   1      45.138  19.301  24.062  1.00  0.00     0.124 S 
ATOM     49  O   UNL A   1      44.673  18.137  24.807  1.00  0.00    -0.237 OA
ATOM     50  O   UNL A   1      44.632  19.421  22.698  1.00  0.00    -0.237 OA
ATOM     51  O   UNL A   1      46.549  19.639  24.229  1.00  0.00    -0.744 OA
ENDBRANCH  47  48
ENDBRANCH  26  40
BRANCH  27  52
ATOM     52  C   UNL A   1      44.084  29.285  34.781  1.00  0.00     0.058 A 
ATOM     53  C   UNL A   1      45.154  30.104  35.162  1.00  0.00     0.135 A 
ATOM     54  C   UNL A   1      43.119  29.087  35.817  1.00  0.00     0.135 A 
ATOM     55  F   UNL A   1      46.217  30.267  34.365  1.00  0.00    -0.206 F 
ATOM     56  C   UNL A   1      45.170  30.809  36.385  1.00  0.00     0.059 A 
ATOM     57  C   UNL A   1      43.081  29.813  37.005  1.00  0.00     0.059 A 
ATOM     58  F   UNL A   1      42.128  28.192  35.697  1.00  0.00    -0.206 F 
ATOM     59  C   UNL A   1      44.094  30.709  37.269  1.00  0.00     0.060 A 
BRANCH  59  60
ATOM     60  S   UNL A   1      43.932  31.834  38.674  1.00  0.00     0.124 S 
ATOM     61  O   UNL A   1      44.988  31.371  39.564  1.00  0.00    -0.237 OA
ATOM     62  O   UNL A   1      44.144  33.140  38.056  1.00  0.00    -0.237 OA
ATOM     63  O   UNL A   1      42.566  31.595  39.137  1.00  0.00    -0.744 OA
ENDBRANCH  59  60
ENDBRANCH  27  52
BRANCH  39  64
ATOM     64  C   UNL A   1      45.974  26.788  29.467  1.00  0.00     0.058 A 
ATOM     65  C   UNL A   1      45.041  27.378  28.599  1.00  0.00     0.135 A 
ATOM     66  C   UNL A   1      47.315  27.156  29.258  1.00  0.00     0.135 A 
ATOM     67  F   UNL A   1      43.737  27.083  28.721  1.00  0.00    -0.206 F 
ATOM     68  C   UNL A   1      45.415  28.283  27.599  1.00  0.00     0.059 A 
ATOM     69  C   UNL A   1      47.719  28.064  28.274  1.00  0.00     0.059 A 
ATOM     70  F   UNL A   1      48.283  26.637  30.008  1.00  0.00    -0.206 F 
ATOM     71  C   UNL A   1      46.758  28.627  27.447  1.00  0.00     0.060 A 
BRANCH  71  72
ATOM     72  S   UNL A   1      47.216  29.838  26.186  1.00  0.00     0.124 S 
ATOM     73  O   UNL A   1      48.673  29.752  26.185  1.00  0.00    -0.237 OA
ATOM     74  O   UNL A   1      46.551  29.308  25.001  1.00  0.00    -0.237 OA
ATOM     75  O   UNL A   1      46.671  31.094  26.695  1.00  0.00    -0.744 OA
ENDBRANCH  71  72
ENDBRANCH  39  64
ENDBRANCH  13  14
ENDBRANCH   6   8
ENDBRANCH   3   4
ENDBRANCH   2   3
ENDBRANCH   1   2
BRANCH   1  76
ATOM     76  C   UNL A   1      38.637  32.245  29.639  1.00  0.00     0.002 C 
BRANCH  76  77
ATOM     77  C   UNL A   1      39.715  33.051  30.375  1.00  0.00     0.021 C 
BRANCH  77  78
ATOM     78  C   UNL A   1      39.263  34.428  30.859  1.00  0.00     0.116 C 
BRANCH  78  79
ATOM     79  N   UNL A   1      39.938  34.792  32.090  1.00  0.00    -0.351 N 
ATOM     80  C   UNL A   1      39.625  34.465  33.383  1.00  0.00     0.267 C 
ATOM     81  H   UNL A   1      40.736  35.357  31.980  1.00  0.00     0.163 HD
ATOM     82  O   UNL A   1      40.174  35.090  34.285  1.00  0.00    -0.268 OA
BRANCH  80  83
ATOM     83  C   UNL A   1      38.681  33.396  33.626  1.00  0.00     0.107 A 
ATOM     84  C   UNL A   1      38.950  32.069  33.939  1.00  0.00     0.033 A 
ATOM     85  N   UNL A   1      37.303  33.535  33.662  1.00  0.00    -0.341 N 
ATOM     86  C   UNL A   1      37.731  31.428  34.247  1.00  0.00     0.020 A 
ATOM     87  C   UNL A   1      36.745  32.379  34.147  1.00  0.00     0.086 A 
BRANCH  85  88
ATOM     88  C   UNL A   1      36.547  34.726  33.318  1.00  0.00     0.160 C 
BRANCH  88  89
ATOM     89  C   UNL A   1      35.014  34.702  33.524  1.00  0.00     0.193 C 
ATOM     90  C   UNL A   1      34.178  34.044  32.396  1.00  0.00     0.296 C 
ATOM     91  O   UNL A   1      34.472  35.950  33.993  1.00  0.00    -0.364 OA
ATOM     92  N   UNL A   1      33.457  34.924  31.506  1.00  0.00    -0.328 N 
ATOM     93  C   UNL A   1      34.209  36.877  32.937  1.00  0.00     0.225 C 
ATOM     94  C   UNL A   1      33.499  34.738  30.074  1.00  0.00     0.262 C 
ATOM     95  C   UNL A   1      33.249  36.312  31.888  1.00  0.00     0.210 C 
ATOM     96  H   UNL A   1      32.596  34.439  31.757  1.00  0.00     0.348 HD
ATOM     97  C   UNL A   1      32.899  36.028  29.534  1.00  0.00     0.068 C 
ATOM     98  C   UNL A   1      33.304  37.071  30.565  1.00  0.00     0.073 C 
ENDBRANCH  88  89
ENDBRANCH  85  88
ENDBRANCH  80  83
ENDBRANCH  78  79
ENDBRANCH  77  78
ENDBRANCH  76  77
ENDBRANCH   1  76
TORSDOF 18
ENDMDL
