MODEL 1
REMARK VINA RESULT:     -11.8      0.000      0.000
REMARK SMILES O=C(NCCCCCCNC(=O)c1ccc(Cl)cc1-c1ccc(C(F)(F)F)cc1)c1ccc(-c2c3nc(c(-c4c(F)cc(S(=O)(=O)[O-])cc4F)c4ccc([nH]4)c(-c4c(F)cc(S(=O)(=O)[O-])cc4F)c4nc(c(-c5c(F)cc(S(=O)(=O)[O-])cc5F)c5ccc2[nH]5)C=C4)C=C3)cc1
REMARK SMILES IDX 6 1 5 2 4 3 3 4 1 5 2 6 30 8 31 9 95 10 32 11 94 12 33 13
REMARK SMILES IDX 34 14 35 15 88 16 36 17 93 18 87 19 89 20 37 21 92 22 86 23
REMARK SMILES IDX 85 24 38 26 72 27 51 28 71 29 52 30 55 31 70 32 90 33 53 34
REMARK SMILES IDX 54 35 69 37 91 38 56 39 39 40 40 41 49 42 41 43 42 44 48 45
REMARK SMILES IDX 50 46 43 47 44 48 45 49 46 50 47 51 73 52 74 53 83 54 75 55
REMARK SMILES IDX 76 56 82 57 84 58 77 59 78 60 79 61 80 62 81 63 57 64 58 65
REMARK SMILES IDX 67 66 59 67 60 68 66 69 68 70 61 71 62 72 63 73 64 74 65 75
REMARK SMILES IDX 7 76 8 77 9 78 10 79 11 80 12 82 13 83 14 84 19 85 15 86
REMARK SMILES IDX 18 87 16 88 17 89 20 90 21 91 29 92 22 93 28 94 23 95 24 96
REMARK SMILES IDX 25 97 26 98 27 99
REMARK H PARENT 3 7 89 25 55 36 10 81
REMARK Flexibility Score: inf
ROOT
ATOM      1  C   UNL A   1      31.680  30.596  26.080  1.00  0.00     0.002 C 
ENDROOT
BRANCH   1   2
ATOM      2  C   UNL A   1      31.479  31.965  26.729  1.00  0.00     0.021 C 
BRANCH   2   3
ATOM      3  C   UNL A   1      32.729  32.595  27.330  1.00  0.00     0.116 C 
BRANCH   3   4
ATOM      4  N   UNL A   1      32.547  33.992  27.686  1.00  0.00    -0.352 N 
ATOM      5  O   UNL A   1      32.838  35.878  28.888  1.00  0.00    -0.269 OA
ATOM      6  C   UNL A   1      33.218  34.739  28.626  1.00  0.00     0.251 C 
ATOM      7  H   UNL A   1      31.846  34.470  27.185  1.00  0.00     0.163 HD
BRANCH   6   8
ATOM      8  C   UNL A   1      34.380  34.159  29.339  1.00  0.00     0.039 A 
ATOM      9  C   UNL A   1      34.197  33.368  30.476  1.00  0.00     0.014 A 
ATOM     10  C   UNL A   1      35.670  34.403  28.859  1.00  0.00     0.014 A 
ATOM     11  C   UNL A   1      35.301  32.939  31.205  1.00  0.00     0.010 A 
ATOM     12  C   UNL A   1      36.779  33.898  29.547  1.00  0.00     0.010 A 
ATOM     13  C   UNL A   1      36.604  33.182  30.741  1.00  0.00    -0.014 A 
BRANCH  13  14
ATOM     14  C   UNL A   1      37.753  32.600  31.484  1.00  0.00     0.031 A 
ATOM     15  C   UNL A   1      38.159  33.114  32.837  1.00  0.00     0.074 A 
ATOM     16  C   UNL A   1      38.402  31.555  30.933  1.00  0.00     0.049 A 
ATOM     17  N   UNL A   1      39.104  32.677  33.631  1.00  0.00    -0.248 NA
ATOM     18  C   UNL A   1      37.419  34.269  33.369  1.00  0.00     0.031 C 
ATOM     19  C   UNL A   1      38.112  30.987  29.612  1.00  0.00     0.029 A 
ATOM     20  N   UNL A   1      39.415  30.767  31.414  1.00  0.00    -0.354 N 
ATOM     21  C   UNL A   1      39.080  33.502  34.749  1.00  0.00     0.074 A 
ATOM     22  C   UNL A   1      38.043  34.486  34.521  1.00  0.00     0.031 C 
ATOM     23  C   UNL A   1      38.891  29.914  29.411  1.00  0.00     0.029 A 
ATOM     24  C   UNL A   1      39.773  29.751  30.561  1.00  0.00     0.049 A 
ATOM     25  H   UNL A   1      39.845  30.916  32.287  1.00  0.00     0.167 HD
ATOM     26  C   UNL A   1      39.847  33.437  35.865  1.00  0.00     0.037 A 
ATOM     27  C   UNL A   1      40.714  28.796  30.681  1.00  0.00     0.037 A 
ATOM     28  C   UNL A   1      40.871  32.446  36.089  1.00  0.00     0.049 A 
ATOM     29  C   UNL A   1      41.548  28.749  31.928  1.00  0.00     0.074 A 
ATOM     30  C   UNL A   1      41.689  32.287  37.195  1.00  0.00     0.029 A 
ATOM     31  N   UNL A   1      41.218  31.445  35.192  1.00  0.00    -0.354 N 
ATOM     32  N   UNL A   1      41.493  29.527  32.982  1.00  0.00    -0.248 NA
ATOM     33  C   UNL A   1      42.572  27.700  32.001  1.00  0.00     0.031 C 
ATOM     34  C   UNL A   1      42.551  31.211  36.955  1.00  0.00     0.029 A 
ATOM     35  C   UNL A   1      42.245  30.675  35.715  1.00  0.00     0.049 A 
ATOM     36  H   UNL A   1      40.797  31.304  34.314  1.00  0.00     0.167 HD
ATOM     37  C   UNL A   1      42.475  29.061  33.847  1.00  0.00     0.074 A 
ATOM     38  C   UNL A   1      43.085  27.912  33.205  1.00  0.00     0.031 C 
ATOM     39  C   UNL A   1      42.846  29.543  35.058  1.00  0.00     0.037 A 
BRANCH  26  40
ATOM     40  C   UNL A   1      39.617  34.464  36.941  1.00  0.00     0.058 A 
ATOM     41  C   UNL A   1      38.835  34.180  38.070  1.00  0.00     0.135 A 
ATOM     42  C   UNL A   1      40.249  35.717  36.880  1.00  0.00     0.135 A 
ATOM     43  F   UNL A   1      38.196  33.003  38.171  1.00  0.00    -0.206 F 
ATOM     44  C   UNL A   1      38.679  35.104  39.098  1.00  0.00     0.059 A 
ATOM     45  C   UNL A   1      40.123  36.650  37.907  1.00  0.00     0.059 A 
ATOM     46  F   UNL A   1      41.009  36.040  35.823  1.00  0.00    -0.206 F 
ATOM     47  C   UNL A   1      39.330  36.336  39.009  1.00  0.00     0.060 A 
BRANCH  47  48
ATOM     48  S   UNL A   1      39.139  37.513  40.366  1.00  0.00     0.124 S 
ATOM     49  O   UNL A   1      38.118  38.409  39.832  1.00  0.00    -0.237 OA
ATOM     50  O   UNL A   1      38.714  36.655  41.467  1.00  0.00    -0.237 OA
ATOM     51  O   UNL A   1      40.472  38.091  40.505  1.00  0.00    -0.744 OA
ENDBRANCH  47  48
ENDBRANCH  26  40
BRANCH  27  52
ATOM     52  C   UNL A   1      40.925  27.821  29.580  1.00  0.00     0.058 A 
ATOM     53  C   UNL A   1      40.023  26.770  29.358  1.00  0.00     0.135 A 
ATOM     54  C   UNL A   1      42.029  27.931  28.720  1.00  0.00     0.135 A 
ATOM     55  F   UNL A   1      38.953  26.624  30.155  1.00  0.00    -0.206 F 
ATOM     56  C   UNL A   1      40.219  25.848  28.336  1.00  0.00     0.059 A 
ATOM     57  C   UNL A   1      42.231  27.038  27.675  1.00  0.00     0.059 A 
ATOM     58  F   UNL A   1      42.909  28.932  28.880  1.00  0.00    -0.206 F 
ATOM     59  C   UNL A   1      41.329  25.991  27.500  1.00  0.00     0.060 A 
BRANCH  59  60
ATOM     60  S   UNL A   1      41.561  24.815  26.148  1.00  0.00     0.124 S 
ATOM     61  O   UNL A   1      40.552  23.810  26.462  1.00  0.00    -0.237 OA
ATOM     62  O   UNL A   1      41.299  25.638  24.972  1.00  0.00    -0.237 OA
ATOM     63  O   UNL A   1      42.948  24.393  26.311  1.00  0.00    -0.744 OA
ENDBRANCH  59  60
ENDBRANCH  27  52
BRANCH  39  64
ATOM     64  C   UNL A   1      43.958  28.819  35.761  1.00  0.00     0.058 A 
ATOM     65  C   UNL A   1      43.699  27.740  36.619  1.00  0.00     0.135 A 
ATOM     66  C   UNL A   1      45.294  29.203  35.569  1.00  0.00     0.135 A 
ATOM     67  F   UNL A   1      42.436  27.340  36.841  1.00  0.00    -0.206 F 
ATOM     68  C   UNL A   1      44.725  27.087  37.294  1.00  0.00     0.059 A 
ATOM     69  C   UNL A   1      46.338  28.550  36.216  1.00  0.00     0.059 A 
ATOM     70  F   UNL A   1      45.594  30.225  34.751  1.00  0.00    -0.206 F 
ATOM     71  C   UNL A   1      46.042  27.504  37.090  1.00  0.00     0.060 A 
BRANCH  71  72
ATOM     72  S   UNL A   1      47.369  26.652  37.969  1.00  0.00     0.124 S 
ATOM     73  O   UNL A   1      46.654  26.100  39.114  1.00  0.00    -0.237 OA
ATOM     74  O   UNL A   1      47.829  25.682  36.980  1.00  0.00    -0.237 OA
ATOM     75  O   UNL A   1      48.314  27.722  38.272  1.00  0.00    -0.744 OA
ENDBRANCH  71  72
ENDBRANCH  39  64
ENDBRANCH  13  14
ENDBRANCH   6   8
ENDBRANCH   3   4
ENDBRANCH   2   3
ENDBRANCH   1   2
BRANCH   1  76
ATOM     76  C   UNL A   1      32.260  29.503  26.981  1.00  0.00     0.002 C 
BRANCH  76  77
ATOM     77  C   UNL A   1      33.381  28.648  26.378  1.00  0.00     0.021 C 
BRANCH  77  78
ATOM     78  C   UNL A   1      33.224  27.138  26.535  1.00  0.00     0.116 C 
BRANCH  78  79
ATOM     79  N   UNL A   1      31.862  26.744  26.852  1.00  0.00    -0.352 N 
ATOM     80  C   UNL A   1      31.032  25.871  26.191  1.00  0.00     0.251 C 
ATOM     81  H   UNL A   1      31.478  27.162  27.657  1.00  0.00     0.163 HD
ATOM     82  O   UNL A   1      29.902  25.647  26.609  1.00  0.00    -0.269 OA
BRANCH  80  83
ATOM     83  C   UNL A   1      31.528  25.184  24.978  1.00  0.00     0.047 A 
ATOM     84  C   UNL A   1      32.105  23.912  25.140  1.00  0.00     0.016 A 
ATOM     85  C   UNL A   1      31.382  25.757  23.697  1.00  0.00    -0.004 A 
ATOM     86  C   UNL A   1      32.600  23.219  24.037  1.00  0.00     0.021 A 
ATOM     87  C   UNL A   1      31.895  25.034  22.600  1.00  0.00     0.030 A 
ATOM     88  C   UNL A   1      32.501  23.788  22.772  1.00  0.00     0.041 A 
ATOM     89  Cl  UNL A   1      33.115  22.943  21.404  1.00  0.00    -0.084 Cl
BRANCH  85  90
ATOM     90  C   UNL A   1      30.714  27.046  23.446  1.00  0.00    -0.018 A 
ATOM     91  C   UNL A   1      29.313  27.133  23.495  1.00  0.00     0.009 A 
ATOM     92  C   UNL A   1      31.436  28.207  23.133  1.00  0.00     0.009 A 
ATOM     93  C   UNL A   1      28.653  28.337  23.239  1.00  0.00     0.014 A 
ATOM     94  C   UNL A   1      30.777  29.417  22.879  1.00  0.00     0.014 A 
ATOM     95  C   UNL A   1      29.378  29.494  22.929  1.00  0.00     0.056 A 
BRANCH  95  96
ATOM     96  C   UNL A   1      28.649  30.785  22.651  1.00  0.00     0.416 C 
ATOM     97  F   UNL A   1      29.147  31.829  23.371  1.00  0.00    -0.166 F 
ATOM     98  F   UNL A   1      28.733  31.165  21.345  1.00  0.00    -0.166 F 
ATOM     99  F   UNL A   1      27.318  30.738  22.939  1.00  0.00    -0.166 F 
ENDBRANCH  95  96
ENDBRANCH  85  90
ENDBRANCH  80  83
ENDBRANCH  78  79
ENDBRANCH  77  78
ENDBRANCH  76  77
ENDBRANCH   1  76
TORSDOF 18
ENDMDL
MODEL 2
REMARK VINA RESULT:     -11.7      5.935      8.341
REMARK SMILES O=C(NCCCCCCNC(=O)c1ccc(Cl)cc1-c1ccc(C(F)(F)F)cc1)c1ccc(-c2c3nc(c(-c4c(F)cc(S(=O)(=O)[O-])cc4F)c4ccc([nH]4)c(-c4c(F)cc(S(=O)(=O)[O-])cc4F)c4nc(c(-c5c(F)cc(S(=O)(=O)[O-])cc5F)c5ccc2[nH]5)C=C4)C=C3)cc1
REMARK SMILES IDX 6 1 5 2 4 3 3 4 1 5 2 6 30 8 31 9 95 10 32 11 94 12 33 13
REMARK SMILES IDX 34 14 35 15 88 16 36 17 93 18 87 19 89 20 37 21 92 22 86 23
REMARK SMILES IDX 85 24 38 26 72 27 51 28 71 29 52 30 55 31 70 32 90 33 53 34
REMARK SMILES IDX 54 35 69 37 91 38 56 39 39 40 40 41 49 42 41 43 42 44 48 45
REMARK SMILES IDX 50 46 43 47 44 48 45 49 46 50 47 51 73 52 74 53 83 54 75 55
REMARK SMILES IDX 76 56 82 57 84 58 77 59 78 60 79 61 80 62 81 63 57 64 58 65
REMARK SMILES IDX 67 66 59 67 60 68 66 69 68 70 61 71 62 72 63 73 64 74 65 75
REMARK SMILES IDX 7 76 8 77 9 78 10 79 11 80 12 82 13 83 14 84 19 85 15 86
REMARK SMILES IDX 18 87 16 88 17 89 20 90 21 91 29 92 22 93 28 94 23 95 24 96
REMARK SMILES IDX 25 97 26 98 27 99
REMARK H PARENT 3 7 89 25 55 36 10 81
REMARK Flexibility Score: inf
ROOT
ATOM      1  C   UNL A   1      36.078  32.410  28.002  1.00  0.00     0.002 C 
ENDROOT
BRANCH   1   2
ATOM      2  C   UNL A   1      36.031  33.421  29.148  1.00  0.00     0.021 C 
BRANCH   2   3
ATOM      3  C   UNL A   1      36.821  33.038  30.393  1.00  0.00     0.116 C 
BRANCH   3   4
ATOM      4  N   UNL A   1      36.240  31.918  31.113  1.00  0.00    -0.352 N 
ATOM      5  O   UNL A   1      35.995  29.769  31.752  1.00  0.00    -0.269 OA
ATOM      6  C   UNL A   1      36.691  30.621  31.204  1.00  0.00     0.251 C 
ATOM      7  H   UNL A   1      35.410  32.114  31.605  1.00  0.00     0.163 HD
BRANCH   6   8
ATOM      8  C   UNL A   1      38.000  30.251  30.617  1.00  0.00     0.039 A 
ATOM      9  C   UNL A   1      39.111  30.031  31.433  1.00  0.00     0.014 A 
ATOM     10  C   UNL A   1      38.114  30.113  29.231  1.00  0.00     0.014 A 
ATOM     11  C   UNL A   1      40.358  29.811  30.860  1.00  0.00     0.010 A 
ATOM     12  C   UNL A   1      39.355  29.807  28.659  1.00  0.00     0.010 A 
ATOM     13  C   UNL A   1      40.493  29.678  29.468  1.00  0.00    -0.014 A 
BRANCH  13  14
ATOM     14  C   UNL A   1      41.822  29.320  28.905  1.00  0.00     0.031 A 
ATOM     15  C   UNL A   1      42.945  30.317  28.838  1.00  0.00     0.074 A 
ATOM     16  C   UNL A   1      42.016  28.051  28.494  1.00  0.00     0.049 A 
ATOM     17  N   UNL A   1      44.174  30.141  28.423  1.00  0.00    -0.248 NA
ATOM     18  C   UNL A   1      42.656  31.688  29.286  1.00  0.00     0.031 C 
ATOM     19  C   UNL A   1      40.990  27.003  28.487  1.00  0.00     0.029 A 
ATOM     20  N   UNL A   1      43.138  27.415  28.028  1.00  0.00    -0.354 N 
ATOM     21  C   UNL A   1      44.804  31.374  28.551  1.00  0.00     0.074 A 
ATOM     22  C   UNL A   1      43.812  32.299  29.058  1.00  0.00     0.031 C 
ATOM     23  C   UNL A   1      41.542  25.847  28.090  1.00  0.00     0.029 A 
ATOM     24  C   UNL A   1      42.942  26.081  27.760  1.00  0.00     0.049 A 
ATOM     25  H   UNL A   1      44.001  27.871  27.899  1.00  0.00     0.167 HD
ATOM     26  C   UNL A   1      46.091  31.698  28.278  1.00  0.00     0.037 A 
ATOM     27  C   UNL A   1      43.791  25.148  27.291  1.00  0.00     0.037 A 
ATOM     28  C   UNL A   1      47.075  30.767  27.783  1.00  0.00     0.049 A 
ATOM     29  C   UNL A   1      45.211  25.537  26.998  1.00  0.00     0.074 A 
ATOM     30  C   UNL A   1      48.410  30.996  27.494  1.00  0.00     0.029 A 
ATOM     31  N   UNL A   1      46.834  29.429  27.505  1.00  0.00    -0.354 N 
ATOM     32  N   UNL A   1      45.790  26.704  27.148  1.00  0.00    -0.248 NA
ATOM     33  C   UNL A   1      46.091  24.487  26.472  1.00  0.00     0.031 C 
ATOM     34  C   UNL A   1      48.968  29.807  27.012  1.00  0.00     0.029 A 
ATOM     35  C   UNL A   1      47.990  28.826  27.036  1.00  0.00     0.049 A 
ATOM     36  H   UNL A   1      45.968  28.975  27.623  1.00  0.00     0.167 HD
ATOM     37  C   UNL A   1      47.104  26.529  26.734  1.00  0.00     0.074 A 
ATOM     38  C   UNL A   1      47.242  25.135  26.360  1.00  0.00     0.031 C 
ATOM     39  C   UNL A   1      48.105  27.440  26.660  1.00  0.00     0.037 A 
BRANCH  26  40
ATOM     40  C   UNL A   1      46.524  33.121  28.505  1.00  0.00     0.058 A 
ATOM     41  C   UNL A   1      46.404  34.093  27.501  1.00  0.00     0.135 A 
ATOM     42  C   UNL A   1      46.991  33.535  29.764  1.00  0.00     0.135 A 
ATOM     43  F   UNL A   1      45.978  33.749  26.275  1.00  0.00    -0.206 F 
ATOM     44  C   UNL A   1      46.739  35.424  27.732  1.00  0.00     0.059 A 
ATOM     45  C   UNL A   1      47.313  34.865  30.024  1.00  0.00     0.059 A 
ATOM     46  F   UNL A   1      47.124  32.646  30.760  1.00  0.00    -0.206 F 
ATOM     47  C   UNL A   1      47.190  35.801  28.999  1.00  0.00     0.060 A 
BRANCH  47  48
ATOM     48  S   UNL A   1      47.593  37.537  29.289  1.00  0.00     0.124 S 
ATOM     49  O   UNL A   1      46.528  38.210  28.553  1.00  0.00    -0.237 OA
ATOM     50  O   UNL A   1      47.518  37.637  30.743  1.00  0.00    -0.237 OA
ATOM     51  O   UNL A   1      48.932  37.675  28.723  1.00  0.00    -0.744 OA
ENDBRANCH  47  48
ENDBRANCH  26  40
BRANCH  27  52
ATOM     52  C   UNL A   1      43.312  23.763  27.055  1.00  0.00     0.058 A 
ATOM     53  C   UNL A   1      43.059  23.293  25.758  1.00  0.00     0.135 A 
ATOM     54  C   UNL A   1      43.108  22.876  28.124  1.00  0.00     0.135 A 
ATOM     55  F   UNL A   1      43.238  24.104  24.703  1.00  0.00    -0.206 F 
ATOM     56  C   UNL A   1      42.601  22.000  25.529  1.00  0.00     0.059 A 
ATOM     57  C   UNL A   1      42.678  21.571  27.919  1.00  0.00     0.059 A 
ATOM     58  F   UNL A   1      43.356  23.273  29.382  1.00  0.00    -0.206 F 
ATOM     59  C   UNL A   1      42.412  21.147  26.619  1.00  0.00     0.060 A 
BRANCH  59  60
ATOM     60  S   UNL A   1      41.854  19.455  26.317  1.00  0.00     0.124 S 
ATOM     61  O   UNL A   1      42.309  18.780  27.526  1.00  0.00    -0.237 OA
ATOM     62  O   UNL A   1      40.411  19.623  26.184  1.00  0.00    -0.237 OA
ATOM     63  O   UNL A   1      42.551  19.092  25.087  1.00  0.00    -0.744 OA
ENDBRANCH  59  60
ENDBRANCH  27  52
BRANCH  39  64
ATOM     64  C   UNL A   1      49.433  26.945  26.162  1.00  0.00     0.058 A 
ATOM     65  C   UNL A   1      50.339  26.299  27.017  1.00  0.00     0.135 A 
ATOM     66  C   UNL A   1      49.799  27.112  24.818  1.00  0.00     0.135 A 
ATOM     67  F   UNL A   1      50.037  26.122  28.314  1.00  0.00    -0.206 F 
ATOM     68  C   UNL A   1      51.580  25.866  26.564  1.00  0.00     0.059 A 
ATOM     69  C   UNL A   1      51.027  26.667  24.338  1.00  0.00     0.059 A 
ATOM     70  F   UNL A   1      48.963  27.717  23.959  1.00  0.00    -0.206 F 
ATOM     71  C   UNL A   1      51.918  26.060  25.224  1.00  0.00     0.060 A 
BRANCH  71  72
ATOM     72  S   UNL A   1      53.531  25.496  24.643  1.00  0.00     0.124 S 
ATOM     73  O   UNL A   1      53.512  24.094  25.044  1.00  0.00    -0.237 OA
ATOM     74  O   UNL A   1      53.454  25.747  23.207  1.00  0.00    -0.237 OA
ATOM     75  O   UNL A   1      54.468  26.346  25.371  1.00  0.00    -0.744 OA
ENDBRANCH  71  72
ENDBRANCH  39  64
ENDBRANCH  13  14
ENDBRANCH   6   8
ENDBRANCH   3   4
ENDBRANCH   2   3
ENDBRANCH   1   2
BRANCH   1  76
ATOM     76  C   UNL A   1      34.770  31.675  27.700  1.00  0.00     0.002 C 
BRANCH  76  77
ATOM     77  C   UNL A   1      34.849  30.145  27.636  1.00  0.00     0.021 C 
BRANCH  77  78
ATOM     78  C   UNL A   1      33.745  29.454  26.840  1.00  0.00     0.116 C 
BRANCH  78  79
ATOM     79  N   UNL A   1      34.048  29.361  25.422  1.00  0.00    -0.352 N 
ATOM     80  C   UNL A   1      33.720  28.373  24.526  1.00  0.00     0.251 C 
ATOM     81  H   UNL A   1      34.562  30.115  25.050  1.00  0.00     0.163 HD
ATOM     82  O   UNL A   1      34.056  28.462  23.350  1.00  0.00    -0.269 OA
BRANCH  80  83
ATOM     83  C   UNL A   1      32.937  27.208  24.992  1.00  0.00     0.047 A 
ATOM     84  C   UNL A   1      33.629  26.185  25.665  1.00  0.00     0.016 A 
ATOM     85  C   UNL A   1      31.539  27.143  24.815  1.00  0.00    -0.004 A 
ATOM     86  C   UNL A   1      32.948  25.057  26.119  1.00  0.00     0.021 A 
ATOM     87  C   UNL A   1      30.877  25.988  25.282  1.00  0.00     0.030 A 
ATOM     88  C   UNL A   1      31.576  24.960  25.917  1.00  0.00     0.041 A 
ATOM     89  Cl  UNL A   1      30.727  23.568  26.468  1.00  0.00    -0.084 Cl
BRANCH  85  90
ATOM     90  C   UNL A   1      30.740  28.214  24.193  1.00  0.00    -0.018 A 
ATOM     91  C   UNL A   1      29.923  27.929  23.087  1.00  0.00     0.009 A 
ATOM     92  C   UNL A   1      30.781  29.537  24.659  1.00  0.00     0.009 A 
ATOM     93  C   UNL A   1      29.173  28.930  22.464  1.00  0.00     0.014 A 
ATOM     94  C   UNL A   1      30.028  30.541  24.039  1.00  0.00     0.014 A 
ATOM     95  C   UNL A   1      29.215  30.248  22.935  1.00  0.00     0.056 A 
BRANCH  95  96
ATOM     96  C   UNL A   1      28.403  31.317  22.247  1.00  0.00     0.416 C 
ATOM     97  F   UNL A   1      27.853  30.879  21.079  1.00  0.00    -0.166 F 
ATOM     98  F   UNL A   1      27.358  31.752  23.005  1.00  0.00    -0.166 F 
ATOM     99  F   UNL A   1      29.118  32.430  21.925  1.00  0.00    -0.166 F 
ENDBRANCH  95  96
ENDBRANCH  85  90
ENDBRANCH  80  83
ENDBRANCH  78  79
ENDBRANCH  77  78
ENDBRANCH  76  77
ENDBRANCH   1  76
TORSDOF 18
ENDMDL
MODEL 3
REMARK VINA RESULT:     -11.7      3.589      9.351
REMARK SMILES O=C(NCCCCCCNC(=O)c1ccc(Cl)cc1-c1ccc(C(F)(F)F)cc1)c1ccc(-c2c3nc(c(-c4c(F)cc(S(=O)(=O)[O-])cc4F)c4ccc([nH]4)c(-c4c(F)cc(S(=O)(=O)[O-])cc4F)c4nc(c(-c5c(F)cc(S(=O)(=O)[O-])cc5F)c5ccc2[nH]5)C=C4)C=C3)cc1
REMARK SMILES IDX 6 1 5 2 4 3 3 4 1 5 2 6 30 8 31 9 95 10 32 11 94 12 33 13
REMARK SMILES IDX 34 14 35 15 88 16 36 17 93 18 87 19 89 20 37 21 92 22 86 23
REMARK SMILES IDX 85 24 38 26 72 27 51 28 71 29 52 30 55 31 70 32 90 33 53 34
REMARK SMILES IDX 54 35 69 37 91 38 56 39 39 40 40 41 49 42 41 43 42 44 48 45
REMARK SMILES IDX 50 46 43 47 44 48 45 49 46 50 47 51 73 52 74 53 83 54 75 55
REMARK SMILES IDX 76 56 82 57 84 58 77 59 78 60 79 61 80 62 81 63 57 64 58 65
REMARK SMILES IDX 67 66 59 67 60 68 66 69 68 70 61 71 62 72 63 73 64 74 65 75
REMARK SMILES IDX 7 76 8 77 9 78 10 79 11 80 12 82 13 83 14 84 19 85 15 86
REMARK SMILES IDX 18 87 16 88 17 89 20 90 21 91 29 92 22 93 28 94 23 95 24 96
REMARK SMILES IDX 25 97 26 98 27 99
REMARK H PARENT 3 7 89 25 55 36 10 81
REMARK Flexibility Score: inf
ROOT
ATOM      1  C   UNL A   1      39.599  22.231  26.342  1.00  0.00     0.002 C 
ENDROOT
BRANCH   1   2
ATOM      2  C   UNL A   1      40.403  22.342  27.638  1.00  0.00     0.021 C 
BRANCH   2   3
ATOM      3  C   UNL A   1      41.707  23.122  27.535  1.00  0.00     0.116 C 
BRANCH   3   4
ATOM      4  N   UNL A   1      41.814  23.893  26.308  1.00  0.00    -0.352 N 
ATOM      5  O   UNL A   1      41.633  25.707  24.980  1.00  0.00    -0.269 OA
ATOM      6  C   UNL A   1      41.634  25.244  26.118  1.00  0.00     0.251 C 
ATOM      7  H   UNL A   1      42.047  23.378  25.502  1.00  0.00     0.163 HD
BRANCH   6   8
ATOM      8  C   UNL A   1      41.415  26.131  27.284  1.00  0.00     0.039 A 
ATOM      9  C   UNL A   1      42.355  27.106  27.625  1.00  0.00     0.014 A 
ATOM     10  C   UNL A   1      40.248  25.991  28.041  1.00  0.00     0.014 A 
ATOM     11  C   UNL A   1      42.195  27.842  28.794  1.00  0.00     0.010 A 
ATOM     12  C   UNL A   1      40.048  26.793  29.171  1.00  0.00     0.010 A 
ATOM     13  C   UNL A   1      41.033  27.709  29.571  1.00  0.00    -0.014 A 
BRANCH  13  14
ATOM     14  C   UNL A   1      40.845  28.603  30.744  1.00  0.00     0.031 A 
ATOM     15  C   UNL A   1      41.733  28.514  31.954  1.00  0.00     0.074 A 
ATOM     16  C   UNL A   1      39.879  29.541  30.680  1.00  0.00     0.049 A 
ATOM     17  N   UNL A   1      41.728  29.257  33.032  1.00  0.00    -0.248 NA
ATOM     18  C   UNL A   1      42.754  27.454  31.964  1.00  0.00     0.031 C 
ATOM     19  C   UNL A   1      38.939  29.704  29.566  1.00  0.00     0.029 A 
ATOM     20  N   UNL A   1      39.539  30.546  31.547  1.00  0.00    -0.354 N 
ATOM     21  C   UNL A   1      42.733  28.755  33.851  1.00  0.00     0.074 A 
ATOM     22  C   UNL A   1      43.312  27.624  33.156  1.00  0.00     0.031 C 
ATOM     23  C   UNL A   1      38.165  30.776  29.794  1.00  0.00     0.029 A 
ATOM     24  C   UNL A   1      38.515  31.342  31.091  1.00  0.00     0.049 A 
ATOM     25  H   UNL A   1      39.986  30.685  32.413  1.00  0.00     0.167 HD
ATOM     26  C   UNL A   1      43.138  29.203  35.064  1.00  0.00     0.037 A 
ATOM     27  C   UNL A   1      37.912  32.404  31.657  1.00  0.00     0.037 A 
ATOM     28  C   UNL A   1      42.562  30.337  35.744  1.00  0.00     0.049 A 
ATOM     29  C   UNL A   1      38.383  32.878  33.001  1.00  0.00     0.074 A 
ATOM     30  C   UNL A   1      42.917  30.880  36.968  1.00  0.00     0.029 A 
ATOM     31  N   UNL A   1      41.512  31.105  35.259  1.00  0.00    -0.354 N 
ATOM     32  N   UNL A   1      39.350  32.401  33.747  1.00  0.00    -0.248 NA
ATOM     33  C   UNL A   1      37.681  34.029  33.581  1.00  0.00     0.031 C 
ATOM     34  C   UNL A   1      42.063  31.955  37.238  1.00  0.00     0.029 A 
ATOM     35  C   UNL A   1      41.200  32.106  36.165  1.00  0.00     0.049 A 
ATOM     36  H   UNL A   1      41.057  30.960  34.399  1.00  0.00     0.167 HD
ATOM     37  C   UNL A   1      39.374  33.195  34.886  1.00  0.00     0.074 A 
ATOM     38  C   UNL A   1      38.346  34.203  34.715  1.00  0.00     0.031 C 
ATOM     39  C   UNL A   1      40.167  33.094  35.981  1.00  0.00     0.037 A 
BRANCH  26  40
ATOM     40  C   UNL A   1      44.261  28.472  35.748  1.00  0.00     0.058 A 
ATOM     41  C   UNL A   1      44.014  27.400  36.619  1.00  0.00     0.135 A 
ATOM     42  C   UNL A   1      45.600  28.794  35.469  1.00  0.00     0.135 A 
ATOM     43  F   UNL A   1      42.753  27.059  36.931  1.00  0.00    -0.206 F 
ATOM     44  C   UNL A   1      45.054  26.678  37.197  1.00  0.00     0.059 A 
ATOM     45  C   UNL A   1      46.656  28.073  36.021  1.00  0.00     0.059 A 
ATOM     46  F   UNL A   1      45.892  29.810  34.643  1.00  0.00    -0.206 F 
ATOM     47  C   UNL A   1      46.373  27.021  36.890  1.00  0.00     0.060 A 
BRANCH  47  48
ATOM     48  S   UNL A   1      47.709  26.055  37.628  1.00  0.00     0.124 S 
ATOM     49  O   UNL A   1      47.464  24.735  37.056  1.00  0.00    -0.237 OA
ATOM     50  O   UNL A   1      48.899  26.745  37.141  1.00  0.00    -0.237 OA
ATOM     51  O   UNL A   1      47.462  26.174  39.062  1.00  0.00    -0.744 OA
ENDBRANCH  47  48
ENDBRANCH  26  40
BRANCH  27  52
ATOM     52  C   UNL A   1      36.788  33.077  30.957  1.00  0.00     0.058 A 
ATOM     53  C   UNL A   1      35.461  32.897  31.374  1.00  0.00     0.135 A 
ATOM     54  C   UNL A   1      37.022  33.926  29.863  1.00  0.00     0.135 A 
ATOM     55  F   UNL A   1      35.188  32.094  32.414  1.00  0.00    -0.206 F 
ATOM     56  C   UNL A   1      34.402  33.516  30.718  1.00  0.00     0.059 A 
ATOM     57  C   UNL A   1      35.984  34.578  29.209  1.00  0.00     0.059 A 
ATOM     58  F   UNL A   1      38.277  34.146  29.440  1.00  0.00    -0.206 F 
ATOM     59  C   UNL A   1      34.676  34.355  29.635  1.00  0.00     0.060 A 
BRANCH  59  60
ATOM     60  S   UNL A   1      33.303  35.189  28.809  1.00  0.00     0.124 S 
ATOM     61  O   UNL A   1      32.480  35.586  29.944  1.00  0.00    -0.237 OA
ATOM     62  O   UNL A   1      33.979  36.271  28.100  1.00  0.00    -0.237 OA
ATOM     63  O   UNL A   1      32.746  34.144  27.955  1.00  0.00    -0.744 OA
ENDBRANCH  59  60
ENDBRANCH  27  52
BRANCH  39  64
ATOM     64  C   UNL A   1      39.951  34.109  37.067  1.00  0.00     0.058 A 
ATOM     65  C   UNL A   1      39.083  33.855  38.140  1.00  0.00     0.135 A 
ATOM     66  C   UNL A   1      40.622  35.341  37.038  1.00  0.00     0.135 A 
ATOM     67  F   UNL A   1      38.412  32.694  38.208  1.00  0.00    -0.206 F 
ATOM     68  C   UNL A   1      38.858  34.805  39.131  1.00  0.00     0.059 A 
ATOM     69  C   UNL A   1      40.430  36.296  38.030  1.00  0.00     0.059 A 
ATOM     70  F   UNL A   1      41.469  35.626  36.037  1.00  0.00    -0.206 F 
ATOM     71  C   UNL A   1      39.532  36.026  39.064  1.00  0.00     0.060 A 
BRANCH  71  72
ATOM     72  S   UNL A   1      39.237  37.254  40.353  1.00  0.00     0.124 S 
ATOM     73  O   UNL A   1      38.453  38.252  39.634  1.00  0.00    -0.237 OA
ATOM     74  O   UNL A   1      38.512  36.484  41.360  1.00  0.00    -0.237 OA
ATOM     75  O   UNL A   1      40.582  37.668  40.740  1.00  0.00    -0.744 OA
ENDBRANCH  71  72
ENDBRANCH  39  64
ENDBRANCH  13  14
ENDBRANCH   6   8
ENDBRANCH   3   4
ENDBRANCH   2   3
ENDBRANCH   1   2
BRANCH   1  76
ATOM     76  C   UNL A   1      38.437  23.216  26.186  1.00  0.00     0.002 C 
BRANCH  76  77
ATOM     77  C   UNL A   1      37.099  22.622  25.732  1.00  0.00     0.021 C 
BRANCH  77  78
ATOM     78  C   UNL A   1      36.055  23.625  25.249  1.00  0.00     0.116 C 
BRANCH  78  79
ATOM     79  N   UNL A   1      35.725  23.460  23.843  1.00  0.00    -0.352 N 
ATOM     80  C   UNL A   1      34.496  23.480  23.231  1.00  0.00     0.251 C 
ATOM     81  H   UNL A   1      36.493  23.314  23.244  1.00  0.00     0.163 HD
ATOM     82  O   UNL A   1      34.401  23.329  22.018  1.00  0.00    -0.269 OA
BRANCH  80  83
ATOM     83  C   UNL A   1      33.285  23.708  24.050  1.00  0.00     0.047 A 
ATOM     84  C   UNL A   1      32.849  25.035  24.211  1.00  0.00     0.016 A 
ATOM     85  C   UNL A   1      32.562  22.634  24.608  1.00  0.00    -0.004 A 
ATOM     86  C   UNL A   1      31.721  25.316  24.980  1.00  0.00     0.021 A 
ATOM     87  C   UNL A   1      31.426  22.948  25.384  1.00  0.00     0.030 A 
ATOM     88  C   UNL A   1      31.020  24.271  25.571  1.00  0.00     0.041 A 
ATOM     89  Cl  UNL A   1      29.630  24.607  26.528  1.00  0.00    -0.084 Cl
BRANCH  85  90
ATOM     90  C   UNL A   1      32.914  21.217  24.411  1.00  0.00    -0.018 A 
ATOM     91  C   UNL A   1      32.254  20.458  23.430  1.00  0.00     0.009 A 
ATOM     92  C   UNL A   1      33.887  20.578  25.194  1.00  0.00     0.009 A 
ATOM     93  C   UNL A   1      32.553  19.107  23.237  1.00  0.00     0.014 A 
ATOM     94  C   UNL A   1      34.191  19.224  25.000  1.00  0.00     0.014 A 
ATOM     95  C   UNL A   1      33.527  18.475  24.020  1.00  0.00     0.056 A 
BRANCH  95  96
ATOM     96  C   UNL A   1      33.832  17.014  23.801  1.00  0.00     0.416 C 
ATOM     97  F   UNL A   1      33.909  16.693  22.478  1.00  0.00    -0.166 F 
ATOM     98  F   UNL A   1      35.026  16.640  24.340  1.00  0.00    -0.166 F 
ATOM     99  F   UNL A   1      32.904  16.172  24.333  1.00  0.00    -0.166 F 
ENDBRANCH  95  96
ENDBRANCH  85  90
ENDBRANCH  80  83
ENDBRANCH  78  79
ENDBRANCH  77  78
ENDBRANCH  76  77
ENDBRANCH   1  76
TORSDOF 18
ENDMDL
