MODEL 1
REMARK VINA RESULT:      -9.5      0.000      0.000
REMARK SMILES C[N@@H+](CCCCC(=O)NCCCCCCNC(=O)c1ccc(-c2c3nc(c(-c4c(F)cc(S(=O)(=O)[O-])cc4F)c4ccc([nH]4)c(-c4c(F)cc(S(=O)(=O)[O-])cc4F)c4nc(c(-c5c(F)cc(S(=O)(=O)[O-])cc5F)c5ccc2[nH]5)C=C4)C=C3)cc1)CC(C)(C)O
REMARK SMILES IDX 10 1 9 2 7 3 8 4 6 6 5 7 4 8 3 9 2 10 1 11 85 13 86 14 87 15
REMARK SMILES IDX 88 16 89 17 11 19 12 20 13 21 14 22 15 23 16 24 17 25 18 27
REMARK SMILES IDX 19 28 20 29 84 30 21 31 83 32 22 33 23 34 24 35 77 36 25 37
REMARK SMILES IDX 82 38 76 39 78 40 26 41 81 42 75 43 74 44 27 46 61 47 40 48
REMARK SMILES IDX 60 49 41 50 44 51 59 52 79 53 42 54 43 55 58 57 80 58 45 59
REMARK SMILES IDX 28 60 29 61 38 62 30 63 31 64 37 65 39 66 32 67 33 68 34 69
REMARK SMILES IDX 35 70 36 71 62 72 63 73 72 74 64 75 65 76 71 77 73 78 66 79
REMARK SMILES IDX 67 80 68 81 69 82 70 83 46 84 47 85 56 86 48 87 49 88 55 89
REMARK SMILES IDX 57 90 50 91 51 92 52 93 53 94 54 95
REMARK H PARENT 9 5 2 12 89 18 16 26 78 45 44 56
REMARK Flexibility Score: inf
ROOT
ATOM      1  C   UNL A   1      33.986  30.518  27.253  1.00  0.00     0.116 C 
ENDROOT
BRANCH   1   2
ATOM      2  N   UNL A   1      32.879  29.681  27.670  1.00  0.00    -0.356 N 
ATOM      3  C   UNL A   1      32.476  28.479  27.179  1.00  0.00     0.219 C 
ATOM      4  O   UNL A   1      31.445  27.974  27.628  1.00  0.00    -0.275 OA
ATOM      5  H   UNL A   1      32.342  30.033  28.416  1.00  0.00     0.163 HD
BRANCH   3   6
ATOM      6  C   UNL A   1      33.297  27.773  26.117  1.00  0.00     0.100 C 
BRANCH   6   7
ATOM      7  C   UNL A   1      32.769  27.980  24.694  1.00  0.00     0.016 C 
BRANCH   7   8
ATOM      8  C   UNL A   1      31.442  27.287  24.351  1.00  0.00     0.062 C 
BRANCH   8   9
ATOM      9  C   UNL A   1      30.268  28.204  23.981  1.00  0.00     0.262 C 
BRANCH   9  10
ATOM     10  N   UNL A   1      30.567  29.555  23.509  1.00  0.00    -0.335 N 
ATOM     11  C   UNL A   1      30.545  30.555  24.557  1.00  0.00     0.332 C 
ATOM     12  H   UNL A   1      31.552  29.518  23.244  1.00  0.00     0.347 HD
BRANCH  10  13
ATOM     13  C   UNL A   1      29.981  29.932  22.219  1.00  0.00     0.296 C 
BRANCH  13  14
ATOM     14  C   UNL A   1      28.532  30.518  22.060  1.00  0.00     0.108 C 
ATOM     15  C   UNL A   1      27.624  30.214  23.253  1.00  0.00     0.048 C 
ATOM     16  C   UNL A   1      28.651  32.042  21.890  1.00  0.00     0.048 C 
BRANCH  14  17
ATOM     17  O   UNL A   1      27.879  30.030  20.890  1.00  0.00    -0.385 OA
ATOM     18  H   UNL A   1      28.370  29.271  20.538  1.00  0.00     0.211 HD
ENDBRANCH  14  17
ENDBRANCH  13  14
ENDBRANCH  10  13
ENDBRANCH   9  10
ENDBRANCH   8   9
ENDBRANCH   7   8
ENDBRANCH   6   7
ENDBRANCH   3   6
ENDBRANCH   1   2
BRANCH   1  19
ATOM     19  C   UNL A   1      33.963  31.849  28.009  1.00  0.00     0.021 C 
BRANCH  19  20
ATOM     20  C   UNL A   1      35.296  32.591  27.999  1.00  0.00     0.002 C 
BRANCH  20  21
ATOM     21  C   UNL A   1      35.485  33.557  29.172  1.00  0.00     0.002 C 
BRANCH  21  22
ATOM     22  C   UNL A   1      36.932  33.736  29.649  1.00  0.00     0.021 C 
BRANCH  22  23
ATOM     23  C   UNL A   1      37.191  33.300  31.090  1.00  0.00     0.116 C 
BRANCH  23  24
ATOM     24  N   UNL A   1      36.489  32.066  31.407  1.00  0.00    -0.352 N 
ATOM     25  C   UNL A   1      36.764  30.780  31.027  1.00  0.00     0.251 C 
ATOM     26  H   UNL A   1      35.697  32.173  31.982  1.00  0.00     0.163 HD
ATOM     27  O   UNL A   1      35.899  29.915  31.135  1.00  0.00    -0.269 OA
BRANCH  25  28
ATOM     28  C   UNL A   1      38.097  30.433  30.495  1.00  0.00     0.039 A 
ATOM     29  C   UNL A   1      39.135  30.168  31.391  1.00  0.00     0.014 A 
ATOM     30  C   UNL A   1      38.335  30.418  29.117  1.00  0.00     0.014 A 
ATOM     31  C   UNL A   1      40.402  29.844  30.904  1.00  0.00     0.010 A 
ATOM     32  C   UNL A   1      39.580  30.031  28.632  1.00  0.00     0.010 A 
ATOM     33  C   UNL A   1      40.628  29.750  29.520  1.00  0.00    -0.014 A 
BRANCH  33  34
ATOM     34  C   UNL A   1      41.956  29.351  28.992  1.00  0.00     0.031 A 
ATOM     35  C   UNL A   1      43.067  30.357  28.883  1.00  0.00     0.074 A 
ATOM     36  C   UNL A   1      42.139  28.087  28.566  1.00  0.00     0.049 A 
ATOM     37  N   UNL A   1      44.288  30.194  28.439  1.00  0.00    -0.248 NA
ATOM     38  C   UNL A   1      42.760  31.734  29.300  1.00  0.00     0.031 C 
ATOM     39  C   UNL A   1      41.116  27.038  28.570  1.00  0.00     0.029 A 
ATOM     40  N   UNL A   1      43.246  27.468  28.045  1.00  0.00    -0.354 N 
ATOM     41  C   UNL A   1      44.889  31.444  28.512  1.00  0.00     0.074 A 
ATOM     42  C   UNL A   1      43.884  32.367  28.995  1.00  0.00     0.031 C 
ATOM     43  C   UNL A   1      41.654  25.899  28.107  1.00  0.00     0.029 A 
ATOM     44  C   UNL A   1      43.047  26.142  27.743  1.00  0.00     0.049 A 
ATOM     45  H   UNL A   1      44.104  27.930  27.900  1.00  0.00     0.167 HD
ATOM     46  C   UNL A   1      46.168  31.787  28.224  1.00  0.00     0.037 A 
ATOM     47  C   UNL A   1      43.891  25.225  27.237  1.00  0.00     0.037 A 
ATOM     48  C   UNL A   1      47.166  30.856  27.765  1.00  0.00     0.049 A 
ATOM     49  C   UNL A   1      45.308  25.624  26.937  1.00  0.00     0.074 A 
ATOM     50  C   UNL A   1      48.508  31.083  27.516  1.00  0.00     0.029 A 
ATOM     51  N   UNL A   1      46.928  29.519  27.477  1.00  0.00    -0.354 N 
ATOM     52  N   UNL A   1      45.885  26.793  27.088  1.00  0.00    -0.248 NA
ATOM     53  C   UNL A   1      46.193  24.578  26.407  1.00  0.00     0.031 C 
ATOM     54  C   UNL A   1      49.072  29.895  27.036  1.00  0.00     0.029 A 
ATOM     55  C   UNL A   1      48.092  28.915  27.029  1.00  0.00     0.049 A 
ATOM     56  H   UNL A   1      46.060  29.066  27.578  1.00  0.00     0.167 HD
ATOM     57  C   UNL A   1      47.204  26.620  26.686  1.00  0.00     0.074 A 
ATOM     58  C   UNL A   1      47.344  25.230  26.304  1.00  0.00     0.031 C 
ATOM     59  C   UNL A   1      48.210  27.531  26.640  1.00  0.00     0.037 A 
BRANCH  46  60
ATOM     60  C   UNL A   1      46.554  33.231  28.396  1.00  0.00     0.058 A 
ATOM     61  C   UNL A   1      46.366  34.174  27.372  1.00  0.00     0.135 A 
ATOM     62  C   UNL A   1      47.112  33.682  29.604  1.00  0.00     0.135 A 
ATOM     63  F   UNL A   1      45.848  33.796  26.192  1.00  0.00    -0.206 F 
ATOM     64  C   UNL A   1      46.755  35.502  27.522  1.00  0.00     0.059 A 
ATOM     65  C   UNL A   1      47.483  35.012  29.786  1.00  0.00     0.059 A 
ATOM     66  F   UNL A   1      47.313  32.827  30.617  1.00  0.00    -0.206 F 
ATOM     67  C   UNL A   1      47.320  35.909  28.732  1.00  0.00     0.060 A 
BRANCH  67  68
ATOM     68  S   UNL A   1      47.840  37.630  28.906  1.00  0.00     0.124 S 
ATOM     69  O   UNL A   1      49.248  37.473  29.258  1.00  0.00    -0.237 OA
ATOM     70  O   UNL A   1      47.577  38.174  27.578  1.00  0.00    -0.237 OA
ATOM     71  O   UNL A   1      46.980  38.138  29.970  1.00  0.00    -0.744 OA
ENDBRANCH  67  68
ENDBRANCH  46  60
BRANCH  47  72
ATOM     72  C   UNL A   1      43.423  23.830  27.026  1.00  0.00     0.058 A 
ATOM     73  C   UNL A   1      43.285  22.950  28.108  1.00  0.00     0.135 A 
ATOM     74  C   UNL A   1      43.061  23.366  25.752  1.00  0.00     0.135 A 
ATOM     75  F   UNL A   1      43.624  23.347  29.344  1.00  0.00    -0.206 F 
ATOM     76  C   UNL A   1      42.810  21.654  27.937  1.00  0.00     0.059 A 
ATOM     77  C   UNL A   1      42.562  22.081  25.559  1.00  0.00     0.059 A 
ATOM     78  F   UNL A   1      43.157  24.177  24.687  1.00  0.00    -0.206 F 
ATOM     79  C   UNL A   1      42.445  21.231  26.657  1.00  0.00     0.060 A 
BRANCH  79  80
ATOM     80  S   UNL A   1      41.758  19.572  26.458  1.00  0.00     0.124 S 
ATOM     81  O   UNL A   1      42.374  19.147  25.207  1.00  0.00    -0.237 OA
ATOM     82  O   UNL A   1      42.230  18.898  27.664  1.00  0.00    -0.237 OA
ATOM     83  O   UNL A   1      40.319  19.809  26.406  1.00  0.00    -0.744 OA
ENDBRANCH  79  80
ENDBRANCH  47  72
BRANCH  59  84
ATOM     84  C   UNL A   1      49.551  27.043  26.168  1.00  0.00     0.058 A 
ATOM     85  C   UNL A   1      50.459  26.430  27.045  1.00  0.00     0.135 A 
ATOM     86  C   UNL A   1      49.921  27.166  24.820  1.00  0.00     0.135 A 
ATOM     87  F   UNL A   1      50.157  26.294  28.346  1.00  0.00    -0.206 F 
ATOM     88  C   UNL A   1      51.701  25.980  26.607  1.00  0.00     0.059 A 
ATOM     89  C   UNL A   1      51.147  26.701  24.354  1.00  0.00     0.059 A 
ATOM     90  F   UNL A   1      49.085  27.738  23.938  1.00  0.00    -0.206 F 
ATOM     91  C   UNL A   1      52.036  26.123  25.259  1.00  0.00     0.060 A 
BRANCH  91  92
ATOM     92  S   UNL A   1      53.644  25.522  24.698  1.00  0.00     0.124 S 
ATOM     93  O   UNL A   1      54.555  26.305  25.527  1.00  0.00    -0.237 OA
ATOM     94  O   UNL A   1      53.572  24.097  25.007  1.00  0.00    -0.237 OA
ATOM     95  O   UNL A   1      53.650  25.849  23.275  1.00  0.00    -0.744 OA
ENDBRANCH  91  92
ENDBRANCH  59  84
ENDBRANCH  33  34
ENDBRANCH  25  28
ENDBRANCH  23  24
ENDBRANCH  22  23
ENDBRANCH  21  22
ENDBRANCH  20  21
ENDBRANCH  19  20
ENDBRANCH   1  19
TORSDOF 23
ENDMDL
MODEL 2
REMARK VINA RESULT:      -9.4      1.824      3.316
REMARK SMILES C[N@@H+](CCCCC(=O)NCCCCCCNC(=O)c1ccc(-c2c3nc(c(-c4c(F)cc(S(=O)(=O)[O-])cc4F)c4ccc([nH]4)c(-c4c(F)cc(S(=O)(=O)[O-])cc4F)c4nc(c(-c5c(F)cc(S(=O)(=O)[O-])cc5F)c5ccc2[nH]5)C=C4)C=C3)cc1)CC(C)(C)O
REMARK SMILES IDX 10 1 9 2 7 3 8 4 6 6 5 7 4 8 3 9 2 10 1 11 85 13 86 14 87 15
REMARK SMILES IDX 88 16 89 17 11 19 12 20 13 21 14 22 15 23 16 24 17 25 18 27
REMARK SMILES IDX 19 28 20 29 84 30 21 31 83 32 22 33 23 34 24 35 77 36 25 37
REMARK SMILES IDX 82 38 76 39 78 40 26 41 81 42 75 43 74 44 27 46 61 47 40 48
REMARK SMILES IDX 60 49 41 50 44 51 59 52 79 53 42 54 43 55 58 57 80 58 45 59
REMARK SMILES IDX 28 60 29 61 38 62 30 63 31 64 37 65 39 66 32 67 33 68 34 69
REMARK SMILES IDX 35 70 36 71 62 72 63 73 72 74 64 75 65 76 71 77 73 78 66 79
REMARK SMILES IDX 67 80 68 81 69 82 70 83 46 84 47 85 56 86 48 87 49 88 55 89
REMARK SMILES IDX 57 90 50 91 51 92 52 93 53 94 54 95
REMARK H PARENT 9 5 2 12 89 18 16 26 78 45 44 56
REMARK Flexibility Score: inf
ROOT
ATOM      1  C   UNL A   1      33.970  30.351  27.204  1.00  0.00     0.116 C 
ENDROOT
BRANCH   1   2
ATOM      2  N   UNL A   1      32.874  29.560  27.726  1.00  0.00    -0.356 N 
ATOM      3  C   UNL A   1      32.484  28.301  27.392  1.00  0.00     0.219 C 
ATOM      4  O   UNL A   1      31.459  27.845  27.905  1.00  0.00    -0.275 OA
ATOM      5  H   UNL A   1      32.334  29.998  28.424  1.00  0.00     0.163 HD
BRANCH   3   6
ATOM      6  C   UNL A   1      33.311  27.476  26.426  1.00  0.00     0.100 C 
BRANCH   6   7
ATOM      7  C   UNL A   1      32.472  26.589  25.501  1.00  0.00     0.016 C 
BRANCH   7   8
ATOM      8  C   UNL A   1      32.179  25.167  26.002  1.00  0.00     0.062 C 
BRANCH   8   9
ATOM      9  C   UNL A   1      33.384  24.358  26.504  1.00  0.00     0.262 C 
BRANCH   9  10
ATOM     10  N   UNL A   1      33.511  22.966  26.075  1.00  0.00    -0.335 N 
ATOM     11  C   UNL A   1      32.272  22.218  26.156  1.00  0.00     0.332 C 
ATOM     12  H   UNL A   1      33.681  23.025  25.071  1.00  0.00     0.347 HD
BRANCH  10  13
ATOM     13  C   UNL A   1      34.734  22.272  26.490  1.00  0.00     0.296 C 
BRANCH  13  14
ATOM     14  C   UNL A   1      36.004  22.127  25.576  1.00  0.00     0.108 C 
ATOM     15  C   UNL A   1      36.140  20.739  24.948  1.00  0.00     0.048 C 
ATOM     16  C   UNL A   1      35.910  23.181  24.460  1.00  0.00     0.048 C 
BRANCH  14  17
ATOM     17  O   UNL A   1      37.211  22.396  26.286  1.00  0.00    -0.385 OA
ATOM     18  H   UNL A   1      37.970  22.258  25.698  1.00  0.00     0.211 HD
ENDBRANCH  14  17
ENDBRANCH  13  14
ENDBRANCH  10  13
ENDBRANCH   9  10
ENDBRANCH   8   9
ENDBRANCH   7   8
ENDBRANCH   6   7
ENDBRANCH   3   6
ENDBRANCH   1   2
BRANCH   1  19
ATOM     19  C   UNL A   1      33.956  31.753  27.817  1.00  0.00     0.021 C 
BRANCH  19  20
ATOM     20  C   UNL A   1      35.342  32.368  27.987  1.00  0.00     0.002 C 
BRANCH  20  21
ATOM     21  C   UNL A   1      35.449  33.364  29.146  1.00  0.00     0.002 C 
BRANCH  21  22
ATOM     22  C   UNL A   1      36.875  33.777  29.529  1.00  0.00     0.021 C 
BRANCH  22  23
ATOM     23  C   UNL A   1      37.266  33.471  30.974  1.00  0.00     0.116 C 
BRANCH  23  24
ATOM     24  N   UNL A   1      36.615  32.263  31.457  1.00  0.00    -0.352 N 
ATOM     25  C   UNL A   1      36.911  30.949  31.211  1.00  0.00     0.251 C 
ATOM     26  H   UNL A   1      35.845  32.414  32.051  1.00  0.00     0.163 HD
ATOM     27  O   UNL A   1      36.078  30.081  31.453  1.00  0.00    -0.269 OA
BRANCH  25  28
ATOM     28  C   UNL A   1      38.231  30.579  30.662  1.00  0.00     0.039 A 
ATOM     29  C   UNL A   1      39.293  30.359  31.542  1.00  0.00     0.014 A 
ATOM     30  C   UNL A   1      38.433  30.496  29.280  1.00  0.00     0.014 A 
ATOM     31  C   UNL A   1      40.547  30.013  31.038  1.00  0.00     0.010 A 
ATOM     32  C   UNL A   1      39.665  30.086  28.782  1.00  0.00     0.010 A 
ATOM     33  C   UNL A   1      40.737  29.850  29.655  1.00  0.00    -0.014 A 
BRANCH  33  34
ATOM     34  C   UNL A   1      42.051  29.427  29.112  1.00  0.00     0.031 A 
ATOM     35  C   UNL A   1      43.186  30.408  29.012  1.00  0.00     0.074 A 
ATOM     36  C   UNL A   1      42.201  28.166  28.666  1.00  0.00     0.049 A 
ATOM     37  N   UNL A   1      44.400  30.221  28.558  1.00  0.00    -0.248 NA
ATOM     38  C   UNL A   1      42.916  31.785  29.453  1.00  0.00     0.031 C 
ATOM     39  C   UNL A   1      41.153  27.143  28.660  1.00  0.00     0.029 A 
ATOM     40  N   UNL A   1      43.289  27.529  28.128  1.00  0.00    -0.354 N 
ATOM     41  C   UNL A   1      45.033  31.455  28.647  1.00  0.00     0.074 A 
ATOM     42  C   UNL A   1      44.053  32.395  29.151  1.00  0.00     0.031 C 
ATOM     43  C   UNL A   1      41.659  25.998  28.175  1.00  0.00     0.029 A 
ATOM     44  C   UNL A   1      43.055  26.213  27.806  1.00  0.00     0.049 A 
ATOM     45  H   UNL A   1      44.158  27.972  27.985  1.00  0.00     0.167 HD
ATOM     46  C   UNL A   1      46.318  31.772  28.357  1.00  0.00     0.037 A 
ATOM     47  C   UNL A   1      43.874  25.283  27.280  1.00  0.00     0.037 A 
ATOM     48  C   UNL A   1      47.290  30.823  27.876  1.00  0.00     0.049 A 
ATOM     49  C   UNL A   1      45.299  25.652  26.978  1.00  0.00     0.074 A 
ATOM     50  C   UNL A   1      48.636  31.021  27.623  1.00  0.00     0.029 A 
ATOM     51  N   UNL A   1      47.018  29.497  27.569  1.00  0.00    -0.354 N 
ATOM     52  N   UNL A   1      45.905  26.804  27.144  1.00  0.00    -0.248 NA
ATOM     53  C   UNL A   1      46.154  24.593  26.426  1.00  0.00     0.031 C 
ATOM     54  C   UNL A   1      49.167  29.828  27.121  1.00  0.00     0.029 A 
ATOM     55  C   UNL A   1      48.163  28.872  27.104  1.00  0.00     0.049 A 
ATOM     56  H   UNL A   1      46.139  29.064  27.668  1.00  0.00     0.167 HD
ATOM     57  C   UNL A   1      47.217  26.605  26.731  1.00  0.00     0.074 A 
ATOM     58  C   UNL A   1      47.321  25.218  26.326  1.00  0.00     0.031 C 
ATOM     59  C   UNL A   1      48.244  27.491  26.693  1.00  0.00     0.037 A 
BRANCH  46  60
ATOM     60  C   UNL A   1      46.740  33.202  28.549  1.00  0.00     0.058 A 
ATOM     61  C   UNL A   1      46.506  34.181  27.568  1.00  0.00     0.135 A 
ATOM     62  C   UNL A   1      47.381  33.605  29.732  1.00  0.00     0.135 A 
ATOM     63  F   UNL A   1      45.908  33.850  26.413  1.00  0.00    -0.206 F 
ATOM     64  C   UNL A   1      46.929  35.496  27.735  1.00  0.00     0.059 A 
ATOM     65  C   UNL A   1      47.788  34.922  29.933  1.00  0.00     0.059 A 
ATOM     66  F   UNL A   1      47.629  32.714  30.704  1.00  0.00    -0.206 F 
ATOM     67  C   UNL A   1      47.575  35.855  28.919  1.00  0.00     0.060 A 
BRANCH  67  68
ATOM     68  S   UNL A   1      48.137  37.560  29.114  1.00  0.00     0.124 S 
ATOM     69  O   UNL A   1      48.167  38.015  27.727  1.00  0.00    -0.237 OA
ATOM     70  O   UNL A   1      47.091  38.143  29.948  1.00  0.00    -0.237 OA
ATOM     71  O   UNL A   1      49.440  37.417  29.756  1.00  0.00    -0.744 OA
ENDBRANCH  67  68
ENDBRANCH  46  60
BRANCH  47  72
ATOM     72  C   UNL A   1      43.370  23.905  27.051  1.00  0.00     0.058 A 
ATOM     73  C   UNL A   1      43.315  22.978  28.101  1.00  0.00     0.135 A 
ATOM     74  C   UNL A   1      42.893  23.501  25.794  1.00  0.00     0.135 A 
ATOM     75  F   UNL A   1      43.765  23.316  29.319  1.00  0.00    -0.206 F 
ATOM     76  C   UNL A   1      42.808  21.696  27.915  1.00  0.00     0.059 A 
ATOM     77  C   UNL A   1      42.361  22.231  25.589  1.00  0.00     0.059 A 
ATOM     78  F   UNL A   1      42.907  24.358  24.761  1.00  0.00    -0.206 F 
ATOM     79  C   UNL A   1      42.328  21.334  26.656  1.00  0.00     0.060 A 
BRANCH  79  80
ATOM     80  S   UNL A   1      41.604  19.692  26.445  1.00  0.00     0.124 S 
ATOM     81  O   UNL A   1      42.323  19.202  25.275  1.00  0.00    -0.237 OA
ATOM     82  O   UNL A   1      41.932  19.048  27.713  1.00  0.00    -0.237 OA
ATOM     83  O   UNL A   1      40.186  19.975  26.243  1.00  0.00    -0.744 OA
ENDBRANCH  79  80
ENDBRANCH  47  72
BRANCH  59  84
ATOM     84  C   UNL A   1      49.571  26.979  26.205  1.00  0.00     0.058 A 
ATOM     85  C   UNL A   1      49.994  27.179  24.882  1.00  0.00     0.135 A 
ATOM     86  C   UNL A   1      50.440  26.305  27.077  1.00  0.00     0.135 A 
ATOM     87  F   UNL A   1      49.197  27.812  24.006  1.00  0.00    -0.206 F 
ATOM     88  C   UNL A   1      51.221  26.704  24.432  1.00  0.00     0.059 A 
ATOM     89  C   UNL A   1      51.683  25.843  26.656  1.00  0.00     0.059 A 
ATOM     90  F   UNL A   1      50.087  26.095  28.356  1.00  0.00    -0.206 F 
ATOM     91  C   UNL A   1      52.057  26.034  25.327  1.00  0.00     0.060 A 
BRANCH  91  92
ATOM     92  S   UNL A   1      53.655  25.434  24.737  1.00  0.00     0.124 S 
ATOM     93  O   UNL A   1      54.577  26.346  25.407  1.00  0.00    -0.237 OA
ATOM     94  O   UNL A   1      53.669  24.055  25.214  1.00  0.00    -0.237 OA
ATOM     95  O   UNL A   1      53.561  25.588  23.288  1.00  0.00    -0.744 OA
ENDBRANCH  91  92
ENDBRANCH  59  84
ENDBRANCH  33  34
ENDBRANCH  25  28
ENDBRANCH  23  24
ENDBRANCH  22  23
ENDBRANCH  21  22
ENDBRANCH  20  21
ENDBRANCH  19  20
ENDBRANCH   1  19
TORSDOF 23
ENDMDL
MODEL 3
REMARK VINA RESULT:      -9.2      6.854     12.728
REMARK SMILES C[N@@H+](CCCCC(=O)NCCCCCCNC(=O)c1ccc(-c2c3nc(c(-c4c(F)cc(S(=O)(=O)[O-])cc4F)c4ccc([nH]4)c(-c4c(F)cc(S(=O)(=O)[O-])cc4F)c4nc(c(-c5c(F)cc(S(=O)(=O)[O-])cc5F)c5ccc2[nH]5)C=C4)C=C3)cc1)CC(C)(C)O
REMARK SMILES IDX 10 1 9 2 7 3 8 4 6 6 5 7 4 8 3 9 2 10 1 11 85 13 86 14 87 15
REMARK SMILES IDX 88 16 89 17 11 19 12 20 13 21 14 22 15 23 16 24 17 25 18 27
REMARK SMILES IDX 19 28 20 29 84 30 21 31 83 32 22 33 23 34 24 35 77 36 25 37
REMARK SMILES IDX 82 38 76 39 78 40 26 41 81 42 75 43 74 44 27 46 61 47 40 48
REMARK SMILES IDX 60 49 41 50 44 51 59 52 79 53 42 54 43 55 58 57 80 58 45 59
REMARK SMILES IDX 28 60 29 61 38 62 30 63 31 64 37 65 39 66 32 67 33 68 34 69
REMARK SMILES IDX 35 70 36 71 62 72 63 73 72 74 64 75 65 76 71 77 73 78 66 79
REMARK SMILES IDX 67 80 68 81 69 82 70 83 46 84 47 85 56 86 48 87 49 88 55 89
REMARK SMILES IDX 57 90 50 91 51 92 52 93 53 94 54 95
REMARK H PARENT 9 5 2 12 89 18 16 26 78 45 44 56
REMARK Flexibility Score: inf
ROOT
ATOM      1  C   UNL A   1      40.276  22.922  26.993  1.00  0.00     0.116 C 
ENDROOT
BRANCH   1   2
ATOM      2  N   UNL A   1      39.439  21.966  26.298  1.00  0.00    -0.356 N 
ATOM      3  C   UNL A   1      38.200  22.134  25.763  1.00  0.00     0.219 C 
ATOM      4  O   UNL A   1      37.624  21.154  25.287  1.00  0.00    -0.275 OA
ATOM      5  H   UNL A   1      39.822  21.064  26.198  1.00  0.00     0.163 HD
BRANCH   3   6
ATOM      6  C   UNL A   1      37.558  23.508  25.739  1.00  0.00     0.100 C 
BRANCH   6   7
ATOM      7  C   UNL A   1      36.040  23.480  25.942  1.00  0.00     0.016 C 
BRANCH   7   8
ATOM      8  C   UNL A   1      35.306  22.236  25.420  1.00  0.00     0.062 C 
BRANCH   8   9
ATOM      9  C   UNL A   1      33.976  22.483  24.694  1.00  0.00     0.262 C 
BRANCH   9  10
ATOM     10  N   UNL A   1      32.861  21.575  24.962  1.00  0.00    -0.335 N 
ATOM     11  C   UNL A   1      31.644  22.252  25.362  1.00  0.00     0.332 C 
ATOM     12  H   UNL A   1      32.623  21.191  24.047  1.00  0.00     0.347 HD
BRANCH  10  13
ATOM     13  C   UNL A   1      33.195  20.335  25.669  1.00  0.00     0.296 C 
BRANCH  13  14
ATOM     14  C   UNL A   1      33.304  18.935  24.964  1.00  0.00     0.108 C 
ATOM     15  C   UNL A   1      32.680  17.799  25.778  1.00  0.00     0.048 C 
ATOM     16  C   UNL A   1      32.595  19.030  23.603  1.00  0.00     0.048 C 
BRANCH  14  17
ATOM     17  O   UNL A   1      34.657  18.573  24.692  1.00  0.00    -0.385 OA
ATOM     18  H   UNL A   1      35.228  18.891  25.409  1.00  0.00     0.211 HD
ENDBRANCH  14  17
ENDBRANCH  13  14
ENDBRANCH  10  13
ENDBRANCH   9  10
ENDBRANCH   8   9
ENDBRANCH   7   8
ENDBRANCH   6   7
ENDBRANCH   3   6
ENDBRANCH   1   2
BRANCH   1  19
ATOM     19  C   UNL A   1      41.617  22.284  27.367  1.00  0.00     0.021 C 
BRANCH  19  20
ATOM     20  C   UNL A   1      42.395  21.736  26.174  1.00  0.00     0.002 C 
BRANCH  20  21
ATOM     21  C   UNL A   1      43.869  22.150  26.143  1.00  0.00     0.002 C 
BRANCH  21  22
ATOM     22  C   UNL A   1      44.330  23.027  27.314  1.00  0.00     0.021 C 
BRANCH  22  23
ATOM     23  C   UNL A   1      44.769  24.437  26.925  1.00  0.00     0.116 C 
BRANCH  23  24
ATOM     24  N   UNL A   1      43.962  24.966  25.837  1.00  0.00    -0.352 N 
ATOM     25  C   UNL A   1      42.868  25.788  25.878  1.00  0.00     0.251 C 
ATOM     26  H   UNL A   1      44.245  24.690  24.936  1.00  0.00     0.163 HD
ATOM     27  O   UNL A   1      42.139  25.881  24.894  1.00  0.00    -0.269 OA
BRANCH  25  28
ATOM     28  C   UNL A   1      42.569  26.563  27.098  1.00  0.00     0.039 A 
ATOM     29  C   UNL A   1      43.209  27.788  27.296  1.00  0.00     0.014 A 
ATOM     30  C   UNL A   1      41.697  26.060  28.069  1.00  0.00     0.014 A 
ATOM     31  C   UNL A   1      42.941  28.531  28.446  1.00  0.00     0.010 A 
ATOM     32  C   UNL A   1      41.381  26.830  29.184  1.00  0.00     0.010 A 
ATOM     33  C   UNL A   1      42.006  28.068  29.388  1.00  0.00    -0.014 A 
BRANCH  33  34
ATOM     34  C   UNL A   1      41.672  28.876  30.587  1.00  0.00     0.031 A 
ATOM     35  C   UNL A   1      42.493  28.756  31.840  1.00  0.00     0.074 A 
ATOM     36  C   UNL A   1      40.593  29.681  30.555  1.00  0.00     0.049 A 
ATOM     37  N   UNL A   1      42.345  29.375  32.985  1.00  0.00    -0.248 NA
ATOM     38  C   UNL A   1      43.608  27.799  31.815  1.00  0.00     0.031 C 
ATOM     39  C   UNL A   1      39.688  29.835  29.413  1.00  0.00     0.029 A 
ATOM     40  N   UNL A   1      40.072  30.520  31.506  1.00  0.00    -0.354 N 
ATOM     41  C   UNL A   1      43.338  28.873  33.818  1.00  0.00     0.074 A 
ATOM     42  C   UNL A   1      44.050  27.863  33.063  1.00  0.00     0.031 C 
ATOM     43  C   UNL A   1      38.744  30.738  29.719  1.00  0.00     0.029 A 
ATOM     44  C   UNL A   1      38.956  31.204  31.086  1.00  0.00     0.049 A 
ATOM     45  H   UNL A   1      40.460  30.622  32.405  1.00  0.00     0.167 HD
ATOM     46  C   UNL A   1      43.643  29.237  35.087  1.00  0.00     0.037 A 
ATOM     47  C   UNL A   1      38.193  32.109  31.728  1.00  0.00     0.037 A 
ATOM     48  C   UNL A   1      42.941  30.259  35.820  1.00  0.00     0.049 A 
ATOM     49  C   UNL A   1      38.557  32.507  33.130  1.00  0.00     0.074 A 
ATOM     50  C   UNL A   1      43.215  30.756  37.082  1.00  0.00     0.029 A 
ATOM     51  N   UNL A   1      41.820  30.935  35.360  1.00  0.00    -0.354 N 
ATOM     52  N   UNL A   1      39.549  32.081  33.877  1.00  0.00    -0.248 NA
ATOM     53  C   UNL A   1      37.704  33.514  33.776  1.00  0.00     0.031 C 
ATOM     54  C   UNL A   1      42.234  31.702  37.402  1.00  0.00     0.029 A 
ATOM     55  C   UNL A   1      41.375  31.827  36.322  1.00  0.00     0.049 A 
ATOM     56  H   UNL A   1      41.403  30.802  34.478  1.00  0.00     0.167 HD
ATOM     57  C   UNL A   1      39.450  32.780  35.074  1.00  0.00     0.074 A 
ATOM     58  C   UNL A   1      38.312  33.669  34.945  1.00  0.00     0.031 C 
ATOM     59  C   UNL A   1      40.231  32.695  36.180  1.00  0.00     0.037 A 
BRANCH  46  60
ATOM     60  C   UNL A   1      44.782  28.520  35.759  1.00  0.00     0.058 A 
ATOM     61  C   UNL A   1      46.103  28.991  35.678  1.00  0.00     0.135 A 
ATOM     62  C   UNL A   1      44.552  27.350  36.501  1.00  0.00     0.135 A 
ATOM     63  F   UNL A   1      46.384  30.098  34.971  1.00  0.00    -0.206 F 
ATOM     64  C   UNL A   1      47.159  28.307  36.271  1.00  0.00     0.059 A 
ATOM     65  C   UNL A   1      45.590  26.664  37.128  1.00  0.00     0.059 A 
ATOM     66  F   UNL A   1      43.310  26.855  36.615  1.00  0.00    -0.206 F 
ATOM     67  C   UNL A   1      46.893  27.140  36.989  1.00  0.00     0.060 A 
BRANCH  67  68
ATOM     68  S   UNL A   1      48.275  26.250  37.737  1.00  0.00     0.124 S 
ATOM     69  O   UNL A   1      48.427  25.126  36.818  1.00  0.00    -0.237 OA
ATOM     70  O   UNL A   1      49.343  27.244  37.703  1.00  0.00    -0.237 OA
ATOM     71  O   UNL A   1      47.780  25.911  39.067  1.00  0.00    -0.744 OA
ENDBRANCH  67  68
ENDBRANCH  46  60
BRANCH  47  72
ATOM     72  C   UNL A   1      37.039  32.727  31.027  1.00  0.00     0.058 A 
ATOM     73  C   UNL A   1      37.222  33.825  30.176  1.00  0.00     0.135 A 
ATOM     74  C   UNL A   1      35.741  32.207  31.157  1.00  0.00     0.135 A 
ATOM     75  F   UNL A   1      38.443  34.360  30.024  1.00  0.00    -0.206 F 
ATOM     76  C   UNL A   1      36.160  34.392  29.479  1.00  0.00     0.059 A 
ATOM     77  C   UNL A   1      34.667  32.743  30.453  1.00  0.00     0.059 A 
ATOM     78  F   UNL A   1      35.518  31.145  31.946  1.00  0.00    -0.206 F 
ATOM     79  C   UNL A   1      34.886  33.839  29.620  1.00  0.00     0.060 A 
BRANCH  79  80
ATOM     80  S   UNL A   1      33.528  34.536  28.654  1.00  0.00     0.124 S 
ATOM     81  O   UNL A   1      32.567  34.871  29.696  1.00  0.00    -0.237 OA
ATOM     82  O   UNL A   1      34.173  35.666  27.991  1.00  0.00    -0.237 OA
ATOM     83  O   UNL A   1      33.147  33.438  27.772  1.00  0.00    -0.744 OA
ENDBRANCH  79  80
ENDBRANCH  47  72
BRANCH  59  84
ATOM     84  C   UNL A   1      39.885  33.597  37.333  1.00  0.00     0.058 A 
ATOM     85  C   UNL A   1      38.958  33.211  38.313  1.00  0.00     0.135 A 
ATOM     86  C   UNL A   1      40.506  34.847  37.473  1.00  0.00     0.135 A 
ATOM     87  F   UNL A   1      38.330  32.028  38.222  1.00  0.00    -0.206 F 
ATOM     88  C   UNL A   1      38.638  34.047  39.378  1.00  0.00     0.059 A 
ATOM     89  C   UNL A   1      40.220  35.688  38.543  1.00  0.00     0.059 A 
ATOM     90  F   UNL A   1      41.407  35.260  36.567  1.00  0.00    -0.206 F 
ATOM     91  C   UNL A   1      39.273  35.285  39.482  1.00  0.00     0.060 A 
BRANCH  91  92
ATOM     92  S   UNL A   1      38.861  36.356  40.877  1.00  0.00     0.124 S 
ATOM     93  O   UNL A   1      38.429  37.572  40.196  1.00  0.00    -0.237 OA
ATOM     94  O   UNL A   1      37.810  35.601  41.553  1.00  0.00    -0.237 OA
ATOM     95  O   UNL A   1      40.119  36.458  41.610  1.00  0.00    -0.744 OA
ENDBRANCH  91  92
ENDBRANCH  59  84
ENDBRANCH  33  34
ENDBRANCH  25  28
ENDBRANCH  23  24
ENDBRANCH  22  23
ENDBRANCH  21  22
ENDBRANCH  20  21
ENDBRANCH  19  20
ENDBRANCH   1  19
TORSDOF 23
ENDMDL
