MODEL 1
REMARK VINA RESULT:     -11.9      0.000      0.000
REMARK SMILES O=C(C[C@@H]1COc2ccccc2N1Cc1ccccc1)NCCCCCCNC(=O)c1ccc(-c2c3nc(c(-c4c(F)cc(S(=O)(=O)[O-])cc4F)c4ccc([nH]4)c(-c4c(F)cc(S(=O)(=O)[O-])cc4F)c4nc(c(-c5c(F)cc(S(=O)(=O)[O-])cc5F)c5ccc2[nH]5)C=C4)C=C3)cc1
REMARK SMILES IDX 24 1 23 2 22 3 21 4 1 5 2 6 3 8 4 9 5 10 13 11 6 12 12 13
REMARK SMILES IDX 7 14 11 15 8 16 10 17 9 18 14 19 15 20 16 21 20 22 17 23
REMARK SMILES IDX 19 24 18 25 25 26 26 27 27 28 28 29 29 30 30 32 31 33 32 34
REMARK SMILES IDX 96 35 33 36 95 37 34 38 35 39 36 40 89 41 37 42 94 43 88 44
REMARK SMILES IDX 90 45 38 46 93 47 87 48 86 49 39 51 73 52 52 53 72 54 53 55
REMARK SMILES IDX 56 56 71 57 91 58 54 59 55 60 70 62 92 63 57 64 40 65 41 66
REMARK SMILES IDX 50 67 42 68 43 69 49 70 51 71 44 72 45 73 46 74 47 75 48 76
REMARK SMILES IDX 74 77 75 78 84 79 76 80 77 81 83 82 85 83 78 84 79 85 80 86
REMARK SMILES IDX 81 87 82 88 58 89 59 90 68 91 60 92 61 93 67 94 69 95 62 96
REMARK SMILES IDX 63 97 64 98 65 99 66 100
REMARK H PARENT 21 7 28 31 90 50 56 61
REMARK Flexibility Score: inf
ROOT
ATOM      1  C   UNL A   1      32.691  27.275  26.923  1.00  0.00     0.002 C 
ENDROOT
BRANCH   1   2
ATOM      2  C   UNL A   1      31.200  27.206  26.565  1.00  0.00     0.021 C 
BRANCH   2   3
ATOM      3  C   UNL A   1      30.771  25.961  25.787  1.00  0.00     0.116 C 
BRANCH   3   4
ATOM      4  N   UNL A   1      31.816  24.966  25.748  1.00  0.00    -0.356 N 
ATOM      5  O   UNL A   1      31.034  23.572  27.414  1.00  0.00    -0.275 OA
ATOM      6  C   UNL A   1      31.845  23.843  26.536  1.00  0.00     0.222 C 
ATOM      7  H   UNL A   1      32.557  25.102  25.114  1.00  0.00     0.163 HD
BRANCH   6   8
ATOM      8  C   UNL A   1      33.057  22.988  26.281  1.00  0.00     0.128 C 
BRANCH   8   9
ATOM      9  C   UNL A   1      33.406  22.691  24.812  1.00  0.00     0.129 C 
ATOM     10  C   UNL A   1      32.165  22.064  24.144  1.00  0.00     0.255 C 
ATOM     11  N   UNL A   1      34.542  21.764  24.597  1.00  0.00    -0.357 N 
ATOM     12  O   UNL A   1      31.813  20.827  24.788  1.00  0.00    -0.489 OA
ATOM     13  C   UNL A   1      34.227  20.404  24.661  1.00  0.00     0.080 A 
ATOM     14  C   UNL A   1      32.896  19.974  24.864  1.00  0.00     0.142 A 
ATOM     15  C   UNL A   1      35.193  19.395  24.588  1.00  0.00     0.030 A 
ATOM     16  C   UNL A   1      32.585  18.641  25.153  1.00  0.00     0.048 A 
ATOM     17  C   UNL A   1      34.884  18.050  24.825  1.00  0.00     0.002 A 
ATOM     18  C   UNL A   1      33.588  17.678  25.151  1.00  0.00     0.004 A 
BRANCH  11  19
ATOM     19  C   UNL A   1      35.762  22.272  23.940  1.00  0.00     0.152 C 
BRANCH  19  20
ATOM     20  C   UNL A   1      36.921  22.543  24.879  1.00  0.00    -0.029 A 
ATOM     21  C   UNL A   1      37.899  21.565  25.111  1.00  0.00     0.005 A 
ATOM     22  C   UNL A   1      37.025  23.752  25.587  1.00  0.00     0.005 A 
ATOM     23  C   UNL A   1      38.964  21.805  25.987  1.00  0.00     0.000 A 
ATOM     24  C   UNL A   1      38.094  23.998  26.453  1.00  0.00     0.000 A 
ATOM     25  C   UNL A   1      39.067  23.024  26.652  1.00  0.00     0.000 A 
ENDBRANCH  19  20
ENDBRANCH  11  19
ENDBRANCH   8   9
ENDBRANCH   6   8
ENDBRANCH   3   4
ENDBRANCH   2   3
ENDBRANCH   1   2
BRANCH   1  26
ATOM     26  C   UNL A   1      33.465  28.432  26.289  1.00  0.00     0.002 C 
BRANCH  26  27
ATOM     27  C   UNL A   1      33.767  29.610  27.208  1.00  0.00     0.021 C 
BRANCH  27  28
ATOM     28  C   UNL A   1      35.138  29.563  27.871  1.00  0.00     0.116 C 
BRANCH  28  29
ATOM     29  N   UNL A   1      35.238  30.420  29.045  1.00  0.00    -0.352 N 
ATOM     30  C   UNL A   1      36.315  30.628  29.882  1.00  0.00     0.251 C 
ATOM     31  H   UNL A   1      34.422  30.922  29.274  1.00  0.00     0.163 HD
ATOM     32  O   UNL A   1      36.189  31.290  30.899  1.00  0.00    -0.269 OA
BRANCH  30  33
ATOM     33  C   UNL A   1      37.616  30.004  29.545  1.00  0.00     0.039 A 
ATOM     34  C   UNL A   1      38.012  29.937  28.208  1.00  0.00     0.014 A 
ATOM     35  C   UNL A   1      38.459  29.532  30.554  1.00  0.00     0.014 A 
ATOM     36  C   UNL A   1      39.292  29.475  27.890  1.00  0.00     0.010 A 
ATOM     37  C   UNL A   1      39.761  29.158  30.243  1.00  0.00     0.010 A 
ATOM     38  C   UNL A   1      40.193  29.126  28.909  1.00  0.00    -0.014 A 
BRANCH  38  39
ATOM     39  C   UNL A   1      41.590  28.714  28.612  1.00  0.00     0.031 A 
ATOM     40  C   UNL A   1      42.688  29.746  28.609  1.00  0.00     0.074 A 
ATOM     41  C   UNL A   1      41.859  27.439  28.264  1.00  0.00     0.049 A 
ATOM     42  N   UNL A   1      43.938  29.623  28.249  1.00  0.00    -0.248 NA
ATOM     43  C   UNL A   1      42.318  31.108  29.033  1.00  0.00     0.031 C 
ATOM     44  C   UNL A   1      40.873  26.357  28.173  1.00  0.00     0.029 A 
ATOM     45  N   UNL A   1      43.039  26.837  27.905  1.00  0.00    -0.354 N 
ATOM     46  C   UNL A   1      44.497  30.888  28.382  1.00  0.00     0.074 A 
ATOM     47  C   UNL A   1      43.436  31.779  28.800  1.00  0.00     0.031 C 
ATOM     48  C   UNL A   1      41.493  25.225  27.801  1.00  0.00     0.029 A 
ATOM     49  C   UNL A   1      42.909  25.503  27.590  1.00  0.00     0.049 A 
ATOM     50  H   UNL A   1      43.899  27.315  27.876  1.00  0.00     0.167 HD
ATOM     51  C   UNL A   1      45.784  31.270  28.205  1.00  0.00     0.037 A 
ATOM     52  C   UNL A   1      43.827  24.611  27.170  1.00  0.00     0.037 A 
ATOM     53  C   UNL A   1      46.845  30.372  27.833  1.00  0.00     0.049 A 
ATOM     54  C   UNL A   1      45.257  25.055  27.005  1.00  0.00     0.074 A 
ATOM     55  C   UNL A   1      48.191  30.650  27.671  1.00  0.00     0.029 A 
ATOM     56  N   UNL A   1      46.681  29.017  27.580  1.00  0.00    -0.354 N 
ATOM     57  N   UNL A   1      45.774  26.248  27.180  1.00  0.00    -0.248 NA
ATOM     58  C   UNL A   1      46.229  24.033  26.593  1.00  0.00     0.031 C 
ATOM     59  C   UNL A   1      48.838  29.467  27.297  1.00  0.00     0.029 A 
ATOM     60  C   UNL A   1      47.902  28.447  27.264  1.00  0.00     0.049 A 
ATOM     61  H   UNL A   1      45.825  28.535  27.620  1.00  0.00     0.167 HD
ATOM     62  C   UNL A   1      47.135  26.111  26.931  1.00  0.00     0.074 A 
ATOM     63  C   UNL A   1      47.364  24.719  26.604  1.00  0.00     0.031 C 
ATOM     64  C   UNL A   1      48.110  27.053  26.967  1.00  0.00     0.037 A 
BRANCH  51  65
ATOM     65  C   UNL A   1      46.124  32.715  28.442  1.00  0.00     0.058 A 
ATOM     66  C   UNL A   1      46.530  33.172  29.706  1.00  0.00     0.135 A 
ATOM     67  C   UNL A   1      46.094  33.643  27.389  1.00  0.00     0.135 A 
ATOM     68  F   UNL A   1      46.557  32.331  30.752  1.00  0.00    -0.206 F 
ATOM     69  C   UNL A   1      46.875  34.501  29.923  1.00  0.00     0.059 A 
ATOM     70  C   UNL A   1      46.462  34.973  27.577  1.00  0.00     0.059 A 
ATOM     71  F   UNL A   1      45.711  33.261  26.161  1.00  0.00    -0.206 F 
ATOM     72  C   UNL A   1      46.841  35.394  28.851  1.00  0.00     0.060 A 
BRANCH  72  73
ATOM     73  S   UNL A   1      47.321  37.109  29.146  1.00  0.00     0.124 S 
ATOM     74  O   UNL A   1      46.366  37.826  28.306  1.00  0.00    -0.237 OA
ATOM     75  O   UNL A   1      47.125  37.245  30.585  1.00  0.00    -0.237 OA
ATOM     76  O   UNL A   1      48.709  37.156  28.697  1.00  0.00    -0.744 OA
ENDBRANCH  72  73
ENDBRANCH  51  65
BRANCH  52  77
ATOM     77  C   UNL A   1      43.436  23.203  26.888  1.00  0.00     0.058 A 
ATOM     78  C   UNL A   1      43.070  22.333  27.926  1.00  0.00     0.135 A 
ATOM     79  C   UNL A   1      43.438  22.692  25.580  1.00  0.00     0.135 A 
ATOM     80  F   UNL A   1      43.054  22.772  29.194  1.00  0.00    -0.206 F 
ATOM     81  C   UNL A   1      42.756  20.999  27.685  1.00  0.00     0.059 A 
ATOM     82  C   UNL A   1      43.103  21.369  25.311  1.00  0.00     0.059 A 
ATOM     83  F   UNL A   1      43.760  23.488  24.548  1.00  0.00    -0.206 F 
ATOM     84  C   UNL A   1      42.781  20.525  26.374  1.00  0.00     0.060 A 
BRANCH  84  85
ATOM     85  S   UNL A   1      42.359  18.795  26.067  1.00  0.00     0.124 S 
ATOM     86  O   UNL A   1      43.275  18.459  24.983  1.00  0.00    -0.237 OA
ATOM     87  O   UNL A   1      42.641  18.176  27.358  1.00  0.00    -0.237 OA
ATOM     88  O   UNL A   1      40.946  18.856  25.706  1.00  0.00    -0.744 OA
ENDBRANCH  84  85
ENDBRANCH  52  77
BRANCH  64  89
ATOM     89  C   UNL A   1      49.518  26.604  26.696  1.00  0.00     0.058 A 
ATOM     90  C   UNL A   1      50.340  26.097  27.714  1.00  0.00     0.135 A 
ATOM     91  C   UNL A   1      50.029  26.630  25.388  1.00  0.00     0.135 A 
ATOM     92  F   UNL A   1      49.899  26.057  28.981  1.00  0.00    -0.206 F 
ATOM     93  C   UNL A   1      51.629  25.650  27.448  1.00  0.00     0.059 A 
ATOM     94  C   UNL A   1      51.306  26.164  25.095  1.00  0.00     0.059 A 
ATOM     95  F   UNL A   1      49.278  27.095  24.377  1.00  0.00    -0.206 F 
ATOM     96  C   UNL A   1      52.103  25.685  26.135  1.00  0.00     0.060 A 
BRANCH  96  97
ATOM     97  S   UNL A   1      53.764  25.066  25.796  1.00  0.00     0.124 S 
ATOM     98  O   UNL A   1      54.210  25.978  24.747  1.00  0.00    -0.237 OA
ATOM     99  O   UNL A   1      54.425  25.217  27.090  1.00  0.00    -0.237 OA
ATOM    100  O   UNL A   1      53.534  23.687  25.374  1.00  0.00    -0.744 OA
ENDBRANCH  96  97
ENDBRANCH  64  89
ENDBRANCH  38  39
ENDBRANCH  30  33
ENDBRANCH  28  29
ENDBRANCH  27  28
ENDBRANCH  26  27
ENDBRANCH   1  26
TORSDOF 19
ENDMDL
MODEL 2
REMARK VINA RESULT:     -11.7      4.654     10.607
REMARK SMILES O=C(C[C@@H]1COc2ccccc2N1Cc1ccccc1)NCCCCCCNC(=O)c1ccc(-c2c3nc(c(-c4c(F)cc(S(=O)(=O)[O-])cc4F)c4ccc([nH]4)c(-c4c(F)cc(S(=O)(=O)[O-])cc4F)c4nc(c(-c5c(F)cc(S(=O)(=O)[O-])cc5F)c5ccc2[nH]5)C=C4)C=C3)cc1
REMARK SMILES IDX 24 1 23 2 22 3 21 4 1 5 2 6 3 8 4 9 5 10 13 11 6 12 12 13
REMARK SMILES IDX 7 14 11 15 8 16 10 17 9 18 14 19 15 20 16 21 20 22 17 23
REMARK SMILES IDX 19 24 18 25 25 26 26 27 27 28 28 29 29 30 30 32 31 33 32 34
REMARK SMILES IDX 96 35 33 36 95 37 34 38 35 39 36 40 89 41 37 42 94 43 88 44
REMARK SMILES IDX 90 45 38 46 93 47 87 48 86 49 39 51 73 52 52 53 72 54 53 55
REMARK SMILES IDX 56 56 71 57 91 58 54 59 55 60 70 62 92 63 57 64 40 65 41 66
REMARK SMILES IDX 50 67 42 68 43 69 49 70 51 71 44 72 45 73 46 74 47 75 48 76
REMARK SMILES IDX 74 77 75 78 84 79 76 80 77 81 83 82 85 83 78 84 79 85 80 86
REMARK SMILES IDX 81 87 82 88 58 89 59 90 68 91 60 92 61 93 67 94 69 95 62 96
REMARK SMILES IDX 63 97 64 98 65 99 66 100
REMARK H PARENT 21 7 28 31 90 50 56 61
REMARK Flexibility Score: inf
ROOT
ATOM      1  C   UNL A   1      34.117  21.820  24.053  1.00  0.00     0.002 C 
ENDROOT
BRANCH   1   2
ATOM      2  C   UNL A   1      34.135  22.984  23.052  1.00  0.00     0.021 C 
BRANCH   2   3
ATOM      3  C   UNL A   1      33.012  22.971  22.013  1.00  0.00     0.116 C 
BRANCH   3   4
ATOM      4  N   UNL A   1      32.143  24.115  22.149  1.00  0.00    -0.356 N 
ATOM      5  O   UNL A   1      33.214  25.545  20.686  1.00  0.00    -0.275 OA
ATOM      6  C   UNL A   1      32.294  25.289  21.455  1.00  0.00     0.222 C 
ATOM      7  H   UNL A   1      31.391  24.049  22.782  1.00  0.00     0.163 HD
BRANCH   6   8
ATOM      8  C   UNL A   1      31.241  26.307  21.803  1.00  0.00     0.128 C 
BRANCH   8   9
ATOM      9  C   UNL A   1      31.360  26.994  23.175  1.00  0.00     0.129 C 
ATOM     10  C   UNL A   1      30.235  26.449  24.080  1.00  0.00     0.255 C 
ATOM     11  N   UNL A   1      31.245  28.471  23.165  1.00  0.00    -0.357 N 
ATOM     12  O   UNL A   1      28.944  26.758  23.526  1.00  0.00    -0.489 OA
ATOM     13  C   UNL A   1      29.940  28.973  23.174  1.00  0.00     0.080 A 
ATOM     14  C   UNL A   1      28.828  28.103  23.241  1.00  0.00     0.142 A 
ATOM     15  C   UNL A   1      29.648  30.336  23.059  1.00  0.00     0.030 A 
ATOM     16  C   UNL A   1      27.522  28.556  23.027  1.00  0.00     0.048 A 
ATOM     17  C   UNL A   1      28.339  30.805  22.895  1.00  0.00     0.002 A 
ATOM     18  C   UNL A   1      27.279  29.912  22.836  1.00  0.00     0.004 A 
BRANCH  11  19
ATOM     19  C   UNL A   1      32.414  29.279  23.564  1.00  0.00     0.152 C 
BRANCH  19  20
ATOM     20  C   UNL A   1      32.814  29.138  25.019  1.00  0.00    -0.029 A 
ATOM     21  C   UNL A   1      31.892  29.392  26.045  1.00  0.00     0.005 A 
ATOM     22  C   UNL A   1      34.128  28.805  25.391  1.00  0.00     0.005 A 
ATOM     23  C   UNL A   1      32.260  29.277  27.391  1.00  0.00     0.000 A 
ATOM     24  C   UNL A   1      34.494  28.677  26.734  1.00  0.00     0.000 A 
ATOM     25  C   UNL A   1      33.558  28.911  27.736  1.00  0.00     0.000 A 
ENDBRANCH  19  20
ENDBRANCH  11  19
ENDBRANCH   8   9
ENDBRANCH   6   8
ENDBRANCH   3   4
ENDBRANCH   2   3
ENDBRANCH   1   2
BRANCH   1  26
ATOM     26  C   UNL A   1      35.313  21.752  25.003  1.00  0.00     0.002 C 
BRANCH  26  27
ATOM     27  C   UNL A   1      35.675  23.056  25.706  1.00  0.00     0.021 C 
BRANCH  27  28
ATOM     28  C   UNL A   1      36.999  23.667  25.267  1.00  0.00     0.116 C 
BRANCH  28  29
ATOM     29  N   UNL A   1      38.134  22.771  25.451  1.00  0.00    -0.352 N 
ATOM     30  C   UNL A   1      39.338  23.009  26.081  1.00  0.00     0.251 C 
ATOM     31  H   UNL A   1      38.027  21.868  25.074  1.00  0.00     0.163 HD
ATOM     32  O   UNL A   1      40.233  22.181  26.038  1.00  0.00    -0.269 OA
BRANCH  30  33
ATOM     33  C   UNL A   1      39.540  24.301  26.779  1.00  0.00     0.039 A 
ATOM     34  C   UNL A   1      39.035  24.463  28.071  1.00  0.00     0.014 A 
ATOM     35  C   UNL A   1      40.267  25.328  26.173  1.00  0.00     0.014 A 
ATOM     36  C   UNL A   1      39.334  25.624  28.788  1.00  0.00     0.010 A 
ATOM     37  C   UNL A   1      40.638  26.441  26.920  1.00  0.00     0.010 A 
ATOM     38  C   UNL A   1      40.177  26.602  28.235  1.00  0.00    -0.014 A 
BRANCH  38  39
ATOM     39  C   UNL A   1      40.587  27.807  29.002  1.00  0.00     0.031 A 
ATOM     40  C   UNL A   1      41.916  27.823  29.712  1.00  0.00     0.074 A 
ATOM     41  C   UNL A   1      39.738  28.847  29.130  1.00  0.00     0.049 A 
ATOM     42  N   UNL A   1      42.403  28.713  30.536  1.00  0.00    -0.248 NA
ATOM     43  C   UNL A   1      42.799  26.664  29.493  1.00  0.00     0.031 C 
ATOM     44  C   UNL A   1      38.399  28.929  28.539  1.00  0.00     0.029 A 
ATOM     45  N   UNL A   1      39.866  30.030  29.815  1.00  0.00    -0.354 N 
ATOM     46  C   UNL A   1      43.632  28.214  30.949  1.00  0.00     0.074 A 
ATOM     47  C   UNL A   1      43.793  26.917  30.330  1.00  0.00     0.031 C 
ATOM     48  C   UNL A   1      37.840  30.104  28.873  1.00  0.00     0.029 A 
ATOM     49  C   UNL A   1      38.759  30.843  29.730  1.00  0.00     0.049 A 
ATOM     50  H   UNL A   1      40.675  30.274  30.319  1.00  0.00     0.167 HD
ATOM     51  C   UNL A   1      44.560  28.797  31.744  1.00  0.00     0.037 A 
ATOM     52  C   UNL A   1      38.511  32.044  30.289  1.00  0.00     0.037 A 
ATOM     53  C   UNL A   1      44.416  30.107  32.322  1.00  0.00     0.049 A 
ATOM     54  C   UNL A   1      39.570  32.682  31.150  1.00  0.00     0.074 A 
ATOM     55  C   UNL A   1      45.316  30.807  33.105  1.00  0.00     0.029 A 
ATOM     56  N   UNL A   1      43.304  30.922  32.163  1.00  0.00    -0.354 N 
ATOM     57  N   UNL A   1      40.747  32.213  31.491  1.00  0.00    -0.248 NA
ATOM     58  C   UNL A   1      39.274  34.014  31.695  1.00  0.00     0.031 C 
ATOM     59  C   UNL A   1      44.739  32.036  33.442  1.00  0.00     0.029 A 
ATOM     60  C   UNL A   1      43.496  32.117  32.835  1.00  0.00     0.049 A 
ATOM     61  H   UNL A   1      42.498  30.686  31.650  1.00  0.00     0.167 HD
ATOM     62  C   UNL A   1      41.341  33.205  32.263  1.00  0.00     0.074 A 
ATOM     63  C   UNL A   1      40.401  34.304  32.330  1.00  0.00     0.031 C 
ATOM     64  C   UNL A   1      42.556  33.208  32.866  1.00  0.00     0.037 A 
BRANCH  51  65
ATOM     65  C   UNL A   1      45.829  28.036  32.013  1.00  0.00     0.058 A 
ATOM     66  C   UNL A   1      45.946  27.181  33.120  1.00  0.00     0.135 A 
ATOM     67  C   UNL A   1      46.918  28.120  31.131  1.00  0.00     0.135 A 
ATOM     68  F   UNL A   1      44.942  27.079  34.005  1.00  0.00    -0.206 F 
ATOM     69  C   UNL A   1      47.105  26.451  33.356  1.00  0.00     0.059 A 
ATOM     70  C   UNL A   1      48.078  27.377  31.332  1.00  0.00     0.059 A 
ATOM     71  F   UNL A   1      46.860  28.925  30.059  1.00  0.00    -0.206 F 
ATOM     72  C   UNL A   1      48.166  26.553  32.454  1.00  0.00     0.060 A 
BRANCH  72  73
ATOM     73  S   UNL A   1      49.652  25.575  32.761  1.00  0.00     0.124 S 
ATOM     74  O   UNL A   1      50.074  25.253  31.401  1.00  0.00    -0.237 OA
ATOM     75  O   UNL A   1      50.502  26.517  33.480  1.00  0.00    -0.237 OA
ATOM     76  O   UNL A   1      49.162  24.449  33.548  1.00  0.00    -0.744 OA
ENDBRANCH  72  73
ENDBRANCH  51  65
BRANCH  52  77
ATOM     77  C   UNL A   1      37.216  32.737  30.046  1.00  0.00     0.058 A 
ATOM     78  C   UNL A   1      37.088  33.690  29.025  1.00  0.00     0.135 A 
ATOM     79  C   UNL A   1      36.089  32.476  30.841  1.00  0.00     0.135 A 
ATOM     80  F   UNL A   1      38.137  33.975  28.239  1.00  0.00    -0.206 F 
ATOM     81  C   UNL A   1      35.901  34.386  28.821  1.00  0.00     0.059 A 
ATOM     82  C   UNL A   1      34.884  33.141  30.640  1.00  0.00     0.059 A 
ATOM     83  F   UNL A   1      36.152  31.559  31.818  1.00  0.00    -0.206 F 
ATOM     84  C   UNL A   1      34.805  34.108  29.638  1.00  0.00     0.060 A 
BRANCH  84  85
ATOM     85  S   UNL A   1      33.263  35.007  29.359  1.00  0.00     0.124 S 
ATOM     86  O   UNL A   1      32.665  34.981  30.688  1.00  0.00    -0.237 OA
ATOM     87  O   UNL A   1      33.743  36.306  28.898  1.00  0.00    -0.237 OA
ATOM     88  O   UNL A   1      32.587  34.203  28.345  1.00  0.00    -0.744 OA
ENDBRANCH  84  85
ENDBRANCH  52  77
BRANCH  64  89
ATOM     89  C   UNL A   1      42.960  34.451  33.607  1.00  0.00     0.058 A 
ATOM     90  C   UNL A   1      42.647  34.637  34.962  1.00  0.00     0.135 A 
ATOM     91  C   UNL A   1      43.719  35.442  32.964  1.00  0.00     0.135 A 
ATOM     92  F   UNL A   1      41.919  33.721  35.619  1.00  0.00    -0.206 F 
ATOM     93  C   UNL A   1      43.057  35.773  35.650  1.00  0.00     0.059 A 
ATOM     94  C   UNL A   1      44.160  36.574  33.640  1.00  0.00     0.059 A 
ATOM     95  F   UNL A   1      44.053  35.305  31.671  1.00  0.00    -0.206 F 
ATOM     96  C   UNL A   1      43.815  36.736  34.981  1.00  0.00     0.060 A 
BRANCH  96  97
ATOM     97  S   UNL A   1      44.372  38.189  35.895  1.00  0.00     0.124 S 
ATOM     98  O   UNL A   1      43.868  39.274  35.059  1.00  0.00    -0.237 OA
ATOM     99  O   UNL A   1      43.710  38.022  37.185  1.00  0.00    -0.237 OA
ATOM    100  O   UNL A   1      45.825  38.038  35.920  1.00  0.00    -0.744 OA
ENDBRANCH  96  97
ENDBRANCH  64  89
ENDBRANCH  38  39
ENDBRANCH  30  33
ENDBRANCH  28  29
ENDBRANCH  27  28
ENDBRANCH  26  27
ENDBRANCH   1  26
TORSDOF 19
ENDMDL
MODEL 3
REMARK VINA RESULT:     -11.6      4.635     10.678
REMARK SMILES O=C(C[C@@H]1COc2ccccc2N1Cc1ccccc1)NCCCCCCNC(=O)c1ccc(-c2c3nc(c(-c4c(F)cc(S(=O)(=O)[O-])cc4F)c4ccc([nH]4)c(-c4c(F)cc(S(=O)(=O)[O-])cc4F)c4nc(c(-c5c(F)cc(S(=O)(=O)[O-])cc5F)c5ccc2[nH]5)C=C4)C=C3)cc1
REMARK SMILES IDX 24 1 23 2 22 3 21 4 1 5 2 6 3 8 4 9 5 10 13 11 6 12 12 13
REMARK SMILES IDX 7 14 11 15 8 16 10 17 9 18 14 19 15 20 16 21 20 22 17 23
REMARK SMILES IDX 19 24 18 25 25 26 26 27 27 28 28 29 29 30 30 32 31 33 32 34
REMARK SMILES IDX 96 35 33 36 95 37 34 38 35 39 36 40 89 41 37 42 94 43 88 44
REMARK SMILES IDX 90 45 38 46 93 47 87 48 86 49 39 51 73 52 52 53 72 54 53 55
REMARK SMILES IDX 56 56 71 57 91 58 54 59 55 60 70 62 92 63 57 64 40 65 41 66
REMARK SMILES IDX 50 67 42 68 43 69 49 70 51 71 44 72 45 73 46 74 47 75 48 76
REMARK SMILES IDX 74 77 75 78 84 79 76 80 77 81 83 82 85 83 78 84 79 85 80 86
REMARK SMILES IDX 81 87 82 88 58 89 59 90 68 91 60 92 61 93 67 94 69 95 62 96
REMARK SMILES IDX 63 97 64 98 65 99 66 100
REMARK H PARENT 21 7 28 31 90 50 56 61
REMARK Flexibility Score: inf
ROOT
ATOM      1  C   UNL A   1      34.419  20.963  25.089  1.00  0.00     0.002 C 
ENDROOT
BRANCH   1   2
ATOM      2  C   UNL A   1      33.189  21.333  24.249  1.00  0.00     0.021 C 
BRANCH   2   3
ATOM      3  C   UNL A   1      31.952  21.747  25.048  1.00  0.00     0.116 C 
BRANCH   3   4
ATOM      4  N   UNL A   1      31.860  23.180  25.190  1.00  0.00    -0.356 N 
ATOM      5  O   UNL A   1      30.672  23.647  23.266  1.00  0.00    -0.275 OA
ATOM      6  C   UNL A   1      31.204  24.005  24.311  1.00  0.00     0.222 C 
ATOM      7  H   UNL A   1      32.296  23.594  25.970  1.00  0.00     0.163 HD
BRANCH   6   8
ATOM      8  C   UNL A   1      31.276  25.453  24.712  1.00  0.00     0.128 C 
BRANCH   8   9
ATOM      9  C   UNL A   1      32.236  26.353  23.913  1.00  0.00     0.129 C 
ATOM     10  C   UNL A   1      33.656  26.163  24.485  1.00  0.00     0.255 C 
ATOM     11  N   UNL A   1      31.934  27.803  23.947  1.00  0.00    -0.357 N 
ATOM     12  O   UNL A   1      33.703  26.559  25.866  1.00  0.00    -0.489 OA
ATOM     13  C   UNL A   1      32.424  28.492  25.060  1.00  0.00     0.080 A 
ATOM     14  C   UNL A   1      33.198  27.832  26.042  1.00  0.00     0.142 A 
ATOM     15  C   UNL A   1      32.141  29.840  25.306  1.00  0.00     0.030 A 
ATOM     16  C   UNL A   1      33.510  28.434  27.265  1.00  0.00     0.048 A 
ATOM     17  C   UNL A   1      32.493  30.467  26.508  1.00  0.00     0.002 A 
ATOM     18  C   UNL A   1      33.139  29.752  27.505  1.00  0.00     0.004 A 
BRANCH  11  19
ATOM     19  C   UNL A   1      31.548  28.481  22.694  1.00  0.00     0.152 C 
BRANCH  19  20
ATOM     20  C   UNL A   1      30.085  28.868  22.608  1.00  0.00    -0.029 A 
ATOM     21  C   UNL A   1      29.699  30.089  22.035  1.00  0.00     0.005 A 
ATOM     22  C   UNL A   1      29.076  28.052  23.146  1.00  0.00     0.005 A 
ATOM     23  C   UNL A   1      28.351  30.458  21.965  1.00  0.00     0.000 A 
ATOM     24  C   UNL A   1      27.728  28.413  23.066  1.00  0.00     0.000 A 
ATOM     25  C   UNL A   1      27.365  29.617  22.472  1.00  0.00     0.000 A 
ENDBRANCH  19  20
ENDBRANCH  11  19
ENDBRANCH   8   9
ENDBRANCH   6   8
ENDBRANCH   3   4
ENDBRANCH   2   3
ENDBRANCH   1   2
BRANCH   1  26
ATOM     26  C   UNL A   1      35.750  21.526  24.587  1.00  0.00     0.002 C 
BRANCH  26  27
ATOM     27  C   UNL A   1      35.821  23.043  24.455  1.00  0.00     0.021 C 
BRANCH  27  28
ATOM     28  C   UNL A   1      37.000  23.688  25.171  1.00  0.00     0.116 C 
BRANCH  28  29
ATOM     29  N   UNL A   1      38.113  22.771  25.386  1.00  0.00    -0.352 N 
ATOM     30  C   UNL A   1      39.301  22.985  26.054  1.00  0.00     0.251 C 
ATOM     31  H   UNL A   1      38.001  21.872  25.001  1.00  0.00     0.163 HD
ATOM     32  O   UNL A   1      40.181  22.141  26.034  1.00  0.00    -0.269 OA
BRANCH  30  33
ATOM     33  C   UNL A   1      39.503  24.270  26.763  1.00  0.00     0.039 A 
ATOM     34  C   UNL A   1      38.981  24.427  28.049  1.00  0.00     0.014 A 
ATOM     35  C   UNL A   1      40.249  25.295  26.176  1.00  0.00     0.014 A 
ATOM     36  C   UNL A   1      39.280  25.581  28.779  1.00  0.00     0.010 A 
ATOM     37  C   UNL A   1      40.619  26.399  26.936  1.00  0.00     0.010 A 
ATOM     38  C   UNL A   1      40.140  26.555  28.245  1.00  0.00    -0.014 A 
BRANCH  38  39
ATOM     39  C   UNL A   1      40.550  27.751  29.026  1.00  0.00     0.031 A 
ATOM     40  C   UNL A   1      41.857  27.741  29.775  1.00  0.00     0.074 A 
ATOM     41  C   UNL A   1      39.716  28.806  29.133  1.00  0.00     0.049 A 
ATOM     42  N   UNL A   1      42.336  28.620  30.616  1.00  0.00    -0.248 NA
ATOM     43  C   UNL A   1      42.725  26.566  29.580  1.00  0.00     0.031 C 
ATOM     44  C   UNL A   1      38.397  28.914  28.503  1.00  0.00     0.029 A 
ATOM     45  N   UNL A   1      39.846  29.985  29.824  1.00  0.00    -0.354 N 
ATOM     46  C   UNL A   1      43.543  28.097  31.063  1.00  0.00     0.074 A 
ATOM     47  C   UNL A   1      43.699  26.798  30.447  1.00  0.00     0.031 C 
ATOM     48  C   UNL A   1      37.850  30.098  28.823  1.00  0.00     0.029 A 
ATOM     49  C   UNL A   1      38.757  30.819  29.709  1.00  0.00     0.049 A 
ATOM     50  H   UNL A   1      40.644  30.213  30.352  1.00  0.00     0.167 HD
ATOM     51  C   UNL A   1      44.458  28.662  31.887  1.00  0.00     0.037 A 
ATOM     52  C   UNL A   1      38.515  32.023  30.263  1.00  0.00     0.037 A 
ATOM     53  C   UNL A   1      44.321  29.973  32.463  1.00  0.00     0.049 A 
ATOM     54  C   UNL A   1      39.560  32.639  31.156  1.00  0.00     0.074 A 
ATOM     55  C   UNL A   1      45.211  30.654  33.274  1.00  0.00     0.029 A 
ATOM     56  N   UNL A   1      43.229  30.809  32.274  1.00  0.00    -0.354 N 
ATOM     57  N   UNL A   1      40.718  32.148  31.531  1.00  0.00    -0.248 NA
ATOM     58  C   UNL A   1      39.272  33.975  31.695  1.00  0.00     0.031 C 
ATOM     59  C   UNL A   1      44.646  31.894  33.597  1.00  0.00     0.029 A 
ATOM     60  C   UNL A   1      43.423  31.999  32.954  1.00  0.00     0.049 A 
ATOM     61  H   UNL A   1      42.435  30.588  31.737  1.00  0.00     0.167 HD
ATOM     62  C   UNL A   1      41.307  33.128  32.322  1.00  0.00     0.074 A 
ATOM     63  C   UNL A   1      40.385  34.243  32.364  1.00  0.00     0.031 C 
ATOM     64  C   UNL A   1      42.503  33.106  32.960  1.00  0.00     0.037 A 
BRANCH  51  65
ATOM     65  C   UNL A   1      45.704  27.877  32.191  1.00  0.00     0.058 A 
ATOM     66  C   UNL A   1      45.738  26.935  33.232  1.00  0.00     0.135 A 
ATOM     67  C   UNL A   1      46.858  28.027  31.405  1.00  0.00     0.135 A 
ATOM     68  F   UNL A   1      44.669  26.766  34.025  1.00  0.00    -0.206 F 
ATOM     69  C   UNL A   1      46.877  26.185  33.497  1.00  0.00     0.059 A 
ATOM     70  C   UNL A   1      48.001  27.266  31.635  1.00  0.00     0.059 A 
ATOM     71  F   UNL A   1      46.881  28.915  30.399  1.00  0.00    -0.206 F 
ATOM     72  C   UNL A   1      48.003  26.354  32.691  1.00  0.00     0.060 A 
BRANCH  72  73
ATOM     73  S   UNL A   1      49.464  25.349  33.031  1.00  0.00     0.124 S 
ATOM     74  O   UNL A   1      48.910  24.318  33.903  1.00  0.00    -0.237 OA
ATOM     75  O   UNL A   1      49.857  24.907  31.698  1.00  0.00    -0.237 OA
ATOM     76  O   UNL A   1      50.380  26.286  33.673  1.00  0.00    -0.744 OA
ENDBRANCH  72  73
ENDBRANCH  51  65
BRANCH  52  77
ATOM     77  C   UNL A   1      37.241  32.739  29.984  1.00  0.00     0.058 A 
ATOM     78  C   UNL A   1      36.054  32.383  30.641  1.00  0.00     0.135 A 
ATOM     79  C   UNL A   1      37.179  33.779  29.043  1.00  0.00     0.135 A 
ATOM     80  F   UNL A   1      36.061  31.394  31.548  1.00  0.00    -0.206 F 
ATOM     81  C   UNL A   1      34.843  33.005  30.351  1.00  0.00     0.059 A 
ATOM     82  C   UNL A   1      35.986  34.434  28.755  1.00  0.00     0.059 A 
ATOM     83  F   UNL A   1      38.290  34.173  28.401  1.00  0.00    -0.206 F 
ATOM     84  C   UNL A   1      34.819  34.027  29.401  1.00  0.00     0.060 A 
BRANCH  84  85
ATOM     85  S   UNL A   1      33.247  34.839  29.040  1.00  0.00     0.124 S 
ATOM     86  O   UNL A   1      32.610  34.839  30.352  1.00  0.00    -0.237 OA
ATOM     87  O   UNL A   1      33.680  36.140  28.539  1.00  0.00    -0.237 OA
ATOM     88  O   UNL A   1      32.640  33.963  28.042  1.00  0.00    -0.744 OA
ENDBRANCH  84  85
ENDBRANCH  52  77
BRANCH  64  89
ATOM     89  C   UNL A   1      42.908  34.340  33.715  1.00  0.00     0.058 A 
ATOM     90  C   UNL A   1      42.567  34.526  35.064  1.00  0.00     0.135 A 
ATOM     91  C   UNL A   1      43.696  35.323  33.095  1.00  0.00     0.135 A 
ATOM     92  F   UNL A   1      41.810  33.618  35.700  1.00  0.00    -0.206 F 
ATOM     93  C   UNL A   1      42.977  35.653  35.766  1.00  0.00     0.059 A 
ATOM     94  C   UNL A   1      44.139  36.446  33.786  1.00  0.00     0.059 A 
ATOM     95  F   UNL A   1      44.058  35.186  31.809  1.00  0.00    -0.206 F 
ATOM     96  C   UNL A   1      43.764  36.607  35.119  1.00  0.00     0.060 A 
BRANCH  96  97
ATOM     97  S   UNL A   1      44.322  38.048  36.052  1.00  0.00     0.124 S 
ATOM     98  O   UNL A   1      43.903  39.142  35.182  1.00  0.00    -0.237 OA
ATOM     99  O   UNL A   1      43.584  37.915  37.305  1.00  0.00    -0.237 OA
ATOM    100  O   UNL A   1      45.765  37.847  36.158  1.00  0.00    -0.744 OA
ENDBRANCH  96  97
ENDBRANCH  64  89
ENDBRANCH  38  39
ENDBRANCH  30  33
ENDBRANCH  28  29
ENDBRANCH  27  28
ENDBRANCH  26  27
ENDBRANCH   1  26
TORSDOF 19
ENDMDL
