MODEL 1
REMARK VINA RESULT:     -11.0      0.000      0.000
REMARK SMILES C[C@@H](C(=O)NCCCCCCNC(=O)c1ccc(-c2c3nc(c(-c4c(F)cc(S(=O)(=O)[O-])cc4F)c4ccc([nH]4)c(-c4c(F)cc(S(=O)(=O)[O-])cc4F)c4nc(c(-c5c(F)cc(S(=O)(=O)[O-])cc5F)c5ccc2[nH]5)C=C4)C=C3)cc1)c1cc(C(=O)c2ccccc2)ccc1O
REMARK SMILES IDX 8 1 7 2 6 3 5 4 3 5 4 6 2 8 1 9 81 10 82 11 94 12 83 13
REMARK SMILES IDX 93 14 92 15 95 16 84 18 85 19 86 20 87 21 91 22 88 23 90 24
REMARK SMILES IDX 89 25 9 26 10 27 11 28 12 29 13 30 14 32 15 33 16 34 80 35
REMARK SMILES IDX 17 36 79 37 18 38 19 39 20 40 73 41 21 42 78 43 72 44 74 45
REMARK SMILES IDX 22 46 77 47 71 48 70 49 23 51 57 52 36 53 56 54 37 55 40 56
REMARK SMILES IDX 55 57 75 58 38 59 39 60 54 62 76 63 41 64 24 65 25 66 34 67
REMARK SMILES IDX 26 68 27 69 33 70 35 71 28 72 29 73 30 74 31 75 32 76 58 77
REMARK SMILES IDX 59 78 68 79 60 80 61 81 67 82 69 83 62 84 63 85 64 86 65 87
REMARK SMILES IDX 66 88 42 89 43 90 52 91 44 92 45 93 51 94 53 95 46 96 47 97
REMARK SMILES IDX 48 98 49 99 50 100
REMARK H PARENT 5 7 95 17 12 31 74 50 40 61
REMARK Flexibility Score: inf
ROOT
ATOM      1  C   UNL A   1      34.035  25.467  24.041  1.00  0.00     0.002 C 
ENDROOT
BRANCH   1   2
ATOM      2  C   UNL A   1      33.641  26.467  22.942  1.00  0.00     0.021 C 
BRANCH   2   3
ATOM      3  C   UNL A   1      33.945  27.924  23.306  1.00  0.00     0.116 C 
BRANCH   3   4
ATOM      4  N   UNL A   1      34.182  28.025  24.731  1.00  0.00    -0.356 N 
ATOM      5  C   UNL A   1      33.667  28.931  25.607  1.00  0.00     0.227 C 
ATOM      6  O   UNL A   1      34.308  29.151  26.640  1.00  0.00    -0.274 OA
ATOM      7  H   UNL A   1      34.792  27.354  25.114  1.00  0.00     0.163 HD
BRANCH   5   8
ATOM      8  C   UNL A   1      32.336  29.633  25.299  1.00  0.00     0.109 C 
ATOM      9  C   UNL A   1      31.799  30.425  26.497  1.00  0.00     0.023 C 
BRANCH   8  10
ATOM     10  C   UNL A   1      31.289  28.634  24.807  1.00  0.00     0.007 A 
ATOM     11  C   UNL A   1      31.182  27.377  25.426  1.00  0.00     0.020 A 
ATOM     12  C   UNL A   1      30.411  28.919  23.751  1.00  0.00     0.119 A 
ATOM     13  C   UNL A   1      30.253  26.427  24.970  1.00  0.00     0.023 A 
ATOM     14  C   UNL A   1      29.513  27.977  23.267  1.00  0.00     0.047 A 
ATOM     15  C   UNL A   1      29.422  26.734  23.885  1.00  0.00     0.016 A 
BRANCH  12  16
ATOM     16  O   UNL A   1      30.342  30.163  23.191  1.00  0.00    -0.508 OA
ATOM     17  H   UNL A   1      29.658  30.753  23.443  1.00  0.00     0.293 HD
ENDBRANCH  12  16
BRANCH  13  18
ATOM     18  C   UNL A   1      30.138  25.131  25.696  1.00  0.00     0.193 C 
ATOM     19  O   UNL A   1      29.443  25.046  26.705  1.00  0.00    -0.289 OA
BRANCH  18  20
ATOM     20  C   UNL A   1      30.818  23.917  25.190  1.00  0.00     0.022 A 
ATOM     21  C   UNL A   1      30.860  23.698  23.809  1.00  0.00     0.012 A 
ATOM     22  C   UNL A   1      31.419  23.008  26.067  1.00  0.00     0.012 A 
ATOM     23  C   UNL A   1      31.547  22.594  23.305  1.00  0.00     0.001 A 
ATOM     24  C   UNL A   1      32.106  21.907  25.559  1.00  0.00     0.001 A 
ATOM     25  C   UNL A   1      32.178  21.706  24.179  1.00  0.00     0.000 A 
ENDBRANCH  18  20
ENDBRANCH  13  18
ENDBRANCH   8  10
ENDBRANCH   5   8
ENDBRANCH   3   4
ENDBRANCH   2   3
ENDBRANCH   1   2
BRANCH   1  26
ATOM     26  C   UNL A   1      34.769  24.220  23.538  1.00  0.00     0.002 C 
BRANCH  26  27
ATOM     27  C   UNL A   1      35.444  23.393  24.634  1.00  0.00     0.021 C 
BRANCH  27  28
ATOM     28  C   UNL A   1      36.756  23.983  25.143  1.00  0.00     0.116 C 
BRANCH  28  29
ATOM     29  N   UNL A   1      37.752  22.950  25.384  1.00  0.00    -0.352 N 
ATOM     30  C   UNL A   1      38.971  23.055  26.002  1.00  0.00     0.251 C 
ATOM     31  H   UNL A   1      37.518  22.052  25.057  1.00  0.00     0.163 HD
ATOM     32  O   UNL A   1      39.783  22.134  25.917  1.00  0.00    -0.269 OA
BRANCH  30  33
ATOM     33  C   UNL A   1      39.311  24.279  26.756  1.00  0.00     0.039 A 
ATOM     34  C   UNL A   1      38.838  24.426  28.062  1.00  0.00     0.014 A 
ATOM     35  C   UNL A   1      40.091  25.282  26.174  1.00  0.00     0.014 A 
ATOM     36  C   UNL A   1      39.192  25.557  28.801  1.00  0.00     0.010 A 
ATOM     37  C   UNL A   1      40.506  26.370  26.937  1.00  0.00     0.010 A 
ATOM     38  C   UNL A   1      40.054  26.523  28.256  1.00  0.00    -0.014 A 
BRANCH  38  39
ATOM     39  C   UNL A   1      40.491  27.698  29.053  1.00  0.00     0.031 A 
ATOM     40  C   UNL A   1      41.818  27.680  29.764  1.00  0.00     0.074 A 
ATOM     41  C   UNL A   1      39.669  28.759  29.182  1.00  0.00     0.049 A 
ATOM     42  N   UNL A   1      42.347  28.584  30.548  1.00  0.00    -0.248 NA
ATOM     43  C   UNL A   1      42.649  26.476  29.594  1.00  0.00     0.031 C 
ATOM     44  C   UNL A   1      38.337  28.873  28.582  1.00  0.00     0.029 A 
ATOM     45  N   UNL A   1      39.826  29.939  29.865  1.00  0.00    -0.354 N 
ATOM     46  C   UNL A   1      43.561  28.056  30.972  1.00  0.00     0.074 A 
ATOM     47  C   UNL A   1      43.666  26.729  30.404  1.00  0.00     0.031 C 
ATOM     48  C   UNL A   1      37.810  30.065  28.905  1.00  0.00     0.029 A 
ATOM     49  C   UNL A   1      38.744  30.782  29.766  1.00  0.00     0.049 A 
ATOM     50  H   UNL A   1      40.637  30.159  30.378  1.00  0.00     0.167 HD
ATOM     51  C   UNL A   1      44.512  28.633  31.745  1.00  0.00     0.037 A 
ATOM     52  C   UNL A   1      38.525  31.994  30.315  1.00  0.00     0.037 A 
ATOM     53  C   UNL A   1      44.410  29.963  32.287  1.00  0.00     0.049 A 
ATOM     54  C   UNL A   1      39.596  32.614  31.172  1.00  0.00     0.074 A 
ATOM     55  C   UNL A   1      45.344  30.662  33.032  1.00  0.00     0.029 A 
ATOM     56  N   UNL A   1      43.307  30.795  32.149  1.00  0.00    -0.354 N 
ATOM     57  N   UNL A   1      40.768  32.127  31.507  1.00  0.00    -0.248 NA
ATOM     58  C   UNL A   1      39.321  33.950  31.716  1.00  0.00     0.031 C 
ATOM     59  C   UNL A   1      44.786  31.894  33.389  1.00  0.00     0.029 A 
ATOM     60  C   UNL A   1      43.528  31.990  32.815  1.00  0.00     0.049 A 
ATOM     61  H   UNL A   1      42.489  30.570  31.650  1.00  0.00     0.167 HD
ATOM     62  C   UNL A   1      41.380  33.109  32.277  1.00  0.00     0.074 A 
ATOM     63  C   UNL A   1      40.456  34.222  32.346  1.00  0.00     0.031 C 
ATOM     64  C   UNL A   1      42.600  33.092  32.872  1.00  0.00     0.037 A 
BRANCH  51  65
ATOM     65  C   UNL A   1      45.750  27.833  32.049  1.00  0.00     0.058 A 
ATOM     66  C   UNL A   1      46.859  27.827  31.186  1.00  0.00     0.135 A 
ATOM     67  C   UNL A   1      45.849  27.097  33.242  1.00  0.00     0.135 A 
ATOM     68  F   UNL A   1      46.816  28.500  30.025  1.00  0.00    -0.206 F 
ATOM     69  C   UNL A   1      48.008  27.101  31.481  1.00  0.00     0.059 A 
ATOM     70  C   UNL A   1      47.001  26.388  33.572  1.00  0.00     0.059 A 
ATOM     71  F   UNL A   1      44.821  27.066  34.103  1.00  0.00    -0.206 F 
ATOM     72  C   UNL A   1      48.070  26.386  32.678  1.00  0.00     0.060 A 
BRANCH  72  73
ATOM     73  S   UNL A   1      49.574  25.460  33.051  1.00  0.00     0.124 S 
ATOM     74  O   UNL A   1      50.458  26.521  33.526  1.00  0.00    -0.237 OA
ATOM     75  O   UNL A   1      49.115  24.518  34.066  1.00  0.00    -0.237 OA
ATOM     76  O   UNL A   1      49.938  24.869  31.768  1.00  0.00    -0.744 OA
ENDBRANCH  72  73
ENDBRANCH  51  65
BRANCH  52  77
ATOM     77  C   UNL A   1      37.245  32.705  30.056  1.00  0.00     0.058 A 
ATOM     78  C   UNL A   1      36.098  32.434  30.816  1.00  0.00     0.135 A 
ATOM     79  C   UNL A   1      37.145  33.681  29.051  1.00  0.00     0.135 A 
ATOM     80  F   UNL A   1      36.139  31.505  31.783  1.00  0.00    -0.206 F 
ATOM     81  C   UNL A   1      34.894  33.090  30.581  1.00  0.00     0.059 A 
ATOM     82  C   UNL A   1      35.960  34.372  28.816  1.00  0.00     0.059 A 
ATOM     83  F   UNL A   1      38.218  33.992  28.307  1.00  0.00    -0.206 F 
ATOM     84  C   UNL A   1      34.836  34.061  29.580  1.00  0.00     0.060 A 
BRANCH  84  85
ATOM     85  S   UNL A   1      33.282  34.942  29.315  1.00  0.00     0.124 S 
ATOM     86  O   UNL A   1      32.613  34.074  28.353  1.00  0.00    -0.237 OA
ATOM     87  O   UNL A   1      32.713  34.967  30.659  1.00  0.00    -0.237 OA
ATOM     88  O   UNL A   1      33.715  36.239  28.803  1.00  0.00    -0.744 OA
ENDBRANCH  84  85
ENDBRANCH  52  77
BRANCH  64  89
ATOM     89  C   UNL A   1      43.024  34.326  33.621  1.00  0.00     0.058 A 
ATOM     90  C   UNL A   1      42.874  34.439  35.011  1.00  0.00     0.135 A 
ATOM     91  C   UNL A   1      43.638  35.391  32.940  1.00  0.00     0.135 A 
ATOM     92  F   UNL A   1      42.288  33.454  35.710  1.00  0.00    -0.206 F 
ATOM     93  C   UNL A   1      43.291  35.576  35.697  1.00  0.00     0.059 A 
ATOM     94  C   UNL A   1      44.092  36.523  33.610  1.00  0.00     0.059 A 
ATOM     95  F   UNL A   1      43.818  35.330  31.611  1.00  0.00    -0.206 F 
ATOM     96  C   UNL A   1      43.902  36.611  34.988  1.00  0.00     0.060 A 
BRANCH  96  97
ATOM     97  S   UNL A   1      44.465  38.066  35.895  1.00  0.00     0.124 S 
ATOM     98  O   UNL A   1      44.050  39.146  35.005  1.00  0.00    -0.237 OA
ATOM     99  O   UNL A   1      43.723  37.959  37.148  1.00  0.00    -0.237 OA
ATOM    100  O   UNL A   1      45.905  37.862  36.007  1.00  0.00    -0.744 OA
ENDBRANCH  96  97
ENDBRANCH  64  89
ENDBRANCH  38  39
ENDBRANCH  30  33
ENDBRANCH  28  29
ENDBRANCH  27  28
ENDBRANCH  26  27
ENDBRANCH   1  26
TORSDOF 20
ENDMDL
MODEL 2
REMARK VINA RESULT:     -10.8      2.692      3.746
REMARK SMILES C[C@@H](C(=O)NCCCCCCNC(=O)c1ccc(-c2c3nc(c(-c4c(F)cc(S(=O)(=O)[O-])cc4F)c4ccc([nH]4)c(-c4c(F)cc(S(=O)(=O)[O-])cc4F)c4nc(c(-c5c(F)cc(S(=O)(=O)[O-])cc5F)c5ccc2[nH]5)C=C4)C=C3)cc1)c1cc(C(=O)c2ccccc2)ccc1O
REMARK SMILES IDX 8 1 7 2 6 3 5 4 3 5 4 6 2 8 1 9 81 10 82 11 94 12 83 13
REMARK SMILES IDX 93 14 92 15 95 16 84 18 85 19 86 20 87 21 91 22 88 23 90 24
REMARK SMILES IDX 89 25 9 26 10 27 11 28 12 29 13 30 14 32 15 33 16 34 80 35
REMARK SMILES IDX 17 36 79 37 18 38 19 39 20 40 73 41 21 42 78 43 72 44 74 45
REMARK SMILES IDX 22 46 77 47 71 48 70 49 23 51 57 52 36 53 56 54 37 55 40 56
REMARK SMILES IDX 55 57 75 58 38 59 39 60 54 62 76 63 41 64 24 65 25 66 34 67
REMARK SMILES IDX 26 68 27 69 33 70 35 71 28 72 29 73 30 74 31 75 32 76 58 77
REMARK SMILES IDX 59 78 68 79 60 80 61 81 67 82 69 83 62 84 63 85 64 86 65 87
REMARK SMILES IDX 66 88 42 89 43 90 52 91 44 92 45 93 51 94 53 95 46 96 47 97
REMARK SMILES IDX 48 98 49 99 50 100
REMARK H PARENT 5 7 95 17 12 31 74 50 40 61
REMARK Flexibility Score: inf
ROOT
ATOM      1  C   UNL A   1      33.824  25.803  25.925  1.00  0.00     0.002 C 
ENDROOT
BRANCH   1   2
ATOM      2  C   UNL A   1      33.621  27.311  26.141  1.00  0.00     0.021 C 
BRANCH   2   3
ATOM      3  C   UNL A   1      32.150  27.737  26.121  1.00  0.00     0.116 C 
BRANCH   3   4
ATOM      4  N   UNL A   1      31.313  26.591  26.409  1.00  0.00    -0.356 N 
ATOM      5  C   UNL A   1      30.178  26.195  25.768  1.00  0.00     0.227 C 
ATOM      6  O   UNL A   1      29.376  25.506  26.406  1.00  0.00    -0.274 OA
ATOM      7  H   UNL A   1      31.600  26.028  27.163  1.00  0.00     0.163 HD
BRANCH   5   8
ATOM      8  C   UNL A   1      29.936  26.602  24.307  1.00  0.00     0.109 C 
ATOM      9  C   UNL A   1      28.468  26.447  23.891  1.00  0.00     0.023 C 
BRANCH   8  10
ATOM     10  C   UNL A   1      30.844  25.818  23.360  1.00  0.00     0.007 A 
ATOM     11  C   UNL A   1      31.121  24.465  23.623  1.00  0.00     0.020 A 
ATOM     12  C   UNL A   1      31.422  26.394  22.219  1.00  0.00     0.119 A 
ATOM     13  C   UNL A   1      31.981  23.733  22.789  1.00  0.00     0.023 A 
ATOM     14  C   UNL A   1      32.302  25.692  21.406  1.00  0.00     0.047 A 
ATOM     15  C   UNL A   1      32.573  24.356  21.681  1.00  0.00     0.016 A 
BRANCH  12  16
ATOM     16  O   UNL A   1      31.091  27.654  21.804  1.00  0.00    -0.508 OA
ATOM     17  H   UNL A   1      30.421  28.132  22.252  1.00  0.00     0.293 HD
ENDBRANCH  12  16
BRANCH  13  18
ATOM     18  C   UNL A   1      32.198  22.287  23.076  1.00  0.00     0.193 C 
ATOM     19  O   UNL A   1      31.871  21.436  22.253  1.00  0.00    -0.289 OA
BRANCH  18  20
ATOM     20  C   UNL A   1      32.852  21.854  24.331  1.00  0.00     0.022 A 
ATOM     21  C   UNL A   1      32.384  22.370  25.544  1.00  0.00     0.012 A 
ATOM     22  C   UNL A   1      33.909  20.938  24.316  1.00  0.00     0.012 A 
ATOM     23  C   UNL A   1      32.943  21.931  26.744  1.00  0.00     0.001 A 
ATOM     24  C   UNL A   1      34.463  20.500  25.518  1.00  0.00     0.001 A 
ATOM     25  C   UNL A   1      33.974  20.990  26.730  1.00  0.00     0.000 A 
ENDBRANCH  18  20
ENDBRANCH  13  18
ENDBRANCH   8  10
ENDBRANCH   5   8
ENDBRANCH   3   4
ENDBRANCH   2   3
ENDBRANCH   1   2
BRANCH   1  26
ATOM     26  C   UNL A   1      34.468  25.429  24.586  1.00  0.00     0.002 C 
BRANCH  26  27
ATOM     27  C   UNL A   1      35.436  24.246  24.654  1.00  0.00     0.021 C 
BRANCH  27  28
ATOM     28  C   UNL A   1      36.165  24.111  25.987  1.00  0.00     0.116 C 
BRANCH  28  29
ATOM     29  N   UNL A   1      37.012  22.928  26.020  1.00  0.00    -0.352 N 
ATOM     30  C   UNL A   1      38.364  22.840  26.225  1.00  0.00     0.251 C 
ATOM     31  H   UNL A   1      36.549  22.072  25.875  1.00  0.00     0.163 HD
ATOM     32  O   UNL A   1      38.952  21.784  25.993  1.00  0.00    -0.269 OA
BRANCH  30  33
ATOM     33  C   UNL A   1      39.114  24.018  26.708  1.00  0.00     0.039 A 
ATOM     34  C   UNL A   1      39.771  24.832  25.783  1.00  0.00     0.014 A 
ATOM     35  C   UNL A   1      39.175  24.315  28.073  1.00  0.00     0.014 A 
ATOM     36  C   UNL A   1      40.443  25.974  26.223  1.00  0.00     0.010 A 
ATOM     37  C   UNL A   1      39.780  25.492  28.501  1.00  0.00     0.010 A 
ATOM     38  C   UNL A   1      40.427  26.331  27.582  1.00  0.00    -0.014 A 
BRANCH  38  39
ATOM     39  C   UNL A   1      41.084  27.577  28.056  1.00  0.00     0.031 A 
ATOM     40  C   UNL A   1      42.582  27.716  27.989  1.00  0.00     0.074 A 
ATOM     41  C   UNL A   1      40.337  28.559  28.598  1.00  0.00     0.049 A 
ATOM     42  N   UNL A   1      43.338  28.700  28.401  1.00  0.00    -0.248 NA
ATOM     43  C   UNL A   1      43.330  26.590  27.405  1.00  0.00     0.031 C 
ATOM     44  C   UNL A   1      38.881  28.519  28.765  1.00  0.00     0.029 A 
ATOM     45  N   UNL A   1      40.695  29.777  29.119  1.00  0.00    -0.354 N 
ATOM     46  C   UNL A   1      44.646  28.309  28.140  1.00  0.00     0.074 A 
ATOM     47  C   UNL A   1      44.585  26.975  27.584  1.00  0.00     0.031 C 
ATOM     48  C   UNL A   1      38.472  29.668  29.325  1.00  0.00     0.029 A 
ATOM     49  C   UNL A   1      39.633  30.509  29.595  1.00  0.00     0.049 A 
ATOM     50  H   UNL A   1      41.626  30.096  29.147  1.00  0.00     0.167 HD
ATOM     51  C   UNL A   1      45.792  29.008  28.324  1.00  0.00     0.037 A 
ATOM     52  C   UNL A   1      39.599  31.716  30.192  1.00  0.00     0.037 A 
ATOM     53  C   UNL A   1      45.842  30.345  28.858  1.00  0.00     0.049 A 
ATOM     54  C   UNL A   1      40.886  32.473  30.388  1.00  0.00     0.074 A 
ATOM     55  C   UNL A   1      46.947  31.161  29.028  1.00  0.00     0.029 A 
ATOM     56  N   UNL A   1      44.743  31.061  29.311  1.00  0.00    -0.354 N 
ATOM     57  N   UNL A   1      42.108  32.115  30.072  1.00  0.00    -0.248 NA
ATOM     58  C   UNL A   1      40.789  33.799  31.011  1.00  0.00     0.031 C 
ATOM     59  C   UNL A   1      46.524  32.348  29.633  1.00  0.00     0.029 A 
ATOM     60  C   UNL A   1      45.147  32.299  29.784  1.00  0.00     0.049 A 
ATOM     61  H   UNL A   1      43.814  30.737  29.298  1.00  0.00     0.167 HD
ATOM     62  C   UNL A   1      42.921  33.184  30.431  1.00  0.00     0.074 A 
ATOM     63  C   UNL A   1      42.051  34.205  30.976  1.00  0.00     0.031 C 
ATOM     64  C   UNL A   1      44.268  33.309  30.320  1.00  0.00     0.037 A 
BRANCH  51  65
ATOM     65  C   UNL A   1      47.088  28.343  27.944  1.00  0.00     0.058 A 
ATOM     66  C   UNL A   1      47.817  27.564  28.859  1.00  0.00     0.135 A 
ATOM     67  C   UNL A   1      47.585  28.445  26.634  1.00  0.00     0.135 A 
ATOM     68  F   UNL A   1      47.397  27.443  30.128  1.00  0.00    -0.206 F 
ATOM     69  C   UNL A   1      49.004  26.936  28.497  1.00  0.00     0.059 A 
ATOM     70  C   UNL A   1      48.755  27.800  26.242  1.00  0.00     0.059 A 
ATOM     71  F   UNL A   1      46.931  29.176  25.719  1.00  0.00    -0.206 F 
ATOM     72  C   UNL A   1      49.464  27.058  27.185  1.00  0.00     0.060 A 
BRANCH  72  73
ATOM     73  S   UNL A   1      50.999  26.224  26.730  1.00  0.00     0.124 S 
ATOM     74  O   UNL A   1      50.986  26.366  25.277  1.00  0.00    -0.237 OA
ATOM     75  O   UNL A   1      52.003  27.015  27.434  1.00  0.00    -0.237 OA
ATOM     76  O   UNL A   1      50.811  24.866  27.228  1.00  0.00    -0.744 OA
ENDBRANCH  72  73
ENDBRANCH  51  65
BRANCH  52  77
ATOM     77  C   UNL A   1      38.299  32.290  30.632  1.00  0.00     0.058 A 
ATOM     78  C   UNL A   1      37.777  32.014  31.904  1.00  0.00     0.135 A 
ATOM     79  C   UNL A   1      37.558  33.139  29.794  1.00  0.00     0.135 A 
ATOM     80  F   UNL A   1      38.443  31.203  32.740  1.00  0.00    -0.206 F 
ATOM     81  C   UNL A   1      36.561  32.542  32.325  1.00  0.00     0.059 A 
ATOM     82  C   UNL A   1      36.353  33.704  30.203  1.00  0.00     0.059 A 
ATOM     83  F   UNL A   1      38.021  33.452  28.573  1.00  0.00    -0.206 F 
ATOM     84  C   UNL A   1      35.858  33.390  31.468  1.00  0.00     0.060 A 
BRANCH  84  85
ATOM     85  S   UNL A   1      34.304  34.109  32.042  1.00  0.00     0.124 S 
ATOM     86  O   UNL A   1      33.713  32.991  32.768  1.00  0.00    -0.237 OA
ATOM     87  O   UNL A   1      34.769  35.228  32.857  1.00  0.00    -0.237 OA
ATOM     88  O   UNL A   1      33.631  34.486  30.802  1.00  0.00    -0.744 OA
ENDBRANCH  84  85
ENDBRANCH  52  77
BRANCH  64  89
ATOM     89  C   UNL A   1      44.883  34.610  30.759  1.00  0.00     0.058 A 
ATOM     90  C   UNL A   1      45.011  35.702  29.888  1.00  0.00     0.135 A 
ATOM     91  C   UNL A   1      45.303  34.781  32.089  1.00  0.00     0.135 A 
ATOM     92  F   UNL A   1      44.632  35.591  28.605  1.00  0.00    -0.206 F 
ATOM     93  C   UNL A   1      45.561  36.908  30.310  1.00  0.00     0.059 A 
ATOM     94  C   UNL A   1      45.825  35.989  32.541  1.00  0.00     0.059 A 
ATOM     95  F   UNL A   1      45.191  33.773  32.969  1.00  0.00    -0.206 F 
ATOM     96  C   UNL A   1      45.962  37.043  31.640  1.00  0.00     0.060 A 
BRANCH  96  97
ATOM     97  S   UNL A   1      46.645  38.623  32.182  1.00  0.00     0.124 S 
ATOM     98  O   UNL A   1      47.994  38.238  32.583  1.00  0.00    -0.237 OA
ATOM     99  O   UNL A   1      46.551  39.435  30.972  1.00  0.00    -0.237 OA
ATOM    100  O   UNL A   1      45.757  39.024  33.268  1.00  0.00    -0.744 OA
ENDBRANCH  96  97
ENDBRANCH  64  89
ENDBRANCH  38  39
ENDBRANCH  30  33
ENDBRANCH  28  29
ENDBRANCH  27  28
ENDBRANCH  26  27
ENDBRANCH   1  26
TORSDOF 20
ENDMDL
MODEL 3
REMARK VINA RESULT:     -10.8      2.961      9.253
REMARK SMILES C[C@@H](C(=O)NCCCCCCNC(=O)c1ccc(-c2c3nc(c(-c4c(F)cc(S(=O)(=O)[O-])cc4F)c4ccc([nH]4)c(-c4c(F)cc(S(=O)(=O)[O-])cc4F)c4nc(c(-c5c(F)cc(S(=O)(=O)[O-])cc5F)c5ccc2[nH]5)C=C4)C=C3)cc1)c1cc(C(=O)c2ccccc2)ccc1O
REMARK SMILES IDX 8 1 7 2 6 3 5 4 3 5 4 6 2 8 1 9 81 10 82 11 94 12 83 13
REMARK SMILES IDX 93 14 92 15 95 16 84 18 85 19 86 20 87 21 91 22 88 23 90 24
REMARK SMILES IDX 89 25 9 26 10 27 11 28 12 29 13 30 14 32 15 33 16 34 80 35
REMARK SMILES IDX 17 36 79 37 18 38 19 39 20 40 73 41 21 42 78 43 72 44 74 45
REMARK SMILES IDX 22 46 77 47 71 48 70 49 23 51 57 52 36 53 56 54 37 55 40 56
REMARK SMILES IDX 55 57 75 58 38 59 39 60 54 62 76 63 41 64 24 65 25 66 34 67
REMARK SMILES IDX 26 68 27 69 33 70 35 71 28 72 29 73 30 74 31 75 32 76 58 77
REMARK SMILES IDX 59 78 68 79 60 80 61 81 67 82 69 83 62 84 63 85 64 86 65 87
REMARK SMILES IDX 66 88 42 89 43 90 52 91 44 92 45 93 51 94 53 95 46 96 47 97
REMARK SMILES IDX 48 98 49 99 50 100
REMARK H PARENT 5 7 95 17 12 31 74 50 40 61
REMARK Flexibility Score: inf
ROOT
ATOM      1  C   UNL A   1      31.882  25.264  26.091  1.00  0.00     0.002 C 
ENDROOT
BRANCH   1   2
ATOM      2  C   UNL A   1      30.567  24.488  25.914  1.00  0.00     0.021 C 
BRANCH   2   3
ATOM      3  C   UNL A   1      30.565  23.125  26.612  1.00  0.00     0.116 C 
BRANCH   3   4
ATOM      4  N   UNL A   1      31.850  22.907  27.246  1.00  0.00    -0.356 N 
ATOM      5  C   UNL A   1      32.763  21.931  26.983  1.00  0.00     0.227 C 
ATOM      6  O   UNL A   1      33.546  21.627  27.888  1.00  0.00    -0.274 OA
ATOM      7  H   UNL A   1      32.092  23.544  27.955  1.00  0.00     0.163 HD
BRANCH   5   8
ATOM      8  C   UNL A   1      32.797  21.257  25.603  1.00  0.00     0.109 C 
ATOM      9  C   UNL A   1      33.219  19.785  25.680  1.00  0.00     0.023 C 
BRANCH   8  10
ATOM     10  C   UNL A   1      33.703  22.022  24.639  1.00  0.00     0.007 A 
ATOM     11  C   UNL A   1      33.132  22.843  23.651  1.00  0.00     0.020 A 
ATOM     12  C   UNL A   1      35.102  21.944  24.696  1.00  0.00     0.119 A 
ATOM     13  C   UNL A   1      33.941  23.528  22.730  1.00  0.00     0.023 A 
ATOM     14  C   UNL A   1      35.912  22.587  23.770  1.00  0.00     0.047 A 
ATOM     15  C   UNL A   1      35.334  23.391  22.794  1.00  0.00     0.016 A 
BRANCH  12  16
ATOM     16  O   UNL A   1      35.744  21.293  25.711  1.00  0.00    -0.508 OA
ATOM     17  H   UNL A   1      35.473  21.426  26.598  1.00  0.00     0.293 HD
ENDBRANCH  12  16
BRANCH  13  18
ATOM     18  C   UNL A   1      33.292  24.431  21.739  1.00  0.00     0.193 C 
ATOM     19  O   UNL A   1      33.208  24.099  20.560  1.00  0.00    -0.289 OA
BRANCH  18  20
ATOM     20  C   UNL A   1      32.696  25.718  22.164  1.00  0.00     0.022 A 
ATOM     21  C   UNL A   1      33.532  26.831  22.304  1.00  0.00     0.012 A 
ATOM     22  C   UNL A   1      31.324  25.831  22.412  1.00  0.00     0.012 A 
ATOM     23  C   UNL A   1      32.985  28.068  22.644  1.00  0.00     0.001 A 
ATOM     24  C   UNL A   1      30.782  27.070  22.750  1.00  0.00     0.001 A 
ATOM     25  C   UNL A   1      31.610  28.188  22.857  1.00  0.00     0.000 A 
ENDBRANCH  18  20
ENDBRANCH  13  18
ENDBRANCH   8  10
ENDBRANCH   5   8
ENDBRANCH   3   4
ENDBRANCH   2   3
ENDBRANCH   1   2
BRANCH   1  26
ATOM     26  C   UNL A   1      31.708  26.752  26.414  1.00  0.00     0.002 C 
BRANCH  26  27
ATOM     27  C   UNL A   1      32.956  27.604  26.178  1.00  0.00     0.021 C 
BRANCH  27  28
ATOM     28  C   UNL A   1      33.586  28.155  27.454  1.00  0.00     0.116 C 
BRANCH  28  29
ATOM     29  N   UNL A   1      33.505  29.607  27.510  1.00  0.00    -0.352 N 
ATOM     30  C   UNL A   1      34.440  30.507  27.950  1.00  0.00     0.251 C 
ATOM     31  H   UNL A   1      32.662  29.997  27.186  1.00  0.00     0.163 HD
ATOM     32  O   UNL A   1      34.120  31.680  28.141  1.00  0.00    -0.269 OA
BRANCH  30  33
ATOM     33  C   UNL A   1      35.825  30.063  28.210  1.00  0.00     0.039 A 
ATOM     34  C   UNL A   1      36.756  30.098  27.170  1.00  0.00     0.014 A 
ATOM     35  C   UNL A   1      36.203  29.607  29.477  1.00  0.00     0.014 A 
ATOM     36  C   UNL A   1      38.079  29.725  27.415  1.00  0.00     0.010 A 
ATOM     37  C   UNL A   1      37.537  29.309  29.738  1.00  0.00     0.010 A 
ATOM     38  C   UNL A   1      38.488  29.357  28.708  1.00  0.00    -0.014 A 
BRANCH  38  39
ATOM     39  C   UNL A   1      39.906  29.020  28.998  1.00  0.00     0.031 A 
ATOM     40  C   UNL A   1      40.826  30.057  29.586  1.00  0.00     0.074 A 
ATOM     41  C   UNL A   1      40.379  27.798  28.680  1.00  0.00     0.049 A 
ATOM     42  N   UNL A   1      42.102  29.968  29.858  1.00  0.00    -0.248 NA
ATOM     43  C   UNL A   1      40.241  31.375  29.884  1.00  0.00     0.031 C 
ATOM     44  C   UNL A   1      39.597  26.726  28.059  1.00  0.00     0.029 A 
ATOM     45  N   UNL A   1      41.630  27.254  28.825  1.00  0.00    -0.354 N 
ATOM     46  C   UNL A   1      42.474  31.216  30.345  1.00  0.00     0.074 A 
ATOM     47  C   UNL A   1      41.302  32.061  30.279  1.00  0.00     0.031 C 
ATOM     48  C   UNL A   1      40.381  25.648  27.898  1.00  0.00     0.029 A 
ATOM     49  C   UNL A   1      41.728  25.962  28.364  1.00  0.00     0.049 A 
ATOM     50  H   UNL A   1      42.387  27.743  29.221  1.00  0.00     0.167 HD
ATOM     51  C   UNL A   1      43.677  31.614  30.825  1.00  0.00     0.037 A 
ATOM     52  C   UNL A   1      42.784  25.126  28.314  1.00  0.00     0.037 A 
ATOM     53  C   UNL A   1      44.833  30.759  30.907  1.00  0.00     0.049 A 
ATOM     54  C   UNL A   1      44.111  25.592  28.852  1.00  0.00     0.074 A 
ATOM     55  C   UNL A   1      46.080  31.048  31.432  1.00  0.00     0.029 A 
ATOM     56  N   UNL A   1      44.887  29.450  30.449  1.00  0.00    -0.354 N 
ATOM     57  N   UNL A   1      44.427  26.755  29.372  1.00  0.00    -0.248 NA
ATOM     58  C   UNL A   1      45.221  24.631  28.806  1.00  0.00     0.031 C 
ATOM     59  C   UNL A   1      46.904  29.934  31.244  1.00  0.00     0.029 A 
ATOM     60  C   UNL A   1      46.154  28.927  30.657  1.00  0.00     0.049 A 
ATOM     61  H   UNL A   1      44.136  28.964  30.038  1.00  0.00     0.167 HD
ATOM     62  C   UNL A   1      45.764  26.654  29.741  1.00  0.00     0.074 A 
ATOM     63  C   UNL A   1      46.192  25.314  29.397  1.00  0.00     0.031 C 
ATOM     64  C   UNL A   1      46.565  27.588  30.314  1.00  0.00     0.037 A 
BRANCH  51  65
ATOM     65  C   UNL A   1      43.806  33.036  31.302  1.00  0.00     0.058 A 
ATOM     66  C   UNL A   1      44.063  34.094  30.414  1.00  0.00     0.135 A 
ATOM     67  C   UNL A   1      43.624  33.352  32.659  1.00  0.00     0.135 A 
ATOM     68  F   UNL A   1      44.260  33.849  29.109  1.00  0.00    -0.206 F 
ATOM     69  C   UNL A   1      44.163  35.409  30.858  1.00  0.00     0.059 A 
ATOM     70  C   UNL A   1      43.689  34.665  33.120  1.00  0.00     0.059 A 
ATOM     71  F   UNL A   1      43.377  32.382  33.551  1.00  0.00    -0.206 F 
ATOM     72  C   UNL A   1      43.972  35.684  32.212  1.00  0.00     0.060 A 
BRANCH  72  73
ATOM     73  S   UNL A   1      44.091  37.398  32.768  1.00  0.00     0.124 S 
ATOM     74  O   UNL A   1      43.914  38.123  31.513  1.00  0.00    -0.237 OA
ATOM     75  O   UNL A   1      42.985  37.494  33.715  1.00  0.00    -0.237 OA
ATOM     76  O   UNL A   1      45.424  37.475  33.354  1.00  0.00    -0.744 OA
ENDBRANCH  72  73
ENDBRANCH  51  65
BRANCH  52  77
ATOM     77  C   UNL A   1      42.624  23.760  27.749  1.00  0.00     0.058 A 
ATOM     78  C   UNL A   1      42.414  22.651  28.581  1.00  0.00     0.135 A 
ATOM     79  C   UNL A   1      42.664  23.537  26.363  1.00  0.00     0.135 A 
ATOM     80  F   UNL A   1      42.374  22.810  29.913  1.00  0.00    -0.206 F 
ATOM     81  C   UNL A   1      42.266  21.368  28.065  1.00  0.00     0.059 A 
ATOM     82  C   UNL A   1      42.490  22.268  25.820  1.00  0.00     0.059 A 
ATOM     83  F   UNL A   1      42.844  24.567  25.521  1.00  0.00    -0.206 F 
ATOM     84  C   UNL A   1      42.302  21.187  26.681  1.00  0.00     0.060 A 
BRANCH  84  85
ATOM     85  S   UNL A   1      42.061  19.525  26.017  1.00  0.00     0.124 S 
ATOM     86  O   UNL A   1      40.617  19.493  25.822  1.00  0.00    -0.237 OA
ATOM     87  O   UNL A   1      42.870  19.562  24.802  1.00  0.00    -0.237 OA
ATOM     88  O   UNL A   1      42.577  18.663  27.076  1.00  0.00    -0.744 OA
ENDBRANCH  84  85
ENDBRANCH  52  77
BRANCH  64  89
ATOM     89  C   UNL A   1      47.977  27.184  30.642  1.00  0.00     0.058 A 
ATOM     90  C   UNL A   1      49.056  27.518  29.811  1.00  0.00     0.135 A 
ATOM     91  C   UNL A   1      48.257  26.495  31.835  1.00  0.00     0.135 A 
ATOM     92  F   UNL A   1      48.844  28.171  28.657  1.00  0.00    -0.206 F 
ATOM     93  C   UNL A   1      50.361  27.160  30.135  1.00  0.00     0.059 A 
ATOM     94  C   UNL A   1      49.557  26.156  32.194  1.00  0.00     0.059 A 
ATOM     95  F   UNL A   1      47.263  26.161  32.673  1.00  0.00    -0.206 F 
ATOM     96  C   UNL A   1      50.602  26.481  31.330  1.00  0.00     0.060 A 
BRANCH  96  97
ATOM     97  S   UNL A   1      52.303  26.049  31.753  1.00  0.00     0.124 S 
ATOM     98  O   UNL A   1      52.692  27.176  32.595  1.00  0.00    -0.237 OA
ATOM     99  O   UNL A   1      52.138  24.771  32.440  1.00  0.00    -0.237 OA
ATOM    100  O   UNL A   1      52.967  25.975  30.456  1.00  0.00    -0.744 OA
ENDBRANCH  96  97
ENDBRANCH  64  89
ENDBRANCH  38  39
ENDBRANCH  30  33
ENDBRANCH  28  29
ENDBRANCH  27  28
ENDBRANCH  26  27
ENDBRANCH   1  26
TORSDOF 20
ENDMDL
