MODEL 1
REMARK VINA RESULT:     -12.2      0.000      0.000
REMARK SMILES O=C(NCCCCCCNC(=O)c1cccc(Nc2nc(-c3ccc(F)cc3F)cs2)c1)c1ccc(-c2c3nc(c(-c4c(F)cc(S(=O)(=O)[O-])cc4F)c4ccc([nH]4)c(-c4c(F)cc(S(=O)(=O)[O-])cc4F)c4nc(c(-c5c(F)cc(S(=O)(=O)[O-])cc5F)c5ccc2[nH]5)C=C4)C=C3)cc1
REMARK SMILES IDX 6 1 5 2 4 3 3 4 1 5 2 6 33 8 34 9 98 10 35 11 97 12 36 13
REMARK SMILES IDX 37 14 38 15 91 16 39 17 96 18 90 19 92 20 40 21 95 22 89 23
REMARK SMILES IDX 88 24 41 26 75 27 54 28 74 29 55 30 58 31 73 32 93 33 56 34
REMARK SMILES IDX 57 35 72 37 94 38 59 39 42 40 43 41 52 42 44 43 45 44 51 45
REMARK SMILES IDX 53 46 46 47 47 48 48 49 49 50 50 51 76 52 77 53 86 54 78 55
REMARK SMILES IDX 79 56 85 57 87 58 80 59 81 60 82 61 83 62 84 63 60 64 61 65
REMARK SMILES IDX 70 66 62 67 63 68 69 69 71 70 64 71 65 72 66 73 67 74 68 75
REMARK SMILES IDX 7 76 8 77 9 78 10 79 11 80 12 82 13 83 14 84 32 85 15 86
REMARK SMILES IDX 17 87 16 88 18 89 19 91 20 92 31 93 21 94 30 95 22 96 23 97
REMARK SMILES IDX 28 98 24 99 27 100 29 101 25 102 26 103
REMARK H PARENT 3 7 92 25 58 36 10 81 18 90
REMARK Flexibility Score: inf
ROOT
ATOM      1  C   UNL A   1      36.258  22.676  26.041  1.00  0.00     0.002 C 
ENDROOT
BRANCH   1   2
ATOM      2  C   UNL A   1      37.358  23.540  25.426  1.00  0.00     0.021 C 
BRANCH   2   3
ATOM      3  C   UNL A   1      38.299  24.210  26.420  1.00  0.00     0.116 C 
BRANCH   3   4
ATOM      4  N   UNL A   1      39.699  24.086  26.050  1.00  0.00    -0.352 N 
ATOM      5  O   UNL A   1      41.878  24.664  25.953  1.00  0.00    -0.269 OA
ATOM      6  C   UNL A   1      40.778  24.826  26.475  1.00  0.00     0.251 C 
ATOM      7  H   UNL A   1      39.905  23.372  25.403  1.00  0.00     0.163 HD
BRANCH   6   8
ATOM      8  C   UNL A   1      40.603  25.842  27.539  1.00  0.00     0.039 A 
ATOM      9  C   UNL A   1      41.426  26.968  27.596  1.00  0.00     0.014 A 
ATOM     10  C   UNL A   1      39.604  25.657  28.499  1.00  0.00     0.014 A 
ATOM     11  C   UNL A   1      41.352  27.822  28.691  1.00  0.00     0.010 A 
ATOM     12  C   UNL A   1      39.476  26.565  29.556  1.00  0.00     0.010 A 
ATOM     13  C   UNL A   1      40.374  27.635  29.682  1.00  0.00    -0.014 A 
BRANCH  13  14
ATOM     14  C   UNL A   1      40.291  28.598  30.813  1.00  0.00     0.031 A 
ATOM     15  C   UNL A   1      41.245  28.522  31.974  1.00  0.00     0.074 A 
ATOM     16  C   UNL A   1      39.367  29.577  30.762  1.00  0.00     0.049 A 
ATOM     17  N   UNL A   1      41.343  29.315  33.011  1.00  0.00    -0.248 NA
ATOM     18  C   UNL A   1      42.206  27.408  31.982  1.00  0.00     0.031 C 
ATOM     19  C   UNL A   1      38.377  29.744  29.694  1.00  0.00     0.029 A 
ATOM     20  N   UNL A   1      39.123  30.629  31.606  1.00  0.00    -0.354 N 
ATOM     21  C   UNL A   1      42.355  28.788  33.805  1.00  0.00     0.074 A 
ATOM     22  C   UNL A   1      42.827  27.592  33.140  1.00  0.00     0.031 C 
ATOM     23  C   UNL A   1      37.674  30.864  29.916  1.00  0.00     0.029 A 
ATOM     24  C   UNL A   1      38.124  31.465  31.166  1.00  0.00     0.049 A 
ATOM     25  H   UNL A   1      39.616  30.773  32.445  1.00  0.00     0.167 HD
ATOM     26  C   UNL A   1      42.849  29.261  34.976  1.00  0.00     0.037 A 
ATOM     27  C   UNL A   1      37.620  32.590  31.708  1.00  0.00     0.037 A 
ATOM     28  C   UNL A   1      42.390  30.467  35.621  1.00  0.00     0.049 A 
ATOM     29  C   UNL A   1      38.187  33.093  33.003  1.00  0.00     0.074 A 
ATOM     30  C   UNL A   1      42.860  31.054  36.784  1.00  0.00     0.029 A 
ATOM     31  N   UNL A   1      41.357  31.269  35.160  1.00  0.00    -0.354 N 
ATOM     32  N   UNL A   1      39.168  32.599  33.721  1.00  0.00    -0.248 NA
ATOM     33  C   UNL A   1      37.575  34.304  33.567  1.00  0.00     0.031 C 
ATOM     34  C   UNL A   1      42.085  32.189  37.046  1.00  0.00     0.029 A 
ATOM     35  C   UNL A   1      41.160  32.333  36.025  1.00  0.00     0.049 A 
ATOM     36  H   UNL A   1      40.839  31.106  34.338  1.00  0.00     0.167 HD
ATOM     37  C   UNL A   1      39.303  33.447  34.812  1.00  0.00     0.074 A 
ATOM     38  C   UNL A   1      38.314  34.495  34.652  1.00  0.00     0.031 C 
ATOM     39  C   UNL A   1      40.168  33.366  35.853  1.00  0.00     0.037 A 
BRANCH  26  40
ATOM     40  C   UNL A   1      43.930  28.461  35.652  1.00  0.00     0.058 A 
ATOM     41  C   UNL A   1      45.291  28.736  35.450  1.00  0.00     0.135 A 
ATOM     42  C   UNL A   1      43.598  27.423  36.538  1.00  0.00     0.135 A 
ATOM     43  F   UNL A   1      45.666  29.709  34.604  1.00  0.00    -0.206 F 
ATOM     44  C   UNL A   1      46.286  27.992  36.078  1.00  0.00     0.059 A 
ATOM     45  C   UNL A   1      44.575  26.681  37.195  1.00  0.00     0.059 A 
ATOM     46  F   UNL A   1      42.311  27.120  36.771  1.00  0.00    -0.206 F 
ATOM     47  C   UNL A   1      45.917  26.961  36.945  1.00  0.00     0.060 A 
BRANCH  47  48
ATOM     48  S   UNL A   1      47.216  25.994  37.743  1.00  0.00     0.124 S 
ATOM     49  O   UNL A   1      46.895  26.186  39.154  1.00  0.00    -0.237 OA
ATOM     50  O   UNL A   1      46.978  24.652  37.218  1.00  0.00    -0.237 OA
ATOM     51  O   UNL A   1      48.446  26.633  37.286  1.00  0.00    -0.744 OA
ENDBRANCH  47  48
ENDBRANCH  26  40
BRANCH  27  52
ATOM     52  C   UNL A   1      36.531  33.319  31.010  1.00  0.00     0.058 A 
ATOM     53  C   UNL A   1      36.778  34.006  29.813  1.00  0.00     0.135 A 
ATOM     54  C   UNL A   1      35.217  33.311  31.505  1.00  0.00     0.135 A 
ATOM     55  F   UNL A   1      38.019  34.043  29.305  1.00  0.00    -0.206 F 
ATOM     56  C   UNL A   1      35.762  34.667  29.133  1.00  0.00     0.059 A 
ATOM     57  C   UNL A   1      34.180  33.944  30.829  1.00  0.00     0.059 A 
ATOM     58  F   UNL A   1      34.930  32.652  32.638  1.00  0.00    -0.206 F 
ATOM     59  C   UNL A   1      34.464  34.627  29.646  1.00  0.00     0.060 A 
BRANCH  59  60
ATOM     60  S   UNL A   1      33.138  35.434  28.723  1.00  0.00     0.124 S 
ATOM     61  O   UNL A   1      33.876  36.444  27.975  1.00  0.00    -0.237 OA
ATOM     62  O   UNL A   1      32.591  34.330  27.941  1.00  0.00    -0.237 OA
ATOM     63  O   UNL A   1      32.260  35.940  29.775  1.00  0.00    -0.744 OA
ENDBRANCH  59  60
ENDBRANCH  27  52
BRANCH  39  64
ATOM     64  C   UNL A   1      40.095  34.455  36.886  1.00  0.00     0.058 A 
ATOM     65  C   UNL A   1      39.209  34.380  37.972  1.00  0.00     0.135 A 
ATOM     66  C   UNL A   1      40.934  35.576  36.797  1.00  0.00     0.135 A 
ATOM     67  F   UNL A   1      38.380  33.332  38.096  1.00  0.00    -0.206 F 
ATOM     68  C   UNL A   1      39.138  35.395  38.920  1.00  0.00     0.059 A 
ATOM     69  C   UNL A   1      40.896  36.592  37.747  1.00  0.00     0.059 A 
ATOM     70  F   UNL A   1      41.805  35.691  35.781  1.00  0.00    -0.206 F 
ATOM     71  C   UNL A   1      39.982  36.499  38.797  1.00  0.00     0.060 A 
BRANCH  71  72
ATOM     72  S   UNL A   1      39.893  37.806  40.040  1.00  0.00     0.124 S 
ATOM     73  O   UNL A   1      39.841  37.031  41.275  1.00  0.00    -0.237 OA
ATOM     74  O   UNL A   1      41.128  38.548  39.808  1.00  0.00    -0.237 OA
ATOM     75  O   UNL A   1      38.667  38.519  39.693  1.00  0.00    -0.744 OA
ENDBRANCH  71  72
ENDBRANCH  39  64
ENDBRANCH  13  14
ENDBRANCH   6   8
ENDBRANCH   3   4
ENDBRANCH   2   3
ENDBRANCH   1   2
BRANCH   1  76
ATOM     76  C   UNL A   1      35.025  23.428  26.547  1.00  0.00     0.002 C 
BRANCH  76  77
ATOM     77  C   UNL A   1      34.175  22.702  27.596  1.00  0.00     0.021 C 
BRANCH  77  78
ATOM     78  C   UNL A   1      32.705  22.501  27.232  1.00  0.00     0.116 C 
BRANCH  78  79
ATOM     79  N   UNL A   1      32.484  21.255  26.520  1.00  0.00    -0.352 N 
ATOM     80  C   UNL A   1      32.323  21.041  25.176  1.00  0.00     0.251 C 
ATOM     81  H   UNL A   1      32.443  20.449  27.085  1.00  0.00     0.163 HD
ATOM     82  O   UNL A   1      31.978  19.939  24.759  1.00  0.00    -0.269 OA
BRANCH  80  83
ATOM     83  C   UNL A   1      32.559  22.140  24.222  1.00  0.00     0.041 A 
ATOM     84  C   UNL A   1      33.722  22.118  23.453  1.00  0.00     0.014 A 
ATOM     85  C   UNL A   1      31.664  23.215  24.132  1.00  0.00     0.040 A 
ATOM     86  C   UNL A   1      33.956  23.145  22.546  1.00  0.00     0.003 A 
ATOM     87  C   UNL A   1      31.903  24.272  23.240  1.00  0.00     0.041 A 
ATOM     88  C   UNL A   1      33.043  24.200  22.430  1.00  0.00     0.026 A 
BRANCH  87  89
ATOM     89  N   UNL A   1      30.984  25.336  23.192  1.00  0.00    -0.332 N 
ATOM     90  H   UNL A   1      30.107  25.128  22.797  1.00  0.00     0.169 HD
BRANCH  89  91
ATOM     91  C   UNL A   1      31.152  26.609  23.619  1.00  0.00     0.187 A 
ATOM     92  N   UNL A   1      31.858  27.017  24.653  1.00  0.00    -0.220 NA
ATOM     93  S   UNL A   1      30.387  27.886  22.733  1.00  0.00    -0.105 S 
ATOM     94  C   UNL A   1      31.846  28.394  24.732  1.00  0.00     0.086 A 
ATOM     95  C   UNL A   1      31.039  29.035  23.818  1.00  0.00     0.097 A 
BRANCH  94  96
ATOM     96  C   UNL A   1      32.645  29.110  25.702  1.00  0.00     0.037 A 
ATOM     97  C   UNL A   1      33.843  28.567  26.182  1.00  0.00     0.016 A 
ATOM     98  C   UNL A   1      32.208  30.348  26.190  1.00  0.00     0.135 A 
ATOM     99  C   UNL A   1      34.580  29.259  27.147  1.00  0.00     0.040 A 
ATOM    100  C   UNL A   1      32.938  31.039  27.150  1.00  0.00     0.079 A 
ATOM    101  F   UNL A   1      31.055  30.881  25.758  1.00  0.00    -0.206 F 
ATOM    102  C   UNL A   1      34.119  30.485  27.623  1.00  0.00     0.126 A 
ATOM    103  F   UNL A   1      34.828  31.134  28.555  1.00  0.00    -0.207 F 
ENDBRANCH  94  96
ENDBRANCH  89  91
ENDBRANCH  87  89
ENDBRANCH  80  83
ENDBRANCH  78  79
ENDBRANCH  77  78
ENDBRANCH  76  77
ENDBRANCH   1  76
TORSDOF 19
ENDMDL
MODEL 2
REMARK VINA RESULT:     -12.1      0.678      8.052
REMARK SMILES O=C(NCCCCCCNC(=O)c1cccc(Nc2nc(-c3ccc(F)cc3F)cs2)c1)c1ccc(-c2c3nc(c(-c4c(F)cc(S(=O)(=O)[O-])cc4F)c4ccc([nH]4)c(-c4c(F)cc(S(=O)(=O)[O-])cc4F)c4nc(c(-c5c(F)cc(S(=O)(=O)[O-])cc5F)c5ccc2[nH]5)C=C4)C=C3)cc1
REMARK SMILES IDX 6 1 5 2 4 3 3 4 1 5 2 6 33 8 34 9 98 10 35 11 97 12 36 13
REMARK SMILES IDX 37 14 38 15 91 16 39 17 96 18 90 19 92 20 40 21 95 22 89 23
REMARK SMILES IDX 88 24 41 26 75 27 54 28 74 29 55 30 58 31 73 32 93 33 56 34
REMARK SMILES IDX 57 35 72 37 94 38 59 39 42 40 43 41 52 42 44 43 45 44 51 45
REMARK SMILES IDX 53 46 46 47 47 48 48 49 49 50 50 51 76 52 77 53 86 54 78 55
REMARK SMILES IDX 79 56 85 57 87 58 80 59 81 60 82 61 83 62 84 63 60 64 61 65
REMARK SMILES IDX 70 66 62 67 63 68 69 69 71 70 64 71 65 72 66 73 67 74 68 75
REMARK SMILES IDX 7 76 8 77 9 78 10 79 11 80 12 82 13 83 14 84 32 85 15 86
REMARK SMILES IDX 17 87 16 88 18 89 19 91 20 92 31 93 21 94 30 95 22 96 23 97
REMARK SMILES IDX 28 98 24 99 27 100 29 101 25 102 26 103
REMARK H PARENT 3 7 92 25 58 36 10 81 18 90
REMARK Flexibility Score: inf
ROOT
ATOM      1  C   UNL A   1      36.185  22.778  26.040  1.00  0.00     0.002 C 
ENDROOT
BRANCH   1   2
ATOM      2  C   UNL A   1      37.243  23.699  25.434  1.00  0.00     0.021 C 
BRANCH   2   3
ATOM      3  C   UNL A   1      38.207  24.333  26.429  1.00  0.00     0.116 C 
BRANCH   3   4
ATOM      4  N   UNL A   1      39.603  24.135  26.074  1.00  0.00    -0.352 N 
ATOM      5  O   UNL A   1      41.808  24.601  25.991  1.00  0.00    -0.269 OA
ATOM      6  C   UNL A   1      40.714  24.826  26.499  1.00  0.00     0.251 C 
ATOM      7  H   UNL A   1      39.778  23.402  25.439  1.00  0.00     0.163 HD
BRANCH   6   8
ATOM      8  C   UNL A   1      40.580  25.864  27.548  1.00  0.00     0.039 A 
ATOM      9  C   UNL A   1      41.373  27.012  27.522  1.00  0.00     0.014 A 
ATOM     10  C   UNL A   1      39.652  25.677  28.576  1.00  0.00     0.014 A 
ATOM     11  C   UNL A   1      41.347  27.893  28.598  1.00  0.00     0.010 A 
ATOM     12  C   UNL A   1      39.568  26.609  29.617  1.00  0.00     0.010 A 
ATOM     13  C   UNL A   1      40.442  27.706  29.657  1.00  0.00    -0.014 A 
BRANCH  13  14
ATOM     14  C   UNL A   1      40.406  28.695  30.767  1.00  0.00     0.031 A 
ATOM     15  C   UNL A   1      39.383  29.799  30.796  1.00  0.00     0.074 A 
ATOM     16  C   UNL A   1      41.285  28.563  31.779  1.00  0.00     0.049 A 
ATOM     17  N   UNL A   1      39.181  30.708  31.716  1.00  0.00    -0.248 NA
ATOM     18  C   UNL A   1      38.478  29.905  29.642  1.00  0.00     0.031 C 
ATOM     19  C   UNL A   1      42.334  27.541  31.855  1.00  0.00     0.029 A 
ATOM     20  N   UNL A   1      41.424  29.265  32.948  1.00  0.00    -0.354 N 
ATOM     21  C   UNL A   1      38.145  31.508  31.246  1.00  0.00     0.074 A 
ATOM     22  C   UNL A   1      37.774  30.988  29.947  1.00  0.00     0.031 C 
ATOM     23  C   UNL A   1      42.967  27.646  33.032  1.00  0.00     0.029 A 
ATOM     24  C   UNL A   1      42.409  28.772  33.771  1.00  0.00     0.049 A 
ATOM     25  H   UNL A   1      40.871  30.047  33.177  1.00  0.00     0.167 HD
ATOM     26  C   UNL A   1      37.555  32.572  31.844  1.00  0.00     0.037 A 
ATOM     27  C   UNL A   1      42.823  29.182  34.985  1.00  0.00     0.037 A 
ATOM     28  C   UNL A   1      37.914  33.068  33.150  1.00  0.00     0.049 A 
ATOM     29  C   UNL A   1      42.151  30.360  35.627  1.00  0.00     0.074 A 
ATOM     30  C   UNL A   1      37.343  34.109  33.863  1.00  0.00     0.029 A 
ATOM     31  N   UNL A   1      38.936  32.561  33.938  1.00  0.00    -0.354 N 
ATOM     32  N   UNL A   1      41.149  31.080  35.181  1.00  0.00    -0.248 NA
ATOM     33  C   UNL A   1      42.666  30.784  36.935  1.00  0.00     0.031 C 
ATOM     34  C   UNL A   1      38.045  34.256  35.064  1.00  0.00     0.029 A 
ATOM     35  C   UNL A   1      39.027  33.280  35.120  1.00  0.00     0.049 A 
ATOM     36  H   UNL A   1      39.513  31.801  33.695  1.00  0.00     0.167 HD
ATOM     37  C   UNL A   1      40.903  32.034  36.160  1.00  0.00     0.074 A 
ATOM     38  C   UNL A   1      41.851  31.788  37.230  1.00  0.00     0.031 C 
ATOM     39  C   UNL A   1      39.978  33.025  36.173  1.00  0.00     0.037 A 
BRANCH  26  40
ATOM     40  C   UNL A   1      36.471  33.287  31.085  1.00  0.00     0.058 A 
ATOM     41  C   UNL A   1      36.754  34.087  29.967  1.00  0.00     0.135 A 
ATOM     42  C   UNL A   1      35.126  33.145  31.463  1.00  0.00     0.135 A 
ATOM     43  F   UNL A   1      38.023  34.268  29.568  1.00  0.00    -0.206 F 
ATOM     44  C   UNL A   1      35.746  34.746  29.269  1.00  0.00     0.059 A 
ATOM     45  C   UNL A   1      34.099  33.776  30.767  1.00  0.00     0.059 A 
ATOM     46  F   UNL A   1      34.798  32.389  32.523  1.00  0.00    -0.206 F 
ATOM     47  C   UNL A   1      34.420  34.589  29.681  1.00  0.00     0.060 A 
BRANCH  47  48
ATOM     48  S   UNL A   1      33.123  35.460  28.777  1.00  0.00     0.124 S 
ATOM     49  O   UNL A   1      32.509  34.368  28.027  1.00  0.00    -0.237 OA
ATOM     50  O   UNL A   1      32.311  36.021  29.852  1.00  0.00    -0.237 OA
ATOM     51  O   UNL A   1      33.860  36.434  27.978  1.00  0.00    -0.744 OA
ENDBRANCH  47  48
ENDBRANCH  26  40
BRANCH  27  52
ATOM     52  C   UNL A   1      43.920  28.454  35.672  1.00  0.00     0.058 A 
ATOM     53  C   UNL A   1      43.641  27.400  36.554  1.00  0.00     0.135 A 
ATOM     54  C   UNL A   1      45.266  28.771  35.432  1.00  0.00     0.135 A 
ATOM     55  F   UNL A   1      42.369  27.064  36.817  1.00  0.00    -0.206 F 
ATOM     56  C   UNL A   1      44.658  26.689  37.181  1.00  0.00     0.059 A 
ATOM     57  C   UNL A   1      46.301  28.058  36.027  1.00  0.00     0.059 A 
ATOM     58  F   UNL A   1      45.581  29.760  34.582  1.00  0.00    -0.206 F 
ATOM     59  C   UNL A   1      45.986  27.023  36.908  1.00  0.00     0.060 A 
BRANCH  59  60
ATOM     60  S   UNL A   1      47.302  26.054  37.676  1.00  0.00     0.124 S 
ATOM     61  O   UNL A   1      48.328  26.081  36.639  1.00  0.00    -0.237 OA
ATOM     62  O   UNL A   1      47.590  26.825  38.881  1.00  0.00    -0.237 OA
ATOM     63  O   UNL A   1      46.669  24.758  37.907  1.00  0.00    -0.744 OA
ENDBRANCH  59  60
ENDBRANCH  27  52
BRANCH  39  64
ATOM     64  C   UNL A   1      39.932  33.899  37.395  1.00  0.00     0.058 A 
ATOM     65  C   UNL A   1      40.689  35.077  37.483  1.00  0.00     0.135 A 
ATOM     66  C   UNL A   1      39.107  33.563  38.479  1.00  0.00     0.135 A 
ATOM     67  F   UNL A   1      41.500  35.436  36.477  1.00  0.00    -0.206 F 
ATOM     68  C   UNL A   1      40.651  35.878  38.620  1.00  0.00     0.059 A 
ATOM     69  C   UNL A   1      39.037  34.361  39.615  1.00  0.00     0.059 A 
ATOM     70  F   UNL A   1      38.357  32.450  38.439  1.00  0.00    -0.206 F 
ATOM     71  C   UNL A   1      39.826  35.510  39.683  1.00  0.00     0.060 A 
BRANCH  71  72
ATOM     72  S   UNL A   1      39.772  36.563  41.148  1.00  0.00     0.124 S 
ATOM     73  O   UNL A   1      38.873  37.627  40.711  1.00  0.00    -0.237 OA
ATOM     74  O   UNL A   1      39.242  35.661  42.166  1.00  0.00    -0.237 OA
ATOM     75  O   UNL A   1      41.166  36.955  41.333  1.00  0.00    -0.744 OA
ENDBRANCH  71  72
ENDBRANCH  39  64
ENDBRANCH  13  14
ENDBRANCH   6   8
ENDBRANCH   3   4
ENDBRANCH   2   3
ENDBRANCH   1   2
BRANCH   1  76
ATOM     76  C   UNL A   1      34.996  23.476  26.705  1.00  0.00     0.002 C 
BRANCH  76  77
ATOM     77  C   UNL A   1      34.124  22.603  27.615  1.00  0.00     0.021 C 
BRANCH  77  78
ATOM     78  C   UNL A   1      32.662  22.466  27.194  1.00  0.00     0.116 C 
BRANCH  78  79
ATOM     79  N   UNL A   1      32.421  21.245  26.445  1.00  0.00    -0.352 N 
ATOM     80  C   UNL A   1      32.278  21.071  25.094  1.00  0.00     0.251 C 
ATOM     81  H   UNL A   1      32.351  20.425  26.987  1.00  0.00     0.163 HD
ATOM     82  O   UNL A   1      31.912  19.990  24.641  1.00  0.00    -0.269 OA
BRANCH  80  83
ATOM     83  C   UNL A   1      32.557  22.189  24.173  1.00  0.00     0.041 A 
ATOM     84  C   UNL A   1      33.775  22.205  23.493  1.00  0.00     0.014 A 
ATOM     85  C   UNL A   1      31.647  23.244  24.031  1.00  0.00     0.040 A 
ATOM     86  C   UNL A   1      34.051  23.250  22.619  1.00  0.00     0.003 A 
ATOM     87  C   UNL A   1      31.925  24.320  23.174  1.00  0.00     0.041 A 
ATOM     88  C   UNL A   1      33.124  24.286  22.449  1.00  0.00     0.026 A 
BRANCH  87  89
ATOM     89  N   UNL A   1      30.987  25.363  23.070  1.00  0.00    -0.332 N 
ATOM     90  H   UNL A   1      30.167  25.155  22.570  1.00  0.00     0.169 HD
BRANCH  89  91
ATOM     91  C   UNL A   1      31.070  26.617  23.573  1.00  0.00     0.187 A 
ATOM     92  N   UNL A   1      31.796  27.021  24.595  1.00  0.00    -0.220 NA
ATOM     93  S   UNL A   1      30.151  27.874  22.814  1.00  0.00    -0.105 S 
ATOM     94  C   UNL A   1      31.671  28.384  24.767  1.00  0.00     0.086 A 
ATOM     95  C   UNL A   1      30.762  29.007  23.939  1.00  0.00     0.097 A 
BRANCH  94  96
ATOM     96  C   UNL A   1      32.458  29.106  25.741  1.00  0.00     0.037 A 
ATOM     97  C   UNL A   1      32.018  30.334  26.250  1.00  0.00     0.016 A 
ATOM     98  C   UNL A   1      33.689  28.588  26.166  1.00  0.00     0.135 A 
ATOM     99  C   UNL A   1      32.814  31.032  27.162  1.00  0.00     0.040 A 
ATOM    100  C   UNL A   1      34.484  29.280  27.073  1.00  0.00     0.079 A 
ATOM    101  F   UNL A   1      34.140  27.422  25.680  1.00  0.00    -0.206 F 
ATOM    102  C   UNL A   1      34.038  30.500  27.562  1.00  0.00     0.126 A 
ATOM    103  F   UNL A   1      34.797  31.181  28.429  1.00  0.00    -0.207 F 
ENDBRANCH  94  96
ENDBRANCH  89  91
ENDBRANCH  87  89
ENDBRANCH  80  83
ENDBRANCH  78  79
ENDBRANCH  77  78
ENDBRANCH  76  77
ENDBRANCH   1  76
TORSDOF 19
ENDMDL
MODEL 3
REMARK VINA RESULT:     -11.7      3.153      8.969
REMARK SMILES O=C(NCCCCCCNC(=O)c1cccc(Nc2nc(-c3ccc(F)cc3F)cs2)c1)c1ccc(-c2c3nc(c(-c4c(F)cc(S(=O)(=O)[O-])cc4F)c4ccc([nH]4)c(-c4c(F)cc(S(=O)(=O)[O-])cc4F)c4nc(c(-c5c(F)cc(S(=O)(=O)[O-])cc5F)c5ccc2[nH]5)C=C4)C=C3)cc1
REMARK SMILES IDX 6 1 5 2 4 3 3 4 1 5 2 6 33 8 34 9 98 10 35 11 97 12 36 13
REMARK SMILES IDX 37 14 38 15 91 16 39 17 96 18 90 19 92 20 40 21 95 22 89 23
REMARK SMILES IDX 88 24 41 26 75 27 54 28 74 29 55 30 58 31 73 32 93 33 56 34
REMARK SMILES IDX 57 35 72 37 94 38 59 39 42 40 43 41 52 42 44 43 45 44 51 45
REMARK SMILES IDX 53 46 46 47 47 48 48 49 49 50 50 51 76 52 77 53 86 54 78 55
REMARK SMILES IDX 79 56 85 57 87 58 80 59 81 60 82 61 83 62 84 63 60 64 61 65
REMARK SMILES IDX 70 66 62 67 63 68 69 69 71 70 64 71 65 72 66 73 67 74 68 75
REMARK SMILES IDX 7 76 8 77 9 78 10 79 11 80 12 82 13 83 14 84 32 85 15 86
REMARK SMILES IDX 17 87 16 88 18 89 19 91 20 92 31 93 21 94 30 95 22 96 23 97
REMARK SMILES IDX 28 98 24 99 27 100 29 101 25 102 26 103
REMARK H PARENT 3 7 92 25 58 36 10 81 18 90
REMARK Flexibility Score: inf
ROOT
ATOM      1  C   UNL A   1      32.698  25.813  26.183  1.00  0.00     0.002 C 
ENDROOT
BRANCH   1   2
ATOM      2  C   UNL A   1      32.521  27.294  26.514  1.00  0.00     0.021 C 
BRANCH   2   3
ATOM      3  C   UNL A   1      33.783  28.143  26.420  1.00  0.00     0.116 C 
BRANCH   3   4
ATOM      4  N   UNL A   1      33.531  29.561  26.622  1.00  0.00    -0.352 N 
ATOM      5  O   UNL A   1      33.817  31.611  27.519  1.00  0.00    -0.269 OA
ATOM      6  C   UNL A   1      34.253  30.475  27.354  1.00  0.00     0.251 C 
ATOM      7  H   UNL A   1      32.730  29.917  26.172  1.00  0.00     0.163 HD
BRANCH   6   8
ATOM      8  C   UNL A   1      35.541  30.076  27.968  1.00  0.00     0.039 A 
ATOM      9  C   UNL A   1      35.588  29.584  29.274  1.00  0.00     0.014 A 
ATOM     10  C   UNL A   1      36.718  30.207  27.226  1.00  0.00     0.014 A 
ATOM     11  C   UNL A   1      36.819  29.369  29.886  1.00  0.00     0.010 A 
ATOM     12  C   UNL A   1      37.951  29.909  27.818  1.00  0.00     0.010 A 
ATOM     13  C   UNL A   1      38.015  29.524  29.166  1.00  0.00    -0.014 A 
BRANCH  13  14
ATOM     14  C   UNL A   1      39.311  29.237  29.837  1.00  0.00     0.031 A 
ATOM     15  C   UNL A   1      39.709  29.948  31.103  1.00  0.00     0.074 A 
ATOM     16  C   UNL A   1      40.113  28.289  29.316  1.00  0.00     0.049 A 
ATOM     17  N   UNL A   1      40.775  29.776  31.842  1.00  0.00    -0.248 NA
ATOM     18  C   UNL A   1      38.802  30.995  31.598  1.00  0.00     0.031 C 
ATOM     19  C   UNL A   1      39.841  27.542  28.084  1.00  0.00     0.029 A 
ATOM     20  N   UNL A   1      41.301  27.770  29.761  1.00  0.00    -0.354 N 
ATOM     21  C   UNL A   1      40.683  30.703  32.874  1.00  0.00     0.074 A 
ATOM     22  C   UNL A   1      39.464  31.452  32.653  1.00  0.00     0.031 C 
ATOM     23  C   UNL A   1      40.801  26.622  27.905  1.00  0.00     0.029 A 
ATOM     24  C   UNL A   1      41.783  26.750  28.976  1.00  0.00     0.049 A 
ATOM     25  H   UNL A   1      41.764  28.096  30.566  1.00  0.00     0.167 HD
ATOM     26  C   UNL A   1      41.532  30.907  33.911  1.00  0.00     0.037 A 
ATOM     27  C   UNL A   1      42.895  26.000  29.098  1.00  0.00     0.037 A 
ATOM     28  C   UNL A   1      42.732  30.140  34.138  1.00  0.00     0.049 A 
ATOM     29  C   UNL A   1      43.816  26.243  30.257  1.00  0.00     0.074 A 
ATOM     30  C   UNL A   1      43.631  30.238  35.186  1.00  0.00     0.029 A 
ATOM     31  N   UNL A   1      43.201  29.136  33.304  1.00  0.00    -0.354 N 
ATOM     32  N   UNL A   1      43.692  27.101  31.242  1.00  0.00    -0.248 NA
ATOM     33  C   UNL A   1      45.030  25.420  30.321  1.00  0.00     0.031 C 
ATOM     34  C   UNL A   1      44.664  29.320  34.966  1.00  0.00     0.029 A 
ATOM     35  C   UNL A   1      44.388  28.621  33.802  1.00  0.00     0.049 A 
ATOM     36  H   UNL A   1      42.757  28.833  32.480  1.00  0.00     0.167 HD
ATOM     37  C   UNL A   1      44.804  26.912  32.052  1.00  0.00     0.074 A 
ATOM     38  C   UNL A   1      45.581  25.846  31.451  1.00  0.00     0.031 C 
ATOM     39  C   UNL A   1      45.151  27.562  33.190  1.00  0.00     0.037 A 
BRANCH  26  40
ATOM     40  C   UNL A   1      41.206  32.018  34.872  1.00  0.00     0.058 A 
ATOM     41  C   UNL A   1      40.356  31.821  35.972  1.00  0.00     0.135 A 
ATOM     42  C   UNL A   1      41.777  33.290  34.708  1.00  0.00     0.135 A 
ATOM     43  F   UNL A   1      39.773  30.629  36.171  1.00  0.00    -0.206 F 
ATOM     44  C   UNL A   1      40.059  32.854  36.857  1.00  0.00     0.059 A 
ATOM     45  C   UNL A   1      41.513  34.332  35.592  1.00  0.00     0.059 A 
ATOM     46  F   UNL A   1      42.600  33.533  33.675  1.00  0.00    -0.206 F 
ATOM     47  C   UNL A   1      40.638  34.109  36.655  1.00  0.00     0.060 A 
BRANCH  47  48
ATOM     48  S   UNL A   1      40.234  35.444  37.801  1.00  0.00     0.124 S 
ATOM     49  O   UNL A   1      39.078  34.888  38.498  1.00  0.00    -0.237 OA
ATOM     50  O   UNL A   1      41.455  35.558  38.595  1.00  0.00    -0.237 OA
ATOM     51  O   UNL A   1      39.954  36.574  36.922  1.00  0.00    -0.744 OA
ENDBRANCH  47  48
ENDBRANCH  26  40
BRANCH  27  52
ATOM     52  C   UNL A   1      43.179  24.938  28.099  1.00  0.00     0.058 A 
ATOM     53  C   UNL A   1      43.829  25.241  26.894  1.00  0.00     0.135 A 
ATOM     54  C   UNL A   1      42.843  23.599  28.346  1.00  0.00     0.135 A 
ATOM     55  F   UNL A   1      44.166  26.509  26.613  1.00  0.00    -0.206 F 
ATOM     56  C   UNL A   1      44.129  24.253  25.963  1.00  0.00     0.059 A 
ATOM     57  C   UNL A   1      43.156  22.589  27.442  1.00  0.00     0.059 A 
ATOM     58  F   UNL A   1      42.236  23.259  29.494  1.00  0.00    -0.206 F 
ATOM     59  C   UNL A   1      43.792  22.928  26.248  1.00  0.00     0.060 A 
BRANCH  59  60
ATOM     60  S   UNL A   1      44.243  21.642  25.064  1.00  0.00     0.124 S 
ATOM     61  O   UNL A   1      43.217  20.638  25.318  1.00  0.00    -0.237 OA
ATOM     62  O   UNL A   1      44.147  22.347  23.790  1.00  0.00    -0.237 OA
ATOM     63  O   UNL A   1      45.599  21.278  25.468  1.00  0.00    -0.744 OA
ENDBRANCH  59  60
ENDBRANCH  27  52
BRANCH  39  64
ATOM     64  C   UNL A   1      46.415  27.117  33.870  1.00  0.00     0.058 A 
ATOM     65  C   UNL A   1      47.654  27.705  33.574  1.00  0.00     0.135 A 
ATOM     66  C   UNL A   1      46.382  26.105  34.842  1.00  0.00     0.135 A 
ATOM     67  F   UNL A   1      47.740  28.670  32.645  1.00  0.00    -0.206 F 
ATOM     68  C   UNL A   1      48.824  27.283  34.198  1.00  0.00     0.059 A 
ATOM     69  C   UNL A   1      47.535  25.685  35.495  1.00  0.00     0.059 A 
ATOM     70  F   UNL A   1      45.219  25.517  35.166  1.00  0.00    -0.206 F 
ATOM     71  C   UNL A   1      48.755  26.270  35.154  1.00  0.00     0.060 A 
BRANCH  71  72
ATOM     72  S   UNL A   1      50.276  25.739  35.971  1.00  0.00     0.124 S 
ATOM     73  O   UNL A   1      51.263  25.957  34.918  1.00  0.00    -0.237 OA
ATOM     74  O   UNL A   1      50.354  26.644  37.113  1.00  0.00    -0.237 OA
ATOM     75  O   UNL A   1      50.010  24.343  36.304  1.00  0.00    -0.744 OA
ENDBRANCH  71  72
ENDBRANCH  39  64
ENDBRANCH  13  14
ENDBRANCH   6   8
ENDBRANCH   3   4
ENDBRANCH   2   3
ENDBRANCH   1   2
BRANCH   1  76
ATOM     76  C   UNL A   1      31.440  25.083  25.706  1.00  0.00     0.002 C 
BRANCH  76  77
ATOM     77  C   UNL A   1      30.682  24.281  26.770  1.00  0.00     0.021 C 
BRANCH  77  78
ATOM     78  C   UNL A   1      30.790  22.762  26.653  1.00  0.00     0.116 C 
BRANCH  78  79
ATOM     79  N   UNL A   1      32.136  22.288  26.924  1.00  0.00    -0.352 N 
ATOM     80  C   UNL A   1      33.033  21.695  26.076  1.00  0.00     0.251 C 
ATOM     81  H   UNL A   1      32.447  22.410  27.851  1.00  0.00     0.163 HD
ATOM     82  O   UNL A   1      34.070  21.202  26.512  1.00  0.00    -0.269 OA
BRANCH  80  83
ATOM     83  C   UNL A   1      32.752  21.638  24.629  1.00  0.00     0.041 A 
ATOM     84  C   UNL A   1      32.384  20.415  24.068  1.00  0.00     0.014 A 
ATOM     85  C   UNL A   1      32.912  22.773  23.823  1.00  0.00     0.040 A 
ATOM     86  C   UNL A   1      32.112  20.347  22.706  1.00  0.00     0.003 A 
ATOM     87  C   UNL A   1      32.668  22.712  22.442  1.00  0.00     0.041 A 
ATOM     88  C   UNL A   1      32.235  21.490  21.908  1.00  0.00     0.026 A 
BRANCH  87  89
ATOM     89  N   UNL A   1      32.851  23.873  21.671  1.00  0.00    -0.332 N 
ATOM     90  H   UNL A   1      33.215  23.736  20.767  1.00  0.00     0.169 HD
BRANCH  89  91
ATOM     91  C   UNL A   1      32.591  25.157  22.013  1.00  0.00     0.187 A 
ATOM     92  N   UNL A   1      31.443  25.793  21.911  1.00  0.00    -0.220 NA
ATOM     93  S   UNL A   1      33.874  26.109  22.682  1.00  0.00    -0.105 S 
ATOM     94  C   UNL A   1      31.551  27.069  22.423  1.00  0.00     0.086 A 
ATOM     95  C   UNL A   1      32.816  27.445  22.821  1.00  0.00     0.097 A 
BRANCH  94  96
ATOM     96  C   UNL A   1      30.404  27.941  22.548  1.00  0.00     0.037 A 
ATOM     97  C   UNL A   1      30.439  29.246  22.041  1.00  0.00     0.016 A 
ATOM     98  C   UNL A   1      29.252  27.489  23.205  1.00  0.00     0.135 A 
ATOM     99  C   UNL A   1      29.332  30.083  22.207  1.00  0.00     0.040 A 
ATOM    100  C   UNL A   1      28.149  28.319  23.371  1.00  0.00     0.079 A 
ATOM    101  F   UNL A   1      29.201  26.249  23.713  1.00  0.00    -0.206 F 
ATOM    102  C   UNL A   1      28.201  29.613  22.871  1.00  0.00     0.126 A 
ATOM    103  F   UNL A   1      27.150  30.426  23.033  1.00  0.00    -0.207 F 
ENDBRANCH  94  96
ENDBRANCH  89  91
ENDBRANCH  87  89
ENDBRANCH  80  83
ENDBRANCH  78  79
ENDBRANCH  77  78
ENDBRANCH  76  77
ENDBRANCH   1  76
TORSDOF 19
ENDMDL
