MODEL 1
REMARK VINA RESULT:     -11.9      0.000      0.000
REMARK SMILES Cc1cc(N2N=C(C(=O)NCCCCCCNC(=O)c3ccc(-c4c5nc(c(-c6c(F)cc(S(=O)(=O)[O-])cc6F)c6ccc([nH]6)c(-c6c(F)cc(S(=O)(=O)[O-])cc6F)c6nc(c(-c7c(F)cc(S(=O)(=O)[O-])cc7F)c7ccc4[nH]7)C=C6)C=C5)cc3)C[C@H]2c2ccccc2)c([N+](=O)[O-])cc1C
REMARK SMILES IDX 14 1 13 2 12 3 11 4 10 5 8 6 9 7 7 9 5 10 6 11 87 12 86 13
REMARK SMILES IDX 4 14 1 15 2 16 3 17 99 18 98 19 100 20 94 21 95 22 96 23
REMARK SMILES IDX 97 24 88 25 89 26 93 27 90 28 92 29 91 30 15 31 16 32 17 33
REMARK SMILES IDX 18 34 19 36 20 37 21 38 85 39 22 40 84 41 23 42 24 43 25 44
REMARK SMILES IDX 78 45 26 46 83 47 77 48 79 49 27 50 82 51 76 52 75 53 28 55
REMARK SMILES IDX 62 56 41 57 61 58 42 59 45 60 60 61 80 62 43 63 44 64 59 66
REMARK SMILES IDX 81 67 46 68 29 69 30 70 39 71 31 72 32 73 38 74 40 75 33 76
REMARK SMILES IDX 34 77 35 78 36 79 37 80 63 81 64 82 73 83 65 84 66 85 72 86
REMARK SMILES IDX 74 87 67 88 68 89 69 90 70 91 71 92 47 93 48 94 57 95 49 96
REMARK SMILES IDX 50 97 56 98 58 99 51 100 52 101 53 102 54 103 55 104
REMARK H PARENT 10 8 17 35 79 54 45 65
REMARK Flexibility Score: inf
ROOT
ATOM      1  C   UNL A   1      33.064  29.079  27.117  1.00  0.00     0.002 C 
ENDROOT
BRANCH   1   2
ATOM      2  C   UNL A   1      32.764  27.718  26.484  1.00  0.00     0.002 C 
BRANCH   2   3
ATOM      3  C   UNL A   1      33.850  27.161  25.563  1.00  0.00     0.021 C 
BRANCH   3   4
ATOM      4  C   UNL A   1      33.670  27.472  24.081  1.00  0.00     0.116 C 
BRANCH   4   5
ATOM      5  N   UNL A   1      32.487  26.839  23.535  1.00  0.00    -0.351 N 
ATOM      6  C   UNL A   1      32.145  25.540  23.256  1.00  0.00     0.267 C 
ATOM      7  O   UNL A   1      31.034  25.342  22.766  1.00  0.00    -0.268 OA
ATOM      8  H   UNL A   1      31.773  27.481  23.318  1.00  0.00     0.163 HD
BRANCH   6   9
ATOM      9  C   UNL A   1      33.031  24.337  23.552  1.00  0.00     0.128 C 
ATOM     10  N   UNL A   1      33.637  22.498  24.466  1.00  0.00    -0.250 N 
ATOM     11  N   UNL A   1      32.609  23.379  24.326  1.00  0.00    -0.171 NA
ATOM     12  C   UNL A   1      34.822  22.847  23.671  1.00  0.00     0.144 C 
ATOM     13  C   UNL A   1      34.388  24.132  22.966  1.00  0.00     0.096 C 
BRANCH  10  14
ATOM     14  C   UNL A   1      33.359  21.158  24.738  1.00  0.00     0.138 A 
ATOM     15  C   UNL A   1      32.267  18.209  22.577  1.00  0.00     0.045 C 
ATOM     16  C   UNL A   1      32.661  18.981  23.807  1.00  0.00    -0.046 A 
ATOM     17  C   UNL A   1      33.044  20.325  23.653  1.00  0.00     0.039 A 
ATOM     18  C   UNL A   1      32.648  18.414  25.093  1.00  0.00    -0.041 A 
ATOM     19  C   UNL A   1      33.002  19.217  26.189  1.00  0.00     0.091 A 
ATOM     20  C   UNL A   1      32.283  16.979  25.353  1.00  0.00     0.045 C 
ATOM     21  C   UNL A   1      33.341  20.571  26.007  1.00  0.00     0.294 A 
BRANCH  21  22
ATOM     22  N   UNL A   1      33.588  21.359  27.206  1.00  0.00     0.065 N 
ATOM     23  O   UNL A   1      32.613  21.938  27.713  1.00  0.00    -0.258 OA
ATOM     24  O   UNL A   1      34.764  21.501  27.576  1.00  0.00    -0.258 OA
ENDBRANCH  21  22
ENDBRANCH  10  14
BRANCH  12  25
ATOM     25  C   UNL A   1      36.071  22.955  24.537  1.00  0.00    -0.023 A 
ATOM     26  C   UNL A   1      37.141  22.047  24.475  1.00  0.00     0.006 A 
ATOM     27  C   UNL A   1      36.180  24.035  25.435  1.00  0.00     0.006 A 
ATOM     28  C   UNL A   1      38.256  22.192  25.306  1.00  0.00     0.000 A 
ATOM     29  C   UNL A   1      37.313  24.202  26.233  1.00  0.00     0.000 A 
ATOM     30  C   UNL A   1      38.345  23.272  26.178  1.00  0.00     0.000 A 
ENDBRANCH  12  25
ENDBRANCH   6   9
ENDBRANCH   4   5
ENDBRANCH   3   4
ENDBRANCH   2   3
ENDBRANCH   1   2
BRANCH   1  31
ATOM     31  C   UNL A   1      34.480  29.620  26.897  1.00  0.00     0.021 C 
BRANCH  31  32
ATOM     32  C   UNL A   1      35.474  29.315  28.012  1.00  0.00     0.116 C 
BRANCH  32  33
ATOM     33  N   UNL A   1      35.304  30.189  29.161  1.00  0.00    -0.352 N 
ATOM     34  C   UNL A   1      36.252  30.629  30.053  1.00  0.00     0.251 C 
ATOM     35  H   UNL A   1      34.388  30.508  29.321  1.00  0.00     0.163 HD
ATOM     36  O   UNL A   1      35.914  31.234  31.066  1.00  0.00    -0.269 OA
BRANCH  34  37
ATOM     37  C   UNL A   1      37.679  30.346  29.795  1.00  0.00     0.039 A 
ATOM     38  C   UNL A   1      38.523  30.066  30.874  1.00  0.00     0.014 A 
ATOM     39  C   UNL A   1      38.176  30.337  28.489  1.00  0.00     0.014 A 
ATOM     40  C   UNL A   1      39.852  29.708  30.636  1.00  0.00     0.010 A 
ATOM     41  C   UNL A   1      39.483  29.921  28.252  1.00  0.00     0.010 A 
ATOM     42  C   UNL A   1      40.333  29.599  29.322  1.00  0.00    -0.014 A 
BRANCH  42  43
ATOM     43  C   UNL A   1      41.718  29.148  29.027  1.00  0.00     0.031 A 
ATOM     44  C   UNL A   1      42.835  30.154  28.987  1.00  0.00     0.074 A 
ATOM     45  C   UNL A   1      41.948  27.862  28.691  1.00  0.00     0.049 A 
ATOM     46  N   UNL A   1      44.069  30.001  28.585  1.00  0.00    -0.248 NA
ATOM     47  C   UNL A   1      42.511  31.520  29.431  1.00  0.00     0.031 C 
ATOM     48  C   UNL A   1      40.938  26.802  28.655  1.00  0.00     0.029 A 
ATOM     49  N   UNL A   1      43.100  27.236  28.285  1.00  0.00    -0.354 N 
ATOM     50  C   UNL A   1      44.661  31.254  28.694  1.00  0.00     0.074 A 
ATOM     51  C   UNL A   1      43.641  32.163  29.172  1.00  0.00     0.031 C 
ATOM     52  C   UNL A   1      41.513  25.660  28.244  1.00  0.00     0.029 A 
ATOM     53  C   UNL A   1      42.919  25.915  27.946  1.00  0.00     0.049 A 
ATOM     54  H   UNL A   1      43.973  27.689  28.240  1.00  0.00     0.167 HD
ATOM     55  C   UNL A   1      45.940  31.609  28.430  1.00  0.00     0.037 A 
ATOM     56  C   UNL A   1      43.781  25.017  27.427  1.00  0.00     0.037 A 
ATOM     57  C   UNL A   1      46.958  30.689  27.998  1.00  0.00     0.049 A 
ATOM     58  C   UNL A   1      45.203  25.433  27.158  1.00  0.00     0.074 A 
ATOM     59  C   UNL A   1      48.303  30.937  27.780  1.00  0.00     0.029 A 
ATOM     60  N   UNL A   1      46.748  29.348  27.719  1.00  0.00    -0.354 N 
ATOM     61  N   UNL A   1      45.761  26.609  27.325  1.00  0.00    -0.248 NA
ATOM     62  C   UNL A   1      46.113  24.405  26.632  1.00  0.00     0.031 C 
ATOM     63  C   UNL A   1      48.897  29.754  27.331  1.00  0.00     0.029 A 
ATOM     64  C   UNL A   1      47.933  28.759  27.313  1.00  0.00     0.049 A 
ATOM     65  H   UNL A   1      45.884  28.883  27.799  1.00  0.00     0.167 HD
ATOM     66  C   UNL A   1      47.092  26.453  26.954  1.00  0.00     0.074 A 
ATOM     67  C   UNL A   1      47.259  25.071  26.558  1.00  0.00     0.031 C 
ATOM     68  C   UNL A   1      48.086  27.374  26.945  1.00  0.00     0.037 A 
BRANCH  55  69
ATOM     69  C   UNL A   1      46.319  33.054  28.601  1.00  0.00     0.058 A 
ATOM     70  C   UNL A   1      46.807  33.549  29.819  1.00  0.00     0.135 A 
ATOM     71  C   UNL A   1      46.250  33.940  27.513  1.00  0.00     0.135 A 
ATOM     72  F   UNL A   1      46.879  32.749  30.896  1.00  0.00    -0.206 F 
ATOM     73  C   UNL A   1      47.196  34.878  29.960  1.00  0.00     0.059 A 
ATOM     74  C   UNL A   1      46.659  35.265  27.624  1.00  0.00     0.059 A 
ATOM     75  F   UNL A   1      45.789  33.517  26.326  1.00  0.00    -0.206 F 
ATOM     76  C   UNL A   1      47.120  35.728  28.856  1.00  0.00     0.060 A 
BRANCH  76  77
ATOM     77  S   UNL A   1      47.651  37.442  29.048  1.00  0.00     0.124 S 
ATOM     78  O   UNL A   1      47.225  38.022  27.779  1.00  0.00    -0.237 OA
ATOM     79  O   UNL A   1      46.899  37.871  30.224  1.00  0.00    -0.237 OA
ATOM     80  O   UNL A   1      49.094  37.334  29.235  1.00  0.00    -0.744 OA
ENDBRANCH  76  77
ENDBRANCH  55  69
BRANCH  56  81
ATOM     81  C   UNL A   1      43.323  23.636  27.120  1.00  0.00     0.058 A 
ATOM     82  C   UNL A   1      43.199  22.672  28.132  1.00  0.00     0.135 A 
ATOM     83  C   UNL A   1      42.997  23.252  25.810  1.00  0.00     0.135 A 
ATOM     84  F   UNL A   1      43.505  22.989  29.399  1.00  0.00    -0.206 F 
ATOM     85  C   UNL A   1      42.790  21.371  27.854  1.00  0.00     0.059 A 
ATOM     86  C   UNL A   1      42.562  21.964  25.511  1.00  0.00     0.059 A 
ATOM     87  F   UNL A   1      43.080  24.141  24.808  1.00  0.00    -0.206 F 
ATOM     88  C   UNL A   1      42.475  21.027  26.539  1.00  0.00     0.060 A 
BRANCH  88  89
ATOM     89  S   UNL A   1      41.908  19.347  26.192  1.00  0.00     0.124 S 
ATOM     90  O   UNL A   1      42.272  18.656  27.425  1.00  0.00    -0.237 OA
ATOM     91  O   UNL A   1      40.480  19.544  25.967  1.00  0.00    -0.237 OA
ATOM     92  O   UNL A   1      42.677  18.974  25.008  1.00  0.00    -0.744 OA
ENDBRANCH  88  89
ENDBRANCH  56  81
BRANCH  68  93
ATOM     93  C   UNL A   1      49.458  26.919  26.537  1.00  0.00     0.058 A 
ATOM     94  C   UNL A   1      50.359  26.371  27.461  1.00  0.00     0.135 A 
ATOM     95  C   UNL A   1      49.839  26.947  25.185  1.00  0.00     0.135 A 
ATOM     96  F   UNL A   1      50.046  26.329  28.766  1.00  0.00    -0.206 F 
ATOM     97  C   UNL A   1      51.593  25.868  27.061  1.00  0.00     0.059 A 
ATOM     98  C   UNL A   1      51.056  26.427  24.759  1.00  0.00     0.059 A 
ATOM     99  F   UNL A   1      49.008  27.453  24.259  1.00  0.00    -0.206 F 
ATOM    100  C   UNL A   1      51.929  25.893  25.706  1.00  0.00     0.060 A 
BRANCH 100 101
ATOM    101  S   UNL A   1      53.502  25.173  25.190  1.00  0.00     0.124 S 
ATOM    102  O   UNL A   1      54.410  25.692  26.207  1.00  0.00    -0.237 OA
ATOM    103  O   UNL A   1      53.227  23.740  25.258  1.00  0.00    -0.237 OA
ATOM    104  O   UNL A   1      53.695  25.705  23.844  1.00  0.00    -0.744 OA
ENDBRANCH 100 101
ENDBRANCH  68  93
ENDBRANCH  42  43
ENDBRANCH  34  37
ENDBRANCH  32  33
ENDBRANCH  31  32
ENDBRANCH   1  31
TORSDOF 19
ENDMDL
MODEL 2
REMARK VINA RESULT:     -11.9      2.361      3.277
REMARK SMILES Cc1cc(N2N=C(C(=O)NCCCCCCNC(=O)c3ccc(-c4c5nc(c(-c6c(F)cc(S(=O)(=O)[O-])cc6F)c6ccc([nH]6)c(-c6c(F)cc(S(=O)(=O)[O-])cc6F)c6nc(c(-c7c(F)cc(S(=O)(=O)[O-])cc7F)c7ccc4[nH]7)C=C6)C=C5)cc3)C[C@H]2c2ccccc2)c([N+](=O)[O-])cc1C
REMARK SMILES IDX 14 1 13 2 12 3 11 4 10 5 8 6 9 7 7 9 5 10 6 11 87 12 86 13
REMARK SMILES IDX 4 14 1 15 2 16 3 17 99 18 98 19 100 20 94 21 95 22 96 23
REMARK SMILES IDX 97 24 88 25 89 26 93 27 90 28 92 29 91 30 15 31 16 32 17 33
REMARK SMILES IDX 18 34 19 36 20 37 21 38 85 39 22 40 84 41 23 42 24 43 25 44
REMARK SMILES IDX 78 45 26 46 83 47 77 48 79 49 27 50 82 51 76 52 75 53 28 55
REMARK SMILES IDX 62 56 41 57 61 58 42 59 45 60 60 61 80 62 43 63 44 64 59 66
REMARK SMILES IDX 81 67 46 68 29 69 30 70 39 71 31 72 32 73 38 74 40 75 33 76
REMARK SMILES IDX 34 77 35 78 36 79 37 80 63 81 64 82 73 83 65 84 66 85 72 86
REMARK SMILES IDX 74 87 67 88 68 89 69 90 70 91 71 92 47 93 48 94 57 95 49 96
REMARK SMILES IDX 50 97 56 98 58 99 51 100 52 101 53 102 54 103 55 104
REMARK H PARENT 10 8 17 35 79 54 45 65
REMARK Flexibility Score: inf
ROOT
ATOM      1  C   UNL A   1      32.299  27.958  27.015  1.00  0.00     0.002 C 
ENDROOT
BRANCH   1   2
ATOM      2  C   UNL A   1      31.019  27.137  26.834  1.00  0.00     0.002 C 
BRANCH   2   3
ATOM      3  C   UNL A   1      31.213  25.719  26.295  1.00  0.00     0.021 C 
BRANCH   3   4
ATOM      4  C   UNL A   1      30.382  25.372  25.064  1.00  0.00     0.116 C 
BRANCH   4   5
ATOM      5  N   UNL A   1      30.982  25.875  23.846  1.00  0.00    -0.351 N 
ATOM      6  C   UNL A   1      32.079  25.513  23.105  1.00  0.00     0.267 C 
ATOM      7  O   UNL A   1      32.329  26.181  22.103  1.00  0.00    -0.268 OA
ATOM      8  H   UNL A   1      30.498  26.643  23.467  1.00  0.00     0.163 HD
BRANCH   6   9
ATOM      9  C   UNL A   1      32.972  24.319  23.420  1.00  0.00     0.128 C 
ATOM     10  N   UNL A   1      33.581  22.490  24.350  1.00  0.00    -0.250 N 
ATOM     11  N   UNL A   1      32.547  23.359  24.189  1.00  0.00    -0.171 NA
ATOM     12  C   UNL A   1      34.777  22.849  23.575  1.00  0.00     0.144 C 
ATOM     13  C   UNL A   1      34.342  24.128  22.859  1.00  0.00     0.096 C 
BRANCH  10  14
ATOM     14  C   UNL A   1      33.314  21.148  24.620  1.00  0.00     0.138 A 
ATOM     15  C   UNL A   1      32.258  18.189  22.453  1.00  0.00     0.045 C 
ATOM     16  C   UNL A   1      32.638  18.964  23.685  1.00  0.00    -0.046 A 
ATOM     17  C   UNL A   1      33.012  20.312  23.534  1.00  0.00     0.039 A 
ATOM     18  C   UNL A   1      32.623  18.398  24.971  1.00  0.00    -0.041 A 
ATOM     19  C   UNL A   1      32.964  19.203  26.069  1.00  0.00     0.091 A 
ATOM     20  C   UNL A   1      32.268  16.960  25.229  1.00  0.00     0.045 C 
ATOM     21  C   UNL A   1      33.293  20.560  25.889  1.00  0.00     0.294 A 
BRANCH  21  22
ATOM     22  N   UNL A   1      33.526  21.350  27.089  1.00  0.00     0.065 N 
ATOM     23  O   UNL A   1      32.548  21.940  27.577  1.00  0.00    -0.258 OA
ATOM     24  O   UNL A   1      34.697  21.483  27.479  1.00  0.00    -0.258 OA
ENDBRANCH  21  22
ENDBRANCH  10  14
BRANCH  12  25
ATOM     25  C   UNL A   1      36.009  22.972  24.463  1.00  0.00    -0.023 A 
ATOM     26  C   UNL A   1      36.249  24.064  25.314  1.00  0.00     0.006 A 
ATOM     27  C   UNL A   1      36.953  21.927  24.456  1.00  0.00     0.006 A 
ATOM     28  C   UNL A   1      37.407  24.126  26.095  1.00  0.00     0.000 A 
ATOM     29  C   UNL A   1      38.087  21.970  25.270  1.00  0.00     0.000 A 
ATOM     30  C   UNL A   1      38.320  23.077  26.079  1.00  0.00     0.000 A 
ENDBRANCH  12  25
ENDBRANCH   6   9
ENDBRANCH   4   5
ENDBRANCH   3   4
ENDBRANCH   2   3
ENDBRANCH   1   2
BRANCH   1  31
ATOM     31  C   UNL A   1      33.301  27.896  25.859  1.00  0.00     0.021 C 
BRANCH  31  32
ATOM     32  C   UNL A   1      34.309  29.039  25.808  1.00  0.00     0.116 C 
BRANCH  32  33
ATOM     33  N   UNL A   1      33.964  30.123  26.713  1.00  0.00    -0.352 N 
ATOM     34  C   UNL A   1      34.650  30.573  27.815  1.00  0.00     0.251 C 
ATOM     35  H   UNL A   1      33.126  30.597  26.509  1.00  0.00     0.163 HD
ATOM     36  O   UNL A   1      34.138  31.396  28.569  1.00  0.00    -0.269 OA
BRANCH  34  37
ATOM     37  C   UNL A   1      35.999  30.040  28.099  1.00  0.00     0.039 A 
ATOM     38  C   UNL A   1      36.985  30.121  27.111  1.00  0.00     0.014 A 
ATOM     39  C   UNL A   1      36.292  29.481  29.345  1.00  0.00     0.014 A 
ATOM     40  C   UNL A   1      38.286  29.704  27.399  1.00  0.00     0.010 A 
ATOM     41  C   UNL A   1      37.602  29.123  29.649  1.00  0.00     0.010 A 
ATOM     42  C   UNL A   1      38.613  29.234  28.681  1.00  0.00    -0.014 A 
BRANCH  42  43
ATOM     43  C   UNL A   1      40.002  28.853  29.047  1.00  0.00     0.031 A 
ATOM     44  C   UNL A   1      40.934  29.890  29.611  1.00  0.00     0.074 A 
ATOM     45  C   UNL A   1      40.451  27.611  28.774  1.00  0.00     0.049 A 
ATOM     46  N   UNL A   1      42.220  29.810  29.832  1.00  0.00    -0.248 NA
ATOM     47  C   UNL A   1      40.346  31.199  29.940  1.00  0.00     0.031 C 
ATOM     48  C   UNL A   1      39.652  26.530  28.191  1.00  0.00     0.029 A 
ATOM     49  N   UNL A   1      41.699  27.058  28.920  1.00  0.00    -0.354 N 
ATOM     50  C   UNL A   1      42.602  31.065  30.293  1.00  0.00     0.074 A 
ATOM     51  C   UNL A   1      41.417  31.896  30.292  1.00  0.00     0.031 C 
ATOM     52  C   UNL A   1      40.431  25.448  28.025  1.00  0.00     0.029 A 
ATOM     53  C   UNL A   1      41.791  25.770  28.447  1.00  0.00     0.049 A 
ATOM     54  H   UNL A   1      42.457  27.538  29.325  1.00  0.00     0.167 HD
ATOM     55  C   UNL A   1      43.827  31.480  30.692  1.00  0.00     0.037 A 
ATOM     56  C   UNL A   1      42.855  24.949  28.339  1.00  0.00     0.037 A 
ATOM     57  C   UNL A   1      44.990  30.633  30.733  1.00  0.00     0.049 A 
ATOM     58  C   UNL A   1      44.204  25.429  28.805  1.00  0.00     0.074 A 
ATOM     59  C   UNL A   1      46.259  30.939  31.196  1.00  0.00     0.029 A 
ATOM     60  N   UNL A   1      45.029  29.318  30.297  1.00  0.00    -0.354 N 
ATOM     61  N   UNL A   1      44.535  26.600  29.296  1.00  0.00    -0.248 NA
ATOM     62  C   UNL A   1      45.323  24.481  28.704  1.00  0.00     0.031 C 
ATOM     63  C   UNL A   1      47.075  29.820  31.002  1.00  0.00     0.029 A 
ATOM     64  C   UNL A   1      46.304  28.804  30.461  1.00  0.00     0.049 A 
ATOM     65  H   UNL A   1      44.264  28.823  29.925  1.00  0.00     0.167 HD
ATOM     66  C   UNL A   1      45.892  26.518  29.591  1.00  0.00     0.074 A 
ATOM     67  C   UNL A   1      46.320  25.184  29.228  1.00  0.00     0.031 C 
ATOM     68  C   UNL A   1      46.708  27.464  30.116  1.00  0.00     0.037 A 
BRANCH  55  69
ATOM     69  C   UNL A   1      43.981  32.912  31.121  1.00  0.00     0.058 A 
ATOM     70  C   UNL A   1      44.327  33.922  30.211  1.00  0.00     0.135 A 
ATOM     71  C   UNL A   1      43.718  33.288  32.449  1.00  0.00     0.135 A 
ATOM     72  F   UNL A   1      44.604  33.616  28.933  1.00  0.00    -0.206 F 
ATOM     73  C   UNL A   1      44.426  35.253  30.606  1.00  0.00     0.059 A 
ATOM     74  C   UNL A   1      43.786  34.616  32.859  1.00  0.00     0.059 A 
ATOM     75  F   UNL A   1      43.385  32.361  33.360  1.00  0.00    -0.206 F 
ATOM     76  C   UNL A   1      44.152  35.590  31.931  1.00  0.00     0.060 A 
BRANCH  76  77
ATOM     77  S   UNL A   1      44.262  37.323  32.421  1.00  0.00     0.124 S 
ATOM     78  O   UNL A   1      45.664  37.426  32.812  1.00  0.00    -0.237 OA
ATOM     79  O   UNL A   1      43.895  38.019  31.191  1.00  0.00    -0.237 OA
ATOM     80  O   UNL A   1      43.298  37.432  33.511  1.00  0.00    -0.744 OA
ENDBRANCH  76  77
ENDBRANCH  55  69
BRANCH  56  81
ATOM     81  C   UNL A   1      42.692  23.590  27.758  1.00  0.00     0.058 A 
ATOM     82  C   UNL A   1      42.753  23.382  26.372  1.00  0.00     0.135 A 
ATOM     83  C   UNL A   1      42.473  22.471  28.576  1.00  0.00     0.135 A 
ATOM     84  F   UNL A   1      42.954  24.422  25.548  1.00  0.00    -0.206 F 
ATOM     85  C   UNL A   1      42.583  22.118  25.815  1.00  0.00     0.059 A 
ATOM     86  C   UNL A   1      42.325  21.193  28.045  1.00  0.00     0.059 A 
ATOM     87  F   UNL A   1      42.424  22.612  29.910  1.00  0.00    -0.206 F 
ATOM     88  C   UNL A   1      42.368  21.030  26.661  1.00  0.00     0.060 A 
BRANCH  88  89
ATOM     89  S   UNL A   1      42.185  19.386  25.934  1.00  0.00     0.124 S 
ATOM     90  O   UNL A   1      42.689  18.534  27.006  1.00  0.00    -0.237 OA
ATOM     91  O   UNL A   1      40.749  19.318  25.683  1.00  0.00    -0.237 OA
ATOM     92  O   UNL A   1      43.020  19.457  24.737  1.00  0.00    -0.744 OA
ENDBRANCH  88  89
ENDBRANCH  56  81
BRANCH  68  93
ATOM     93  C   UNL A   1      48.138  27.088  30.377  1.00  0.00     0.058 A 
ATOM     94  C   UNL A   1      49.149  27.335  29.437  1.00  0.00     0.135 A 
ATOM     95  C   UNL A   1      48.514  26.559  31.623  1.00  0.00     0.135 A 
ATOM     96  F   UNL A   1      48.841  27.832  28.229  1.00  0.00    -0.206 F 
ATOM     97  C   UNL A   1      50.484  27.068  29.721  1.00  0.00     0.059 A 
ATOM     98  C   UNL A   1      49.844  26.308  31.938  1.00  0.00     0.059 A 
ATOM     99  F   UNL A   1      47.584  26.313  32.560  1.00  0.00    -0.206 F 
ATOM    100  C   UNL A   1      50.823  26.562  30.978  1.00  0.00     0.060 A 
BRANCH 100 101
ATOM    101  S   UNL A   1      52.565  26.287  31.360  1.00  0.00     0.124 S 
ATOM    102  O   UNL A   1      52.868  27.440  32.201  1.00  0.00    -0.237 OA
ATOM    103  O   UNL A   1      52.536  24.995  32.042  1.00  0.00    -0.237 OA
ATOM    104  O   UNL A   1      53.205  26.281  30.048  1.00  0.00    -0.744 OA
ENDBRANCH 100 101
ENDBRANCH  68  93
ENDBRANCH  42  43
ENDBRANCH  34  37
ENDBRANCH  32  33
ENDBRANCH  31  32
ENDBRANCH   1  31
TORSDOF 19
ENDMDL
MODEL 3
REMARK VINA RESULT:     -11.4      0.749      7.932
REMARK SMILES Cc1cc(N2N=C(C(=O)NCCCCCCNC(=O)c3ccc(-c4c5nc(c(-c6c(F)cc(S(=O)(=O)[O-])cc6F)c6ccc([nH]6)c(-c6c(F)cc(S(=O)(=O)[O-])cc6F)c6nc(c(-c7c(F)cc(S(=O)(=O)[O-])cc7F)c7ccc4[nH]7)C=C6)C=C5)cc3)C[C@H]2c2ccccc2)c([N+](=O)[O-])cc1C
REMARK SMILES IDX 14 1 13 2 12 3 11 4 10 5 8 6 9 7 7 9 5 10 6 11 87 12 86 13
REMARK SMILES IDX 4 14 1 15 2 16 3 17 99 18 98 19 100 20 94 21 95 22 96 23
REMARK SMILES IDX 97 24 88 25 89 26 93 27 90 28 92 29 91 30 15 31 16 32 17 33
REMARK SMILES IDX 18 34 19 36 20 37 21 38 85 39 22 40 84 41 23 42 24 43 25 44
REMARK SMILES IDX 78 45 26 46 83 47 77 48 79 49 27 50 82 51 76 52 75 53 28 55
REMARK SMILES IDX 62 56 41 57 61 58 42 59 45 60 60 61 80 62 43 63 44 64 59 66
REMARK SMILES IDX 81 67 46 68 29 69 30 70 39 71 31 72 32 73 38 74 40 75 33 76
REMARK SMILES IDX 34 77 35 78 36 79 37 80 63 81 64 82 73 83 65 84 66 85 72 86
REMARK SMILES IDX 74 87 67 88 68 89 69 90 70 91 71 92 47 93 48 94 57 95 49 96
REMARK SMILES IDX 50 97 56 98 58 99 51 100 52 101 53 102 54 103 55 104
REMARK H PARENT 10 8 17 35 79 54 45 65
REMARK Flexibility Score: inf
ROOT
ATOM      1  C   UNL A   1      33.324  29.886  27.420  1.00  0.00     0.002 C 
ENDROOT
BRANCH   1   2
ATOM      2  C   UNL A   1      32.550  28.586  27.180  1.00  0.00     0.002 C 
BRANCH   2   3
ATOM      3  C   UNL A   1      32.832  27.882  25.852  1.00  0.00     0.021 C 
BRANCH   3   4
ATOM      4  C   UNL A   1      31.976  26.652  25.573  1.00  0.00     0.116 C 
BRANCH   4   5
ATOM      5  N   UNL A   1      31.721  26.480  24.158  1.00  0.00    -0.351 N 
ATOM      6  C   UNL A   1      32.139  25.572  23.218  1.00  0.00     0.267 C 
ATOM      7  O   UNL A   1      31.738  25.727  22.065  1.00  0.00    -0.268 OA
ATOM      8  H   UNL A   1      31.116  27.164  23.790  1.00  0.00     0.163 HD
BRANCH   6   9
ATOM      9  C   UNL A   1      33.024  24.370  23.520  1.00  0.00     0.128 C 
ATOM     10  N   UNL A   1      33.625  22.530  24.435  1.00  0.00    -0.250 N 
ATOM     11  N   UNL A   1      32.597  23.408  24.286  1.00  0.00    -0.171 NA
ATOM     12  C   UNL A   1      34.819  22.885  23.655  1.00  0.00     0.144 C 
ATOM     13  C   UNL A   1      34.389  24.172  22.950  1.00  0.00     0.096 C 
BRANCH  10  14
ATOM     14  C   UNL A   1      33.349  21.188  24.699  1.00  0.00     0.138 A 
ATOM     15  C   UNL A   1      32.244  18.255  22.523  1.00  0.00     0.045 C 
ATOM     16  C   UNL A   1      32.645  19.017  23.757  1.00  0.00    -0.046 A 
ATOM     17  C   UNL A   1      33.028  20.363  23.610  1.00  0.00     0.039 A 
ATOM     18  C   UNL A   1      32.639  18.442  25.039  1.00  0.00    -0.041 A 
ATOM     19  C   UNL A   1      33.000  19.237  26.138  1.00  0.00     0.091 A 
ATOM     20  C   UNL A   1      32.275  17.005  25.291  1.00  0.00     0.045 C 
ATOM     21  C   UNL A   1      33.338  20.592  25.964  1.00  0.00     0.294 A 
BRANCH  21  22
ATOM     22  N   UNL A   1      33.591  21.371  27.167  1.00  0.00     0.065 N 
ATOM     23  O   UNL A   1      32.627  21.978  27.662  1.00  0.00    -0.258 OA
ATOM     24  O   UNL A   1      34.767  21.480  27.552  1.00  0.00    -0.258 OA
ENDBRANCH  21  22
ENDBRANCH  10  14
BRANCH  12  25
ATOM     25  C   UNL A   1      36.058  22.994  24.536  1.00  0.00    -0.023 A 
ATOM     26  C   UNL A   1      36.296  24.063  25.414  1.00  0.00     0.006 A 
ATOM     27  C   UNL A   1      37.010  21.956  24.492  1.00  0.00     0.006 A 
ATOM     28  C   UNL A   1      37.460  24.113  26.187  1.00  0.00     0.000 A 
ATOM     29  C   UNL A   1      38.151  21.986  25.297  1.00  0.00     0.000 A 
ATOM     30  C   UNL A   1      38.381  23.072  26.134  1.00  0.00     0.000 A 
ENDBRANCH  12  25
ENDBRANCH   6   9
ENDBRANCH   4   5
ENDBRANCH   3   4
ENDBRANCH   2   3
ENDBRANCH   1   2
BRANCH   1  31
ATOM     31  C   UNL A   1      34.829  29.825  27.149  1.00  0.00     0.021 C 
BRANCH  31  32
ATOM     32  C   UNL A   1      35.688  30.716  28.040  1.00  0.00     0.116 C 
BRANCH  32  33
ATOM     33  N   UNL A   1      35.616  30.333  29.441  1.00  0.00    -0.352 N 
ATOM     34  C   UNL A   1      36.594  29.779  30.231  1.00  0.00     0.251 C 
ATOM     35  H   UNL A   1      34.751  30.492  29.881  1.00  0.00     0.163 HD
ATOM     36  O   UNL A   1      36.320  29.364  31.354  1.00  0.00    -0.269 OA
BRANCH  34  37
ATOM     37  C   UNL A   1      37.971  29.665  29.709  1.00  0.00     0.039 A 
ATOM     38  C   UNL A   1      39.041  29.649  30.609  1.00  0.00     0.014 A 
ATOM     39  C   UNL A   1      38.203  29.553  28.336  1.00  0.00     0.014 A 
ATOM     40  C   UNL A   1      40.340  29.450  30.135  1.00  0.00     0.010 A 
ATOM     41  C   UNL A   1      39.489  29.295  27.872  1.00  0.00     0.010 A 
ATOM     42  C   UNL A   1      40.570  29.236  28.767  1.00  0.00    -0.014 A 
BRANCH  42  43
ATOM     43  C   UNL A   1      41.927  28.946  28.234  1.00  0.00     0.031 A 
ATOM     44  C   UNL A   1      42.283  27.542  27.831  1.00  0.00     0.074 A 
ATOM     45  C   UNL A   1      42.863  29.917  28.216  1.00  0.00     0.049 A 
ATOM     46  N   UNL A   1      43.449  27.047  27.509  1.00  0.00    -0.248 NA
ATOM     47  C   UNL A   1      41.187  26.559  27.818  1.00  0.00     0.031 C 
ATOM     48  C   UNL A   1      42.647  31.309  28.619  1.00  0.00     0.029 A 
ATOM     49  N   UNL A   1      44.191  29.874  27.873  1.00  0.00    -0.354 N 
ATOM     50  C   UNL A   1      43.236  25.691  27.289  1.00  0.00     0.074 A 
ATOM     51  C   UNL A   1      41.834  25.436  27.543  1.00  0.00     0.031 C 
ATOM     52  C   UNL A   1      43.804  31.984  28.507  1.00  0.00     0.029 A 
ATOM     53  C   UNL A   1      44.849  31.066  28.066  1.00  0.00     0.049 A 
ATOM     54  H   UNL A   1      44.631  29.066  27.523  1.00  0.00     0.167 HD
ATOM     55  C   UNL A   1      44.127  24.749  26.899  1.00  0.00     0.037 A 
ATOM     56  C   UNL A   1      46.154  31.379  27.930  1.00  0.00     0.037 A 
ATOM     57  C   UNL A   1      45.509  25.021  26.605  1.00  0.00     0.049 A 
ATOM     58  C   UNL A   1      47.122  30.318  27.478  1.00  0.00     0.074 A 
ATOM     59  C   UNL A   1      46.472  24.149  26.127  1.00  0.00     0.029 A 
ATOM     60  N   UNL A   1      46.125  26.253  26.760  1.00  0.00    -0.354 N 
ATOM     61  N   UNL A   1      46.890  29.053  27.215  1.00  0.00    -0.248 NA
ATOM     62  C   UNL A   1      48.525  30.721  27.305  1.00  0.00     0.031 C 
ATOM     63  C   UNL A   1      47.681  24.845  26.031  1.00  0.00     0.029 A 
ATOM     64  C   UNL A   1      47.460  26.161  26.405  1.00  0.00     0.049 A 
ATOM     65  H   UNL A   1      45.679  27.073  27.074  1.00  0.00     0.167 HD
ATOM     66  C   UNL A   1      48.111  28.519  26.816  1.00  0.00     0.074 A 
ATOM     67  C   UNL A   1      49.077  29.596  26.868  1.00  0.00     0.031 C 
ATOM     68  C   UNL A   1      48.403  27.250  26.440  1.00  0.00     0.037 A 
BRANCH  55  69
ATOM     69  C   UNL A   1      43.641  23.334  26.762  1.00  0.00     0.058 A 
ATOM     70  C   UNL A   1      43.397  22.525  27.883  1.00  0.00     0.135 A 
ATOM     71  C   UNL A   1      43.358  22.799  25.494  1.00  0.00     0.135 A 
ATOM     72  F   UNL A   1      43.665  22.981  29.117  1.00  0.00    -0.206 F 
ATOM     73  C   UNL A   1      42.907  21.230  27.751  1.00  0.00     0.059 A 
ATOM     74  C   UNL A   1      42.843  21.515  25.341  1.00  0.00     0.059 A 
ATOM     75  F   UNL A   1      43.575  23.529  24.390  1.00  0.00    -0.206 F 
ATOM     76  C   UNL A   1      42.631  20.734  26.477  1.00  0.00     0.060 A 
BRANCH  76  77
ATOM     77  S   UNL A   1      41.973  19.060  26.325  1.00  0.00     0.124 S 
ATOM     78  O   UNL A   1      42.017  18.605  27.710  1.00  0.00    -0.237 OA
ATOM     79  O   UNL A   1      40.640  19.298  25.778  1.00  0.00    -0.237 OA
ATOM     80  O   UNL A   1      42.912  18.406  25.419  1.00  0.00    -0.744 OA
ENDBRANCH  76  77
ENDBRANCH  55  69
BRANCH  56  81
ATOM     81  C   UNL A   1      46.625  32.758  28.230  1.00  0.00     0.058 A 
ATOM     82  C   UNL A   1      47.113  33.095  29.501  1.00  0.00     0.135 A 
ATOM     83  C   UNL A   1      46.597  33.765  27.253  1.00  0.00     0.135 A 
ATOM     84  F   UNL A   1      47.153  32.168  30.470  1.00  0.00    -0.206 F 
ATOM     85  C   UNL A   1      47.539  34.386  29.801  1.00  0.00     0.059 A 
ATOM     86  C   UNL A   1      47.041  35.057  27.521  1.00  0.00     0.059 A 
ATOM     87  F   UNL A   1      46.156  33.490  26.015  1.00  0.00    -0.206 F 
ATOM     88  C   UNL A   1      47.497  35.360  28.802  1.00  0.00     0.060 A 
BRANCH  88  89
ATOM     89  S   UNL A   1      48.086  37.024  29.187  1.00  0.00     0.124 S 
ATOM     90  O   UNL A   1      46.977  37.844  28.713  1.00  0.00    -0.237 OA
ATOM     91  O   UNL A   1      48.263  36.961  30.634  1.00  0.00    -0.237 OA
ATOM     92  O   UNL A   1      49.323  37.127  28.416  1.00  0.00    -0.744 OA
ENDBRANCH  88  89
ENDBRANCH  56  81
BRANCH  68  93
ATOM     93  C   UNL A   1      49.811  26.955  26.008  1.00  0.00     0.058 A 
ATOM     94  C   UNL A   1      50.221  27.106  24.676  1.00  0.00     0.135 A 
ATOM     95  C   UNL A   1      50.783  26.605  26.960  1.00  0.00     0.135 A 
ATOM     96  F   UNL A   1      49.329  27.430  23.727  1.00  0.00    -0.206 F 
ATOM     97  C   UNL A   1      51.547  26.918  24.300  1.00  0.00     0.059 A 
ATOM     98  C   UNL A   1      52.118  26.437  26.612  1.00  0.00     0.059 A 
ATOM     99  F   UNL A   1      50.442  26.457  28.251  1.00  0.00    -0.206 F 
ATOM    100  C   UNL A   1      52.490  26.592  25.277  1.00  0.00     0.060 A 
BRANCH 100 101
ATOM    101  S   UNL A   1      54.220  26.421  24.789  1.00  0.00     0.124 S 
ATOM    102  O   UNL A   1      54.410  24.977  24.881  1.00  0.00    -0.237 OA
ATOM    103  O   UNL A   1      54.220  26.976  23.438  1.00  0.00    -0.237 OA
ATOM    104  O   UNL A   1      54.935  27.214  25.785  1.00  0.00    -0.744 OA
ENDBRANCH 100 101
ENDBRANCH  68  93
ENDBRANCH  42  43
ENDBRANCH  34  37
ENDBRANCH  32  33
ENDBRANCH  31  32
ENDBRANCH   1  31
TORSDOF 19
ENDMDL
