MODEL 1
REMARK VINA RESULT:     -11.1      0.000      0.000
REMARK SMILES CCc1ccsc1C(=O)c1c[nH]c(C(=O)NCCCCCCNC(=O)c2ccc(-c3c4nc(c(-c5c(F)cc(S(=O)(=O)[O-])cc5F)c5ccc([nH]5)c(-c5c(F)cc(S(=O)(=O)[O-])cc5F)c5nc(c(-c6c(F)cc(S(=O)(=O)[O-])cc6F)c6ccc3[nH]6)C=C5)C=C4)cc2)c1
REMARK SMILES IDX 19 1 18 2 17 3 16 4 14 5 15 6 13 8 10 9 11 10 92 11 12 12
REMARK SMILES IDX 8 14 9 15 7 16 3 17 4 18 5 19 6 20 2 21 1 22 20 23 21 24
REMARK SMILES IDX 22 25 23 26 24 27 25 29 26 30 27 31 91 32 28 33 90 34 29 35
REMARK SMILES IDX 30 36 31 37 84 38 32 39 89 40 83 41 85 42 33 43 88 44 82 45
REMARK SMILES IDX 81 46 34 48 68 49 47 50 67 51 48 52 51 53 66 54 86 55 49 56
REMARK SMILES IDX 50 57 65 59 87 60 52 61 35 62 36 63 45 64 37 65 38 66 44 67
REMARK SMILES IDX 46 68 39 69 40 70 41 71 42 72 43 73 69 74 70 75 79 76 71 77
REMARK SMILES IDX 72 78 78 79 80 80 73 81 74 82 75 83 76 84 77 85 53 86 54 87
REMARK SMILES IDX 63 88 55 89 56 90 62 91 64 92 57 93 58 94 59 95 60 96 61 97
REMARK H PARENT 16 7 12 13 23 28 85 47 51 58
REMARK Flexibility Score: inf
ROOT
ATOM      1  C   UNL A   1      52.025  23.515  32.589  1.00  0.00     0.002 C 
ENDROOT
BRANCH   1   2
ATOM      2  C   UNL A   1      53.243  22.633  32.877  1.00  0.00     0.021 C 
BRANCH   2   3
ATOM      3  C   UNL A   1      52.998  21.158  32.571  1.00  0.00     0.116 C 
BRANCH   3   4
ATOM      4  N   UNL A   1      53.854  20.305  33.362  1.00  0.00    -0.351 N 
ATOM      5  C   UNL A   1      53.666  19.657  34.549  1.00  0.00     0.267 C 
ATOM      6  O   UNL A   1      54.585  18.927  34.929  1.00  0.00    -0.268 OA
ATOM      7  H   UNL A   1      54.746  20.163  32.968  1.00  0.00     0.163 HD
BRANCH   5   8
ATOM      8  C   UNL A   1      52.454  19.782  35.331  1.00  0.00     0.105 A 
ATOM      9  C   UNL A   1      50.534  20.302  36.461  1.00  0.00     0.042 A 
ATOM     10  C   UNL A   1      50.923  19.032  36.832  1.00  0.00     0.095 A 
ATOM     11  C   UNL A   1      51.482  20.752  35.502  1.00  0.00     0.045 A 
ATOM     12  N   UNL A   1      52.094  18.750  36.184  1.00  0.00    -0.356 N 
ATOM     13  H   UNL A   1      52.614  17.923  36.307  1.00  0.00     0.166 HD
BRANCH   9  14
ATOM     14  C   UNL A   1      49.369  21.044  36.922  1.00  0.00     0.204 C 
ATOM     15  O   UNL A   1      49.534  22.138  37.447  1.00  0.00    -0.288 OA
BRANCH  14  16
ATOM     16  C   UNL A   1      48.073  20.366  36.770  1.00  0.00     0.078 A 
ATOM     17  C   UNL A   1      47.230  20.118  35.676  1.00  0.00    -0.026 A 
ATOM     18  C   UNL A   1      46.050  19.405  36.099  1.00  0.00     0.016 A 
ATOM     19  C   UNL A   1      46.041  19.103  37.437  1.00  0.00     0.066 A 
ATOM     20  S   UNL A   1      47.418  19.696  38.226  1.00  0.00    -0.140 S 
BRANCH  17  21
ATOM     21  C   UNL A   1      47.475  20.528  34.240  1.00  0.00     0.034 C 
ATOM     22  C   UNL A   1      48.434  19.663  33.438  1.00  0.00     0.009 C 
ENDBRANCH  17  21
ENDBRANCH  14  16
ENDBRANCH   9  14
ENDBRANCH   5   8
ENDBRANCH   3   4
ENDBRANCH   2   3
ENDBRANCH   1   2
BRANCH   1  23
ATOM     23  C   UNL A   1      51.599  24.415  33.758  1.00  0.00     0.002 C 
BRANCH  23  24
ATOM     24  C   UNL A   1      50.221  25.078  33.596  1.00  0.00     0.021 C 
BRANCH  24  25
ATOM     25  C   UNL A   1      49.110  24.293  34.281  1.00  0.00     0.116 C 
BRANCH  25  26
ATOM     26  N   UNL A   1      48.688  24.999  35.479  1.00  0.00    -0.352 N 
ATOM     27  C   UNL A   1      47.771  26.000  35.620  1.00  0.00     0.251 C 
ATOM     28  H   UNL A   1      49.129  24.713  36.312  1.00  0.00     0.163 HD
ATOM     29  O   UNL A   1      47.839  26.746  36.592  1.00  0.00    -0.269 OA
BRANCH  27  30
ATOM     30  C   UNL A   1      46.694  26.174  34.632  1.00  0.00     0.039 A 
ATOM     31  C   UNL A   1      46.847  27.166  33.657  1.00  0.00     0.014 A 
ATOM     32  C   UNL A   1      45.500  25.452  34.744  1.00  0.00     0.014 A 
ATOM     33  C   UNL A   1      45.809  27.421  32.774  1.00  0.00     0.010 A 
ATOM     34  C   UNL A   1      44.475  25.677  33.843  1.00  0.00     0.010 A 
ATOM     35  C   UNL A   1      44.634  26.663  32.867  1.00  0.00    -0.014 A 
BRANCH  35  36
ATOM     36  C   UNL A   1      43.605  26.788  31.823  1.00  0.00     0.031 A 
ATOM     37  C   UNL A   1      42.477  27.770  32.296  1.00  0.00     0.074 A 
ATOM     38  C   UNL A   1      43.862  26.059  30.685  1.00  0.00     0.049 A 
ATOM     39  N   UNL A   1      41.282  27.968  31.835  1.00  0.00    -0.248 NA
ATOM     40  C   UNL A   1      42.704  28.649  33.490  1.00  0.00     0.031 C 
ATOM     41  C   UNL A   1      45.079  25.230  30.443  1.00  0.00     0.029 A 
ATOM     42  N   UNL A   1      43.195  25.860  29.497  1.00  0.00    -0.354 N 
ATOM     43  C   UNL A   1      40.724  29.102  32.490  1.00  0.00     0.074 A 
ATOM     44  C   UNL A   1      41.610  29.415  33.565  1.00  0.00     0.031 C 
ATOM     45  C   UNL A   1      44.999  24.557  29.270  1.00  0.00     0.029 A 
ATOM     46  C   UNL A   1      43.754  24.888  28.609  1.00  0.00     0.049 A 
ATOM     47  H   UNL A   1      42.377  26.358  29.272  1.00  0.00     0.167 HD
ATOM     48  C   UNL A   1      39.613  29.758  32.027  1.00  0.00     0.037 A 
ATOM     49  C   UNL A   1      43.211  24.373  27.454  1.00  0.00     0.037 A 
ATOM     50  C   UNL A   1      39.125  29.074  30.878  1.00  0.00     0.049 A 
ATOM     51  C   UNL A   1      42.043  25.230  27.229  1.00  0.00     0.074 A 
ATOM     52  C   UNL A   1      38.454  27.885  30.779  1.00  0.00     0.029 A 
ATOM     53  N   UNL A   1      39.698  29.389  29.668  1.00  0.00    -0.354 N 
ATOM     54  N   UNL A   1      42.112  26.469  26.846  1.00  0.00    -0.248 NA
ATOM     55  C   UNL A   1      40.718  24.717  27.587  1.00  0.00     0.031 C 
ATOM     56  C   UNL A   1      39.107  27.264  29.702  1.00  0.00     0.029 A 
ATOM     57  C   UNL A   1      39.871  28.204  28.997  1.00  0.00     0.049 A 
ATOM     58  H   UNL A   1      39.936  30.289  29.347  1.00  0.00     0.167 HD
ATOM     59  C   UNL A   1      40.905  26.965  27.259  1.00  0.00     0.074 A 
ATOM     60  C   UNL A   1      40.013  25.828  27.394  1.00  0.00     0.031 C 
ATOM     61  C   UNL A   1      40.856  28.136  27.946  1.00  0.00     0.037 A 
BRANCH  48  62
ATOM     62  C   UNL A   1      38.921  31.059  32.352  1.00  0.00     0.058 A 
ATOM     63  C   UNL A   1      37.951  31.052  33.390  1.00  0.00     0.135 A 
ATOM     64  C   UNL A   1      38.888  32.165  31.493  1.00  0.00     0.135 A 
ATOM     65  F   UNL A   1      37.951  30.085  34.325  1.00  0.00    -0.206 F 
ATOM     66  C   UNL A   1      36.917  31.978  33.469  1.00  0.00     0.059 A 
ATOM     67  C   UNL A   1      37.878  33.137  31.581  1.00  0.00     0.059 A 
ATOM     68  F   UNL A   1      39.785  32.287  30.504  1.00  0.00    -0.206 F 
ATOM     69  C   UNL A   1      36.865  33.000  32.534  1.00  0.00     0.060 A 
BRANCH  69  70
ATOM     70  S   UNL A   1      35.437  34.108  32.578  1.00  0.00     0.124 S 
ATOM     71  O   UNL A   1      35.116  34.242  31.161  1.00  0.00    -0.237 OA
ATOM     72  O   UNL A   1      34.478  33.343  33.370  1.00  0.00    -0.237 OA
ATOM     73  O   UNL A   1      35.959  35.307  33.224  1.00  0.00    -0.744 OA
ENDBRANCH  69  70
ENDBRANCH  48  62
BRANCH  49  74
ATOM     74  C   UNL A   1      43.360  23.214  26.476  1.00  0.00     0.058 A 
ATOM     75  C   UNL A   1      44.017  23.236  25.239  1.00  0.00     0.135 A 
ATOM     76  C   UNL A   1      42.964  21.903  26.891  1.00  0.00     0.135 A 
ATOM     77  F   UNL A   1      44.318  24.398  24.646  1.00  0.00    -0.206 F 
ATOM     78  C   UNL A   1      44.411  22.049  24.575  1.00  0.00     0.059 A 
ATOM     79  C   UNL A   1      43.394  20.722  26.292  1.00  0.00     0.059 A 
ATOM     80  F   UNL A   1      42.168  21.709  27.952  1.00  0.00    -0.206 F 
ATOM     81  C   UNL A   1      44.161  20.800  25.150  1.00  0.00     0.060 A 
BRANCH  81  82
ATOM     82  S   UNL A   1      44.945  19.297  24.513  1.00  0.00     0.124 S 
ATOM     83  O   UNL A   1      46.339  19.488  24.898  1.00  0.00    -0.237 OA
ATOM     84  O   UNL A   1      44.225  18.247  25.224  1.00  0.00    -0.237 OA
ATOM     85  O   UNL A   1      44.677  19.358  23.078  1.00  0.00    -0.744 OA
ENDBRANCH  81  82
ENDBRANCH  49  74
BRANCH  61  86
ATOM     86  C   UNL A   1      42.045  29.070  27.736  1.00  0.00     0.058 A 
ATOM     87  C   UNL A   1      42.352  29.517  26.440  1.00  0.00     0.135 A 
ATOM     88  C   UNL A   1      42.939  29.486  28.743  1.00  0.00     0.135 A 
ATOM     89  F   UNL A   1      41.553  29.187  25.413  1.00  0.00    -0.206 F 
ATOM     90  C   UNL A   1      43.467  30.317  26.159  1.00  0.00     0.059 A 
ATOM     91  C   UNL A   1      44.059  30.292  28.494  1.00  0.00     0.059 A 
ATOM     92  F   UNL A   1      42.756  29.123  30.012  1.00  0.00    -0.206 F 
ATOM     93  C   UNL A   1      44.314  30.708  27.194  1.00  0.00     0.060 A 
BRANCH  93  94
ATOM     94  S   UNL A   1      45.707  31.799  26.820  1.00  0.00     0.124 S 
ATOM     95  O   UNL A   1      46.842  30.883  26.846  1.00  0.00    -0.237 OA
ATOM     96  O   UNL A   1      45.344  32.318  25.505  1.00  0.00    -0.237 OA
ATOM     97  O   UNL A   1      45.680  32.781  27.902  1.00  0.00    -0.744 OA
ENDBRANCH  93  94
ENDBRANCH  61  86
ENDBRANCH  35  36
ENDBRANCH  27  30
ENDBRANCH  25  26
ENDBRANCH  24  25
ENDBRANCH  23  24
ENDBRANCH   1  23
TORSDOF 19
ENDMDL
MODEL 2
REMARK VINA RESULT:     -10.9      5.706     12.324
REMARK SMILES CCc1ccsc1C(=O)c1c[nH]c(C(=O)NCCCCCCNC(=O)c2ccc(-c3c4nc(c(-c5c(F)cc(S(=O)(=O)[O-])cc5F)c5ccc([nH]5)c(-c5c(F)cc(S(=O)(=O)[O-])cc5F)c5nc(c(-c6c(F)cc(S(=O)(=O)[O-])cc6F)c6ccc3[nH]6)C=C5)C=C4)cc2)c1
REMARK SMILES IDX 19 1 18 2 17 3 16 4 14 5 15 6 13 8 10 9 11 10 92 11 12 12
REMARK SMILES IDX 8 14 9 15 7 16 3 17 4 18 5 19 6 20 2 21 1 22 20 23 21 24
REMARK SMILES IDX 22 25 23 26 24 27 25 29 26 30 27 31 91 32 28 33 90 34 29 35
REMARK SMILES IDX 30 36 31 37 84 38 32 39 89 40 83 41 85 42 33 43 88 44 82 45
REMARK SMILES IDX 81 46 34 48 68 49 47 50 67 51 48 52 51 53 66 54 86 55 49 56
REMARK SMILES IDX 50 57 65 59 87 60 52 61 35 62 36 63 45 64 37 65 38 66 44 67
REMARK SMILES IDX 46 68 39 69 40 70 41 71 42 72 43 73 69 74 70 75 79 76 71 77
REMARK SMILES IDX 72 78 78 79 80 80 73 81 74 82 75 83 76 84 77 85 53 86 54 87
REMARK SMILES IDX 63 88 55 89 56 90 62 91 64 92 57 93 58 94 59 95 60 96 61 97
REMARK H PARENT 16 7 12 13 23 28 85 47 51 58
REMARK Flexibility Score: inf
ROOT
ATOM      1  C   UNL A   1      36.961  21.333  25.240  1.00  0.00     0.002 C 
ENDROOT
BRANCH   1   2
ATOM      2  C   UNL A   1      35.616  22.036  25.445  1.00  0.00     0.021 C 
BRANCH   2   3
ATOM      3  C   UNL A   1      34.798  21.439  26.586  1.00  0.00     0.116 C 
BRANCH   3   4
ATOM      4  N   UNL A   1      33.750  20.577  26.089  1.00  0.00    -0.351 N 
ATOM      5  C   UNL A   1      32.532  20.838  25.528  1.00  0.00     0.267 C 
ATOM      6  O   UNL A   1      31.891  19.864  25.129  1.00  0.00    -0.268 OA
ATOM      7  H   UNL A   1      33.952  19.617  26.171  1.00  0.00     0.163 HD
BRANCH   5   8
ATOM      8  C   UNL A   1      32.006  22.179  25.375  1.00  0.00     0.105 A 
ATOM      9  C   UNL A   1      30.990  24.228  25.408  1.00  0.00     0.042 A 
ATOM     10  C   UNL A   1      31.730  24.132  24.248  1.00  0.00     0.095 A 
ATOM     11  C   UNL A   1      31.191  23.013  26.120  1.00  0.00     0.045 A 
ATOM     12  N   UNL A   1      32.296  22.887  24.219  1.00  0.00    -0.356 N 
ATOM     13  H   UNL A   1      32.839  22.540  23.475  1.00  0.00     0.166 HD
BRANCH   9  14
ATOM     14  C   UNL A   1      30.181  25.353  25.855  1.00  0.00     0.204 C 
ATOM     15  O   UNL A   1      29.295  25.155  26.677  1.00  0.00    -0.288 OA
BRANCH  14  16
ATOM     16  C   UNL A   1      30.466  26.646  25.213  1.00  0.00     0.078 A 
ATOM     17  C   UNL A   1      31.370  27.684  25.482  1.00  0.00    -0.026 A 
ATOM     18  C   UNL A   1      31.216  28.748  24.522  1.00  0.00     0.016 A 
ATOM     19  C   UNL A   1      30.270  28.491  23.563  1.00  0.00     0.066 A 
ATOM     20  S   UNL A   1      29.517  26.993  23.807  1.00  0.00    -0.140 S 
BRANCH  17  21
ATOM     21  C   UNL A   1      32.377  27.730  26.612  1.00  0.00     0.034 C 
ATOM     22  C   UNL A   1      33.843  27.798  26.216  1.00  0.00     0.009 C 
ENDBRANCH  17  21
ENDBRANCH  14  16
ENDBRANCH   9  14
ENDBRANCH   5   8
ENDBRANCH   3   4
ENDBRANCH   2   3
ENDBRANCH   1   2
BRANCH   1  23
ATOM     23  C   UNL A   1      36.851  19.852  24.849  1.00  0.00     0.002 C 
BRANCH  23  24
ATOM     24  C   UNL A   1      38.149  19.042  25.010  1.00  0.00     0.021 C 
BRANCH  24  25
ATOM     25  C   UNL A   1      39.264  19.848  25.663  1.00  0.00     0.116 C 
BRANCH  25  26
ATOM     26  N   UNL A   1      40.370  18.965  25.990  1.00  0.00    -0.352 N 
ATOM     27  C   UNL A   1      41.700  19.247  26.117  1.00  0.00     0.251 C 
ATOM     28  H   UNL A   1      40.125  18.023  26.143  1.00  0.00     0.163 HD
ATOM     29  O   UNL A   1      42.522  18.346  25.984  1.00  0.00    -0.269 OA
BRANCH  27  30
ATOM     30  C   UNL A   1      42.149  20.613  26.433  1.00  0.00     0.039 A 
ATOM     31  C   UNL A   1      42.598  21.420  25.382  1.00  0.00     0.014 A 
ATOM     32  C   UNL A   1      42.240  21.043  27.761  1.00  0.00     0.014 A 
ATOM     33  C   UNL A   1      43.119  22.674  25.659  1.00  0.00     0.010 A 
ATOM     34  C   UNL A   1      42.726  22.307  28.042  1.00  0.00     0.010 A 
ATOM     35  C   UNL A   1      43.167  23.113  26.989  1.00  0.00    -0.014 A 
BRANCH  35  36
ATOM     36  C   UNL A   1      43.536  24.507  27.280  1.00  0.00     0.031 A 
ATOM     37  C   UNL A   1      42.244  25.363  27.527  1.00  0.00     0.074 A 
ATOM     38  C   UNL A   1      44.890  24.742  27.296  1.00  0.00     0.049 A 
ATOM     39  N   UNL A   1      42.075  26.648  27.551  1.00  0.00    -0.248 NA
ATOM     40  C   UNL A   1      40.928  24.681  27.754  1.00  0.00     0.031 C 
ATOM     41  C   UNL A   1      45.952  23.714  27.091  1.00  0.00     0.029 A 
ATOM     42  N   UNL A   1      45.672  25.858  27.496  1.00  0.00    -0.354 N 
ATOM     43  C   UNL A   1      40.756  26.924  28.009  1.00  0.00     0.074 A 
ATOM     44  C   UNL A   1      40.070  25.671  28.022  1.00  0.00     0.031 C 
ATOM     45  C   UNL A   1      47.188  24.269  27.069  1.00  0.00     0.029 A 
ATOM     46  C   UNL A   1      47.078  25.696  27.283  1.00  0.00     0.049 A 
ATOM     47  H   UNL A   1      45.285  26.721  27.769  1.00  0.00     0.167 HD
ATOM     48  C   UNL A   1      40.360  28.165  28.438  1.00  0.00     0.037 A 
ATOM     49  C   UNL A   1      48.053  26.666  27.244  1.00  0.00     0.037 A 
ATOM     50  C   UNL A   1      41.445  29.071  28.273  1.00  0.00     0.049 A 
ATOM     51  C   UNL A   1      47.347  27.863  27.709  1.00  0.00     0.074 A 
ATOM     52  C   UNL A   1      41.956  29.637  27.135  1.00  0.00     0.029 A 
ATOM     53  N   UNL A   1      42.379  29.126  29.281  1.00  0.00    -0.354 N 
ATOM     54  N   UNL A   1      46.967  28.055  28.935  1.00  0.00    -0.248 NA
ATOM     55  C   UNL A   1      46.911  28.850  26.716  1.00  0.00     0.031 C 
ATOM     56  C   UNL A   1      43.339  29.499  27.331  1.00  0.00     0.029 A 
ATOM     57  C   UNL A   1      43.607  29.196  28.673  1.00  0.00     0.049 A 
ATOM     58  H   UNL A   1      42.200  29.116  30.249  1.00  0.00     0.167 HD
ATOM     59  C   UNL A   1      45.966  28.977  28.787  1.00  0.00     0.074 A 
ATOM     60  C   UNL A   1      46.196  29.637  27.515  1.00  0.00     0.031 C 
ATOM     61  C   UNL A   1      44.776  28.787  29.413  1.00  0.00     0.037 A 
BRANCH  48  62
ATOM     62  C   UNL A   1      39.152  28.719  29.151  1.00  0.00     0.058 A 
ATOM     63  C   UNL A   1      38.372  29.694  28.472  1.00  0.00     0.135 A 
ATOM     64  C   UNL A   1      38.947  28.629  30.534  1.00  0.00     0.135 A 
ATOM     65  F   UNL A   1      38.422  29.805  27.133  1.00  0.00    -0.206 F 
ATOM     66  C   UNL A   1      37.580  30.627  29.132  1.00  0.00     0.059 A 
ATOM     67  C   UNL A   1      38.116  29.533  31.217  1.00  0.00     0.059 A 
ATOM     68  F   UNL A   1      39.605  27.715  31.262  1.00  0.00    -0.206 F 
ATOM     69  C   UNL A   1      37.487  30.563  30.514  1.00  0.00     0.060 A 
BRANCH  69  70
ATOM     70  S   UNL A   1      36.560  31.867  31.355  1.00  0.00     0.124 S 
ATOM     71  O   UNL A   1      35.358  31.959  30.533  1.00  0.00    -0.237 OA
ATOM     72  O   UNL A   1      36.368  31.300  32.687  1.00  0.00    -0.237 OA
ATOM     73  O   UNL A   1      37.457  33.016  31.292  1.00  0.00    -0.744 OA
ENDBRANCH  69  70
ENDBRANCH  48  62
BRANCH  49  74
ATOM     74  C   UNL A   1      49.491  26.898  26.796  1.00  0.00     0.058 A 
ATOM     75  C   UNL A   1      50.597  27.155  27.617  1.00  0.00     0.135 A 
ATOM     76  C   UNL A   1      49.836  26.664  25.427  1.00  0.00     0.135 A 
ATOM     77  F   UNL A   1      50.429  27.538  28.888  1.00  0.00    -0.206 F 
ATOM     78  C   UNL A   1      51.928  27.002  27.157  1.00  0.00     0.059 A 
ATOM     79  C   UNL A   1      51.132  26.446  24.966  1.00  0.00     0.059 A 
ATOM     80  F   UNL A   1      48.903  26.583  24.468  1.00  0.00    -0.206 F 
ATOM     81  C   UNL A   1      52.180  26.573  25.851  1.00  0.00     0.060 A 
BRANCH  81  82
ATOM     82  S   UNL A   1      53.833  26.039  25.339  1.00  0.00     0.124 S 
ATOM     83  O   UNL A   1      54.346  27.224  24.663  1.00  0.00    -0.237 OA
ATOM     84  O   UNL A   1      54.460  25.710  26.615  1.00  0.00    -0.237 OA
ATOM     85  O   UNL A   1      53.565  24.890  24.477  1.00  0.00    -0.744 OA
ENDBRANCH  81  82
ENDBRANCH  49  74
BRANCH  61  86
ATOM     86  C   UNL A   1      44.817  27.883  30.642  1.00  0.00     0.058 A 
ATOM     87  C   UNL A   1      45.567  28.275  31.764  1.00  0.00     0.135 A 
ATOM     88  C   UNL A   1      44.212  26.614  30.738  1.00  0.00     0.135 A 
ATOM     89  F   UNL A   1      46.172  29.474  31.776  1.00  0.00    -0.206 F 
ATOM     90  C   UNL A   1      45.710  27.468  32.899  1.00  0.00     0.059 A 
ATOM     91  C   UNL A   1      44.331  25.787  31.864  1.00  0.00     0.059 A 
ATOM     92  F   UNL A   1      43.477  26.130  29.737  1.00  0.00    -0.206 F 
ATOM     93  C   UNL A   1      45.083  26.225  32.946  1.00  0.00     0.060 A 
BRANCH  93  94
ATOM     94  S   UNL A   1      45.222  25.230  34.450  1.00  0.00     0.124 S 
ATOM     95  O   UNL A   1      43.829  25.064  34.849  1.00  0.00    -0.237 OA
ATOM     96  O   UNL A   1      45.886  24.026  33.958  1.00  0.00    -0.237 OA
ATOM     97  O   UNL A   1      46.028  26.060  35.343  1.00  0.00    -0.744 OA
ENDBRANCH  93  94
ENDBRANCH  61  86
ENDBRANCH  35  36
ENDBRANCH  27  30
ENDBRANCH  25  26
ENDBRANCH  24  25
ENDBRANCH  23  24
ENDBRANCH   1  23
TORSDOF 19
ENDMDL
MODEL 3
REMARK VINA RESULT:     -10.5      5.812     12.821
REMARK SMILES CCc1ccsc1C(=O)c1c[nH]c(C(=O)NCCCCCCNC(=O)c2ccc(-c3c4nc(c(-c5c(F)cc(S(=O)(=O)[O-])cc5F)c5ccc([nH]5)c(-c5c(F)cc(S(=O)(=O)[O-])cc5F)c5nc(c(-c6c(F)cc(S(=O)(=O)[O-])cc6F)c6ccc3[nH]6)C=C5)C=C4)cc2)c1
REMARK SMILES IDX 19 1 18 2 17 3 16 4 14 5 15 6 13 8 10 9 11 10 92 11 12 12
REMARK SMILES IDX 8 14 9 15 7 16 3 17 4 18 5 19 6 20 2 21 1 22 20 23 21 24
REMARK SMILES IDX 22 25 23 26 24 27 25 29 26 30 27 31 91 32 28 33 90 34 29 35
REMARK SMILES IDX 30 36 31 37 84 38 32 39 89 40 83 41 85 42 33 43 88 44 82 45
REMARK SMILES IDX 81 46 34 48 68 49 47 50 67 51 48 52 51 53 66 54 86 55 49 56
REMARK SMILES IDX 50 57 65 59 87 60 52 61 35 62 36 63 45 64 37 65 38 66 44 67
REMARK SMILES IDX 46 68 39 69 40 70 41 71 42 72 43 73 69 74 70 75 79 76 71 77
REMARK SMILES IDX 72 78 78 79 80 80 73 81 74 82 75 83 76 84 77 85 53 86 54 87
REMARK SMILES IDX 63 88 55 89 56 90 62 91 64 92 57 93 58 94 59 95 60 96 61 97
REMARK H PARENT 16 7 12 13 23 28 85 47 51 58
REMARK Flexibility Score: inf
ROOT
ATOM      1  C   UNL A   1      34.262  22.013  24.128  1.00  0.00     0.002 C 
ENDROOT
BRANCH   1   2
ATOM      2  C   UNL A   1      33.680  21.064  25.178  1.00  0.00     0.021 C 
BRANCH   2   3
ATOM      3  C   UNL A   1      32.162  20.941  25.095  1.00  0.00     0.116 C 
BRANCH   3   4
ATOM      4  N   UNL A   1      31.515  21.655  26.172  1.00  0.00    -0.351 N 
ATOM      5  C   UNL A   1      31.084  22.945  26.294  1.00  0.00     0.267 C 
ATOM      6  O   UNL A   1      30.487  23.229  27.335  1.00  0.00    -0.268 OA
ATOM      7  H   UNL A   1      31.352  21.104  26.972  1.00  0.00     0.163 HD
BRANCH   5   8
ATOM      8  C   UNL A   1      31.283  23.943  25.264  1.00  0.00     0.105 A 
ATOM      9  C   UNL A   1      31.794  25.678  23.863  1.00  0.00     0.042 A 
ATOM     10  C   UNL A   1      30.831  24.900  23.254  1.00  0.00     0.095 A 
ATOM     11  C   UNL A   1      32.090  25.056  25.107  1.00  0.00     0.045 A 
ATOM     12  N   UNL A   1      30.503  23.893  24.119  1.00  0.00    -0.356 N 
ATOM     13  H   UNL A   1      29.805  23.220  23.951  1.00  0.00     0.166 HD
BRANCH   9  14
ATOM     14  C   UNL A   1      32.423  26.883  23.342  1.00  0.00     0.204 C 
ATOM     15  O   UNL A   1      33.128  26.799  22.344  1.00  0.00    -0.288 OA
BRANCH  14  16
ATOM     16  C   UNL A   1      32.201  28.112  24.119  1.00  0.00     0.078 A 
ATOM     17  C   UNL A   1      31.136  29.021  24.215  1.00  0.00    -0.026 A 
ATOM     18  C   UNL A   1      31.457  30.078  25.140  1.00  0.00     0.016 A 
ATOM     19  C   UNL A   1      32.685  29.936  25.733  1.00  0.00     0.066 A 
ATOM     20  S   UNL A   1      33.500  28.561  25.172  1.00  0.00    -0.140 S 
BRANCH  17  21
ATOM     21  C   UNL A   1      29.822  28.949  23.467  1.00  0.00     0.034 C 
ATOM     22  C   UNL A   1      29.758  29.670  22.129  1.00  0.00     0.009 C 
ENDBRANCH  17  21
ENDBRANCH  14  16
ENDBRANCH   9  14
ENDBRANCH   5   8
ENDBRANCH   3   4
ENDBRANCH   2   3
ENDBRANCH   1   2
BRANCH   1  23
ATOM     23  C   UNL A   1      35.781  22.222  24.230  1.00  0.00     0.002 C 
BRANCH  23  24
ATOM     24  C   UNL A   1      36.541  21.102  24.960  1.00  0.00     0.021 C 
BRANCH  24  25
ATOM     25  C   UNL A   1      37.929  21.536  25.411  1.00  0.00     0.116 C 
BRANCH  25  26
ATOM     26  N   UNL A   1      38.719  20.361  25.740  1.00  0.00    -0.352 N 
ATOM     27  C   UNL A   1      40.056  20.256  25.996  1.00  0.00     0.251 C 
ATOM     28  H   UNL A   1      38.216  19.516  25.784  1.00  0.00     0.163 HD
ATOM     29  O   UNL A   1      40.614  19.174  25.844  1.00  0.00    -0.269 OA
BRANCH  27  30
ATOM     30  C   UNL A   1      40.821  21.419  26.471  1.00  0.00     0.039 A 
ATOM     31  C   UNL A   1      41.425  22.247  25.518  1.00  0.00     0.014 A 
ATOM     32  C   UNL A   1      41.041  21.617  27.839  1.00  0.00     0.014 A 
ATOM     33  C   UNL A   1      42.233  23.293  25.936  1.00  0.00     0.010 A 
ATOM     34  C   UNL A   1      41.817  22.680  28.264  1.00  0.00     0.010 A 
ATOM     35  C   UNL A   1      42.412  23.508  27.309  1.00  0.00    -0.014 A 
BRANCH  35  36
ATOM     36  C   UNL A   1      43.106  24.721  27.769  1.00  0.00     0.031 A 
ATOM     37  C   UNL A   1      42.060  25.791  28.240  1.00  0.00     0.074 A 
ATOM     38  C   UNL A   1      44.478  24.645  27.710  1.00  0.00     0.049 A 
ATOM     39  N   UNL A   1      42.193  27.061  28.463  1.00  0.00    -0.248 NA
ATOM     40  C   UNL A   1      40.634  25.391  28.470  1.00  0.00     0.031 C 
ATOM     41  C   UNL A   1      45.263  23.453  27.274  1.00  0.00     0.029 A 
ATOM     42  N   UNL A   1      45.504  25.514  28.006  1.00  0.00    -0.354 N 
ATOM     43  C   UNL A   1      40.996  27.546  29.060  1.00  0.00     0.074 A 
ATOM     44  C   UNL A   1      40.040  26.490  28.947  1.00  0.00     0.031 C 
ATOM     45  C   UNL A   1      46.591  23.717  27.233  1.00  0.00     0.029 A 
ATOM     46  C   UNL A   1      46.824  25.081  27.660  1.00  0.00     0.049 A 
ATOM     47  H   UNL A   1      45.340  26.386  28.431  1.00  0.00     0.167 HD
ATOM     48  C   UNL A   1      40.917  28.759  29.695  1.00  0.00     0.037 A 
ATOM     49  C   UNL A   1      47.994  25.804  27.683  1.00  0.00     0.037 A 
ATOM     50  C   UNL A   1      42.174  29.417  29.577  1.00  0.00     0.049 A 
ATOM     51  C   UNL A   1      47.605  27.038  28.372  1.00  0.00     0.074 A 
ATOM     52  C   UNL A   1      42.750  30.030  28.496  1.00  0.00     0.029 A 
ATOM     53  N   UNL A   1      43.139  29.102  30.503  1.00  0.00    -0.354 N 
ATOM     54  N   UNL A   1      47.336  27.111  29.640  1.00  0.00    -0.248 NA
ATOM     55  C   UNL A   1      47.365  28.242  27.571  1.00  0.00     0.031 C 
ATOM     56  C   UNL A   1      44.071  29.559  28.558  1.00  0.00     0.029 A 
ATOM     57  C   UNL A   1      44.322  28.995  29.816  1.00  0.00     0.049 A 
ATOM     58  H   UNL A   1      43.007  28.978  31.471  1.00  0.00     0.167 HD
ATOM     59  C   UNL A   1      46.569  28.243  29.707  1.00  0.00     0.074 A 
ATOM     60  C   UNL A   1      46.887  29.030  28.529  1.00  0.00     0.031 C 
ATOM     61  C   UNL A   1      45.396  28.225  30.393  1.00  0.00     0.037 A 
BRANCH  48  62
ATOM     62  C   UNL A   1      39.903  29.446  30.575  1.00  0.00     0.058 A 
ATOM     63  C   UNL A   1      39.079  30.441  29.983  1.00  0.00     0.135 A 
ATOM     64  C   UNL A   1      39.955  29.450  31.975  1.00  0.00     0.135 A 
ATOM     65  F   UNL A   1      38.885  30.472  28.653  1.00  0.00    -0.206 F 
ATOM     66  C   UNL A   1      38.488  31.468  30.710  1.00  0.00     0.059 A 
ATOM     67  C   UNL A   1      39.329  30.453  32.734  1.00  0.00     0.059 A 
ATOM     68  F   UNL A   1      40.673  28.528  32.633  1.00  0.00    -0.206 F 
ATOM     69  C   UNL A   1      38.650  31.489  32.087  1.00  0.00     0.060 A 
BRANCH  69  70
ATOM     70  S   UNL A   1      37.986  32.908  32.990  1.00  0.00     0.124 S 
ATOM     71  O   UNL A   1      37.998  33.948  31.966  1.00  0.00    -0.237 OA
ATOM     72  O   UNL A   1      36.664  32.430  33.385  1.00  0.00    -0.237 OA
ATOM     73  O   UNL A   1      38.934  33.087  34.084  1.00  0.00    -0.744 OA
ENDBRANCH  69  70
ENDBRANCH  48  62
BRANCH  49  74
ATOM     74  C   UNL A   1      49.425  25.780  27.160  1.00  0.00     0.058 A 
ATOM     75  C   UNL A   1      49.843  26.004  25.842  1.00  0.00     0.135 A 
ATOM     76  C   UNL A   1      50.503  25.703  28.097  1.00  0.00     0.135 A 
ATOM     77  F   UNL A   1      48.967  25.955  24.830  1.00  0.00    -0.206 F 
ATOM     78  C   UNL A   1      51.186  26.314  25.520  1.00  0.00     0.059 A 
ATOM     79  C   UNL A   1      51.818  26.066  27.818  1.00  0.00     0.059 A 
ATOM     80  F   UNL A   1      50.311  25.313  29.365  1.00  0.00    -0.206 F 
ATOM     81  C   UNL A   1      52.149  26.417  26.528  1.00  0.00     0.060 A 
BRANCH  81  82
ATOM     82  S   UNL A   1      53.777  27.142  26.202  1.00  0.00     0.124 S 
ATOM     83  O   UNL A   1      54.529  26.761  27.392  1.00  0.00    -0.237 OA
ATOM     84  O   UNL A   1      54.167  26.480  24.962  1.00  0.00    -0.237 OA
ATOM     85  O   UNL A   1      53.491  28.568  26.070  1.00  0.00    -0.744 OA
ENDBRANCH  81  82
ENDBRANCH  49  74
BRANCH  61  86
ATOM     86  C   UNL A   1      45.283  27.150  31.470  1.00  0.00     0.058 A 
ATOM     87  C   UNL A   1      46.148  27.188  32.577  1.00  0.00     0.135 A 
ATOM     88  C   UNL A   1      44.412  26.043  31.426  1.00  0.00     0.135 A 
ATOM     89  F   UNL A   1      47.007  28.209  32.719  1.00  0.00    -0.206 F 
ATOM     90  C   UNL A   1      46.152  26.199  33.569  1.00  0.00     0.059 A 
ATOM     91  C   UNL A   1      44.387  25.042  32.407  1.00  0.00     0.059 A 
ATOM     92  F   UNL A   1      43.547  25.895  30.423  1.00  0.00    -0.206 F 
ATOM     93  C   UNL A   1      45.263  25.130  33.482  1.00  0.00     0.060 A 
BRANCH  93  94
ATOM     94  S   UNL A   1      45.235  23.903  34.810  1.00  0.00     0.124 S 
ATOM     95  O   UNL A   1      46.453  23.139  34.559  1.00  0.00    -0.237 OA
ATOM     96  O   UNL A   1      45.252  24.744  36.003  1.00  0.00    -0.237 OA
ATOM     97  O   UNL A   1      43.989  23.173  34.584  1.00  0.00    -0.744 OA
ENDBRANCH  93  94
ENDBRANCH  61  86
ENDBRANCH  35  36
ENDBRANCH  27  30
ENDBRANCH  25  26
ENDBRANCH  24  25
ENDBRANCH  23  24
ENDBRANCH   1  23
TORSDOF 19
ENDMDL
