MODEL 1
REMARK VINA RESULT:      -9.4      0.000      0.000
REMARK SMILES Cn1c(COc2ccc(C(=O)NCCCCCCNC(=O)c3ccc(-c4c5nc(c(-c6c(F)cc(S(=O)(=O)[O-])cc6F)c6ccc([nH]6)c(-c6c(F)cc(S(=O)(=O)[O-])cc6F)c6nc(c(-c7c(F)cc(S(=O)(=O)[O-])cc7F)c7ccc4[nH]7)C=C6)C=C5)cc3)cc2)nc2ccccc21
REMARK SMILES IDX 15 1 14 2 13 3 12 4 10 5 11 6 9 8 6 9 7 10 89 11 8 12 88 13
REMARK SMILES IDX 5 14 4 15 3 16 1 17 2 18 96 19 90 20 91 21 95 22 92 23 94 24
REMARK SMILES IDX 93 25 16 26 17 27 18 28 19 29 20 30 21 32 22 33 23 34 87 35
REMARK SMILES IDX 24 36 86 37 25 38 26 39 27 40 80 41 28 42 85 43 79 44 81 45
REMARK SMILES IDX 29 46 84 47 78 48 77 49 30 51 64 52 43 53 63 54 44 55 47 56
REMARK SMILES IDX 62 57 82 58 45 59 46 60 61 62 83 63 48 64 31 65 32 66 41 67
REMARK SMILES IDX 33 68 34 69 40 70 42 71 35 72 36 73 37 74 38 75 39 76 65 77
REMARK SMILES IDX 66 78 75 79 67 80 68 81 74 82 76 83 69 84 70 85 71 86 72 87
REMARK SMILES IDX 73 88 49 89 50 90 59 91 51 92 52 93 58 94 60 95 53 96 54 97
REMARK SMILES IDX 55 98 56 99 57 100
REMARK H PARENT 12 7 19 31 81 50 47 61
REMARK Flexibility Score: inf
ROOT
ATOM      1  C   UNL A   1      36.209  32.985  30.534  1.00  0.00     0.002 C 
ENDROOT
BRANCH   1   2
ATOM      2  C   UNL A   1      37.635  33.537  30.417  1.00  0.00     0.021 C 
BRANCH   2   3
ATOM      3  C   UNL A   1      38.181  34.096  31.732  1.00  0.00     0.116 C 
BRANCH   3   4
ATOM      4  N   UNL A   1      37.391  33.617  32.855  1.00  0.00    -0.352 N 
ATOM      5  C   UNL A   1      37.572  32.551  33.699  1.00  0.00     0.251 C 
ATOM      6  O   UNL A   1      36.785  32.396  34.632  1.00  0.00    -0.269 OA
ATOM      7  H   UNL A   1      36.587  34.153  33.042  1.00  0.00     0.163 HD
BRANCH   5   8
ATOM      8  C   UNL A   1      38.726  31.626  33.560  1.00  0.00     0.040 A 
ATOM      9  C   UNL A   1      40.782  29.740  33.414  1.00  0.00     0.120 A 
ATOM     10  C   UNL A   1      39.511  29.402  32.961  1.00  0.00     0.047 A 
ATOM     11  C   UNL A   1      41.057  31.044  33.820  1.00  0.00     0.047 A 
ATOM     12  C   UNL A   1      38.482  30.346  33.036  1.00  0.00     0.017 A 
ATOM     13  C   UNL A   1      40.033  31.987  33.891  1.00  0.00     0.017 A 
BRANCH   9  14
ATOM     14  O   UNL A   1      41.792  28.817  33.375  1.00  0.00    -0.486 OA
BRANCH  14  15
ATOM     15  C   UNL A   1      41.922  28.092  34.621  1.00  0.00     0.304 C 
BRANCH  15  16
ATOM     16  C   UNL A   1      42.525  26.738  34.382  1.00  0.00     0.147 A 
ATOM     17  C   UNL A   1      41.221  25.426  36.124  1.00  0.00     0.151 C 
ATOM     18  N   UNL A   1      42.230  25.601  35.107  1.00  0.00    -0.328 N 
ATOM     19  C   UNL A   1      43.129  24.617  34.752  1.00  0.00     0.068 A 
ATOM     20  N   UNL A   1      43.479  26.483  33.502  1.00  0.00    -0.229 NA
ATOM     21  C   UNL A   1      43.895  25.201  33.750  1.00  0.00     0.089 A 
ATOM     22  C   UNL A   1      43.350  23.312  35.208  1.00  0.00     0.028 A 
ATOM     23  C   UNL A   1      44.948  24.476  33.174  1.00  0.00     0.030 A 
ATOM     24  C   UNL A   1      44.408  22.604  34.626  1.00  0.00     0.002 A 
ATOM     25  C   UNL A   1      45.200  23.176  33.628  1.00  0.00     0.002 A 
ENDBRANCH  15  16
ENDBRANCH  14  15
ENDBRANCH   9  14
ENDBRANCH   5   8
ENDBRANCH   3   4
ENDBRANCH   2   3
ENDBRANCH   1   2
BRANCH   1  26
ATOM     26  C   UNL A   1      35.099  33.998  30.232  1.00  0.00     0.002 C 
BRANCH  26  27
ATOM     27  C   UNL A   1      34.033  33.516  29.246  1.00  0.00     0.021 C 
BRANCH  27  28
ATOM     28  C   UNL A   1      34.573  32.648  28.113  1.00  0.00     0.116 C 
BRANCH  28  29
ATOM     29  N   UNL A   1      33.875  31.374  28.035  1.00  0.00    -0.352 N 
ATOM     30  C   UNL A   1      34.391  30.103  27.967  1.00  0.00     0.251 C 
ATOM     31  H   UNL A   1      32.892  31.431  28.033  1.00  0.00     0.163 HD
ATOM     32  O   UNL A   1      33.666  29.163  27.661  1.00  0.00    -0.269 OA
BRANCH  30  33
ATOM     33  C   UNL A   1      35.823  29.878  28.252  1.00  0.00     0.039 A 
ATOM     34  C   UNL A   1      36.204  29.448  29.525  1.00  0.00     0.014 A 
ATOM     35  C   UNL A   1      36.790  30.101  27.266  1.00  0.00     0.014 A 
ATOM     36  C   UNL A   1      37.550  29.189  29.793  1.00  0.00     0.010 A 
ATOM     37  C   UNL A   1      38.120  29.771  27.513  1.00  0.00     0.010 A 
ATOM     38  C   UNL A   1      38.515  29.317  28.780  1.00  0.00    -0.014 A 
BRANCH  38  39
ATOM     39  C   UNL A   1      39.942  28.987  29.028  1.00  0.00     0.031 A 
ATOM     40  C   UNL A   1      40.867  30.025  29.602  1.00  0.00     0.074 A 
ATOM     41  C   UNL A   1      40.414  27.772  28.684  1.00  0.00     0.049 A 
ATOM     42  N   UNL A   1      42.155  29.952  29.825  1.00  0.00    -0.248 NA
ATOM     43  C   UNL A   1      40.274  31.326  29.951  1.00  0.00     0.031 C 
ATOM     44  C   UNL A   1      39.621  26.695  28.084  1.00  0.00     0.029 A 
ATOM     45  N   UNL A   1      41.674  27.238  28.783  1.00  0.00    -0.354 N 
ATOM     46  C   UNL A   1      42.523  31.191  30.335  1.00  0.00     0.074 A 
ATOM     47  C   UNL A   1      41.338  32.020  30.330  1.00  0.00     0.031 C 
ATOM     48  C   UNL A   1      40.407  25.623  27.894  1.00  0.00     0.029 A 
ATOM     49  C   UNL A   1      41.766  25.947  28.317  1.00  0.00     0.049 A 
ATOM     50  H   UNL A   1      42.440  27.733  29.154  1.00  0.00     0.167 HD
ATOM     51  C   UNL A   1      43.733  31.592  30.793  1.00  0.00     0.037 A 
ATOM     52  C   UNL A   1      42.828  25.122  28.233  1.00  0.00     0.037 A 
ATOM     53  C   UNL A   1      44.905  30.757  30.810  1.00  0.00     0.049 A 
ATOM     54  C   UNL A   1      44.168  25.604  28.720  1.00  0.00     0.074 A 
ATOM     55  C   UNL A   1      46.171  31.058  31.284  1.00  0.00     0.029 A 
ATOM     56  N   UNL A   1      44.957  29.454  30.335  1.00  0.00    -0.354 N 
ATOM     57  N   UNL A   1      44.487  26.764  29.245  1.00  0.00    -0.248 NA
ATOM     58  C   UNL A   1      45.293  24.665  28.608  1.00  0.00     0.031 C 
ATOM     59  C   UNL A   1      46.998  29.954  31.054  1.00  0.00     0.029 A 
ATOM     60  C   UNL A   1      46.236  28.945  30.488  1.00  0.00     0.049 A 
ATOM     61  H   UNL A   1      44.197  28.964  29.946  1.00  0.00     0.167 HD
ATOM     62  C   UNL A   1      45.840  26.680  29.559  1.00  0.00     0.074 A 
ATOM     63  C   UNL A   1      46.275  25.353  29.174  1.00  0.00     0.031 C 
ATOM     64  C   UNL A   1      46.649  27.615  30.114  1.00  0.00     0.037 A 
BRANCH  51  65
ATOM     65  C   UNL A   1      43.848  32.995  31.327  1.00  0.00     0.058 A 
ATOM     66  C   UNL A   1      43.890  33.254  32.707  1.00  0.00     0.135 A 
ATOM     67  C   UNL A   1      43.963  34.089  30.454  1.00  0.00     0.135 A 
ATOM     68  F   UNL A   1      43.769  32.248  33.589  1.00  0.00    -0.206 F 
ATOM     69  C   UNL A   1      44.017  34.547  33.203  1.00  0.00     0.059 A 
ATOM     70  C   UNL A   1      44.121  35.389  30.927  1.00  0.00     0.059 A 
ATOM     71  F   UNL A   1      43.927  33.901  29.126  1.00  0.00    -0.206 F 
ATOM     72  C   UNL A   1      44.134  35.609  32.304  1.00  0.00     0.060 A 
BRANCH  72  73
ATOM     73  S   UNL A   1      44.314  37.279  32.966  1.00  0.00     0.124 S 
ATOM     74  O   UNL A   1      44.411  38.068  31.741  1.00  0.00    -0.237 OA
ATOM     75  O   UNL A   1      43.083  37.445  33.731  1.00  0.00    -0.237 OA
ATOM     76  O   UNL A   1      45.537  37.202  33.759  1.00  0.00    -0.744 OA
ENDBRANCH  72  73
ENDBRANCH  51  65
BRANCH  52  77
ATOM     77  C   UNL A   1      42.669  23.749  27.681  1.00  0.00     0.058 A 
ATOM     78  C   UNL A   1      42.505  22.645  28.531  1.00  0.00     0.135 A 
ATOM     79  C   UNL A   1      42.690  23.509  26.298  1.00  0.00     0.135 A 
ATOM     80  F   UNL A   1      42.482  22.820  29.861  1.00  0.00    -0.206 F 
ATOM     81  C   UNL A   1      42.398  21.350  28.034  1.00  0.00     0.059 A 
ATOM     82  C   UNL A   1      42.555  22.226  25.776  1.00  0.00     0.059 A 
ATOM     83  F   UNL A   1      42.823  24.532  25.439  1.00  0.00    -0.206 F 
ATOM     84  C   UNL A   1      42.426  21.151  26.654  1.00  0.00     0.060 A 
BRANCH  84  85
ATOM     85  S   UNL A   1      42.262  19.469  26.016  1.00  0.00     0.124 S 
ATOM     86  O   UNL A   1      40.846  19.424  25.670  1.00  0.00    -0.237 OA
ATOM     87  O   UNL A   1      43.196  19.474  24.894  1.00  0.00    -0.237 OA
ATOM     88  O   UNL A   1      42.662  18.641  27.150  1.00  0.00    -0.744 OA
ENDBRANCH  84  85
ENDBRANCH  52  77
BRANCH  64  89
ATOM     89  C   UNL A   1      48.076  27.225  30.386  1.00  0.00     0.058 A 
ATOM     90  C   UNL A   1      49.097  27.452  29.452  1.00  0.00     0.135 A 
ATOM     91  C   UNL A   1      48.433  26.661  31.623  1.00  0.00     0.135 A 
ATOM     92  F   UNL A   1      48.810  27.982  28.251  1.00  0.00    -0.206 F 
ATOM     93  C   UNL A   1      50.419  27.112  29.722  1.00  0.00     0.059 A 
ATOM     94  C   UNL A   1      49.752  26.341  31.927  1.00  0.00     0.059 A 
ATOM     95  F   UNL A   1      47.496  26.431  32.557  1.00  0.00    -0.206 F 
ATOM     96  C   UNL A   1      50.736  26.559  30.965  1.00  0.00     0.060 A 
BRANCH  96  97
ATOM     97  S   UNL A   1      52.461  26.155  31.315  1.00  0.00     0.124 S 
ATOM     98  O   UNL A   1      52.862  27.281  32.152  1.00  0.00    -0.237 OA
ATOM     99  O   UNL A   1      52.348  24.869  31.995  1.00  0.00    -0.237 OA
ATOM    100  O   UNL A   1      53.074  26.106  29.991  1.00  0.00    -0.744 OA
ENDBRANCH  96  97
ENDBRANCH  64  89
ENDBRANCH  38  39
ENDBRANCH  30  33
ENDBRANCH  28  29
ENDBRANCH  27  28
ENDBRANCH  26  27
ENDBRANCH   1  26
TORSDOF 19
ENDMDL
MODEL 2
REMARK VINA RESULT:      -9.1      0.967      8.266
REMARK SMILES Cn1c(COc2ccc(C(=O)NCCCCCCNC(=O)c3ccc(-c4c5nc(c(-c6c(F)cc(S(=O)(=O)[O-])cc6F)c6ccc([nH]6)c(-c6c(F)cc(S(=O)(=O)[O-])cc6F)c6nc(c(-c7c(F)cc(S(=O)(=O)[O-])cc7F)c7ccc4[nH]7)C=C6)C=C5)cc3)cc2)nc2ccccc21
REMARK SMILES IDX 15 1 14 2 13 3 12 4 10 5 11 6 9 8 6 9 7 10 89 11 8 12 88 13
REMARK SMILES IDX 5 14 4 15 3 16 1 17 2 18 96 19 90 20 91 21 95 22 92 23 94 24
REMARK SMILES IDX 93 25 16 26 17 27 18 28 19 29 20 30 21 32 22 33 23 34 87 35
REMARK SMILES IDX 24 36 86 37 25 38 26 39 27 40 80 41 28 42 85 43 79 44 81 45
REMARK SMILES IDX 29 46 84 47 78 48 77 49 30 51 64 52 43 53 63 54 44 55 47 56
REMARK SMILES IDX 62 57 82 58 45 59 46 60 61 62 83 63 48 64 31 65 32 66 41 67
REMARK SMILES IDX 33 68 34 69 40 70 42 71 35 72 36 73 37 74 38 75 39 76 65 77
REMARK SMILES IDX 66 78 75 79 67 80 68 81 74 82 76 83 69 84 70 85 71 86 72 87
REMARK SMILES IDX 73 88 49 89 50 90 59 91 51 92 52 93 58 94 60 95 53 96 54 97
REMARK SMILES IDX 55 98 56 99 57 100
REMARK H PARENT 12 7 19 31 81 50 47 61
REMARK Flexibility Score: inf
ROOT
ATOM      1  C   UNL A   1      33.995  34.900  31.139  1.00  0.00     0.002 C 
ENDROOT
BRANCH   1   2
ATOM      2  C   UNL A   1      34.510  33.971  32.246  1.00  0.00     0.021 C 
BRANCH   2   3
ATOM      3  C   UNL A   1      35.729  34.525  32.987  1.00  0.00     0.116 C 
BRANCH   3   4
ATOM      4  N   UNL A   1      36.784  34.866  32.047  1.00  0.00    -0.352 N 
ATOM      5  C   UNL A   1      37.987  34.265  31.780  1.00  0.00     0.251 C 
ATOM      6  O   UNL A   1      38.686  34.715  30.873  1.00  0.00    -0.269 OA
ATOM      7  H   UNL A   1      36.602  35.670  31.507  1.00  0.00     0.163 HD
BRANCH   5   8
ATOM      8  C   UNL A   1      38.435  33.047  32.505  1.00  0.00     0.040 A 
ATOM      9  C   UNL A   1      39.476  30.797  33.791  1.00  0.00     0.120 A 
ATOM     10  C   UNL A   1      40.037  32.045  34.037  1.00  0.00     0.047 A 
ATOM     11  C   UNL A   1      38.328  30.686  33.008  1.00  0.00     0.047 A 
ATOM     12  C   UNL A   1      39.516  33.171  33.391  1.00  0.00     0.017 A 
ATOM     13  C   UNL A   1      37.806  31.808  32.368  1.00  0.00     0.017 A 
BRANCH   9  14
ATOM     14  O   UNL A   1      39.994  29.681  34.392  1.00  0.00    -0.486 OA
BRANCH  14  15
ATOM     15  C   UNL A   1      41.429  29.584  34.228  1.00  0.00     0.304 C 
BRANCH  15  16
ATOM     16  C   UNL A   1      41.909  28.209  34.590  1.00  0.00     0.147 A 
ATOM     17  C   UNL A   1      44.277  28.381  33.683  1.00  0.00     0.151 C 
ATOM     18  N   UNL A   1      43.154  27.698  34.279  1.00  0.00    -0.328 N 
ATOM     19  C   UNL A   1      43.152  26.351  34.573  1.00  0.00     0.068 A 
ATOM     20  N   UNL A   1      41.171  27.283  35.179  1.00  0.00    -0.229 NA
ATOM     21  C   UNL A   1      41.901  26.125  35.131  1.00  0.00     0.089 A 
ATOM     22  C   UNL A   1      44.096  25.331  34.397  1.00  0.00     0.028 A 
ATOM     23  C   UNL A   1      41.542  24.826  35.522  1.00  0.00     0.030 A 
ATOM     24  C   UNL A   1      43.721  24.041  34.787  1.00  0.00     0.002 A 
ATOM     25  C   UNL A   1      42.462  23.788  35.336  1.00  0.00     0.002 A 
ENDBRANCH  15  16
ENDBRANCH  14  15
ENDBRANCH   9  14
ENDBRANCH   5   8
ENDBRANCH   3   4
ENDBRANCH   2   3
ENDBRANCH   1   2
BRANCH   1  26
ATOM     26  C   UNL A   1      34.062  34.313  29.725  1.00  0.00     0.002 C 
BRANCH  26  27
ATOM     27  C   UNL A   1      34.532  32.859  29.650  1.00  0.00     0.021 C 
BRANCH  27  28
ATOM     28  C   UNL A   1      34.652  32.310  28.230  1.00  0.00     0.116 C 
BRANCH  28  29
ATOM     29  N   UNL A   1      34.036  30.998  28.111  1.00  0.00    -0.352 N 
ATOM     30  C   UNL A   1      34.631  29.766  27.988  1.00  0.00     0.251 C 
ATOM     31  H   UNL A   1      33.051  30.991  28.120  1.00  0.00     0.163 HD
ATOM     32  O   UNL A   1      33.965  28.793  27.654  1.00  0.00    -0.269 OA
BRANCH  30  33
ATOM     33  C   UNL A   1      36.079  29.623  28.251  1.00  0.00     0.039 A 
ATOM     34  C   UNL A   1      36.505  29.263  29.531  1.00  0.00     0.014 A 
ATOM     35  C   UNL A   1      37.014  29.856  27.237  1.00  0.00     0.014 A 
ATOM     36  C   UNL A   1      37.868  29.082  29.779  1.00  0.00     0.010 A 
ATOM     37  C   UNL A   1      38.363  29.603  27.467  1.00  0.00     0.010 A 
ATOM     38  C   UNL A   1      38.805  29.218  28.741  1.00  0.00    -0.014 A 
BRANCH  38  39
ATOM     39  C   UNL A   1      40.252  28.969  28.970  1.00  0.00     0.031 A 
ATOM     40  C   UNL A   1      40.849  27.629  28.635  1.00  0.00     0.074 A 
ATOM     41  C   UNL A   1      41.012  29.930  29.531  1.00  0.00     0.049 A 
ATOM     42  N   UNL A   1      42.069  27.197  28.826  1.00  0.00    -0.248 NA
ATOM     43  C   UNL A   1      39.951  26.634  28.026  1.00  0.00     0.031 C 
ATOM     44  C   UNL A   1      40.538  31.257  29.934  1.00  0.00     0.029 A 
ATOM     45  N   UNL A   1      42.343  29.941  29.865  1.00  0.00    -0.354 N 
ATOM     46  C   UNL A   1      42.084  25.886  28.365  1.00  0.00     0.074 A 
ATOM     47  C   UNL A   1      40.737  25.570  27.944  1.00  0.00     0.031 C 
ATOM     48  C   UNL A   1      41.567  31.959  30.435  1.00  0.00     0.029 A 
ATOM     49  C   UNL A   1      42.763  31.123  30.430  1.00  0.00     0.049 A 
ATOM     50  H   UNL A   1      42.942  29.173  29.713  1.00  0.00     0.167 HD
ATOM     51  C   UNL A   1      43.132  25.033  28.275  1.00  0.00     0.037 A 
ATOM     52  C   UNL A   1      43.973  31.486  30.897  1.00  0.00     0.037 A 
ATOM     53  C   UNL A   1      44.474  25.359  28.681  1.00  0.00     0.049 A 
ATOM     54  C   UNL A   1      45.114  30.508  30.814  1.00  0.00     0.074 A 
ATOM     55  C   UNL A   1      45.613  24.576  28.600  1.00  0.00     0.029 A 
ATOM     56  N   UNL A   1      44.860  26.567  29.243  1.00  0.00    -0.354 N 
ATOM     57  N   UNL A   1      45.120  29.288  30.329  1.00  0.00    -0.248 NA
ATOM     58  C   UNL A   1      46.412  30.954  31.335  1.00  0.00     0.031 C 
ATOM     59  C   UNL A   1      46.678  25.294  29.154  1.00  0.00     0.029 A 
ATOM     60  C   UNL A   1      46.215  26.545  29.531  1.00  0.00     0.049 A 
ATOM     61  H   UNL A   1      44.259  27.329  29.414  1.00  0.00     0.167 HD
ATOM     62  C   UNL A   1      46.430  28.836  30.455  1.00  0.00     0.074 A 
ATOM     63  C   UNL A   1      47.188  29.917  31.051  1.00  0.00     0.031 C 
ATOM     64  C   UNL A   1      46.958  27.637  30.109  1.00  0.00     0.037 A 
BRANCH  51  65
ATOM     65  C   UNL A   1      42.873  23.665  27.701  1.00  0.00     0.058 A 
ATOM     66  C   UNL A   1      43.087  23.387  26.341  1.00  0.00     0.135 A 
ATOM     67  C   UNL A   1      42.448  22.609  28.524  1.00  0.00     0.135 A 
ATOM     68  F   UNL A   1      43.477  24.362  25.504  1.00  0.00    -0.206 F 
ATOM     69  C   UNL A   1      42.867  22.119  25.813  1.00  0.00     0.059 A 
ATOM     70  C   UNL A   1      42.251  21.326  28.024  1.00  0.00     0.059 A 
ATOM     71  F   UNL A   1      42.227  22.818  29.831  1.00  0.00    -0.206 F 
ATOM     72  C   UNL A   1      42.451  21.094  26.663  1.00  0.00     0.060 A 
BRANCH  72  73
ATOM     73  S   UNL A   1      42.186  19.451  25.963  1.00  0.00     0.124 S 
ATOM     74  O   UNL A   1      42.969  19.530  24.733  1.00  0.00    -0.237 OA
ATOM     75  O   UNL A   1      42.724  18.579  27.001  1.00  0.00    -0.237 OA
ATOM     76  O   UNL A   1      40.739  19.387  25.780  1.00  0.00    -0.744 OA
ENDBRANCH  72  73
ENDBRANCH  51  65
BRANCH  52  77
ATOM     77  C   UNL A   1      44.178  32.844  31.472  1.00  0.00     0.058 A 
ATOM     78  C   UNL A   1      44.611  33.910  30.668  1.00  0.00     0.135 A 
ATOM     79  C   UNL A   1      43.959  33.103  32.834  1.00  0.00     0.135 A 
ATOM     80  F   UNL A   1      44.839  33.714  29.361  1.00  0.00    -0.206 F 
ATOM     81  C   UNL A   1      44.849  35.174  31.198  1.00  0.00     0.059 A 
ATOM     82  C   UNL A   1      44.161  34.366  33.381  1.00  0.00     0.059 A 
ATOM     83  F   UNL A   1      43.524  32.124  33.644  1.00  0.00    -0.206 F 
ATOM     84  C   UNL A   1      44.622  35.392  32.557  1.00  0.00     0.060 A 
BRANCH  84  85
ATOM     85  S   UNL A   1      44.909  37.042  33.231  1.00  0.00     0.124 S 
ATOM     86  O   UNL A   1      43.646  37.305  33.909  1.00  0.00    -0.237 OA
ATOM     87  O   UNL A   1      46.066  36.825  34.093  1.00  0.00    -0.237 OA
ATOM     88  O   UNL A   1      45.167  37.849  32.041  1.00  0.00    -0.744 OA
ENDBRANCH  84  85
ENDBRANCH  52  77
BRANCH  64  89
ATOM     89  C   UNL A   1      48.435  27.441  30.320  1.00  0.00     0.058 A 
ATOM     90  C   UNL A   1      48.949  26.918  31.516  1.00  0.00     0.135 A 
ATOM     91  C   UNL A   1      49.343  27.736  29.289  1.00  0.00     0.135 A 
ATOM     92  F   UNL A   1      48.127  26.626  32.536  1.00  0.00    -0.206 F 
ATOM     93  C   UNL A   1      50.315  26.717  31.692  1.00  0.00     0.059 A 
ATOM     94  C   UNL A   1      50.708  27.515  29.432  1.00  0.00     0.059 A 
ATOM     95  F   UNL A   1      48.902  28.229  28.121  1.00  0.00    -0.206 F 
ATOM     96  C   UNL A   1      51.186  27.016  30.642  1.00  0.00     0.060 A 
BRANCH  96  97
ATOM     97  S   UNL A   1      52.951  26.716  30.873  1.00  0.00     0.124 S 
ATOM     98  O   UNL A   1      53.442  28.060  31.167  1.00  0.00    -0.237 OA
ATOM     99  O   UNL A   1      52.965  25.778  31.991  1.00  0.00    -0.237 OA
ATOM    100  O   UNL A   1      53.372  26.160  29.590  1.00  0.00    -0.744 OA
ENDBRANCH  96  97
ENDBRANCH  64  89
ENDBRANCH  38  39
ENDBRANCH  30  33
ENDBRANCH  28  29
ENDBRANCH  27  28
ENDBRANCH  26  27
ENDBRANCH   1  26
TORSDOF 19
ENDMDL
MODEL 3
REMARK VINA RESULT:      -9.0      4.854     11.065
REMARK SMILES Cn1c(COc2ccc(C(=O)NCCCCCCNC(=O)c3ccc(-c4c5nc(c(-c6c(F)cc(S(=O)(=O)[O-])cc6F)c6ccc([nH]6)c(-c6c(F)cc(S(=O)(=O)[O-])cc6F)c6nc(c(-c7c(F)cc(S(=O)(=O)[O-])cc7F)c7ccc4[nH]7)C=C6)C=C5)cc3)cc2)nc2ccccc21
REMARK SMILES IDX 15 1 14 2 13 3 12 4 10 5 11 6 9 8 6 9 7 10 89 11 8 12 88 13
REMARK SMILES IDX 5 14 4 15 3 16 1 17 2 18 96 19 90 20 91 21 95 22 92 23 94 24
REMARK SMILES IDX 93 25 16 26 17 27 18 28 19 29 20 30 21 32 22 33 23 34 87 35
REMARK SMILES IDX 24 36 86 37 25 38 26 39 27 40 80 41 28 42 85 43 79 44 81 45
REMARK SMILES IDX 29 46 84 47 78 48 77 49 30 51 64 52 43 53 63 54 44 55 47 56
REMARK SMILES IDX 62 57 82 58 45 59 46 60 61 62 83 63 48 64 31 65 32 66 41 67
REMARK SMILES IDX 33 68 34 69 40 70 42 71 35 72 36 73 37 74 38 75 39 76 65 77
REMARK SMILES IDX 66 78 75 79 67 80 68 81 74 82 76 83 69 84 70 85 71 86 72 87
REMARK SMILES IDX 73 88 49 89 50 90 59 91 51 92 52 93 58 94 60 95 53 96 54 97
REMARK SMILES IDX 55 98 56 99 57 100
REMARK H PARENT 12 7 19 31 81 50 47 61
REMARK Flexibility Score: inf
ROOT
ATOM      1  C   UNL A   1      32.666  30.225  27.015  1.00  0.00     0.002 C 
ENDROOT
BRANCH   1   2
ATOM      2  C   UNL A   1      32.246  29.101  26.059  1.00  0.00     0.021 C 
BRANCH   2   3
ATOM      3  C   UNL A   1      32.874  29.219  24.668  1.00  0.00     0.116 C 
BRANCH   3   4
ATOM      4  N   UNL A   1      31.840  29.337  23.652  1.00  0.00    -0.352 N 
ATOM      5  C   UNL A   1      31.278  28.402  22.822  1.00  0.00     0.251 C 
ATOM      6  O   UNL A   1      30.355  28.744  22.083  1.00  0.00    -0.269 OA
ATOM      7  H   UNL A   1      31.483  30.248  23.541  1.00  0.00     0.163 HD
BRANCH   5   8
ATOM      8  C   UNL A   1      31.701  26.978  22.842  1.00  0.00     0.040 A 
ATOM      9  C   UNL A   1      32.521  24.319  23.095  1.00  0.00     0.120 A 
ATOM     10  C   UNL A   1      31.432  24.772  23.833  1.00  0.00     0.047 A 
ATOM     11  C   UNL A   1      33.119  25.148  22.148  1.00  0.00     0.047 A 
ATOM     12  C   UNL A   1      31.023  26.104  23.706  1.00  0.00     0.017 A 
ATOM     13  C   UNL A   1      32.710  26.474  22.019  1.00  0.00     0.017 A 
BRANCH   9  14
ATOM     14  O   UNL A   1      32.952  23.027  23.230  1.00  0.00    -0.486 OA
BRANCH  14  15
ATOM     15  C   UNL A   1      32.799  22.536  24.584  1.00  0.00     0.304 C 
BRANCH  15  16
ATOM     16  C   UNL A   1      33.064  21.059  24.642  1.00  0.00     0.147 A 
ATOM     17  C   UNL A   1      35.568  21.136  25.066  1.00  0.00     0.151 C 
ATOM     18  N   UNL A   1      34.310  20.484  24.798  1.00  0.00    -0.328 N 
ATOM     19  C   UNL A   1      34.187  19.127  24.583  1.00  0.00     0.068 A 
ATOM     20  N   UNL A   1      32.148  20.121  24.465  1.00  0.00    -0.229 NA
ATOM     21  C   UNL A   1      32.827  18.935  24.377  1.00  0.00     0.089 A 
ATOM     22  C   UNL A   1      35.114  18.078  24.538  1.00  0.00     0.028 A 
ATOM     23  C   UNL A   1      32.346  17.649  24.091  1.00  0.00     0.030 A 
ATOM     24  C   UNL A   1      34.618  16.802  24.246  1.00  0.00     0.002 A 
ATOM     25  C   UNL A   1      33.256  16.589  24.021  1.00  0.00     0.002 A 
ENDBRANCH  15  16
ENDBRANCH  14  15
ENDBRANCH   9  14
ENDBRANCH   5   8
ENDBRANCH   3   4
ENDBRANCH   2   3
ENDBRANCH   1   2
BRANCH   1  26
ATOM     26  C   UNL A   1      34.178  30.364  27.221  1.00  0.00     0.002 C 
BRANCH  26  27
ATOM     27  C   UNL A   1      34.623  31.664  27.894  1.00  0.00     0.021 C 
BRANCH  27  28
ATOM     28  C   UNL A   1      35.964  31.570  28.617  1.00  0.00     0.116 C 
BRANCH  28  29
ATOM     29  N   UNL A   1      35.803  31.105  29.985  1.00  0.00    -0.352 N 
ATOM     30  C   UNL A   1      36.571  30.218  30.698  1.00  0.00     0.251 C 
ATOM     31  H   UNL A   1      35.033  31.480  30.471  1.00  0.00     0.163 HD
ATOM     32  O   UNL A   1      36.154  29.754  31.754  1.00  0.00    -0.269 OA
BRANCH  30  33
ATOM     33  C   UNL A   1      37.898  29.818  30.182  1.00  0.00     0.039 A 
ATOM     34  C   UNL A   1      38.095  29.743  28.802  1.00  0.00     0.014 A 
ATOM     35  C   UNL A   1      38.940  29.507  31.061  1.00  0.00     0.014 A 
ATOM     36  C   UNL A   1      39.357  29.409  28.302  1.00  0.00     0.010 A 
ATOM     37  C   UNL A   1      40.213  29.247  30.561  1.00  0.00     0.010 A 
ATOM     38  C   UNL A   1      40.434  29.191  29.177  1.00  0.00    -0.014 A 
BRANCH  38  39
ATOM     39  C   UNL A   1      41.796  28.896  28.664  1.00  0.00     0.031 A 
ATOM     40  C   UNL A   1      42.155  27.498  28.236  1.00  0.00     0.074 A 
ATOM     41  C   UNL A   1      42.724  29.873  28.636  1.00  0.00     0.049 A 
ATOM     42  N   UNL A   1      43.307  27.029  27.828  1.00  0.00    -0.248 NA
ATOM     43  C   UNL A   1      41.086  26.489  28.297  1.00  0.00     0.031 C 
ATOM     44  C   UNL A   1      42.506  31.259  29.060  1.00  0.00     0.029 A 
ATOM     45  N   UNL A   1      44.037  29.853  28.239  1.00  0.00    -0.354 N 
ATOM     46  C   UNL A   1      43.101  25.676  27.587  1.00  0.00     0.074 A 
ATOM     47  C   UNL A   1      41.733  25.384  27.955  1.00  0.00     0.031 C 
ATOM     48  C   UNL A   1      43.636  31.960  28.876  1.00  0.00     0.029 A 
ATOM     49  C   UNL A   1      44.671  31.068  28.363  1.00  0.00     0.049 A 
ATOM     50  H   UNL A   1      44.484  29.045  27.898  1.00  0.00     0.167 HD
ATOM     51  C   UNL A   1      43.966  24.766  27.079  1.00  0.00     0.037 A 
ATOM     52  C   UNL A   1      45.944  31.420  28.098  1.00  0.00     0.037 A 
ATOM     53  C   UNL A   1      45.322  25.067  26.700  1.00  0.00     0.049 A 
ATOM     54  C   UNL A   1      46.894  30.381  27.564  1.00  0.00     0.074 A 
ATOM     55  C   UNL A   1      46.268  24.223  26.144  1.00  0.00     0.029 A 
ATOM     56  N   UNL A   1      45.925  26.309  26.835  1.00  0.00    -0.354 N 
ATOM     57  N   UNL A   1      46.668  29.117  27.296  1.00  0.00    -0.248 NA
ATOM     58  C   UNL A   1      48.270  30.817  27.290  1.00  0.00     0.031 C 
ATOM     59  C   UNL A   1      47.457  24.944  25.985  1.00  0.00     0.029 A 
ATOM     60  C   UNL A   1      47.236  26.250  26.390  1.00  0.00     0.049 A 
ATOM     61  H   UNL A   1      45.486  27.114  27.194  1.00  0.00     0.167 HD
ATOM     62  C   UNL A   1      47.863  28.616  26.789  1.00  0.00     0.074 A 
ATOM     63  C   UNL A   1      48.804  29.717  26.779  1.00  0.00     0.031 C 
ATOM     64  C   UNL A   1      48.155  27.360  26.371  1.00  0.00     0.037 A 
BRANCH  51  65
ATOM     65  C   UNL A   1      43.468  23.358  26.889  1.00  0.00     0.058 A 
ATOM     66  C   UNL A   1      43.165  22.852  25.614  1.00  0.00     0.135 A 
ATOM     67  C   UNL A   1      43.333  22.489  27.984  1.00  0.00     0.135 A 
ATOM     68  F   UNL A   1      43.260  23.642  24.532  1.00  0.00    -0.206 F 
ATOM     69  C   UNL A   1      42.724  21.545  25.434  1.00  0.00     0.059 A 
ATOM     70  C   UNL A   1      42.922  21.169  27.825  1.00  0.00     0.059 A 
ATOM     71  F   UNL A   1      43.607  22.920  29.226  1.00  0.00    -0.206 F 
ATOM     72  C   UNL A   1      42.607  20.710  26.546  1.00  0.00     0.060 A 
BRANCH  72  73
ATOM     73  S   UNL A   1      42.048  19.013  26.291  1.00  0.00     0.124 S 
ATOM     74  O   UNL A   1      42.983  18.550  25.269  1.00  0.00    -0.237 OA
ATOM     75  O   UNL A   1      42.217  18.427  27.616  1.00  0.00    -0.237 OA
ATOM     76  O   UNL A   1      40.666  19.171  25.849  1.00  0.00    -0.744 OA
ENDBRANCH  72  73
ENDBRANCH  51  65
BRANCH  52  77
ATOM     77  C   UNL A   1      46.397  32.821  28.318  1.00  0.00     0.058 A 
ATOM     78  C   UNL A   1      46.945  33.217  29.548  1.00  0.00     0.135 A 
ATOM     79  C   UNL A   1      46.283  33.793  27.313  1.00  0.00     0.135 A 
ATOM     80  F   UNL A   1      47.072  32.326  30.543  1.00  0.00    -0.206 F 
ATOM     81  C   UNL A   1      47.334  34.531  29.785  1.00  0.00     0.059 A 
ATOM     82  C   UNL A   1      46.693  35.108  27.516  1.00  0.00     0.059 A 
ATOM     83  F   UNL A   1      45.786  33.464  26.110  1.00  0.00    -0.206 F 
ATOM     84  C   UNL A   1      47.202  35.470  28.762  1.00  0.00     0.060 A 
BRANCH  84  85
ATOM     85  S   UNL A   1      47.733  37.169  29.069  1.00  0.00     0.124 S 
ATOM     86  O   UNL A   1      48.921  37.261  28.228  1.00  0.00    -0.237 OA
ATOM     87  O   UNL A   1      46.574  37.937  28.627  1.00  0.00    -0.237 OA
ATOM     88  O   UNL A   1      47.976  37.188  30.509  1.00  0.00    -0.744 OA
ENDBRANCH  84  85
ENDBRANCH  52  77
BRANCH  64  89
ATOM     89  C   UNL A   1      49.533  27.115  25.820  1.00  0.00     0.058 A 
ATOM     90  C   UNL A   1      50.592  26.689  26.635  1.00  0.00     0.135 A 
ATOM     91  C   UNL A   1      49.783  27.262  24.445  1.00  0.00     0.135 A 
ATOM     92  F   UNL A   1      50.410  26.540  27.958  1.00  0.00    -0.206 F 
ATOM     93  C   UNL A   1      51.857  26.439  26.113  1.00  0.00     0.059 A 
ATOM     94  C   UNL A   1      51.031  26.989  23.895  1.00  0.00     0.059 A 
ATOM     95  F   UNL A   1      48.803  27.658  23.618  1.00  0.00    -0.206 F 
ATOM     96  C   UNL A   1      52.066  26.590  24.740  1.00  0.00     0.060 A 
BRANCH  96  97
ATOM     97  S   UNL A   1      53.703  26.229  24.071  1.00  0.00     0.124 S 
ATOM     98  O   UNL A   1      54.015  24.962  24.724  1.00  0.00    -0.237 OA
ATOM     99  O   UNL A   1      53.445  26.156  22.637  1.00  0.00    -0.237 OA
ATOM    100  O   UNL A   1      54.506  27.371  24.500  1.00  0.00    -0.744 OA
ENDBRANCH  96  97
ENDBRANCH  64  89
ENDBRANCH  38  39
ENDBRANCH  30  33
ENDBRANCH  28  29
ENDBRANCH  27  28
ENDBRANCH  26  27
ENDBRANCH   1  26
TORSDOF 19
ENDMDL
