MODEL 1
REMARK VINA RESULT:     -12.1      0.000      0.000
REMARK SMILES C/C(=N/N=c1\[nH]c(O)c(C(=O)NCCCCCCNC(=O)c2ccc(-c3c4nc(c(-c5c(F)cc(S(=O)(=O)[O-])cc5F)c5ccc([nH]5)c(-c5c(F)cc(S(=O)(=O)[O-])cc5F)c5nc(c(-c6c(F)cc(S(=O)(=O)[O-])cc6F)c6ccc3[nH]6)C=C5)C=C4)cc2)s1)c1ccc2c(c1)OCO2
REMARK SMILES IDX 16 1 15 2 14 3 13 4 12 5 10 6 11 7 9 9 4 10 5 11 6 12 88 13
REMARK SMILES IDX 7 14 3 16 1 17 2 18 89 19 90 20 94 21 91 22 93 23 92 24
REMARK SMILES IDX 95 25 97 26 96 27 8 28 17 30 18 31 19 32 20 33 21 35 22 36
REMARK SMILES IDX 23 37 87 38 24 39 86 40 25 41 26 42 27 43 80 44 28 45 85 46
REMARK SMILES IDX 79 47 81 48 29 49 84 50 78 51 77 52 30 54 64 55 43 56 63 57
REMARK SMILES IDX 44 58 47 59 62 60 82 61 45 62 46 63 61 65 83 66 48 67 31 68
REMARK SMILES IDX 32 69 41 70 33 71 34 72 40 73 42 74 35 75 36 76 37 77 38 78
REMARK SMILES IDX 39 79 65 80 66 81 75 82 67 83 68 84 74 85 76 86 69 87 70 88
REMARK SMILES IDX 71 89 72 90 73 91 49 92 50 93 59 94 51 95 52 96 58 97 60 98
REMARK SMILES IDX 53 99 54 100 55 101 56 102 57 103
REMARK H PARENT 12 8 6 15 8 29 19 34 81 53 47 64
REMARK Flexibility Score: inf
ROOT
ATOM      1  C   UNL A   1      33.573  29.972  26.240  1.00  0.00     0.002 C 
ENDROOT
BRANCH   1   2
ATOM      2  C   UNL A   1      34.007  28.514  26.456  1.00  0.00     0.002 C 
BRANCH   2   3
ATOM      3  C   UNL A   1      33.238  27.469  25.636  1.00  0.00     0.021 C 
BRANCH   3   4
ATOM      4  C   UNL A   1      31.733  27.744  25.563  1.00  0.00     0.116 C 
BRANCH   4   5
ATOM      5  N   UNL A   1      31.347  28.203  24.237  1.00  0.00    -0.351 N 
ATOM      6  C   UNL A   1      31.191  27.562  23.039  1.00  0.00     0.266 C 
ATOM      7  O   UNL A   1      30.813  28.250  22.089  1.00  0.00    -0.268 OA
ATOM      8  H   UNL A   1      31.161  29.168  24.194  1.00  0.00     0.163 HD
BRANCH   6   9
ATOM      9  C   UNL A   1      31.407  26.101  22.885  1.00  0.00     0.155 A 
ATOM     10  N   UNL A   1      33.283  22.900  22.717  1.00  0.00    -0.121 NA
ATOM     11  C   UNL A   1      32.378  23.809  22.705  1.00  0.00     0.211 A 
ATOM     12  N   UNL A   1      31.094  23.855  23.174  1.00  0.00    -0.300 N 
ATOM     13  S   UNL A   1      32.804  25.410  22.085  1.00  0.00    -0.086 S 
ATOM     14  C   UNL A   1      30.580  25.122  23.311  1.00  0.00     0.214 A 
ATOM     15  H   UNL A   1      30.578  23.045  23.394  1.00  0.00     0.172 HD
BRANCH  10  16
ATOM     16  N   UNL A   1      32.885  21.688  23.271  1.00  0.00    -0.152 NA
ATOM     17  C   UNL A   1      33.571  19.924  24.797  1.00  0.00     0.069 C 
ATOM     18  C   UNL A   1      33.732  21.289  24.176  1.00  0.00     0.067 C 
BRANCH  18  19
ATOM     19  C   UNL A   1      34.891  22.072  24.671  1.00  0.00     0.001 A 
ATOM     20  C   UNL A   1      34.679  23.320  25.298  1.00  0.00     0.014 A 
ATOM     21  C   UNL A   1      36.162  21.503  24.588  1.00  0.00     0.060 A 
ATOM     22  C   UNL A   1      35.752  23.991  25.895  1.00  0.00     0.051 A 
ATOM     23  C   UNL A   1      37.183  22.173  25.217  1.00  0.00     0.166 A 
ATOM     24  C   UNL A   1      36.985  23.373  25.863  1.00  0.00     0.165 A 
ATOM     25  O   UNL A   1      38.462  21.727  25.333  1.00  0.00    -0.454 OA
ATOM     26  O   UNL A   1      38.118  23.818  26.472  1.00  0.00    -0.454 OA
ATOM     27  C   UNL A   1      38.984  22.674  26.286  1.00  0.00     0.468 C 
ENDBRANCH  18  19
ENDBRANCH  10  16
BRANCH  14  28
ATOM     28  O   UNL A   1      29.370  25.286  23.911  1.00  0.00    -0.493 OA
ATOM     29  H   UNL A   1      28.583  25.104  23.437  1.00  0.00     0.295 HD
ENDBRANCH  14  28
ENDBRANCH   6   9
ENDBRANCH   4   5
ENDBRANCH   3   4
ENDBRANCH   2   3
ENDBRANCH   1   2
BRANCH   1  30
ATOM     30  C   UNL A   1      33.278  30.781  27.513  1.00  0.00     0.021 C 
BRANCH  30  31
ATOM     31  C   UNL A   1      34.132  32.033  27.653  1.00  0.00     0.116 C 
BRANCH  31  32
ATOM     32  N   UNL A   1      34.125  32.538  29.023  1.00  0.00    -0.352 N 
ATOM     33  C   UNL A   1      34.929  32.173  30.081  1.00  0.00     0.251 C 
ATOM     34  H   UNL A   1      33.457  33.234  29.216  1.00  0.00     0.163 HD
ATOM     35  O   UNL A   1      34.566  32.383  31.228  1.00  0.00    -0.269 OA
BRANCH  33  36
ATOM     36  C   UNL A   1      36.225  31.518  29.812  1.00  0.00     0.039 A 
ATOM     37  C   UNL A   1      37.379  32.289  29.667  1.00  0.00     0.014 A 
ATOM     38  C   UNL A   1      36.283  30.128  29.704  1.00  0.00     0.014 A 
ATOM     39  C   UNL A   1      38.602  31.643  29.503  1.00  0.00     0.010 A 
ATOM     40  C   UNL A   1      37.503  29.487  29.652  1.00  0.00     0.010 A 
ATOM     41  C   UNL A   1      38.667  30.238  29.533  1.00  0.00    -0.014 A 
BRANCH  41  42
ATOM     42  C   UNL A   1      39.971  29.577  29.655  1.00  0.00     0.031 A 
ATOM     43  C   UNL A   1      40.391  29.417  31.074  1.00  0.00     0.074 A 
ATOM     44  C   UNL A   1      40.651  28.984  28.647  1.00  0.00     0.049 A 
ATOM     45  N   UNL A   1      41.271  30.116  31.711  1.00  0.00    -0.248 NA
ATOM     46  C   UNL A   1      39.606  28.525  31.948  1.00  0.00     0.031 C 
ATOM     47  C   UNL A   1      40.192  28.788  27.267  1.00  0.00     0.029 A 
ATOM     48  N   UNL A   1      41.861  28.343  28.651  1.00  0.00    -0.354 N 
ATOM     49  C   UNL A   1      41.375  29.518  32.964  1.00  0.00     0.074 A 
ATOM     50  C   UNL A   1      40.173  28.751  33.136  1.00  0.00     0.031 C 
ATOM     51  C   UNL A   1      40.987  27.889  26.643  1.00  0.00     0.029 A 
ATOM     52  C   UNL A   1      42.115  27.586  27.505  1.00  0.00     0.049 A 
ATOM     53  H   UNL A   1      42.498  28.410  29.399  1.00  0.00     0.167 HD
ATOM     54  C   UNL A   1      42.596  29.411  33.559  1.00  0.00     0.037 A 
ATOM     55  C   UNL A   1      43.184  26.785  27.254  1.00  0.00     0.037 A 
ATOM     56  C   UNL A   1      43.556  30.248  32.882  1.00  0.00     0.049 A 
ATOM     57  C   UNL A   1      44.293  27.251  28.115  1.00  0.00     0.074 A 
ATOM     58  C   UNL A   1      43.838  31.593  32.783  1.00  0.00     0.029 A 
ATOM     59  N   UNL A   1      44.161  29.624  31.825  1.00  0.00    -0.354 N 
ATOM     60  N   UNL A   1      44.875  28.409  27.967  1.00  0.00    -0.248 NA
ATOM     61  C   UNL A   1      44.553  26.575  29.382  1.00  0.00     0.031 C 
ATOM     62  C   UNL A   1      44.540  31.765  31.552  1.00  0.00     0.029 A 
ATOM     63  C   UNL A   1      44.712  30.520  30.953  1.00  0.00     0.049 A 
ATOM     64  H   UNL A   1      44.194  28.647  31.707  1.00  0.00     0.167 HD
ATOM     65  C   UNL A   1      45.189  28.792  29.253  1.00  0.00     0.074 A 
ATOM     66  C   UNL A   1      45.142  27.572  30.048  1.00  0.00     0.031 C 
ATOM     67  C   UNL A   1      45.106  30.100  29.627  1.00  0.00     0.037 A 
BRANCH  54  68
ATOM     68  C   UNL A   1      43.079  28.203  34.349  1.00  0.00     0.058 A 
ATOM     69  C   UNL A   1      43.534  28.399  35.674  1.00  0.00     0.135 A 
ATOM     70  C   UNL A   1      43.412  26.953  33.782  1.00  0.00     0.135 A 
ATOM     71  F   UNL A   1      43.284  29.550  36.318  1.00  0.00    -0.206 F 
ATOM     72  C   UNL A   1      44.316  27.459  36.350  1.00  0.00     0.059 A 
ATOM     73  C   UNL A   1      44.149  25.985  34.454  1.00  0.00     0.059 A 
ATOM     74  F   UNL A   1      43.126  26.635  32.516  1.00  0.00    -0.206 F 
ATOM     75  C   UNL A   1      44.628  26.257  35.724  1.00  0.00     0.060 A 
BRANCH  75  76
ATOM     76  S   UNL A   1      45.682  25.061  36.560  1.00  0.00     0.124 S 
ATOM     77  O   UNL A   1      44.724  24.019  36.908  1.00  0.00    -0.237 OA
ATOM     78  O   UNL A   1      46.646  24.727  35.518  1.00  0.00    -0.237 OA
ATOM     79  O   UNL A   1      46.224  25.823  37.683  1.00  0.00    -0.744 OA
ENDBRANCH  75  76
ENDBRANCH  54  68
BRANCH  55  80
ATOM     80  C   UNL A   1      43.306  25.552  26.433  1.00  0.00     0.058 A 
ATOM     81  C   UNL A   1      44.254  25.448  25.396  1.00  0.00     0.135 A 
ATOM     82  C   UNL A   1      42.709  24.348  26.851  1.00  0.00     0.135 A 
ATOM     83  F   UNL A   1      44.880  26.543  24.941  1.00  0.00    -0.206 F 
ATOM     84  C   UNL A   1      44.637  24.217  24.852  1.00  0.00     0.059 A 
ATOM     85  C   UNL A   1      43.072  23.107  26.321  1.00  0.00     0.059 A 
ATOM     86  F   UNL A   1      41.822  24.338  27.859  1.00  0.00    -0.206 F 
ATOM     87  C   UNL A   1      44.059  23.047  25.341  1.00  0.00     0.060 A 
BRANCH  87  88
ATOM     88  S   UNL A   1      44.688  21.446  24.774  1.00  0.00     0.124 S 
ATOM     89  O   UNL A   1      43.694  20.522  25.309  1.00  0.00    -0.237 OA
ATOM     90  O   UNL A   1      44.689  21.609  23.324  1.00  0.00    -0.237 OA
ATOM     91  O   UNL A   1      46.010  21.365  25.389  1.00  0.00    -0.744 OA
ENDBRANCH  87  88
ENDBRANCH  55  80
BRANCH  67  92
ATOM     92  C   UNL A   1      45.323  31.144  28.579  1.00  0.00     0.058 A 
ATOM     93  C   UNL A   1      44.343  31.650  27.710  1.00  0.00     0.135 A 
ATOM     94  C   UNL A   1      46.605  31.711  28.510  1.00  0.00     0.135 A 
ATOM     95  F   UNL A   1      43.077  31.207  27.764  1.00  0.00    -0.206 F 
ATOM     96  C   UNL A   1      44.638  32.662  26.794  1.00  0.00     0.059 A 
ATOM     97  C   UNL A   1      46.913  32.737  27.628  1.00  0.00     0.059 A 
ATOM     98  F   UNL A   1      47.572  31.289  29.342  1.00  0.00    -0.206 F 
ATOM     99  C   UNL A   1      45.926  33.200  26.763  1.00  0.00     0.060 A 
BRANCH  99 100
ATOM    100  S   UNL A   1      46.297  34.553  25.627  1.00  0.00     0.124 S 
ATOM    101  O   UNL A   1      45.929  35.725  26.414  1.00  0.00    -0.237 OA
ATOM    102  O   UNL A   1      47.726  34.376  25.380  1.00  0.00    -0.237 OA
ATOM    103  O   UNL A   1      45.438  34.280  24.477  1.00  0.00    -0.744 OA
ENDBRANCH  99 100
ENDBRANCH  67  92
ENDBRANCH  41  42
ENDBRANCH  33  36
ENDBRANCH  31  32
ENDBRANCH  30  31
ENDBRANCH   1  30
TORSDOF 19
ENDMDL
MODEL 2
REMARK VINA RESULT:     -11.5      2.911      9.437
REMARK SMILES C/C(=N/N=c1\[nH]c(O)c(C(=O)NCCCCCCNC(=O)c2ccc(-c3c4nc(c(-c5c(F)cc(S(=O)(=O)[O-])cc5F)c5ccc([nH]5)c(-c5c(F)cc(S(=O)(=O)[O-])cc5F)c5nc(c(-c6c(F)cc(S(=O)(=O)[O-])cc6F)c6ccc3[nH]6)C=C5)C=C4)cc2)s1)c1ccc2c(c1)OCO2
REMARK SMILES IDX 16 1 15 2 14 3 13 4 12 5 10 6 11 7 9 9 4 10 5 11 6 12 88 13
REMARK SMILES IDX 7 14 3 16 1 17 2 18 89 19 90 20 94 21 91 22 93 23 92 24
REMARK SMILES IDX 95 25 97 26 96 27 8 28 17 30 18 31 19 32 20 33 21 35 22 36
REMARK SMILES IDX 23 37 87 38 24 39 86 40 25 41 26 42 27 43 80 44 28 45 85 46
REMARK SMILES IDX 79 47 81 48 29 49 84 50 78 51 77 52 30 54 64 55 43 56 63 57
REMARK SMILES IDX 44 58 47 59 62 60 82 61 45 62 46 63 61 65 83 66 48 67 31 68
REMARK SMILES IDX 32 69 41 70 33 71 34 72 40 73 42 74 35 75 36 76 37 77 38 78
REMARK SMILES IDX 39 79 65 80 66 81 75 82 67 83 68 84 74 85 76 86 69 87 70 88
REMARK SMILES IDX 71 89 72 90 73 91 49 92 50 93 59 94 51 95 52 96 58 97 60 98
REMARK SMILES IDX 53 99 54 100 55 101 56 102 57 103
REMARK H PARENT 12 8 6 15 8 29 19 34 81 53 47 64
REMARK Flexibility Score: inf
ROOT
ATOM      1  C   UNL A   1      37.420  23.550  25.884  1.00  0.00     0.002 C 
ENDROOT
BRANCH   1   2
ATOM      2  C   UNL A   1      37.443  22.255  25.057  1.00  0.00     0.002 C 
BRANCH   2   3
ATOM      3  C   UNL A   1      36.749  22.333  23.691  1.00  0.00     0.021 C 
BRANCH   3   4
ATOM      4  C   UNL A   1      35.282  22.763  23.779  1.00  0.00     0.116 C 
BRANCH   4   5
ATOM      5  N   UNL A   1      34.475  21.743  24.432  1.00  0.00    -0.351 N 
ATOM      6  C   UNL A   1      33.136  21.639  24.689  1.00  0.00     0.266 C 
ATOM      7  O   UNL A   1      32.758  20.607  25.245  1.00  0.00    -0.268 OA
ATOM      8  H   UNL A   1      34.998  20.974  24.753  1.00  0.00     0.163 HD
BRANCH   6   9
ATOM      9  C   UNL A   1      32.164  22.684  24.277  1.00  0.00     0.155 A 
ATOM     10  N   UNL A   1      30.306  25.898  24.404  1.00  0.00    -0.121 NA
ATOM     11  C   UNL A   1      30.750  24.733  24.100  1.00  0.00     0.211 A 
ATOM     12  N   UNL A   1      31.027  24.120  22.909  1.00  0.00    -0.300 N 
ATOM     13  S   UNL A   1      31.250  23.656  25.411  1.00  0.00    -0.086 S 
ATOM     14  C   UNL A   1      31.840  23.018  23.008  1.00  0.00     0.214 A 
ATOM     15  H   UNL A   1      30.671  24.443  22.049  1.00  0.00     0.172 HD
BRANCH  10  16
ATOM     16  N   UNL A   1      29.988  26.702  23.317  1.00  0.00    -0.152 NA
ATOM     17  C   UNL A   1      30.300  28.923  22.378  1.00  0.00     0.069 C 
ATOM     18  C   UNL A   1      30.616  27.842  23.380  1.00  0.00     0.067 C 
BRANCH  18  19
ATOM     19  C   UNL A   1      31.647  28.197  24.387  1.00  0.00     0.001 A 
ATOM     20  C   UNL A   1      32.937  27.632  24.300  1.00  0.00     0.014 A 
ATOM     21  C   UNL A   1      31.336  29.165  25.342  1.00  0.00     0.060 A 
ATOM     22  C   UNL A   1      33.951  28.075  25.156  1.00  0.00     0.051 A 
ATOM     23  C   UNL A   1      32.365  29.600  26.141  1.00  0.00     0.166 A 
ATOM     24  C   UNL A   1      33.638  29.084  26.044  1.00  0.00     0.165 A 
ATOM     25  O   UNL A   1      32.281  30.603  27.055  1.00  0.00    -0.454 OA
ATOM     26  O   UNL A   1      34.509  29.711  26.880  1.00  0.00    -0.454 OA
ATOM     27  C   UNL A   1      33.677  30.789  27.367  1.00  0.00     0.468 C 
ENDBRANCH  18  19
ENDBRANCH  10  16
BRANCH  14  28
ATOM     28  O   UNL A   1      32.300  22.427  21.872  1.00  0.00    -0.493 OA
ATOM     29  H   UNL A   1      32.667  22.949  21.187  1.00  0.00     0.295 HD
ENDBRANCH  14  28
ENDBRANCH   6   9
ENDBRANCH   4   5
ENDBRANCH   3   4
ENDBRANCH   2   3
ENDBRANCH   1   2
BRANCH   1  30
ATOM     30  C   UNL A   1      38.787  24.074  26.350  1.00  0.00     0.021 C 
BRANCH  30  31
ATOM     31  C   UNL A   1      39.604  23.048  27.124  1.00  0.00     0.116 C 
BRANCH  31  32
ATOM     32  N   UNL A   1      40.806  22.657  26.396  1.00  0.00    -0.352 N 
ATOM     33  C   UNL A   1      41.841  23.450  25.949  1.00  0.00     0.251 C 
ATOM     34  H   UNL A   1      40.890  21.696  26.198  1.00  0.00     0.163 HD
ATOM     35  O   UNL A   1      42.562  23.063  25.043  1.00  0.00    -0.269 OA
BRANCH  33  36
ATOM     36  C   UNL A   1      42.060  24.771  26.571  1.00  0.00     0.039 A 
ATOM     37  C   UNL A   1      41.632  25.929  25.920  1.00  0.00     0.014 A 
ATOM     38  C   UNL A   1      42.696  24.850  27.812  1.00  0.00     0.014 A 
ATOM     39  C   UNL A   1      41.769  27.154  26.567  1.00  0.00     0.010 A 
ATOM     40  C   UNL A   1      42.731  26.045  28.498  1.00  0.00     0.010 A 
ATOM     41  C   UNL A   1      42.286  27.206  27.875  1.00  0.00    -0.014 A 
BRANCH  41  42
ATOM     42  C   UNL A   1      42.156  28.442  28.655  1.00  0.00     0.031 A 
ATOM     43  C   UNL A   1      43.244  29.413  28.359  1.00  0.00     0.074 A 
ATOM     44  C   UNL A   1      41.085  28.789  29.406  1.00  0.00     0.049 A 
ATOM     45  N   UNL A   1      44.274  29.677  29.094  1.00  0.00    -0.248 NA
ATOM     46  C   UNL A   1      43.317  30.006  27.011  1.00  0.00     0.031 C 
ATOM     47  C   UNL A   1      39.812  28.068  29.517  1.00  0.00     0.029 A 
ATOM     48  N   UNL A   1      40.860  29.908  30.163  1.00  0.00    -0.354 N 
ATOM     49  C   UNL A   1      44.933  30.713  28.438  1.00  0.00     0.074 A 
ATOM     50  C   UNL A   1      44.469  30.680  27.079  1.00  0.00     0.031 C 
ATOM     51  C   UNL A   1      38.882  28.866  30.090  1.00  0.00     0.029 A 
ATOM     52  C   UNL A   1      39.530  30.079  30.556  1.00  0.00     0.049 A 
ATOM     53  H   UNL A   1      41.574  30.539  30.409  1.00  0.00     0.167 HD
ATOM     54  C   UNL A   1      45.496  31.719  29.165  1.00  0.00     0.037 A 
ATOM     55  C   UNL A   1      38.990  31.121  31.240  1.00  0.00     0.037 A 
ATOM     56  C   UNL A   1      45.568  31.348  30.557  1.00  0.00     0.049 A 
ATOM     57  C   UNL A   1      40.088  31.776  31.982  1.00  0.00     0.074 A 
ATOM     58  C   UNL A   1      46.318  30.501  31.343  1.00  0.00     0.029 A 
ATOM     59  N   UNL A   1      44.432  31.655  31.254  1.00  0.00    -0.354 N 
ATOM     60  N   UNL A   1      40.726  31.204  32.967  1.00  0.00    -0.248 NA
ATOM     61  C   UNL A   1      40.732  32.959  31.421  1.00  0.00     0.031 C 
ATOM     62  C   UNL A   1      45.525  30.218  32.496  1.00  0.00     0.029 A 
ATOM     63  C   UNL A   1      44.334  30.933  32.410  1.00  0.00     0.049 A 
ATOM     64  H   UNL A   1      43.765  32.316  30.958  1.00  0.00     0.167 HD
ATOM     65  C   UNL A   1      42.017  31.671  32.845  1.00  0.00     0.074 A 
ATOM     66  C   UNL A   1      41.924  32.865  32.016  1.00  0.00     0.031 C 
ATOM     67  C   UNL A   1      43.077  30.860  33.120  1.00  0.00     0.037 A 
BRANCH  54  68
ATOM     68  C   UNL A   1      45.473  33.192  28.781  1.00  0.00     0.058 A 
ATOM     69  C   UNL A   1      46.685  33.920  28.818  1.00  0.00     0.135 A 
ATOM     70  C   UNL A   1      44.304  33.981  28.694  1.00  0.00     0.135 A 
ATOM     71  F   UNL A   1      47.862  33.281  28.906  1.00  0.00    -0.206 F 
ATOM     72  C   UNL A   1      46.725  35.317  28.840  1.00  0.00     0.059 A 
ATOM     73  C   UNL A   1      44.325  35.371  28.667  1.00  0.00     0.059 A 
ATOM     74  F   UNL A   1      43.074  33.458  28.726  1.00  0.00    -0.206 F 
ATOM     75  C   UNL A   1      45.535  36.033  28.775  1.00  0.00     0.060 A 
BRANCH  75  76
ATOM     76  S   UNL A   1      45.569  37.831  28.859  1.00  0.00     0.124 S 
ATOM     77  O   UNL A   1      46.230  38.171  27.606  1.00  0.00    -0.237 OA
ATOM     78  O   UNL A   1      44.150  38.156  28.947  1.00  0.00    -0.237 OA
ATOM     79  O   UNL A   1      46.340  38.093  30.073  1.00  0.00    -0.744 OA
ENDBRANCH  75  76
ENDBRANCH  54  68
BRANCH  55  80
ATOM     80  C   UNL A   1      37.622  31.702  31.208  1.00  0.00     0.058 A 
ATOM     81  C   UNL A   1      36.701  31.475  32.250  1.00  0.00     0.135 A 
ATOM     82  C   UNL A   1      37.300  32.738  30.311  1.00  0.00     0.135 A 
ATOM     83  F   UNL A   1      36.930  30.515  33.157  1.00  0.00    -0.206 F 
ATOM     84  C   UNL A   1      35.564  32.271  32.431  1.00  0.00     0.059 A 
ATOM     85  C   UNL A   1      36.170  33.544  30.470  1.00  0.00     0.059 A 
ATOM     86  F   UNL A   1      38.134  33.056  29.308  1.00  0.00    -0.206 F 
ATOM     87  C   UNL A   1      35.321  33.323  31.550  1.00  0.00     0.060 A 
BRANCH  87  88
ATOM     88  S   UNL A   1      33.960  34.467  31.892  1.00  0.00     0.124 S 
ATOM     89  O   UNL A   1      33.193  33.736  32.896  1.00  0.00    -0.237 OA
ATOM     90  O   UNL A   1      34.663  35.652  32.369  1.00  0.00    -0.237 OA
ATOM     91  O   UNL A   1      33.306  34.614  30.594  1.00  0.00    -0.744 OA
ENDBRANCH  87  88
ENDBRANCH  55  80
BRANCH  67  92
ATOM     92  C   UNL A   1      42.884  29.772  34.128  1.00  0.00     0.058 A 
ATOM     93  C   UNL A   1      42.907  29.934  35.523  1.00  0.00     0.135 A 
ATOM     94  C   UNL A   1      42.585  28.496  33.628  1.00  0.00     0.135 A 
ATOM     95  F   UNL A   1      43.117  31.138  36.076  1.00  0.00    -0.206 F 
ATOM     96  C   UNL A   1      42.668  28.859  36.382  1.00  0.00     0.059 A 
ATOM     97  C   UNL A   1      42.315  27.421  34.462  1.00  0.00     0.059 A 
ATOM     98  F   UNL A   1      42.514  28.293  32.302  1.00  0.00    -0.206 F 
ATOM     99  C   UNL A   1      42.370  27.606  35.841  1.00  0.00     0.060 A 
BRANCH  99 100
ATOM    100  S   UNL A   1      41.994  26.227  36.943  1.00  0.00     0.124 S 
ATOM    101  O   UNL A   1      42.972  26.412  38.010  1.00  0.00    -0.237 OA
ATOM    102  O   UNL A   1      40.602  26.482  37.305  1.00  0.00    -0.237 OA
ATOM    103  O   UNL A   1      42.203  25.050  36.103  1.00  0.00    -0.744 OA
ENDBRANCH  99 100
ENDBRANCH  67  92
ENDBRANCH  41  42
ENDBRANCH  33  36
ENDBRANCH  31  32
ENDBRANCH  30  31
ENDBRANCH   1  30
TORSDOF 19
ENDMDL
MODEL 3
REMARK VINA RESULT:     -11.2      4.798     12.015
REMARK SMILES C/C(=N/N=c1\[nH]c(O)c(C(=O)NCCCCCCNC(=O)c2ccc(-c3c4nc(c(-c5c(F)cc(S(=O)(=O)[O-])cc5F)c5ccc([nH]5)c(-c5c(F)cc(S(=O)(=O)[O-])cc5F)c5nc(c(-c6c(F)cc(S(=O)(=O)[O-])cc6F)c6ccc3[nH]6)C=C5)C=C4)cc2)s1)c1ccc2c(c1)OCO2
REMARK SMILES IDX 16 1 15 2 14 3 13 4 12 5 10 6 11 7 9 9 4 10 5 11 6 12 88 13
REMARK SMILES IDX 7 14 3 16 1 17 2 18 89 19 90 20 94 21 91 22 93 23 92 24
REMARK SMILES IDX 95 25 97 26 96 27 8 28 17 30 18 31 19 32 20 33 21 35 22 36
REMARK SMILES IDX 23 37 87 38 24 39 86 40 25 41 26 42 27 43 80 44 28 45 85 46
REMARK SMILES IDX 79 47 81 48 29 49 84 50 78 51 77 52 30 54 64 55 43 56 63 57
REMARK SMILES IDX 44 58 47 59 62 60 82 61 45 62 46 63 61 65 83 66 48 67 31 68
REMARK SMILES IDX 32 69 41 70 33 71 34 72 40 73 42 74 35 75 36 76 37 77 38 78
REMARK SMILES IDX 39 79 65 80 66 81 75 82 67 83 68 84 74 85 76 86 69 87 70 88
REMARK SMILES IDX 71 89 72 90 73 91 49 92 50 93 59 94 51 95 52 96 58 97 60 98
REMARK SMILES IDX 53 99 54 100 55 101 56 102 57 103
REMARK H PARENT 12 8 6 15 8 29 19 34 81 53 47 64
REMARK Flexibility Score: inf
ROOT
ATOM      1  C   UNL A   1      44.887  22.734  26.453  1.00  0.00     0.002 C 
ENDROOT
BRANCH   1   2
ATOM      2  C   UNL A   1      45.163  24.067  25.739  1.00  0.00     0.002 C 
BRANCH   2   3
ATOM      3  C   UNL A   1      45.468  25.257  26.660  1.00  0.00     0.021 C 
BRANCH   3   4
ATOM      4  C   UNL A   1      44.794  26.557  26.214  1.00  0.00     0.116 C 
BRANCH   4   5
ATOM      5  N   UNL A   1      45.366  27.044  24.967  1.00  0.00    -0.351 N 
ATOM      6  C   UNL A   1      46.594  27.545  24.640  1.00  0.00     0.266 C 
ATOM      7  O   UNL A   1      46.773  27.845  23.458  1.00  0.00    -0.268 OA
ATOM      8  H   UNL A   1      44.742  27.004  24.207  1.00  0.00     0.163 HD
BRANCH   6   9
ATOM      9  C   UNL A   1      47.689  27.679  25.635  1.00  0.00     0.155 A 
ATOM     10  N   UNL A   1      49.280  28.150  28.958  1.00  0.00    -0.121 NA
ATOM     11  C   UNL A   1      49.045  27.983  27.709  1.00  0.00     0.211 A 
ATOM     12  N   UNL A   1      49.636  27.216  26.741  1.00  0.00    -0.300 N 
ATOM     13  S   UNL A   1      47.620  28.763  27.009  1.00  0.00    -0.086 S 
ATOM     14  C   UNL A   1      48.867  27.017  25.621  1.00  0.00     0.214 A 
ATOM     15  H   UNL A   1      50.539  26.837  26.840  1.00  0.00     0.172 HD
BRANCH  10  16
ATOM     16  N   UNL A   1      50.384  27.459  29.442  1.00  0.00    -0.152 NA
ATOM     17  C   UNL A   1      51.192  26.145  31.321  1.00  0.00     0.069 C 
ATOM     18  C   UNL A   1      50.096  26.834  30.548  1.00  0.00     0.067 C 
BRANCH  18  19
ATOM     19  C   UNL A   1      48.743  26.737  31.150  1.00  0.00     0.001 A 
ATOM     20  C   UNL A   1      47.749  25.956  30.522  1.00  0.00     0.014 A 
ATOM     21  C   UNL A   1      48.521  27.349  32.384  1.00  0.00     0.060 A 
ATOM     22  C   UNL A   1      46.523  25.744  31.160  1.00  0.00     0.051 A 
ATOM     23  C   UNL A   1      47.319  27.089  32.997  1.00  0.00     0.166 A 
ATOM     24  C   UNL A   1      46.353  26.300  32.412  1.00  0.00     0.165 A 
ATOM     25  O   UNL A   1      46.962  27.509  34.239  1.00  0.00    -0.454 OA
ATOM     26  O   UNL A   1      45.277  26.122  33.226  1.00  0.00    -0.454 OA
ATOM     27  C   UNL A   1      45.764  26.733  34.444  1.00  0.00     0.468 C 
ENDBRANCH  18  19
ENDBRANCH  10  16
BRANCH  14  28
ATOM     28  O   UNL A   1      49.296  26.147  24.666  1.00  0.00    -0.493 OA
ATOM     29  H   UNL A   1      49.922  25.485  24.883  1.00  0.00     0.295 HD
ENDBRANCH  14  28
ENDBRANCH   6   9
ENDBRANCH   4   5
ENDBRANCH   3   4
ENDBRANCH   2   3
ENDBRANCH   1   2
BRANCH   1  30
ATOM     30  C   UNL A   1      43.904  21.786  25.750  1.00  0.00     0.021 C 
BRANCH  30  31
ATOM     31  C   UNL A   1      42.740  22.500  25.078  1.00  0.00     0.116 C 
BRANCH  31  32
ATOM     32  N   UNL A   1      41.457  22.070  25.624  1.00  0.00    -0.352 N 
ATOM     33  C   UNL A   1      40.746  22.602  26.679  1.00  0.00     0.251 C 
ATOM     34  H   UNL A   1      41.043  21.296  25.179  1.00  0.00     0.163 HD
ATOM     35  O   UNL A   1      39.912  21.924  27.259  1.00  0.00    -0.269 OA
BRANCH  33  36
ATOM     36  C   UNL A   1      41.011  23.991  27.102  1.00  0.00     0.039 A 
ATOM     37  C   UNL A   1      40.261  25.039  26.567  1.00  0.00     0.014 A 
ATOM     38  C   UNL A   1      42.016  24.244  28.037  1.00  0.00     0.014 A 
ATOM     39  C   UNL A   1      40.469  26.329  27.048  1.00  0.00     0.010 A 
ATOM     40  C   UNL A   1      42.147  25.500  28.591  1.00  0.00     0.010 A 
ATOM     41  C   UNL A   1      41.390  26.553  28.090  1.00  0.00    -0.014 A 
BRANCH  41  42
ATOM     42  C   UNL A   1      41.392  27.844  28.786  1.00  0.00     0.031 A 
ATOM     43  C   UNL A   1      42.480  28.740  28.310  1.00  0.00     0.074 A 
ATOM     44  C   UNL A   1      40.422  28.292  29.616  1.00  0.00     0.049 A 
ATOM     45  N   UNL A   1      43.592  29.005  28.913  1.00  0.00    -0.248 NA
ATOM     46  C   UNL A   1      42.434  29.235  26.922  1.00  0.00     0.031 C 
ATOM     47  C   UNL A   1      39.140  27.641  29.910  1.00  0.00     0.029 A 
ATOM     48  N   UNL A   1      40.323  29.469  30.309  1.00  0.00    -0.354 N 
ATOM     49  C   UNL A   1      44.219  29.961  28.119  1.00  0.00     0.074 A 
ATOM     50  C   UNL A   1      43.612  29.857  26.821  1.00  0.00     0.031 C 
ATOM     51  C   UNL A   1      38.309  28.519  30.516  1.00  0.00     0.029 A 
ATOM     52  C   UNL A   1      39.050  29.729  30.823  1.00  0.00     0.049 A 
ATOM     53  H   UNL A   1      41.084  30.081  30.434  1.00  0.00     0.167 HD
ATOM     54  C   UNL A   1      44.895  30.987  28.709  1.00  0.00     0.037 A 
ATOM     55  C   UNL A   1      38.627  30.840  31.481  1.00  0.00     0.037 A 
ATOM     56  C   UNL A   1      45.100  30.709  30.109  1.00  0.00     0.049 A 
ATOM     57  C   UNL A   1      39.824  31.491  32.057  1.00  0.00     0.074 A 
ATOM     58  C   UNL A   1      45.895  29.883  30.874  1.00  0.00     0.029 A 
ATOM     59  N   UNL A   1      44.057  31.116  30.896  1.00  0.00    -0.354 N 
ATOM     60  N   UNL A   1      40.539  30.959  33.009  1.00  0.00    -0.248 NA
ATOM     61  C   UNL A   1      40.451  32.602  31.347  1.00  0.00     0.031 C 
ATOM     62  C   UNL A   1      45.218  29.717  32.119  1.00  0.00     0.029 A 
ATOM     63  C   UNL A   1      44.054  30.481  32.105  1.00  0.00     0.049 A 
ATOM     64  H   UNL A   1      43.390  31.786  30.622  1.00  0.00     0.167 HD
ATOM     65  C   UNL A   1      41.827  31.355  32.722  1.00  0.00     0.074 A 
ATOM     66  C   UNL A   1      41.695  32.493  31.821  1.00  0.00     0.031 C 
ATOM     67  C   UNL A   1      42.878  30.516  32.944  1.00  0.00     0.037 A 
BRANCH  54  68
ATOM     68  C   UNL A   1      44.890  32.429  28.223  1.00  0.00     0.058 A 
ATOM     69  C   UNL A   1      46.124  33.038  27.897  1.00  0.00     0.135 A 
ATOM     70  C   UNL A   1      43.803  33.321  28.365  1.00  0.00     0.135 A 
ATOM     71  F   UNL A   1      47.231  32.295  27.741  1.00  0.00    -0.206 F 
ATOM     72  C   UNL A   1      46.278  34.423  27.793  1.00  0.00     0.059 A 
ATOM     73  C   UNL A   1      43.925  34.698  28.219  1.00  0.00     0.059 A 
ATOM     74  F   UNL A   1      42.585  32.922  28.745  1.00  0.00    -0.206 F 
ATOM     75  C   UNL A   1      45.171  35.245  27.968  1.00  0.00     0.060 A 
BRANCH  75  76
ATOM     76  S   UNL A   1      45.366  37.034  27.892  1.00  0.00     0.124 S 
ATOM     77  O   UNL A   1      46.619  37.162  27.160  1.00  0.00    -0.237 OA
ATOM     78  O   UNL A   1      44.159  37.439  27.180  1.00  0.00    -0.237 OA
ATOM     79  O   UNL A   1      45.412  37.423  29.300  1.00  0.00    -0.744 OA
ENDBRANCH  75  76
ENDBRANCH  54  68
BRANCH  55  80
ATOM     80  C   UNL A   1      37.288  31.481  31.548  1.00  0.00     0.058 A 
ATOM     81  C   UNL A   1      36.645  31.716  32.780  1.00  0.00     0.135 A 
ATOM     82  C   UNL A   1      36.755  32.154  30.433  1.00  0.00     0.135 A 
ATOM     83  F   UNL A   1      37.090  31.125  33.898  1.00  0.00    -0.206 F 
ATOM     84  C   UNL A   1      35.579  32.614  32.909  1.00  0.00     0.059 A 
ATOM     85  C   UNL A   1      35.691  33.053  30.536  1.00  0.00     0.059 A 
ATOM     86  F   UNL A   1      37.323  32.026  29.223  1.00  0.00    -0.206 F 
ATOM     87  C   UNL A   1      35.126  33.300  31.784  1.00  0.00     0.060 A 
BRANCH  87  88
ATOM     88  S   UNL A   1      33.879  34.598  31.982  1.00  0.00     0.124 S 
ATOM     89  O   UNL A   1      33.368  34.739  30.623  1.00  0.00    -0.237 OA
ATOM     90  O   UNL A   1      32.962  34.003  32.948  1.00  0.00    -0.237 OA
ATOM     91  O   UNL A   1      34.650  35.735  32.479  1.00  0.00    -0.744 OA
ENDBRANCH  87  88
ENDBRANCH  55  80
BRANCH  67  92
ATOM     92  C   UNL A   1      42.749  29.510  34.043  1.00  0.00     0.058 A 
ATOM     93  C   UNL A   1      42.990  29.749  35.406  1.00  0.00     0.135 A 
ATOM     94  C   UNL A   1      42.280  28.238  33.682  1.00  0.00     0.135 A 
ATOM     95  F   UNL A   1      43.373  30.961  35.837  1.00  0.00    -0.206 F 
ATOM     96  C   UNL A   1      42.795  28.752  36.364  1.00  0.00     0.059 A 
ATOM     97  C   UNL A   1      42.052  27.241  34.620  1.00  0.00     0.059 A 
ATOM     98  F   UNL A   1      42.000  27.965  32.396  1.00  0.00    -0.206 F 
ATOM     99  C   UNL A   1      42.323  27.501  35.960  1.00  0.00     0.060 A 
BRANCH  99 100
ATOM    100  S   UNL A   1      42.006  26.227  37.199  1.00  0.00     0.124 S 
ATOM    101  O   UNL A   1      42.221  25.000  36.440  1.00  0.00    -0.237 OA
ATOM    102  O   UNL A   1      43.004  26.526  38.222  1.00  0.00    -0.237 OA
ATOM    103  O   UNL A   1      40.623  26.477  37.600  1.00  0.00    -0.744 OA
ENDBRANCH  99 100
ENDBRANCH  67  92
ENDBRANCH  41  42
ENDBRANCH  33  36
ENDBRANCH  31  32
ENDBRANCH  30  31
ENDBRANCH   1  30
TORSDOF 19
ENDMDL
