MODEL 1
REMARK VINA RESULT:     -11.6      0.000      0.000
REMARK SMILES C[C@H](NC(=O)N1CC[C@H](C(=O)NCCCCCCNC(=O)c2ccc(-c3c4nc(c(-c5c(F)cc(S(=O)(=O)[O-])cc5F)c5ccc([nH]5)c(-c5c(F)cc(S(=O)(=O)[O-])cc5F)c5nc(c(-c6c(F)cc(S(=O)(=O)[O-])cc6F)c6ccc3[nH]6)C=C5)C=C4)cc2)[C@@H]1C)[C@@H]1CCCO1
REMARK SMILES IDX 15 1 14 2 13 3 12 4 10 5 11 6 9 8 6 9 7 10 88 11 8 12 89 13
REMARK SMILES IDX 4 14 3 15 5 17 2 18 1 19 90 20 91 21 94 22 92 23 93 24 16 25
REMARK SMILES IDX 17 26 18 27 19 28 20 29 21 31 22 32 23 33 87 34 24 35 86 36
REMARK SMILES IDX 25 37 26 38 27 39 80 40 28 41 85 42 79 43 81 44 29 45 84 46
REMARK SMILES IDX 78 47 77 48 30 50 64 51 43 52 63 53 44 54 47 55 62 56 82 57
REMARK SMILES IDX 45 58 46 59 61 61 83 62 48 63 31 64 32 65 41 66 33 67 34 68
REMARK SMILES IDX 40 69 42 70 35 71 36 72 37 73 38 74 39 75 65 76 66 77 75 78
REMARK SMILES IDX 67 79 68 80 74 81 76 82 69 83 70 84 71 85 72 86 73 87 49 88
REMARK SMILES IDX 50 89 59 90 51 91 52 92 58 93 60 94 53 95 54 96 55 97 56 98
REMARK SMILES IDX 57 99
REMARK H PARENT 12 7 3 16 19 30 81 49 47 60
REMARK Flexibility Score: inf
ROOT
ATOM      1  C   UNL A   1      38.577  23.367  26.294  1.00  0.00     0.002 C 
ENDROOT
BRANCH   1   2
ATOM      2  C   UNL A   1      37.153  22.833  26.086  1.00  0.00     0.021 C 
BRANCH   2   3
ATOM      3  C   UNL A   1      36.888  22.298  24.678  1.00  0.00     0.116 C 
BRANCH   3   4
ATOM      4  N   UNL A   1      36.055  21.106  24.726  1.00  0.00    -0.356 N 
ATOM      5  C   UNL A   1      34.712  20.973  24.924  1.00  0.00     0.225 C 
ATOM      6  O   UNL A   1      34.250  19.837  24.980  1.00  0.00    -0.275 OA
ATOM      7  H   UNL A   1      36.539  20.259  24.594  1.00  0.00     0.163 HD
BRANCH   5   8
ATOM      8  C   UNL A   1      33.865  22.231  24.920  1.00  0.00     0.102 C 
ATOM      9  N   UNL A   1      31.917  22.808  26.137  1.00  0.00    -0.321 N 
ATOM     10  C   UNL A   1      31.513  21.783  25.206  1.00  0.00     0.122 C 
ATOM     11  C   UNL A   1      33.374  22.829  26.260  1.00  0.00     0.096 C 
ATOM     12  C   UNL A   1      32.578  21.903  24.129  1.00  0.00     0.037 C 
ATOM     13  C   UNL A   1      33.840  22.152  27.546  1.00  0.00     0.032 C 
BRANCH   9  14
ATOM     14  C   UNL A   1      30.994  23.526  26.821  1.00  0.00     0.317 C 
ATOM     15  N   UNL A   1      30.825  24.840  26.550  1.00  0.00    -0.333 N 
ATOM     16  H   UNL A   1      30.372  25.323  27.277  1.00  0.00     0.165 HD
ATOM     17  O   UNL A   1      30.220  22.997  27.620  1.00  0.00    -0.249 OA
BRANCH  15  18
ATOM     18  C   UNL A   1      31.167  25.713  25.408  1.00  0.00     0.109 C 
ATOM     19  C   UNL A   1      29.974  26.193  24.571  1.00  0.00     0.034 C 
BRANCH  18  20
ATOM     20  C   UNL A   1      31.940  26.949  25.946  1.00  0.00     0.140 C 
ATOM     21  C   UNL A   1      31.404  27.524  27.250  1.00  0.00     0.036 C 
ATOM     22  O   UNL A   1      31.891  28.041  25.000  1.00  0.00    -0.376 OA
ATOM     23  C   UNL A   1      31.925  28.935  27.203  1.00  0.00     0.031 C 
ATOM     24  C   UNL A   1      31.792  29.272  25.735  1.00  0.00     0.160 C 
ENDBRANCH  18  20
ENDBRANCH  15  18
ENDBRANCH   9  14
ENDBRANCH   5   8
ENDBRANCH   3   4
ENDBRANCH   2   3
ENDBRANCH   1   2
BRANCH   1  25
ATOM     25  C   UNL A   1      39.670  22.294  26.349  1.00  0.00     0.002 C 
BRANCH  25  26
ATOM     26  C   UNL A   1      40.555  22.339  27.597  1.00  0.00     0.021 C 
BRANCH  26  27
ATOM     27  C   UNL A   1      41.921  22.982  27.383  1.00  0.00     0.116 C 
BRANCH  27  28
ATOM     28  N   UNL A   1      41.946  23.841  26.211  1.00  0.00    -0.352 N 
ATOM     29  C   UNL A   1      41.685  25.184  26.109  1.00  0.00     0.251 C 
ATOM     30  H   UNL A   1      42.187  23.394  25.367  1.00  0.00     0.163 HD
ATOM     31  O   UNL A   1      41.572  25.700  24.998  1.00  0.00    -0.269 OA
BRANCH  29  32
ATOM     32  C   UNL A   1      41.516  26.005  27.327  1.00  0.00     0.039 A 
ATOM     33  C   UNL A   1      42.570  26.822  27.741  1.00  0.00     0.014 A 
ATOM     34  C   UNL A   1      40.328  25.967  28.065  1.00  0.00     0.014 A 
ATOM     35  C   UNL A   1      42.412  27.644  28.858  1.00  0.00     0.010 A 
ATOM     36  C   UNL A   1      40.145  26.843  29.133  1.00  0.00     0.010 A 
ATOM     37  C   UNL A   1      41.184  27.690  29.543  1.00  0.00    -0.014 A 
BRANCH  37  38
ATOM     38  C   UNL A   1      40.978  28.631  30.675  1.00  0.00     0.031 A 
ATOM     39  C   UNL A   1      41.804  28.513  31.928  1.00  0.00     0.074 A 
ATOM     40  C   UNL A   1      40.006  29.564  30.591  1.00  0.00     0.049 A 
ATOM     41  N   UNL A   1      41.742  29.224  33.025  1.00  0.00    -0.248 NA
ATOM     42  C   UNL A   1      42.815  27.445  31.964  1.00  0.00     0.031 C 
ATOM     43  C   UNL A   1      39.103  29.742  29.452  1.00  0.00     0.029 A 
ATOM     44  N   UNL A   1      39.613  30.535  31.478  1.00  0.00    -0.354 N 
ATOM     45  C   UNL A   1      42.696  28.686  33.882  1.00  0.00     0.074 A 
ATOM     46  C   UNL A   1      43.285  27.555  33.199  1.00  0.00     0.031 C 
ATOM     47  C   UNL A   1      38.280  30.774  29.699  1.00  0.00     0.029 A 
ATOM     48  C   UNL A   1      38.568  31.306  31.027  1.00  0.00     0.049 A 
ATOM     49  H   UNL A   1      40.040  30.667  32.355  1.00  0.00     0.167 HD
ATOM     50  C   UNL A   1      43.063  29.111  35.116  1.00  0.00     0.037 A 
ATOM     51  C   UNL A   1      37.908  32.322  31.617  1.00  0.00     0.037 A 
ATOM     52  C   UNL A   1      42.486  30.251  35.780  1.00  0.00     0.049 A 
ATOM     53  C   UNL A   1      38.336  32.773  32.988  1.00  0.00     0.074 A 
ATOM     54  C   UNL A   1      42.835  30.799  37.004  1.00  0.00     0.029 A 
ATOM     55  N   UNL A   1      41.441  31.017  35.284  1.00  0.00    -0.354 N 
ATOM     56  N   UNL A   1      39.292  32.299  33.751  1.00  0.00    -0.248 NA
ATOM     57  C   UNL A   1      37.602  33.902  33.576  1.00  0.00     0.031 C 
ATOM     58  C   UNL A   1      41.964  31.860  37.273  1.00  0.00     0.029 A 
ATOM     59  C   UNL A   1      41.113  32.014  36.190  1.00  0.00     0.049 A 
ATOM     60  H   UNL A   1      40.997  30.873  34.417  1.00  0.00     0.167 HD
ATOM     61  C   UNL A   1      39.291  33.088  34.897  1.00  0.00     0.074 A 
ATOM     62  C   UNL A   1      38.253  34.082  34.716  1.00  0.00     0.031 C 
ATOM     63  C   UNL A   1      40.078  32.998  35.998  1.00  0.00     0.037 A 
BRANCH  50  64
ATOM     64  C   UNL A   1      44.142  28.344  35.833  1.00  0.00     0.058 A 
ATOM     65  C   UNL A   1      45.500  28.672  35.692  1.00  0.00     0.135 A 
ATOM     66  C   UNL A   1      43.810  27.310  36.723  1.00  0.00     0.135 A 
ATOM     67  F   UNL A   1      45.877  29.643  34.842  1.00  0.00    -0.206 F 
ATOM     68  C   UNL A   1      46.491  27.990  36.391  1.00  0.00     0.059 A 
ATOM     69  C   UNL A   1      44.782  26.633  37.455  1.00  0.00     0.059 A 
ATOM     70  F   UNL A   1      42.528  26.952  36.896  1.00  0.00    -0.206 F 
ATOM     71  C   UNL A   1      46.121  26.974  37.273  1.00  0.00     0.060 A 
BRANCH  71  72
ATOM     72  S   UNL A   1      47.419  26.118  38.192  1.00  0.00     0.124 S 
ATOM     73  O   UNL A   1      47.698  24.986  37.313  1.00  0.00    -0.237 OA
ATOM     74  O   UNL A   1      48.465  27.132  38.271  1.00  0.00    -0.237 OA
ATOM     75  O   UNL A   1      46.776  25.783  39.458  1.00  0.00    -0.744 OA
ENDBRANCH  71  72
ENDBRANCH  50  64
BRANCH  51  76
ATOM     76  C   UNL A   1      36.780  32.990  30.912  1.00  0.00     0.058 A 
ATOM     77  C   UNL A   1      37.012  33.944  29.910  1.00  0.00     0.135 A 
ATOM     78  C   UNL A   1      35.446  32.691  31.231  1.00  0.00     0.135 A 
ATOM     79  F   UNL A   1      38.270  34.269  29.572  1.00  0.00    -0.206 F 
ATOM     80  C   UNL A   1      35.965  34.597  29.267  1.00  0.00     0.059 A 
ATOM     81  C   UNL A   1      34.382  33.307  30.581  1.00  0.00     0.059 A 
ATOM     82  F   UNL A   1      35.168  31.773  32.170  1.00  0.00    -0.206 F 
ATOM     83  C   UNL A   1      34.652  34.270  29.609  1.00  0.00     0.060 A 
BRANCH  83  84
ATOM     84  S   UNL A   1      33.299  35.099  28.748  1.00  0.00     0.124 S 
ATOM     85  O   UNL A   1      32.506  35.603  29.864  1.00  0.00    -0.237 OA
ATOM     86  O   UNL A   1      34.008  36.105  27.962  1.00  0.00    -0.237 OA
ATOM     87  O   UNL A   1      32.688  34.024  27.972  1.00  0.00    -0.744 OA
ENDBRANCH  83  84
ENDBRANCH  51  76
BRANCH  63  88
ATOM     88  C   UNL A   1      39.869  34.022  37.081  1.00  0.00     0.058 A 
ATOM     89  C   UNL A   1      40.368  35.329  36.972  1.00  0.00     0.135 A 
ATOM     90  C   UNL A   1      39.128  33.699  38.230  1.00  0.00     0.135 A 
ATOM     91  F   UNL A   1      41.088  35.690  35.898  1.00  0.00    -0.206 F 
ATOM     92  C   UNL A   1      40.170  36.270  37.977  1.00  0.00     0.059 A 
ATOM     93  C   UNL A   1      38.889  34.634  39.233  1.00  0.00     0.059 A 
ATOM     94  F   UNL A   1      38.617  32.467  38.382  1.00  0.00    -0.206 F 
ATOM     95  C   UNL A   1      39.429  35.913  39.105  1.00  0.00     0.060 A 
BRANCH  95  96
ATOM     96  S   UNL A   1      39.163  37.149  40.393  1.00  0.00     0.124 S 
ATOM     97  O   UNL A   1      38.569  38.243  39.632  1.00  0.00    -0.237 OA
ATOM     98  O   UNL A   1      38.265  36.454  41.311  1.00  0.00    -0.237 OA
ATOM     99  O   UNL A   1      40.505  37.399  40.908  1.00  0.00    -0.744 OA
ENDBRANCH  95  96
ENDBRANCH  63  88
ENDBRANCH  37  38
ENDBRANCH  29  32
ENDBRANCH  27  28
ENDBRANCH  26  27
ENDBRANCH  25  26
ENDBRANCH   1  25
TORSDOF 19
ENDMDL
MODEL 2
REMARK VINA RESULT:     -11.5      1.345      1.945
REMARK SMILES C[C@H](NC(=O)N1CC[C@H](C(=O)NCCCCCCNC(=O)c2ccc(-c3c4nc(c(-c5c(F)cc(S(=O)(=O)[O-])cc5F)c5ccc([nH]5)c(-c5c(F)cc(S(=O)(=O)[O-])cc5F)c5nc(c(-c6c(F)cc(S(=O)(=O)[O-])cc6F)c6ccc3[nH]6)C=C5)C=C4)cc2)[C@@H]1C)[C@@H]1CCCO1
REMARK SMILES IDX 15 1 14 2 13 3 12 4 10 5 11 6 9 8 6 9 7 10 88 11 8 12 89 13
REMARK SMILES IDX 4 14 3 15 5 17 2 18 1 19 90 20 91 21 94 22 92 23 93 24 16 25
REMARK SMILES IDX 17 26 18 27 19 28 20 29 21 31 22 32 23 33 87 34 24 35 86 36
REMARK SMILES IDX 25 37 26 38 27 39 80 40 28 41 85 42 79 43 81 44 29 45 84 46
REMARK SMILES IDX 78 47 77 48 30 50 64 51 43 52 63 53 44 54 47 55 62 56 82 57
REMARK SMILES IDX 45 58 46 59 61 61 83 62 48 63 31 64 32 65 41 66 33 67 34 68
REMARK SMILES IDX 40 69 42 70 35 71 36 72 37 73 38 74 39 75 65 76 66 77 75 78
REMARK SMILES IDX 67 79 68 80 74 81 76 82 69 83 70 84 71 85 72 86 73 87 49 88
REMARK SMILES IDX 50 89 59 90 51 91 52 92 58 93 60 94 53 95 54 96 55 97 56 98
REMARK SMILES IDX 57 99
REMARK H PARENT 12 7 3 16 19 30 81 49 47 60
REMARK Flexibility Score: inf
ROOT
ATOM      1  C   UNL A   1      37.272  22.895  25.315  1.00  0.00     0.002 C 
ENDROOT
BRANCH   1   2
ATOM      2  C   UNL A   1      36.882  21.455  25.676  1.00  0.00     0.021 C 
BRANCH   2   3
ATOM      3  C   UNL A   1      35.669  20.928  24.909  1.00  0.00     0.116 C 
BRANCH   3   4
ATOM      4  N   UNL A   1      34.431  21.332  25.558  1.00  0.00    -0.356 N 
ATOM      5  C   UNL A   1      33.459  22.197  25.148  1.00  0.00     0.225 C 
ATOM      6  O   UNL A   1      32.526  22.418  25.915  1.00  0.00    -0.275 OA
ATOM      7  H   UNL A   1      34.269  20.914  26.434  1.00  0.00     0.163 HD
BRANCH   5   8
ATOM      8  C   UNL A   1      33.524  22.717  23.724  1.00  0.00     0.102 C 
ATOM      9  N   UNL A   1      32.869  24.789  22.784  1.00  0.00    -0.321 N 
ATOM     10  C   UNL A   1      31.646  24.113  23.145  1.00  0.00     0.122 C 
ATOM     11  C   UNL A   1      34.006  24.162  23.456  1.00  0.00     0.096 C 
ATOM     12  C   UNL A   1      32.086  22.660  23.160  1.00  0.00     0.037 C 
ATOM     13  C   UNL A   1      34.473  24.982  24.656  1.00  0.00     0.032 C 
BRANCH   9  14
ATOM     14  C   UNL A   1      32.844  25.896  22.005  1.00  0.00     0.317 C 
ATOM     15  N   UNL A   1      32.370  27.061  22.504  1.00  0.00    -0.333 N 
ATOM     16  H   UNL A   1      32.116  27.701  21.801  1.00  0.00     0.165 HD
ATOM     17  O   UNL A   1      33.337  25.910  20.877  1.00  0.00    -0.249 OA
BRANCH  15  18
ATOM     18  C   UNL A   1      32.149  27.589  23.866  1.00  0.00     0.109 C 
ATOM     19  C   UNL A   1      33.133  28.679  24.313  1.00  0.00     0.034 C 
BRANCH  18  20
ATOM     20  C   UNL A   1      30.701  28.146  23.951  1.00  0.00     0.140 C 
ATOM     21  C   UNL A   1      29.888  28.017  22.670  1.00  0.00     0.036 C 
ATOM     22  O   UNL A   1      30.709  29.560  24.256  1.00  0.00    -0.376 OA
ATOM     23  C   UNL A   1      28.845  29.085  22.856  1.00  0.00     0.031 C 
ATOM     24  C   UNL A   1      29.636  30.184  23.531  1.00  0.00     0.160 C 
ENDBRANCH  18  20
ENDBRANCH  15  18
ENDBRANCH   9  14
ENDBRANCH   5   8
ENDBRANCH   3   4
ENDBRANCH   2   3
ENDBRANCH   1   2
BRANCH   1  25
ATOM     25  C   UNL A   1      38.355  23.516  26.204  1.00  0.00     0.002 C 
BRANCH  25  26
ATOM     26  C   UNL A   1      39.442  22.544  26.670  1.00  0.00     0.021 C 
BRANCH  26  27
ATOM     27  C   UNL A   1      40.738  23.210  27.118  1.00  0.00     0.116 C 
BRANCH  27  28
ATOM     28  N   UNL A   1      41.334  24.016  26.065  1.00  0.00    -0.352 N 
ATOM     29  C   UNL A   1      41.600  25.362  26.042  1.00  0.00     0.251 C 
ATOM     30  H   UNL A   1      41.584  23.524  25.249  1.00  0.00     0.163 HD
ATOM     31  O   UNL A   1      41.934  25.899  24.987  1.00  0.00    -0.269 OA
BRANCH  29  32
ATOM     32  C   UNL A   1      41.464  26.169  27.274  1.00  0.00     0.039 A 
ATOM     33  C   UNL A   1      42.452  27.106  27.578  1.00  0.00     0.014 A 
ATOM     34  C   UNL A   1      40.372  25.999  28.132  1.00  0.00     0.014 A 
ATOM     35  C   UNL A   1      42.316  27.915  28.708  1.00  0.00     0.010 A 
ATOM     36  C   UNL A   1      40.199  26.858  29.215  1.00  0.00     0.010 A 
ATOM     37  C   UNL A   1      41.169  27.824  29.517  1.00  0.00    -0.014 A 
BRANCH  37  38
ATOM     38  C   UNL A   1      40.973  28.745  30.667  1.00  0.00     0.031 A 
ATOM     39  C   UNL A   1      41.822  28.617  31.904  1.00  0.00     0.074 A 
ATOM     40  C   UNL A   1      39.990  29.668  30.615  1.00  0.00     0.049 A 
ATOM     41  N   UNL A   1      41.773  29.310  33.012  1.00  0.00    -0.248 NA
ATOM     42  C   UNL A   1      42.846  27.560  31.905  1.00  0.00     0.031 C 
ATOM     43  C   UNL A   1      39.064  29.854  29.495  1.00  0.00     0.029 A 
ATOM     44  N   UNL A   1      39.602  30.621  31.524  1.00  0.00    -0.354 N 
ATOM     45  C   UNL A   1      42.748  28.770  33.843  1.00  0.00     0.074 A 
ATOM     46  C   UNL A   1      43.337  27.657  33.132  1.00  0.00     0.031 C 
ATOM     47  C   UNL A   1      38.235  30.872  29.772  1.00  0.00     0.029 A 
ATOM     48  C   UNL A   1      38.541  31.388  31.103  1.00  0.00     0.049 A 
ATOM     49  H   UNL A   1      40.043  30.744  32.396  1.00  0.00     0.167 HD
ATOM     50  C   UNL A   1      43.132  29.180  35.077  1.00  0.00     0.037 A 
ATOM     51  C   UNL A   1      37.881  32.387  31.721  1.00  0.00     0.037 A 
ATOM     52  C   UNL A   1      42.555  30.303  35.769  1.00  0.00     0.049 A 
ATOM     53  C   UNL A   1      38.328  32.822  33.091  1.00  0.00     0.074 A 
ATOM     54  C   UNL A   1      42.920  30.836  36.995  1.00  0.00     0.029 A 
ATOM     55  N   UNL A   1      41.493  31.065  35.304  1.00  0.00    -0.354 N 
ATOM     56  N   UNL A   1      39.303  32.346  33.830  1.00  0.00    -0.248 NA
ATOM     57  C   UNL A   1      37.592  33.933  33.709  1.00  0.00     0.031 C 
ATOM     58  C   UNL A   1      42.042  31.883  37.296  1.00  0.00     0.029 A 
ATOM     59  C   UNL A   1      41.170  32.044  36.231  1.00  0.00     0.049 A 
ATOM     60  H   UNL A   1      41.035  30.930  34.443  1.00  0.00     0.167 HD
ATOM     61  C   UNL A   1      39.314  33.118  34.987  1.00  0.00     0.074 A 
ATOM     62  C   UNL A   1      38.262  34.103  34.841  1.00  0.00     0.031 C 
ATOM     63  C   UNL A   1      40.121  33.020  36.072  1.00  0.00     0.037 A 
BRANCH  50  64
ATOM     64  C   UNL A   1      44.232  28.414  35.763  1.00  0.00     0.058 A 
ATOM     65  C   UNL A   1      45.586  28.739  35.576  1.00  0.00     0.135 A 
ATOM     66  C   UNL A   1      43.927  27.385  36.668  1.00  0.00     0.135 A 
ATOM     67  F   UNL A   1      45.937  29.704  34.710  1.00  0.00    -0.206 F 
ATOM     68  C   UNL A   1      46.597  28.057  36.246  1.00  0.00     0.059 A 
ATOM     69  C   UNL A   1      44.920  26.710  37.372  1.00  0.00     0.059 A 
ATOM     70  F   UNL A   1      42.651  27.031  36.885  1.00  0.00    -0.206 F 
ATOM     71  C   UNL A   1      46.254  27.047  37.145  1.00  0.00     0.060 A 
BRANCH  71  72
ATOM     72  S   UNL A   1      47.579  26.192  38.025  1.00  0.00     0.124 S 
ATOM     73  O   UNL A   1      46.900  25.792  39.254  1.00  0.00    -0.237 OA
ATOM     74  O   UNL A   1      47.916  25.111  37.106  1.00  0.00    -0.237 OA
ATOM     75  O   UNL A   1      48.602  27.221  38.183  1.00  0.00    -0.744 OA
ENDBRANCH  71  72
ENDBRANCH  50  64
BRANCH  51  76
ATOM     76  C   UNL A   1      36.733  33.053  31.047  1.00  0.00     0.058 A 
ATOM     77  C   UNL A   1      36.934  33.955  29.991  1.00  0.00     0.135 A 
ATOM     78  C   UNL A   1      35.411  32.805  31.449  1.00  0.00     0.135 A 
ATOM     79  F   UNL A   1      38.179  34.230  29.573  1.00  0.00    -0.206 F 
ATOM     80  C   UNL A   1      35.870  34.606  29.375  1.00  0.00     0.059 A 
ATOM     81  C   UNL A   1      34.329  33.420  30.829  1.00  0.00     0.059 A 
ATOM     82  F   UNL A   1      35.161  31.937  32.443  1.00  0.00    -0.206 F 
ATOM     83  C   UNL A   1      34.570  34.331  29.801  1.00  0.00     0.060 A 
BRANCH  83  84
ATOM     84  S   UNL A   1      33.192  35.157  28.975  1.00  0.00     0.124 S 
ATOM     85  O   UNL A   1      33.854  36.319  28.393  1.00  0.00    -0.237 OA
ATOM     86  O   UNL A   1      32.746  34.136  28.032  1.00  0.00    -0.237 OA
ATOM     87  O   UNL A   1      32.267  35.437  30.069  1.00  0.00    -0.744 OA
ENDBRANCH  83  84
ENDBRANCH  51  76
BRANCH  63  88
ATOM     88  C   UNL A   1      39.921  34.024  37.176  1.00  0.00     0.058 A 
ATOM     89  C   UNL A   1      40.517  35.294  37.139  1.00  0.00     0.135 A 
ATOM     90  C   UNL A   1      39.091  33.723  38.269  1.00  0.00     0.135 A 
ATOM     91  F   UNL A   1      41.324  35.633  36.120  1.00  0.00    -0.206 F 
ATOM     92  C   UNL A   1      40.326  36.217  38.161  1.00  0.00     0.059 A 
ATOM     93  C   UNL A   1      38.859  34.643  39.286  1.00  0.00     0.059 A 
ATOM     94  F   UNL A   1      38.486  32.528  38.350  1.00  0.00    -0.206 F 
ATOM     95  C   UNL A   1      39.495  35.883  39.231  1.00  0.00     0.060 A 
BRANCH  95  96
ATOM     96  S   UNL A   1      39.240  37.097  40.543  1.00  0.00     0.124 S 
ATOM     97  O   UNL A   1      40.578  37.663  40.681  1.00  0.00    -0.237 OA
ATOM     98  O   UNL A   1      38.235  37.980  39.959  1.00  0.00    -0.237 OA
ATOM     99  O   UNL A   1      38.780  36.291  41.669  1.00  0.00    -0.744 OA
ENDBRANCH  95  96
ENDBRANCH  63  88
ENDBRANCH  37  38
ENDBRANCH  29  32
ENDBRANCH  27  28
ENDBRANCH  26  27
ENDBRANCH  25  26
ENDBRANCH   1  25
TORSDOF 19
ENDMDL
MODEL 3
REMARK VINA RESULT:     -11.5      6.209      8.578
REMARK SMILES C[C@H](NC(=O)N1CC[C@H](C(=O)NCCCCCCNC(=O)c2ccc(-c3c4nc(c(-c5c(F)cc(S(=O)(=O)[O-])cc5F)c5ccc([nH]5)c(-c5c(F)cc(S(=O)(=O)[O-])cc5F)c5nc(c(-c6c(F)cc(S(=O)(=O)[O-])cc6F)c6ccc3[nH]6)C=C5)C=C4)cc2)[C@@H]1C)[C@@H]1CCCO1
REMARK SMILES IDX 15 1 14 2 13 3 12 4 10 5 11 6 9 8 6 9 7 10 88 11 8 12 89 13
REMARK SMILES IDX 4 14 3 15 5 17 2 18 1 19 90 20 91 21 94 22 92 23 93 24 16 25
REMARK SMILES IDX 17 26 18 27 19 28 20 29 21 31 22 32 23 33 87 34 24 35 86 36
REMARK SMILES IDX 25 37 26 38 27 39 80 40 28 41 85 42 79 43 81 44 29 45 84 46
REMARK SMILES IDX 78 47 77 48 30 50 64 51 43 52 63 53 44 54 47 55 62 56 82 57
REMARK SMILES IDX 45 58 46 59 61 61 83 62 48 63 31 64 32 65 41 66 33 67 34 68
REMARK SMILES IDX 40 69 42 70 35 71 36 72 37 73 38 74 39 75 65 76 66 77 75 78
REMARK SMILES IDX 67 79 68 80 74 81 76 82 69 83 70 84 71 85 72 86 73 87 49 88
REMARK SMILES IDX 50 89 59 90 51 91 52 92 58 93 60 94 53 95 54 96 55 97 56 98
REMARK SMILES IDX 57 99
REMARK H PARENT 12 7 3 16 19 30 81 49 47 60
REMARK Flexibility Score: inf
ROOT
ATOM      1  C   UNL A   1      35.809  20.725  24.934  1.00  0.00     0.002 C 
ENDROOT
BRANCH   1   2
ATOM      2  C   UNL A   1      34.950  21.400  26.011  1.00  0.00     0.021 C 
BRANCH   2   3
ATOM      3  C   UNL A   1      33.496  20.926  26.036  1.00  0.00     0.116 C 
BRANCH   3   4
ATOM      4  N   UNL A   1      32.610  21.996  26.468  1.00  0.00    -0.356 N 
ATOM      5  C   UNL A   1      32.085  23.045  25.772  1.00  0.00     0.225 C 
ATOM      6  O   UNL A   1      31.402  23.858  26.388  1.00  0.00    -0.275 OA
ATOM      7  H   UNL A   1      32.347  21.956  27.416  1.00  0.00     0.163 HD
BRANCH   5   8
ATOM      8  C   UNL A   1      32.265  23.061  24.266  1.00  0.00     0.102 C 
ATOM      9  N   UNL A   1      32.384  24.853  22.723  1.00  0.00    -0.321 N 
ATOM     10  C   UNL A   1      31.018  24.819  23.187  1.00  0.00     0.122 C 
ATOM     11  C   UNL A   1      33.238  24.076  23.620  1.00  0.00     0.096 C 
ATOM     12  C   UNL A   1      30.883  23.380  23.653  1.00  0.00     0.037 C 
ATOM     13  C   UNL A   1      34.039  24.976  24.555  1.00  0.00     0.032 C 
BRANCH   9  14
ATOM     14  C   UNL A   1      32.734  25.609  21.656  1.00  0.00     0.317 C 
ATOM     15  N   UNL A   1      32.693  26.958  21.742  1.00  0.00    -0.333 N 
ATOM     16  H   UNL A   1      32.668  27.395  20.861  1.00  0.00     0.165 HD
ATOM     17  O   UNL A   1      33.192  25.110  20.627  1.00  0.00    -0.249 OA
BRANCH  15  18
ATOM     18  C   UNL A   1      32.679  27.923  22.861  1.00  0.00     0.109 C 
ATOM     19  C   UNL A   1      33.958  28.756  23.023  1.00  0.00     0.034 C 
BRANCH  18  20
ATOM     20  C   UNL A   1      31.470  28.880  22.672  1.00  0.00     0.140 C 
ATOM     21  C   UNL A   1      30.891  29.446  23.961  1.00  0.00     0.036 C 
ATOM     22  O   UNL A   1      30.370  28.200  22.026  1.00  0.00    -0.376 OA
ATOM     23  C   UNL A   1      29.495  29.814  23.538  1.00  0.00     0.031 C 
ATOM     24  C   UNL A   1      29.142  28.685  22.595  1.00  0.00     0.160 C 
ENDBRANCH  18  20
ENDBRANCH  15  18
ENDBRANCH   9  14
ENDBRANCH   5   8
ENDBRANCH   3   4
ENDBRANCH   2   3
ENDBRANCH   1   2
BRANCH   1  25
ATOM     25  C   UNL A   1      37.276  21.166  24.903  1.00  0.00     0.002 C 
BRANCH  25  26
ATOM     26  C   UNL A   1      38.292  20.040  25.108  1.00  0.00     0.021 C 
BRANCH  26  27
ATOM     27  C   UNL A   1      39.428  20.377  26.068  1.00  0.00     0.116 C 
BRANCH  27  28
ATOM     28  N   UNL A   1      40.446  19.341  26.099  1.00  0.00    -0.352 N 
ATOM     29  C   UNL A   1      41.812  19.462  26.155  1.00  0.00     0.251 C 
ATOM     30  H   UNL A   1      40.107  18.416  26.077  1.00  0.00     0.163 HD
ATOM     31  O   UNL A   1      42.519  18.471  25.982  1.00  0.00    -0.269 OA
BRANCH  29  32
ATOM     32  C   UNL A   1      42.433  20.782  26.399  1.00  0.00     0.039 A 
ATOM     33  C   UNL A   1      42.750  21.590  25.306  1.00  0.00     0.014 A 
ATOM     34  C   UNL A   1      42.710  21.221  27.698  1.00  0.00     0.014 A 
ATOM     35  C   UNL A   1      43.288  22.861  25.516  1.00  0.00     0.010 A 
ATOM     36  C   UNL A   1      43.175  22.517  27.909  1.00  0.00     0.010 A 
ATOM     37  C   UNL A   1      43.471  23.352  26.822  1.00  0.00    -0.014 A 
BRANCH  37  38
ATOM     38  C   UNL A   1      43.955  24.738  27.054  1.00  0.00     0.031 A 
ATOM     39  C   UNL A   1      45.407  25.084  26.858  1.00  0.00     0.074 A 
ATOM     40  C   UNL A   1      43.090  25.675  27.493  1.00  0.00     0.049 A 
ATOM     41  N   UNL A   1      46.013  26.229  27.042  1.00  0.00    -0.248 NA
ATOM     42  C   UNL A   1      46.300  23.999  26.419  1.00  0.00     0.031 C 
ATOM     43  C   UNL A   1      41.670  25.449  27.774  1.00  0.00     0.029 A 
ATOM     44  N   UNL A   1      43.275  27.005  27.782  1.00  0.00    -0.354 N 
ATOM     45  C   UNL A   1      47.354  26.002  26.751  1.00  0.00     0.074 A 
ATOM     46  C   UNL A   1      47.483  24.598  26.431  1.00  0.00     0.031 C 
ATOM     47  C   UNL A   1      41.109  26.603  28.170  1.00  0.00     0.029 A 
ATOM     48  C   UNL A   1      42.134  27.642  28.210  1.00  0.00     0.049 A 
ATOM     49  H   UNL A   1      44.144  27.459  27.692  1.00  0.00     0.167 HD
ATOM     50  C   UNL A   1      48.378  26.889  26.731  1.00  0.00     0.037 A 
ATOM     51  C   UNL A   1      41.935  28.916  28.600  1.00  0.00     0.037 A 
ATOM     52  C   UNL A   1      48.237  28.291  27.030  1.00  0.00     0.049 A 
ATOM     53  C   UNL A   1      43.091  29.880  28.569  1.00  0.00     0.074 A 
ATOM     54  C   UNL A   1      49.203  29.282  26.975  1.00  0.00     0.029 A 
ATOM     55  N   UNL A   1      47.063  28.902  27.444  1.00  0.00    -0.354 N 
ATOM     56  N   UNL A   1      44.336  29.663  28.218  1.00  0.00    -0.248 NA
ATOM     57  C   UNL A   1      42.814  31.264  28.978  1.00  0.00     0.031 C 
ATOM     58  C   UNL A   1      48.627  30.480  27.409  1.00  0.00     0.029 A 
ATOM     59  C   UNL A   1      47.287  30.251  27.676  1.00  0.00     0.049 A 
ATOM     60  H   UNL A   1      46.198  28.446  27.557  1.00  0.00     0.167 HD
ATOM     61  C   UNL A   1      44.984  30.888  28.339  1.00  0.00     0.074 A 
ATOM     62  C   UNL A   1      43.988  31.844  28.775  1.00  0.00     0.031 C 
ATOM     63  C   UNL A   1      46.286  31.193  28.109  1.00  0.00     0.037 A 
BRANCH  50  64
ATOM     64  C   UNL A   1      49.747  26.376  26.370  1.00  0.00     0.058 A 
ATOM     65  C   UNL A   1      50.261  26.494  25.068  1.00  0.00     0.135 A 
ATOM     66  C   UNL A   1      50.581  25.818  27.353  1.00  0.00     0.135 A 
ATOM     67  F   UNL A   1      49.502  27.005  24.085  1.00  0.00    -0.206 F 
ATOM     68  C   UNL A   1      51.543  26.059  24.749  1.00  0.00     0.059 A 
ATOM     69  C   UNL A   1      51.878  25.404  27.063  1.00  0.00     0.059 A 
ATOM     70  F   UNL A   1      50.142  25.679  28.613  1.00  0.00    -0.206 F 
ATOM     71  C   UNL A   1      52.346  25.518  25.755  1.00  0.00     0.060 A 
BRANCH  71  72
ATOM     72  S   UNL A   1      54.017  24.984  25.328  1.00  0.00     0.124 S 
ATOM     73  O   UNL A   1      53.775  23.622  24.860  1.00  0.00    -0.237 OA
ATOM     74  O   UNL A   1      54.399  25.948  24.302  1.00  0.00    -0.237 OA
ATOM     75  O   UNL A   1      54.742  25.093  26.590  1.00  0.00    -0.744 OA
ENDBRANCH  71  72
ENDBRANCH  50  64
BRANCH  51  76
ATOM     76  C   UNL A   1      40.585  29.359  29.045  1.00  0.00     0.058 A 
ATOM     77  C   UNL A   1      40.311  29.607  30.399  1.00  0.00     0.135 A 
ATOM     78  C   UNL A   1      39.539  29.537  28.126  1.00  0.00     0.135 A 
ATOM     79  F   UNL A   1      41.276  29.446  31.318  1.00  0.00    -0.206 F 
ATOM     80  C   UNL A   1      39.045  29.991  30.829  1.00  0.00     0.059 A 
ATOM     81  C   UNL A   1      38.273  29.950  28.527  1.00  0.00     0.059 A 
ATOM     82  F   UNL A   1      39.751  29.330  26.816  1.00  0.00    -0.206 F 
ATOM     83  C   UNL A   1      38.032  30.161  29.884  1.00  0.00     0.060 A 
BRANCH  83  84
ATOM     84  S   UNL A   1      36.400  30.690  30.448  1.00  0.00     0.124 S 
ATOM     85  O   UNL A   1      36.695  32.002  31.011  1.00  0.00    -0.237 OA
ATOM     86  O   UNL A   1      35.633  30.686  29.206  1.00  0.00    -0.237 OA
ATOM     87  O   UNL A   1      36.027  29.656  31.409  1.00  0.00    -0.744 OA
ENDBRANCH  83  84
ENDBRANCH  51  76
BRANCH  63  88
ATOM     88  C   UNL A   1      46.702  32.627  28.294  1.00  0.00     0.058 A 
ATOM     89  C   UNL A   1      46.613  33.565  27.254  1.00  0.00     0.135 A 
ATOM     90  C   UNL A   1      47.164  33.078  29.542  1.00  0.00     0.135 A 
ATOM     91  F   UNL A   1      46.184  33.188  26.038  1.00  0.00    -0.206 F 
ATOM     92  C   UNL A   1      46.999  34.889  27.433  1.00  0.00     0.059 A 
ATOM     93  C   UNL A   1      47.523  34.405  29.754  1.00  0.00     0.059 A 
ATOM     94  F   UNL A   1      47.257  32.227  30.576  1.00  0.00    -0.206 F 
ATOM     95  C   UNL A   1      47.452  35.300  28.687  1.00  0.00     0.060 A 
BRANCH  95  96
ATOM     96  S   UNL A   1      47.932  37.026  28.912  1.00  0.00     0.124 S 
ATOM     97  O   UNL A   1      49.239  37.054  28.262  1.00  0.00    -0.237 OA
ATOM     98  O   UNL A   1      46.864  37.739  28.218  1.00  0.00    -0.237 OA
ATOM     99  O   UNL A   1      47.948  37.190  30.362  1.00  0.00    -0.744 OA
ENDBRANCH  95  96
ENDBRANCH  63  88
ENDBRANCH  37  38
ENDBRANCH  29  32
ENDBRANCH  27  28
ENDBRANCH  26  27
ENDBRANCH  25  26
ENDBRANCH   1  25
TORSDOF 19
ENDMDL
