MODEL 1
REMARK VINA RESULT:     -12.0      0.000      0.000
REMARK SMILES CCn1c(=O)n(CC)c2cc(C(=O)NCCCCCCNC(=O)c3ccc(-c4c5nc(c(-c6c(F)cc(S(=O)(=O)[O-])cc6F)c6ccc([nH]6)c(-c6c(F)cc(S(=O)(=O)[O-])cc6F)c6nc(c(-c7c(F)cc(S(=O)(=O)[O-])cc7F)c7ccc4[nH]7)C=C6)C=C5)cc3)ccc21
REMARK SMILES IDX 18 1 17 2 16 3 15 4 14 5 12 6 13 7 11 9 3 10 4 11 92 12 5 13
REMARK SMILES IDX 6 14 9 15 91 16 10 17 90 18 2 19 1 20 7 21 8 22 19 23 20 24
REMARK SMILES IDX 21 25 22 26 23 28 24 29 25 30 89 31 26 32 88 33 27 34 28 35
REMARK SMILES IDX 29 36 82 37 30 38 87 39 81 40 83 41 31 42 86 43 80 44 79 45
REMARK SMILES IDX 32 47 66 48 45 49 65 50 46 51 49 52 64 53 84 54 47 55 48 56
REMARK SMILES IDX 63 58 85 59 50 60 33 61 34 62 43 63 35 64 36 65 42 66 44 67
REMARK SMILES IDX 37 68 38 69 39 70 40 71 41 72 67 73 68 74 77 75 69 76 70 77
REMARK SMILES IDX 76 78 78 79 71 80 72 81 73 82 74 83 75 84 51 85 52 86 61 87
REMARK SMILES IDX 53 88 54 89 60 90 62 91 55 92 56 93 57 94 58 95 59 96
REMARK H PARENT 14 8 21 27 83 46 49 57
REMARK Flexibility Score: inf
ROOT
ATOM      1  C   UNL A   1      34.785  22.962  25.384  1.00  0.00     0.002 C 
ENDROOT
BRANCH   1   2
ATOM      2  C   UNL A   1      34.499  21.698  26.206  1.00  0.00     0.002 C 
BRANCH   2   3
ATOM      3  C   UNL A   1      33.417  20.792  25.605  1.00  0.00     0.021 C 
BRANCH   3   4
ATOM      4  C   UNL A   1      32.223  21.580  25.063  1.00  0.00     0.116 C 
BRANCH   4   5
ATOM      5  N   UNL A   1      31.334  21.925  26.156  1.00  0.00    -0.352 N 
ATOM      6  C   UNL A   1      30.707  23.089  26.514  1.00  0.00     0.251 C 
ATOM      7  O   UNL A   1      30.039  23.077  27.549  1.00  0.00    -0.269 OA
ATOM      8  H   UNL A   1      31.144  21.173  26.761  1.00  0.00     0.163 HD
BRANCH   6   9
ATOM      9  C   UNL A   1      30.742  24.338  25.699  1.00  0.00     0.042 A 
ATOM     10  N   UNL A   1      30.768  28.148  23.985  1.00  0.00    -0.292 N 
ATOM     11  C   UNL A   1      31.311  28.886  25.069  1.00  0.00     0.329 A 
ATOM     12  C   UNL A   1      30.714  26.794  24.360  1.00  0.00     0.069 A 
ATOM     13  O   UNL A   1      31.571  30.089  25.079  1.00  0.00    -0.248 OA
ATOM     14  N   UNL A   1      31.532  27.972  26.115  1.00  0.00    -0.292 N 
ATOM     15  C   UNL A   1      31.142  26.698  25.686  1.00  0.00     0.070 A 
ATOM     16  C   UNL A   1      30.367  25.660  23.661  1.00  0.00     0.029 A 
ATOM     17  C   UNL A   1      31.161  25.498  26.371  1.00  0.00     0.042 A 
ATOM     18  C   UNL A   1      30.413  24.427  24.333  1.00  0.00     0.016 A 
BRANCH  10  19
ATOM     19  C   UNL A   1      30.488  28.769  22.715  1.00  0.00     0.124 C 
ATOM     20  C   UNL A   1      29.067  29.224  22.433  1.00  0.00     0.028 C 
ENDBRANCH  10  19
BRANCH  14  21
ATOM     21  C   UNL A   1      32.183  28.281  27.364  1.00  0.00     0.124 C 
ATOM     22  C   UNL A   1      33.671  28.552  27.222  1.00  0.00     0.028 C 
ENDBRANCH  14  21
ENDBRANCH   6   9
ENDBRANCH   4   5
ENDBRANCH   3   4
ENDBRANCH   2   3
ENDBRANCH   1   2
BRANCH   1  23
ATOM     23  C   UNL A   1      36.028  22.879  24.489  1.00  0.00     0.021 C 
BRANCH  23  24
ATOM     24  C   UNL A   1      37.274  23.504  25.116  1.00  0.00     0.116 C 
BRANCH  24  25
ATOM     25  N   UNL A   1      38.211  22.524  25.621  1.00  0.00    -0.352 N 
ATOM     26  C   UNL A   1      39.289  22.578  26.461  1.00  0.00     0.251 C 
ATOM     27  H   UNL A   1      38.034  21.616  25.286  1.00  0.00     0.163 HD
ATOM     28  O   UNL A   1      39.872  21.510  26.667  1.00  0.00    -0.269 OA
BRANCH  26  29
ATOM     29  C   UNL A   1      39.822  23.823  27.078  1.00  0.00     0.039 A 
ATOM     30  C   UNL A   1      41.052  23.942  27.727  1.00  0.00     0.014 A 
ATOM     31  C   UNL A   1      38.986  24.952  27.009  1.00  0.00     0.014 A 
ATOM     32  C   UNL A   1      41.392  25.112  28.392  1.00  0.00     0.010 A 
ATOM     33  C   UNL A   1      39.338  26.139  27.638  1.00  0.00     0.010 A 
ATOM     34  C   UNL A   1      40.517  26.194  28.377  1.00  0.00    -0.014 A 
BRANCH  34  35
ATOM     35  C   UNL A   1      40.910  27.383  29.123  1.00  0.00     0.031 A 
ATOM     36  C   UNL A   1      42.046  28.168  28.554  1.00  0.00     0.074 A 
ATOM     37  C   UNL A   1      40.210  27.811  30.190  1.00  0.00     0.049 A 
ATOM     38  N   UNL A   1      43.172  28.488  29.110  1.00  0.00    -0.248 NA
ATOM     39  C   UNL A   1      41.945  28.570  27.142  1.00  0.00     0.031 C 
ATOM     40  C   UNL A   1      38.925  27.315  30.688  1.00  0.00     0.029 A 
ATOM     41  N   UNL A   1      40.452  28.884  30.987  1.00  0.00    -0.354 N 
ATOM     42  C   UNL A   1      43.847  29.287  28.185  1.00  0.00     0.074 A 
ATOM     43  C   UNL A   1      43.108  29.195  26.952  1.00  0.00     0.031 C 
ATOM     44  C   UNL A   1      38.389  28.238  31.516  1.00  0.00     0.029 A 
ATOM     45  C   UNL A   1      39.343  29.318  31.696  1.00  0.00     0.049 A 
ATOM     46  H   UNL A   1      41.335  29.314  31.055  1.00  0.00     0.167 HD
ATOM     47  C   UNL A   1      44.872  30.116  28.531  1.00  0.00     0.037 A 
ATOM     48  C   UNL A   1      39.190  30.536  32.273  1.00  0.00     0.037 A 
ATOM     49  C   UNL A   1      45.442  29.773  29.803  1.00  0.00     0.049 A 
ATOM     50  C   UNL A   1      40.555  31.099  32.477  1.00  0.00     0.074 A 
ATOM     51  C   UNL A   1      46.058  28.643  30.306  1.00  0.00     0.029 A 
ATOM     52  N   UNL A   1      45.112  30.530  30.902  1.00  0.00    -0.354 N 
ATOM     53  N   UNL A   1      41.444  30.585  33.287  1.00  0.00    -0.248 NA
ATOM     54  C   UNL A   1      41.096  31.958  31.433  1.00  0.00     0.031 C 
ATOM     55  C   UNL A   1      45.593  28.540  31.650  1.00  0.00     0.029 A 
ATOM     56  C   UNL A   1      44.770  29.641  31.893  1.00  0.00     0.049 A 
ATOM     57  H   UNL A   1      45.119  31.513  30.967  1.00  0.00     0.167 HD
ATOM     58  C   UNL A   1      42.658  30.716  32.625  1.00  0.00     0.074 A 
ATOM     59  C   UNL A   1      42.390  31.641  31.525  1.00  0.00     0.031 C 
ATOM     60  C   UNL A   1      43.701  29.859  32.845  1.00  0.00     0.037 A 
BRANCH  47  61
ATOM     61  C   UNL A   1      45.170  31.416  27.827  1.00  0.00     0.058 A 
ATOM     62  C   UNL A   1      46.401  31.609  27.169  1.00  0.00     0.135 A 
ATOM     63  C   UNL A   1      44.379  32.574  27.996  1.00  0.00     0.135 A 
ATOM     64  F   UNL A   1      47.244  30.581  26.981  1.00  0.00    -0.206 F 
ATOM     65  C   UNL A   1      46.831  32.868  26.746  1.00  0.00     0.059 A 
ATOM     66  C   UNL A   1      44.762  33.828  27.534  1.00  0.00     0.059 A 
ATOM     67  F   UNL A   1      43.243  32.554  28.705  1.00  0.00    -0.206 F 
ATOM     68  C   UNL A   1      46.007  33.974  26.944  1.00  0.00     0.060 A 
BRANCH  68  69
ATOM     69  S   UNL A   1      46.600  35.616  26.496  1.00  0.00     0.124 S 
ATOM     70  O   UNL A   1      47.422  35.953  27.653  1.00  0.00    -0.237 OA
ATOM     71  O   UNL A   1      47.319  35.351  25.254  1.00  0.00    -0.237 OA
ATOM     72  O   UNL A   1      45.370  36.389  26.348  1.00  0.00    -0.744 OA
ENDBRANCH  68  69
ENDBRANCH  47  61
BRANCH  48  73
ATOM     73  C   UNL A   1      37.944  31.354  32.245  1.00  0.00     0.058 A 
ATOM     74  C   UNL A   1      37.263  31.704  33.423  1.00  0.00     0.135 A 
ATOM     75  C   UNL A   1      37.512  32.007  31.069  1.00  0.00     0.135 A 
ATOM     76  F   UNL A   1      37.630  31.169  34.597  1.00  0.00    -0.206 F 
ATOM     77  C   UNL A   1      36.228  32.651  33.434  1.00  0.00     0.059 A 
ATOM     78  C   UNL A   1      36.475  32.934  31.052  1.00  0.00     0.059 A 
ATOM     79  F   UNL A   1      38.145  31.833  29.899  1.00  0.00    -0.206 F 
ATOM     80  C   UNL A   1      35.848  33.269  32.242  1.00  0.00     0.060 A 
BRANCH  80  81
ATOM     81  S   UNL A   1      34.603  34.579  32.263  1.00  0.00     0.124 S 
ATOM     82  O   UNL A   1      34.390  34.818  30.839  1.00  0.00    -0.237 OA
ATOM     83  O   UNL A   1      33.503  33.941  32.976  1.00  0.00    -0.237 OA
ATOM     84  O   UNL A   1      35.263  35.665  32.984  1.00  0.00    -0.744 OA
ENDBRANCH  80  81
ENDBRANCH  48  73
BRANCH  60  85
ATOM     85  C   UNL A   1      43.615  28.872  33.985  1.00  0.00     0.058 A 
ATOM     86  C   UNL A   1      43.984  29.175  35.308  1.00  0.00     0.135 A 
ATOM     87  C   UNL A   1      42.939  27.658  33.781  1.00  0.00     0.135 A 
ATOM     88  F   UNL A   1      44.528  30.358  35.618  1.00  0.00    -0.206 F 
ATOM     89  C   UNL A   1      43.724  28.306  36.369  1.00  0.00     0.059 A 
ATOM     90  C   UNL A   1      42.639  26.790  34.829  1.00  0.00     0.059 A 
ATOM     91  F   UNL A   1      42.496  27.335  32.553  1.00  0.00    -0.206 F 
ATOM     92  C   UNL A   1      43.041  27.118  36.122  1.00  0.00     0.060 A 
BRANCH  92  93
ATOM     93  S   UNL A   1      42.604  26.057  37.517  1.00  0.00     0.124 S 
ATOM     94  O   UNL A   1      41.175  26.310  37.660  1.00  0.00    -0.237 OA
ATOM     95  O   UNL A   1      42.967  24.730  37.031  1.00  0.00    -0.237 OA
ATOM     96  O   UNL A   1      43.439  26.562  38.604  1.00  0.00    -0.744 OA
ENDBRANCH  92  93
ENDBRANCH  60  85
ENDBRANCH  34  35
ENDBRANCH  26  29
ENDBRANCH  24  25
ENDBRANCH  23  24
ENDBRANCH   1  23
TORSDOF 18
ENDMDL
MODEL 2
REMARK VINA RESULT:     -11.9      2.621      4.012
REMARK SMILES CCn1c(=O)n(CC)c2cc(C(=O)NCCCCCCNC(=O)c3ccc(-c4c5nc(c(-c6c(F)cc(S(=O)(=O)[O-])cc6F)c6ccc([nH]6)c(-c6c(F)cc(S(=O)(=O)[O-])cc6F)c6nc(c(-c7c(F)cc(S(=O)(=O)[O-])cc7F)c7ccc4[nH]7)C=C6)C=C5)cc3)ccc21
REMARK SMILES IDX 18 1 17 2 16 3 15 4 14 5 12 6 13 7 11 9 3 10 4 11 92 12 5 13
REMARK SMILES IDX 6 14 9 15 91 16 10 17 90 18 2 19 1 20 7 21 8 22 19 23 20 24
REMARK SMILES IDX 21 25 22 26 23 28 24 29 25 30 89 31 26 32 88 33 27 34 28 35
REMARK SMILES IDX 29 36 82 37 30 38 87 39 81 40 83 41 31 42 86 43 80 44 79 45
REMARK SMILES IDX 32 47 66 48 45 49 65 50 46 51 49 52 64 53 84 54 47 55 48 56
REMARK SMILES IDX 63 58 85 59 50 60 33 61 34 62 43 63 35 64 36 65 42 66 44 67
REMARK SMILES IDX 37 68 38 69 39 70 40 71 41 72 67 73 68 74 77 75 69 76 70 77
REMARK SMILES IDX 76 78 78 79 71 80 72 81 73 82 74 83 75 84 51 85 52 86 61 87
REMARK SMILES IDX 53 88 54 89 60 90 62 91 55 92 56 93 57 94 58 95 59 96
REMARK H PARENT 14 8 21 27 83 46 49 57
REMARK Flexibility Score: inf
ROOT
ATOM      1  C   UNL A   1      41.021  21.088  27.182  1.00  0.00     0.002 C 
ENDROOT
BRANCH   1   2
ATOM      2  C   UNL A   1      40.153  22.253  26.688  1.00  0.00     0.002 C 
BRANCH   2   3
ATOM      3  C   UNL A   1      38.737  21.844  26.265  1.00  0.00     0.021 C 
BRANCH   3   4
ATOM      4  C   UNL A   1      37.885  23.039  25.831  1.00  0.00     0.116 C 
BRANCH   4   5
ATOM      5  N   UNL A   1      37.653  22.974  24.401  1.00  0.00    -0.352 N 
ATOM      6  C   UNL A   1      36.518  23.032  23.637  1.00  0.00     0.251 C 
ATOM      7  O   UNL A   1      36.646  22.896  22.420  1.00  0.00    -0.269 OA
ATOM      8  H   UNL A   1      38.477  22.867  23.873  1.00  0.00     0.163 HD
BRANCH   6   9
ATOM      9  C   UNL A   1      35.159  23.306  24.187  1.00  0.00     0.042 A 
ATOM     10  N   UNL A   1      31.473  24.697  25.581  1.00  0.00    -0.292 N 
ATOM     11  C   UNL A   1      31.317  25.825  24.734  1.00  0.00     0.329 A 
ATOM     12  C   UNL A   1      32.672  24.051  25.232  1.00  0.00     0.069 A 
ATOM     13  O   UNL A   1      30.352  26.588  24.702  1.00  0.00    -0.248 OA
ATOM     14  N   UNL A   1      32.456  25.880  23.912  1.00  0.00    -0.292 N 
ATOM     15  C   UNL A   1      33.294  24.807  24.236  1.00  0.00     0.070 A 
ATOM     16  C   UNL A   1      33.242  22.875  25.665  1.00  0.00     0.029 A 
ATOM     17  C   UNL A   1      34.524  24.464  23.707  1.00  0.00     0.042 A 
ATOM     18  C   UNL A   1      34.477  22.494  25.114  1.00  0.00     0.016 A 
BRANCH  10  19
ATOM     19  C   UNL A   1      30.444  24.301  26.509  1.00  0.00     0.124 C 
ATOM     20  C   UNL A   1      30.160  22.819  26.679  1.00  0.00     0.028 C 
ENDBRANCH  10  19
BRANCH  14  21
ATOM     21  C   UNL A   1      32.651  26.805  22.823  1.00  0.00     0.124 C 
ATOM     22  C   UNL A   1      33.494  28.013  23.196  1.00  0.00     0.028 C 
ENDBRANCH  14  21
ENDBRANCH   6   9
ENDBRANCH   4   5
ENDBRANCH   3   4
ENDBRANCH   2   3
ENDBRANCH   1   2
BRANCH   1  23
ATOM     23  C   UNL A   1      41.221  19.959  26.164  1.00  0.00     0.021 C 
BRANCH  23  24
ATOM     24  C   UNL A   1      42.626  19.356  26.188  1.00  0.00     0.116 C 
BRANCH  24  25
ATOM     25  N   UNL A   1      43.403  19.673  25.010  1.00  0.00    -0.352 N 
ATOM     26  C   UNL A   1      44.066  20.787  24.574  1.00  0.00     0.251 C 
ATOM     27  H   UNL A   1      43.470  18.919  24.381  1.00  0.00     0.163 HD
ATOM     28  O   UNL A   1      44.631  20.691  23.482  1.00  0.00    -0.269 OA
BRANCH  26  29
ATOM     29  C   UNL A   1      44.096  22.091  25.291  1.00  0.00     0.039 A 
ATOM     30  C   UNL A   1      44.860  22.373  26.425  1.00  0.00     0.014 A 
ATOM     31  C   UNL A   1      43.259  23.097  24.778  1.00  0.00     0.014 A 
ATOM     32  C   UNL A   1      44.708  23.575  27.101  1.00  0.00     0.010 A 
ATOM     33  C   UNL A   1      43.132  24.319  25.426  1.00  0.00     0.010 A 
ATOM     34  C   UNL A   1      43.817  24.530  26.620  1.00  0.00    -0.014 A 
BRANCH  34  35
ATOM     35  C   UNL A   1      43.671  25.758  27.390  1.00  0.00     0.031 A 
ATOM     36  C   UNL A   1      44.699  26.813  27.142  1.00  0.00     0.074 A 
ATOM     37  C   UNL A   1      42.606  25.973  28.184  1.00  0.00     0.049 A 
ATOM     38  N   UNL A   1      45.497  27.386  27.986  1.00  0.00    -0.248 NA
ATOM     39  C   UNL A   1      44.925  27.216  25.743  1.00  0.00     0.031 C 
ATOM     40  C   UNL A   1      41.391  25.163  28.307  1.00  0.00     0.029 A 
ATOM     41  N   UNL A   1      42.334  27.051  28.964  1.00  0.00    -0.354 N 
ATOM     42  C   UNL A   1      46.200  28.350  27.262  1.00  0.00     0.074 A 
ATOM     43  C   UNL A   1      45.904  28.112  25.872  1.00  0.00     0.031 C 
ATOM     44  C   UNL A   1      40.428  25.903  28.897  1.00  0.00     0.029 A 
ATOM     45  C   UNL A   1      40.995  27.180  29.297  1.00  0.00     0.049 A 
ATOM     46  H   UNL A   1      43.025  27.682  29.267  1.00  0.00     0.167 HD
ATOM     47  C   UNL A   1      46.844  29.397  27.852  1.00  0.00     0.037 A 
ATOM     48  C   UNL A   1      40.387  28.307  29.745  1.00  0.00     0.037 A 
ATOM     49  C   UNL A   1      47.079  29.171  29.250  1.00  0.00     0.049 A 
ATOM     50  C   UNL A   1      41.452  29.183  30.311  1.00  0.00     0.074 A 
ATOM     51  C   UNL A   1      47.774  28.214  29.965  1.00  0.00     0.029 A 
ATOM     52  N   UNL A   1      46.267  29.794  30.167  1.00  0.00    -0.354 N 
ATOM     53  N   UNL A   1      42.159  28.881  31.370  1.00  0.00    -0.248 NA
ATOM     54  C   UNL A   1      42.052  30.176  29.431  1.00  0.00     0.031 C 
ATOM     55  C   UNL A   1      46.973  27.964  31.117  1.00  0.00     0.029 A 
ATOM     56  C   UNL A   1      45.873  28.822  31.056  1.00  0.00     0.049 A 
ATOM     57  H   UNL A   1      46.015  30.746  30.184  1.00  0.00     0.167 HD
ATOM     58  C   UNL A   1      43.445  29.324  31.086  1.00  0.00     0.074 A 
ATOM     59  C   UNL A   1      43.297  30.184  29.913  1.00  0.00     0.031 C 
ATOM     60  C   UNL A   1      44.552  28.745  31.642  1.00  0.00     0.037 A 
BRANCH  47  61
ATOM     61  C   UNL A   1      47.012  30.748  27.204  1.00  0.00     0.058 A 
ATOM     62  C   UNL A   1      48.283  31.355  27.130  1.00  0.00     0.135 A 
ATOM     63  C   UNL A   1      45.918  31.579  26.880  1.00  0.00     0.135 A 
ATOM     64  F   UNL A   1      49.389  30.663  27.446  1.00  0.00    -0.206 F 
ATOM     65  C   UNL A   1      48.447  32.700  26.795  1.00  0.00     0.059 A 
ATOM     66  C   UNL A   1      46.062  32.906  26.490  1.00  0.00     0.059 A 
ATOM     67  F   UNL A   1      44.652  31.165  27.021  1.00  0.00    -0.206 F 
ATOM     68  C   UNL A   1      47.328  33.470  26.487  1.00  0.00     0.060 A 
BRANCH  68  69
ATOM     69  S   UNL A   1      47.524  35.231  26.158  1.00  0.00     0.124 S 
ATOM     70  O   UNL A   1      48.016  35.714  27.443  1.00  0.00    -0.237 OA
ATOM     71  O   UNL A   1      48.488  35.229  25.063  1.00  0.00    -0.237 OA
ATOM     72  O   UNL A   1      46.175  35.658  25.797  1.00  0.00    -0.744 OA
ENDBRANCH  68  69
ENDBRANCH  47  61
BRANCH  48  73
ATOM     73  C   UNL A   1      39.046  28.794  29.315  1.00  0.00     0.058 A 
ATOM     74  C   UNL A   1      37.983  28.932  30.223  1.00  0.00     0.135 A 
ATOM     75  C   UNL A   1      38.836  29.354  28.035  1.00  0.00     0.135 A 
ATOM     76  F   UNL A   1      38.105  28.470  31.476  1.00  0.00    -0.206 F 
ATOM     77  C   UNL A   1      36.794  29.595  29.886  1.00  0.00     0.059 A 
ATOM     78  C   UNL A   1      37.657  29.998  27.671  1.00  0.00     0.059 A 
ATOM     79  F   UNL A   1      39.809  29.375  27.111  1.00  0.00    -0.206 F 
ATOM     80  C   UNL A   1      36.645  30.134  28.608  1.00  0.00     0.060 A 
BRANCH  80  81
ATOM     81  S   UNL A   1      35.170  31.097  28.202  1.00  0.00     0.124 S 
ATOM     82  O   UNL A   1      34.336  30.106  27.530  1.00  0.00    -0.237 OA
ATOM     83  O   UNL A   1      34.716  31.526  29.519  1.00  0.00    -0.237 OA
ATOM     84  O   UNL A   1      35.683  32.162  27.344  1.00  0.00    -0.744 OA
ENDBRANCH  80  81
ENDBRANCH  48  73
BRANCH  60  85
ATOM     85  C   UNL A   1      44.375  27.737  32.754  1.00  0.00     0.058 A 
ATOM     86  C   UNL A   1      44.172  28.089  34.100  1.00  0.00     0.135 A 
ATOM     87  C   UNL A   1      44.189  26.386  32.419  1.00  0.00     0.135 A 
ATOM     88  F   UNL A   1      44.214  29.368  34.492  1.00  0.00    -0.206 F 
ATOM     89  C   UNL A   1      43.833  27.145  35.071  1.00  0.00     0.059 A 
ATOM     90  C   UNL A   1      43.818  25.431  33.364  1.00  0.00     0.059 A 
ATOM     91  F   UNL A   1      44.299  25.989  31.139  1.00  0.00    -0.206 F 
ATOM     92  C   UNL A   1      43.647  25.818  34.692  1.00  0.00     0.060 A 
BRANCH  92  93
ATOM     93  S   UNL A   1      43.091  24.627  35.932  1.00  0.00     0.124 S 
ATOM     94  O   UNL A   1      43.026  23.390  35.162  1.00  0.00    -0.237 OA
ATOM     95  O   UNL A   1      44.152  24.696  36.933  1.00  0.00    -0.237 OA
ATOM     96  O   UNL A   1      41.803  25.162  36.366  1.00  0.00    -0.744 OA
ENDBRANCH  92  93
ENDBRANCH  60  85
ENDBRANCH  34  35
ENDBRANCH  26  29
ENDBRANCH  24  25
ENDBRANCH  23  24
ENDBRANCH   1  23
TORSDOF 18
ENDMDL
MODEL 3
REMARK VINA RESULT:     -11.8      1.181      1.909
REMARK SMILES CCn1c(=O)n(CC)c2cc(C(=O)NCCCCCCNC(=O)c3ccc(-c4c5nc(c(-c6c(F)cc(S(=O)(=O)[O-])cc6F)c6ccc([nH]6)c(-c6c(F)cc(S(=O)(=O)[O-])cc6F)c6nc(c(-c7c(F)cc(S(=O)(=O)[O-])cc7F)c7ccc4[nH]7)C=C6)C=C5)cc3)ccc21
REMARK SMILES IDX 18 1 17 2 16 3 15 4 14 5 12 6 13 7 11 9 3 10 4 11 92 12 5 13
REMARK SMILES IDX 6 14 9 15 91 16 10 17 90 18 2 19 1 20 7 21 8 22 19 23 20 24
REMARK SMILES IDX 21 25 22 26 23 28 24 29 25 30 89 31 26 32 88 33 27 34 28 35
REMARK SMILES IDX 29 36 82 37 30 38 87 39 81 40 83 41 31 42 86 43 80 44 79 45
REMARK SMILES IDX 32 47 66 48 45 49 65 50 46 51 49 52 64 53 84 54 47 55 48 56
REMARK SMILES IDX 63 58 85 59 50 60 33 61 34 62 43 63 35 64 36 65 42 66 44 67
REMARK SMILES IDX 37 68 38 69 39 70 40 71 41 72 67 73 68 74 77 75 69 76 70 77
REMARK SMILES IDX 76 78 78 79 71 80 72 81 73 82 74 83 75 84 51 85 52 86 61 87
REMARK SMILES IDX 53 88 54 89 60 90 62 91 55 92 56 93 57 94 58 95 59 96
REMARK H PARENT 14 8 21 27 83 46 49 57
REMARK Flexibility Score: inf
ROOT
ATOM      1  C   UNL A   1      36.281  22.784  23.353  1.00  0.00     0.002 C 
ENDROOT
BRANCH   1   2
ATOM      2  C   UNL A   1      34.769  23.022  23.249  1.00  0.00     0.002 C 
BRANCH   2   3
ATOM      3  C   UNL A   1      33.930  22.149  24.190  1.00  0.00     0.021 C 
BRANCH   3   4
ATOM      4  C   UNL A   1      32.433  22.451  24.095  1.00  0.00     0.116 C 
BRANCH   4   5
ATOM      5  N   UNL A   1      31.891  22.635  25.428  1.00  0.00    -0.352 N 
ATOM      6  C   UNL A   1      31.381  23.724  26.083  1.00  0.00     0.251 C 
ATOM      7  O   UNL A   1      31.037  23.570  27.256  1.00  0.00    -0.269 OA
ATOM      8  H   UNL A   1      31.890  21.814  25.969  1.00  0.00     0.163 HD
BRANCH   6   9
ATOM      9  C   UNL A   1      31.168  25.055  25.444  1.00  0.00     0.042 A 
ATOM     10  N   UNL A   1      30.604  29.023  24.261  1.00  0.00    -0.292 N 
ATOM     11  C   UNL A   1      31.320  29.677  25.296  1.00  0.00     0.329 A 
ATOM     12  C   UNL A   1      30.710  27.635  24.463  1.00  0.00     0.069 A 
ATOM     13  O   UNL A   1      31.504  30.889  25.406  1.00  0.00    -0.248 OA
ATOM     14  N   UNL A   1      31.811  28.674  26.150  1.00  0.00    -0.292 N 
ATOM     15  C   UNL A   1      31.415  27.427  25.650  1.00  0.00     0.070 A 
ATOM     16  C   UNL A   1      30.291  26.561  23.710  1.00  0.00     0.029 A 
ATOM     17  C   UNL A   1      31.651  26.164  26.159  1.00  0.00     0.042 A 
ATOM     18  C   UNL A   1      30.551  25.269  24.197  1.00  0.00     0.016 A 
BRANCH  10  19
ATOM     19  C   UNL A   1      30.024  29.756  23.164  1.00  0.00     0.124 C 
ATOM     20  C   UNL A   1      28.651  30.376  23.357  1.00  0.00     0.028 C 
ENDBRANCH  10  19
BRANCH  14  21
ATOM     21  C   UNL A   1      32.694  28.894  27.269  1.00  0.00     0.124 C 
ATOM     22  C   UNL A   1      34.158  28.646  26.946  1.00  0.00     0.028 C 
ENDBRANCH  14  21
ENDBRANCH   6   9
ENDBRANCH   4   5
ENDBRANCH   3   4
ENDBRANCH   2   3
ENDBRANCH   1   2
BRANCH   1  23
ATOM     23  C   UNL A   1      36.930  23.325  24.633  1.00  0.00     0.021 C 
BRANCH  23  24
ATOM     24  C   UNL A   1      37.202  22.248  25.683  1.00  0.00     0.116 C 
BRANCH  24  25
ATOM     25  N   UNL A   1      38.536  21.694  25.600  1.00  0.00    -0.352 N 
ATOM     26  C   UNL A   1      39.762  22.083  26.065  1.00  0.00     0.251 C 
ATOM     27  H   UNL A   1      38.570  20.850  25.095  1.00  0.00     0.163 HD
ATOM     28  O   UNL A   1      40.709  21.342  25.788  1.00  0.00    -0.269 OA
BRANCH  26  29
ATOM     29  C   UNL A   1      40.024  23.341  26.816  1.00  0.00     0.039 A 
ATOM     30  C   UNL A   1      39.318  24.535  26.664  1.00  0.00     0.014 A 
ATOM     31  C   UNL A   1      41.091  23.302  27.730  1.00  0.00     0.014 A 
ATOM     32  C   UNL A   1      39.734  25.691  27.310  1.00  0.00     0.010 A 
ATOM     33  C   UNL A   1      41.489  24.445  28.412  1.00  0.00     0.010 A 
ATOM     34  C   UNL A   1      40.841  25.651  28.153  1.00  0.00    -0.014 A 
BRANCH  34  35
ATOM     35  C   UNL A   1      41.254  26.902  28.775  1.00  0.00     0.031 A 
ATOM     36  C   UNL A   1      42.559  27.464  28.315  1.00  0.00     0.074 A 
ATOM     37  C   UNL A   1      40.449  27.569  29.624  1.00  0.00     0.049 A 
ATOM     38  N   UNL A   1      43.609  27.758  29.013  1.00  0.00    -0.248 NA
ATOM     39  C   UNL A   1      42.742  27.634  26.864  1.00  0.00     0.031 C 
ATOM     40  C   UNL A   1      39.047  27.293  29.947  1.00  0.00     0.029 A 
ATOM     41  N   UNL A   1      40.692  28.730  30.286  1.00  0.00    -0.354 N 
ATOM     42  C   UNL A   1      44.523  28.322  28.120  1.00  0.00     0.074 A 
ATOM     43  C   UNL A   1      43.990  28.100  26.799  1.00  0.00     0.031 C 
ATOM     44  C   UNL A   1      38.504  28.389  30.519  1.00  0.00     0.029 A 
ATOM     45  C   UNL A   1      39.546  29.384  30.710  1.00  0.00     0.049 A 
ATOM     46  H   UNL A   1      41.599  29.075  30.449  1.00  0.00     0.167 HD
ATOM     47  C   UNL A   1      45.574  29.090  28.520  1.00  0.00     0.037 A 
ATOM     48  C   UNL A   1      39.456  30.690  31.066  1.00  0.00     0.037 A 
ATOM     49  C   UNL A   1      45.880  28.908  29.912  1.00  0.00     0.049 A 
ATOM     50  C   UNL A   1      40.830  31.140  31.429  1.00  0.00     0.074 A 
ATOM     51  C   UNL A   1      46.257  27.822  30.678  1.00  0.00     0.029 A 
ATOM     52  N   UNL A   1      45.474  29.866  30.810  1.00  0.00    -0.354 N 
ATOM     53  N   UNL A   1      41.501  30.682  32.454  1.00  0.00    -0.248 NA
ATOM     54  C   UNL A   1      41.639  31.756  30.387  1.00  0.00     0.031 C 
ATOM     55  C   UNL A   1      45.569  27.990  31.915  1.00  0.00     0.029 A 
ATOM     56  C   UNL A   1      44.863  29.193  31.841  1.00  0.00     0.049 A 
ATOM     57  H   UNL A   1      45.595  30.840  30.731  1.00  0.00     0.167 HD
ATOM     58  C   UNL A   1      42.814  30.579  32.012  1.00  0.00     0.074 A 
ATOM     59  C   UNL A   1      42.849  31.331  30.759  1.00  0.00     0.031 C 
ATOM     60  C   UNL A   1      43.690  29.671  32.541  1.00  0.00     0.037 A 
BRANCH  47  61
ATOM     61  C   UNL A   1      46.146  30.219  27.700  1.00  0.00     0.058 A 
ATOM     62  C   UNL A   1      47.541  30.374  27.569  1.00  0.00     0.135 A 
ATOM     63  C   UNL A   1      45.365  31.304  27.246  1.00  0.00     0.135 A 
ATOM     64  F   UNL A   1      48.379  29.416  27.997  1.00  0.00    -0.206 F 
ATOM     65  C   UNL A   1      48.116  31.540  27.059  1.00  0.00     0.059 A 
ATOM     66  C   UNL A   1      45.913  32.451  26.684  1.00  0.00     0.059 A 
ATOM     67  F   UNL A   1      44.037  31.337  27.417  1.00  0.00    -0.206 F 
ATOM     68  C   UNL A   1      47.292  32.578  26.629  1.00  0.00     0.060 A 
BRANCH  68  69
ATOM     69  S   UNL A   1      48.029  34.124  26.069  1.00  0.00     0.124 S 
ATOM     70  O   UNL A   1      48.360  34.764  27.338  1.00  0.00    -0.237 OA
ATOM     71  O   UNL A   1      49.158  33.652  25.276  1.00  0.00    -0.237 OA
ATOM     72  O   UNL A   1      46.953  34.752  25.307  1.00  0.00    -0.744 OA
ENDBRANCH  68  69
ENDBRANCH  47  61
BRANCH  48  73
ATOM     73  C   UNL A   1      38.346  31.611  30.693  1.00  0.00     0.058 A 
ATOM     74  C   UNL A   1      37.855  31.685  29.378  1.00  0.00     0.135 A 
ATOM     75  C   UNL A   1      37.582  32.286  31.671  1.00  0.00     0.135 A 
ATOM     76  F   UNL A   1      38.489  31.040  28.387  1.00  0.00    -0.206 F 
ATOM     77  C   UNL A   1      36.676  32.372  29.058  1.00  0.00     0.059 A 
ATOM     78  C   UNL A   1      36.420  32.992  31.374  1.00  0.00     0.059 A 
ATOM     79  F   UNL A   1      37.890  32.211  32.974  1.00  0.00    -0.206 F 
ATOM     80  C   UNL A   1      35.959  33.015  30.068  1.00  0.00     0.060 A 
BRANCH  80  81
ATOM     81  S   UNL A   1      34.374  33.798  29.689  1.00  0.00     0.124 S 
ATOM     82  O   UNL A   1      33.741  32.801  28.831  1.00  0.00    -0.237 OA
ATOM     83  O   UNL A   1      33.792  33.961  31.016  1.00  0.00    -0.237 OA
ATOM     84  O   UNL A   1      34.757  35.040  29.022  1.00  0.00    -0.744 OA
ENDBRANCH  80  81
ENDBRANCH  48  73
BRANCH  60  85
ATOM     85  C   UNL A   1      43.293  28.901  33.778  1.00  0.00     0.058 A 
ATOM     86  C   UNL A   1      42.451  27.775  33.759  1.00  0.00     0.135 A 
ATOM     87  C   UNL A   1      43.954  29.174  34.987  1.00  0.00     0.135 A 
ATOM     88  F   UNL A   1      41.869  27.369  32.624  1.00  0.00    -0.206 F 
ATOM     89  C   UNL A   1      42.249  26.979  34.888  1.00  0.00     0.059 A 
ATOM     90  C   UNL A   1      43.795  28.374  36.117  1.00  0.00     0.059 A 
ATOM     91  F   UNL A   1      44.828  30.193  35.059  1.00  0.00    -0.206 F 
ATOM     92  C   UNL A   1      42.935  27.280  36.062  1.00  0.00     0.060 A 
BRANCH  92  93
ATOM     93  S   UNL A   1      42.760  26.175  37.480  1.00  0.00     0.124 S 
ATOM     94  O   UNL A   1      41.334  26.273  37.772  1.00  0.00    -0.237 OA
ATOM     95  O   UNL A   1      43.210  24.895  36.941  1.00  0.00    -0.237 OA
ATOM     96  O   UNL A   1      43.644  26.764  38.483  1.00  0.00    -0.744 OA
ENDBRANCH  92  93
ENDBRANCH  60  85
ENDBRANCH  34  35
ENDBRANCH  26  29
ENDBRANCH  24  25
ENDBRANCH  23  24
ENDBRANCH   1  23
TORSDOF 18
ENDMDL
