MODEL 1
REMARK VINA RESULT:     -12.2      0.000      0.000
REMARK SMILES O=C(NCCCCCCNC(=O)c1ccc(-n2cnc3ccccc32)nc1)c1ccc(-c2c3nc(c(-c4c(F)cc(S(=O)(=O)[O-])cc4F)c4ccc([nH]4)c(-c4c(F)cc(S(=O)(=O)[O-])cc4F)c4nc(c(-c5c(F)cc(S(=O)(=O)[O-])cc5F)c5ccc2[nH]5)C=C4)C=C3)cc1
REMARK SMILES IDX 5 1 4 2 3 3 1 4 2 5 28 7 29 8 93 9 30 10 92 11 31 12 32 13
REMARK SMILES IDX 33 14 86 15 34 16 91 17 85 18 87 19 35 20 90 21 84 22 83 23
REMARK SMILES IDX 36 25 70 26 49 27 69 28 50 29 53 30 68 31 88 32 51 33 52 34
REMARK SMILES IDX 67 36 89 37 54 38 37 39 38 40 47 41 39 42 40 43 46 44 48 45
REMARK SMILES IDX 41 46 42 47 43 48 44 49 45 50 71 51 72 52 81 53 73 54 74 55
REMARK SMILES IDX 80 56 82 57 75 58 76 59 77 60 78 61 79 62 55 63 56 64 65 65
REMARK SMILES IDX 57 66 58 67 64 68 66 69 59 70 60 71 61 72 62 73 63 74 6 75
REMARK SMILES IDX 7 76 8 77 9 78 10 79 11 80 12 82 13 83 14 84 27 85 15 86
REMARK SMILES IDX 26 87 16 88 17 89 18 90 25 91 19 92 20 93 24 94 21 95 23 96
REMARK SMILES IDX 22 97
REMARK H PARENT 3 6 87 24 53 35 10 81
REMARK Flexibility Score: inf
ROOT
ATOM      1  C   UNL A   1      42.284  19.834  27.210  1.00  0.00     0.021 C 
ENDROOT
BRANCH   1   2
ATOM      2  C   UNL A   1      42.637  19.660  25.743  1.00  0.00     0.116 C 
BRANCH   2   3
ATOM      3  N   UNL A   1      44.078  19.525  25.499  1.00  0.00    -0.352 N 
ATOM      4  O   UNL A   1      46.035  20.243  24.592  1.00  0.00    -0.269 OA
ATOM      5  C   UNL A   1      44.987  20.519  25.148  1.00  0.00     0.251 C 
ATOM      6  H   UNL A   1      44.448  18.617  25.597  1.00  0.00     0.163 HD
BRANCH   5   7
ATOM      7  C   UNL A   1      44.645  21.915  25.482  1.00  0.00     0.039 A 
ATOM      8  C   UNL A   1      43.722  22.679  24.766  1.00  0.00     0.014 A 
ATOM      9  C   UNL A   1      45.264  22.438  26.606  1.00  0.00     0.014 A 
ATOM     10  C   UNL A   1      43.411  23.951  25.249  1.00  0.00     0.010 A 
ATOM     11  C   UNL A   1      44.713  23.507  27.238  1.00  0.00     0.010 A 
ATOM     12  C   UNL A   1      43.915  24.352  26.499  1.00  0.00    -0.014 A 
BRANCH  12  13
ATOM     13  C   UNL A   1      43.618  25.643  27.101  1.00  0.00     0.031 A 
ATOM     14  C   UNL A   1      44.618  26.685  26.786  1.00  0.00     0.074 A 
ATOM     15  C   UNL A   1      42.456  25.917  27.740  1.00  0.00     0.049 A 
ATOM     16  N   UNL A   1      45.558  27.112  27.560  1.00  0.00    -0.248 NA
ATOM     17  C   UNL A   1      44.725  27.156  25.398  1.00  0.00     0.031 C 
ATOM     18  C   UNL A   1      41.245  25.089  27.869  1.00  0.00     0.029 A 
ATOM     19  N   UNL A   1      42.085  27.063  28.368  1.00  0.00    -0.354 N 
ATOM     20  C   UNL A   1      46.210  28.104  26.840  1.00  0.00     0.074 A 
ATOM     21  C   UNL A   1      45.817  27.921  25.468  1.00  0.00     0.031 C 
ATOM     22  C   UNL A   1      40.219  25.838  28.332  1.00  0.00     0.029 A 
ATOM     23  C   UNL A   1      40.739  27.134  28.718  1.00  0.00     0.049 A 
ATOM     24  H   UNL A   1      42.721  27.790  28.563  1.00  0.00     0.167 HD
ATOM     25  C   UNL A   1      46.796  29.150  27.485  1.00  0.00     0.037 A 
ATOM     26  C   UNL A   1      40.105  28.180  29.305  1.00  0.00     0.037 A 
ATOM     27  C   UNL A   1      46.927  28.870  28.897  1.00  0.00     0.049 A 
ATOM     28  C   UNL A   1      41.163  28.984  29.970  1.00  0.00     0.074 A 
ATOM     29  C   UNL A   1      47.581  27.905  29.639  1.00  0.00     0.029 A 
ATOM     30  N   UNL A   1      45.974  29.407  29.732  1.00  0.00    -0.354 N 
ATOM     31  N   UNL A   1      41.874  28.555  30.977  1.00  0.00    -0.248 NA
ATOM     32  C   UNL A   1      41.748  30.081  29.217  1.00  0.00     0.031 C 
ATOM     33  C   UNL A   1      46.695  27.597  30.714  1.00  0.00     0.029 A 
ATOM     34  C   UNL A   1      45.584  28.439  30.622  1.00  0.00     0.049 A 
ATOM     35  H   UNL A   1      45.633  30.329  29.697  1.00  0.00     0.167 HD
ATOM     36  C   UNL A   1      43.158  29.018  30.730  1.00  0.00     0.074 A 
ATOM     37  C   UNL A   1      42.998  30.027  29.684  1.00  0.00     0.031 C 
ATOM     38  C   UNL A   1      44.253  28.344  31.193  1.00  0.00     0.037 A 
BRANCH  25  39
ATOM     39  C   UNL A   1      46.887  30.552  26.931  1.00  0.00     0.058 A 
ATOM     40  C   UNL A   1      48.128  31.222  26.970  1.00  0.00     0.135 A 
ATOM     41  C   UNL A   1      45.773  31.362  26.616  1.00  0.00     0.135 A 
ATOM     42  F   UNL A   1      49.256  30.555  27.263  1.00  0.00    -0.206 F 
ATOM     43  C   UNL A   1      48.240  32.601  26.788  1.00  0.00     0.059 A 
ATOM     44  C   UNL A   1      45.870  32.727  26.377  1.00  0.00     0.059 A 
ATOM     45  F   UNL A   1      44.519  30.897  26.619  1.00  0.00    -0.206 F 
ATOM     46  C   UNL A   1      47.100  33.345  26.505  1.00  0.00     0.060 A 
BRANCH  46  47
ATOM     47  S   UNL A   1      47.227  35.135  26.364  1.00  0.00     0.124 S 
ATOM     48  O   UNL A   1      48.167  35.274  25.258  1.00  0.00    -0.237 OA
ATOM     49  O   UNL A   1      45.845  35.510  26.083  1.00  0.00    -0.237 OA
ATOM     50  O   UNL A   1      47.726  35.540  27.674  1.00  0.00    -0.744 OA
ENDBRANCH  46  47
ENDBRANCH  25  39
BRANCH  26  51
ATOM     51  C   UNL A   1      38.747  28.724  29.022  1.00  0.00     0.058 A 
ATOM     52  C   UNL A   1      37.801  28.869  30.055  1.00  0.00     0.135 A 
ATOM     53  C   UNL A   1      38.461  29.402  27.820  1.00  0.00     0.135 A 
ATOM     54  F   UNL A   1      37.995  28.263  31.236  1.00  0.00    -0.206 F 
ATOM     55  C   UNL A   1      36.681  29.698  29.932  1.00  0.00     0.059 A 
ATOM     56  C   UNL A   1      37.346  30.229  27.673  1.00  0.00     0.059 A 
ATOM     57  F   UNL A   1      39.310  29.357  26.783  1.00  0.00    -0.206 F 
ATOM     58  C   UNL A   1      36.478  30.400  28.745  1.00  0.00     0.060 A 
BRANCH  58  59
ATOM     59  S   UNL A   1      35.147  31.623  28.656  1.00  0.00     0.124 S 
ATOM     60  O   UNL A   1      35.752  32.670  27.841  1.00  0.00    -0.237 OA
ATOM     61  O   UNL A   1      34.074  30.862  28.024  1.00  0.00    -0.237 OA
ATOM     62  O   UNL A   1      34.918  31.974  30.055  1.00  0.00    -0.744 OA
ENDBRANCH  58  59
ENDBRANCH  26  51
BRANCH  38  63
ATOM     63  C   UNL A   1      44.044  27.280  32.246  1.00  0.00     0.058 A 
ATOM     64  C   UNL A   1      44.020  25.894  32.002  1.00  0.00     0.135 A 
ATOM     65  C   UNL A   1      44.023  27.689  33.589  1.00  0.00     0.135 A 
ATOM     66  F   UNL A   1      44.123  25.412  30.757  1.00  0.00    -0.206 F 
ATOM     67  C   UNL A   1      43.951  24.963  33.043  1.00  0.00     0.059 A 
ATOM     68  C   UNL A   1      43.987  26.779  34.642  1.00  0.00     0.059 A 
ATOM     69  F   UNL A   1      44.096  28.995  33.894  1.00  0.00    -0.206 F 
ATOM     70  C   UNL A   1      43.941  25.416  34.362  1.00  0.00     0.060 A 
BRANCH  70  71
ATOM     71  S   UNL A   1      43.933  24.213  35.712  1.00  0.00     0.124 S 
ATOM     72  O   UNL A   1      43.126  24.888  36.723  1.00  0.00    -0.237 OA
ATOM     73  O   UNL A   1      43.319  23.043  35.088  1.00  0.00    -0.237 OA
ATOM     74  O   UNL A   1      45.347  24.060  36.043  1.00  0.00    -0.744 OA
ENDBRANCH  70  71
ENDBRANCH  38  63
ENDBRANCH  12  13
ENDBRANCH   5   7
ENDBRANCH   2   3
ENDBRANCH   1   2
BRANCH   1  75
ATOM     75  C   UNL A   1      41.201  20.886  27.487  1.00  0.00     0.002 C 
BRANCH  75  76
ATOM     76  C   UNL A   1      40.536  21.557  26.276  1.00  0.00     0.002 C 
BRANCH  76  77
ATOM     77  C   UNL A   1      39.214  22.283  26.535  1.00  0.00     0.021 C 
BRANCH  77  78
ATOM     78  C   UNL A   1      38.263  22.336  25.344  1.00  0.00     0.116 C 
BRANCH  78  79
ATOM     79  N   UNL A   1      37.743  21.023  24.997  1.00  0.00    -0.352 N 
ATOM     80  C   UNL A   1      36.451  20.575  25.072  1.00  0.00     0.252 C 
ATOM     81  H   UNL A   1      38.404  20.373  24.665  1.00  0.00     0.163 HD
ATOM     82  O   UNL A   1      36.169  19.398  24.880  1.00  0.00    -0.269 OA
BRANCH  80  83
ATOM     83  C   UNL A   1      35.386  21.539  25.364  1.00  0.00     0.058 A 
ATOM     84  C   UNL A   1      35.196  22.022  26.657  1.00  0.00     0.019 A 
ATOM     85  C   UNL A   1      34.551  21.975  24.351  1.00  0.00     0.127 A 
ATOM     86  C   UNL A   1      34.169  22.927  26.890  1.00  0.00     0.048 A 
ATOM     87  N   UNL A   1      33.520  22.831  24.558  1.00  0.00    -0.238 NA
ATOM     88  C   UNL A   1      33.371  23.321  25.816  1.00  0.00     0.138 A 
BRANCH  88  89
ATOM     89  N   UNL A   1      32.376  24.302  26.030  1.00  0.00    -0.283 N 
ATOM     90  C   UNL A   1      31.026  24.066  26.123  1.00  0.00     0.206 A 
ATOM     91  C   UNL A   1      32.556  25.674  26.121  1.00  0.00     0.074 A 
ATOM     92  N   UNL A   1      30.348  25.162  26.388  1.00  0.00    -0.236 NA
ATOM     93  C   UNL A   1      31.277  26.169  26.363  1.00  0.00     0.089 A 
ATOM     94  C   UNL A   1      33.663  26.520  25.935  1.00  0.00     0.029 A 
ATOM     95  C   UNL A   1      31.089  27.553  26.501  1.00  0.00     0.030 A 
ATOM     96  C   UNL A   1      33.451  27.896  26.048  1.00  0.00     0.002 A 
ATOM     97  C   UNL A   1      32.187  28.407  26.338  1.00  0.00     0.002 A 
ENDBRANCH  88  89
ENDBRANCH  80  83
ENDBRANCH  78  79
ENDBRANCH  77  78
ENDBRANCH  76  77
ENDBRANCH  75  76
ENDBRANCH   1  75
TORSDOF 17
ENDMDL
MODEL 2
REMARK VINA RESULT:     -11.9      2.584      3.515
REMARK SMILES O=C(NCCCCCCNC(=O)c1ccc(-n2cnc3ccccc32)nc1)c1ccc(-c2c3nc(c(-c4c(F)cc(S(=O)(=O)[O-])cc4F)c4ccc([nH]4)c(-c4c(F)cc(S(=O)(=O)[O-])cc4F)c4nc(c(-c5c(F)cc(S(=O)(=O)[O-])cc5F)c5ccc2[nH]5)C=C4)C=C3)cc1
REMARK SMILES IDX 5 1 4 2 3 3 1 4 2 5 28 7 29 8 93 9 30 10 92 11 31 12 32 13
REMARK SMILES IDX 33 14 86 15 34 16 91 17 85 18 87 19 35 20 90 21 84 22 83 23
REMARK SMILES IDX 36 25 70 26 49 27 69 28 50 29 53 30 68 31 88 32 51 33 52 34
REMARK SMILES IDX 67 36 89 37 54 38 37 39 38 40 47 41 39 42 40 43 46 44 48 45
REMARK SMILES IDX 41 46 42 47 43 48 44 49 45 50 71 51 72 52 81 53 73 54 74 55
REMARK SMILES IDX 80 56 82 57 75 58 76 59 77 60 78 61 79 62 55 63 56 64 65 65
REMARK SMILES IDX 57 66 58 67 64 68 66 69 59 70 60 71 61 72 62 73 63 74 6 75
REMARK SMILES IDX 7 76 8 77 9 78 10 79 11 80 12 82 13 83 14 84 27 85 15 86
REMARK SMILES IDX 26 87 16 88 17 89 18 90 25 91 19 92 20 93 24 94 21 95 23 96
REMARK SMILES IDX 22 97
REMARK H PARENT 3 6 87 24 53 35 10 81
REMARK Flexibility Score: inf
ROOT
ATOM      1  C   UNL A   1      39.168  22.337  26.311  1.00  0.00     0.021 C 
ENDROOT
BRANCH   1   2
ATOM      2  C   UNL A   1      40.266  22.321  27.360  1.00  0.00     0.116 C 
BRANCH   2   3
ATOM      3  N   UNL A   1      41.610  22.143  26.798  1.00  0.00    -0.352 N 
ATOM      4  O   UNL A   1      43.320  22.787  25.445  1.00  0.00    -0.269 OA
ATOM      5  C   UNL A   1      42.432  23.104  26.216  1.00  0.00     0.251 C 
ATOM      6  H   UNL A   1      41.976  21.230  26.839  1.00  0.00     0.163 HD
BRANCH   5   7
ATOM      7  C   UNL A   1      42.200  24.517  26.573  1.00  0.00     0.039 A 
ATOM      8  C   UNL A   1      41.433  25.394  25.806  1.00  0.00     0.014 A 
ATOM      9  C   UNL A   1      42.755  24.938  27.771  1.00  0.00     0.014 A 
ATOM     10  C   UNL A   1      41.205  26.676  26.309  1.00  0.00     0.010 A 
ATOM     11  C   UNL A   1      42.255  26.038  28.392  1.00  0.00     0.010 A 
ATOM     12  C   UNL A   1      41.621  26.984  27.616  1.00  0.00    -0.014 A 
BRANCH  12  13
ATOM     13  C   UNL A   1      41.398  28.280  28.239  1.00  0.00     0.031 A 
ATOM     14  C   UNL A   1      42.459  29.266  27.949  1.00  0.00     0.074 A 
ATOM     15  C   UNL A   1      40.251  28.610  28.878  1.00  0.00     0.049 A 
ATOM     16  N   UNL A   1      43.418  29.623  28.734  1.00  0.00    -0.248 NA
ATOM     17  C   UNL A   1      42.601  29.754  26.569  1.00  0.00     0.031 C 
ATOM     18  C   UNL A   1      38.992  27.853  28.987  1.00  0.00     0.029 A 
ATOM     19  N   UNL A   1      39.944  29.765  29.525  1.00  0.00    -0.354 N 
ATOM     20  C   UNL A   1      44.132  30.588  28.035  1.00  0.00     0.074 A 
ATOM     21  C   UNL A   1      43.736  30.452  26.659  1.00  0.00     0.031 C 
ATOM     22  C   UNL A   1      38.009  28.652  29.458  1.00  0.00     0.029 A 
ATOM     23  C   UNL A   1      38.602  29.908  29.869  1.00  0.00     0.049 A 
ATOM     24  H   UNL A   1      40.620  30.449  29.736  1.00  0.00     0.167 HD
ATOM     25  C   UNL A   1      44.774  31.585  28.702  1.00  0.00     0.037 A 
ATOM     26  C   UNL A   1      38.027  30.980  30.473  1.00  0.00     0.037 A 
ATOM     27  C   UNL A   1      44.880  31.273  30.109  1.00  0.00     0.049 A 
ATOM     28  C   UNL A   1      39.128  31.708  31.157  1.00  0.00     0.074 A 
ATOM     29  C   UNL A   1      45.473  30.259  30.837  1.00  0.00     0.029 A 
ATOM     30  N   UNL A   1      43.957  31.851  30.949  1.00  0.00    -0.354 N 
ATOM     31  N   UNL A   1      39.806  31.220  32.160  1.00  0.00    -0.248 NA
ATOM     32  C   UNL A   1      39.780  32.782  30.426  1.00  0.00     0.031 C 
ATOM     33  C   UNL A   1      44.564  29.984  31.902  1.00  0.00     0.029 A 
ATOM     34  C   UNL A   1      43.505  30.891  31.820  1.00  0.00     0.049 A 
ATOM     35  H   UNL A   1      43.671  32.792  30.929  1.00  0.00     0.167 HD
ATOM     36  C   UNL A   1      41.117  31.611  31.927  1.00  0.00     0.074 A 
ATOM     37  C   UNL A   1      41.022  32.646  30.899  1.00  0.00     0.031 C 
ATOM     38  C   UNL A   1      42.167  30.865  32.383  1.00  0.00     0.037 A 
BRANCH  25  39
ATOM     39  C   UNL A   1      44.951  32.990  28.174  1.00  0.00     0.058 A 
ATOM     40  C   UNL A   1      46.237  33.412  27.776  1.00  0.00     0.135 A 
ATOM     41  C   UNL A   1      43.987  34.015  28.291  1.00  0.00     0.135 A 
ATOM     42  F   UNL A   1      47.236  32.525  27.635  1.00  0.00    -0.206 F 
ATOM     43  C   UNL A   1      46.558  34.757  27.587  1.00  0.00     0.059 A 
ATOM     44  C   UNL A   1      44.271  35.354  28.054  1.00  0.00     0.059 A 
ATOM     45  F   UNL A   1      42.745  33.792  28.735  1.00  0.00    -0.206 F 
ATOM     46  C   UNL A   1      45.568  35.721  27.742  1.00  0.00     0.060 A 
BRANCH  46  47
ATOM     47  S   UNL A   1      45.999  37.462  27.593  1.00  0.00     0.124 S 
ATOM     48  O   UNL A   1      44.729  38.104  27.912  1.00  0.00    -0.237 OA
ATOM     49  O   UNL A   1      47.055  37.594  28.592  1.00  0.00    -0.237 OA
ATOM     50  O   UNL A   1      46.438  37.581  26.206  1.00  0.00    -0.744 OA
ENDBRANCH  46  47
ENDBRANCH  25  39
BRANCH  26  51
ATOM     51  C   UNL A   1      36.706  31.608  30.193  1.00  0.00     0.058 A 
ATOM     52  C   UNL A   1      35.975  32.232  31.222  1.00  0.00     0.135 A 
ATOM     53  C   UNL A   1      36.288  31.888  28.877  1.00  0.00     0.135 A 
ATOM     54  F   UNL A   1      36.307  32.026  32.505  1.00  0.00    -0.206 F 
ATOM     55  C   UNL A   1      34.943  33.141  30.961  1.00  0.00     0.059 A 
ATOM     56  C   UNL A   1      35.257  32.786  28.594  1.00  0.00     0.059 A 
ATOM     57  F   UNL A   1      36.934  31.371  27.822  1.00  0.00    -0.206 F 
ATOM     58  C   UNL A   1      34.611  33.435  29.640  1.00  0.00     0.060 A 
BRANCH  58  59
ATOM     59  S   UNL A   1      33.420  34.755  29.299  1.00  0.00     0.124 S 
ATOM     60  O   UNL A   1      34.281  35.815  28.787  1.00  0.00    -0.237 OA
ATOM     61  O   UNL A   1      32.535  34.125  28.326  1.00  0.00    -0.237 OA
ATOM     62  O   UNL A   1      32.822  35.014  30.606  1.00  0.00    -0.744 OA
ENDBRANCH  58  59
ENDBRANCH  26  51
BRANCH  38  63
ATOM     63  C   UNL A   1      41.890  29.797  33.416  1.00  0.00     0.058 A 
ATOM     64  C   UNL A   1      41.554  28.461  33.127  1.00  0.00     0.135 A 
ATOM     65  C   UNL A   1      42.132  30.115  34.761  1.00  0.00     0.135 A 
ATOM     66  F   UNL A   1      41.390  28.049  31.863  1.00  0.00    -0.206 F 
ATOM     67  C   UNL A   1      41.438  27.496  34.133  1.00  0.00     0.059 A 
ATOM     68  C   UNL A   1      42.053  29.164  35.775  1.00  0.00     0.059 A 
ATOM     69  F   UNL A   1      42.508  31.359  35.100  1.00  0.00    -0.206 F 
ATOM     70  C   UNL A   1      41.696  27.856  35.455  1.00  0.00     0.060 A 
BRANCH  70  71
ATOM     71  S   UNL A   1      41.625  26.593  36.747  1.00  0.00     0.124 S 
ATOM     72  O   UNL A   1      40.426  26.976  37.486  1.00  0.00    -0.237 OA
ATOM     73  O   UNL A   1      41.526  25.357  35.976  1.00  0.00    -0.237 OA
ATOM     74  O   UNL A   1      42.883  26.769  37.467  1.00  0.00    -0.744 OA
ENDBRANCH  70  71
ENDBRANCH  38  63
ENDBRANCH  12  13
ENDBRANCH   5   7
ENDBRANCH   2   3
ENDBRANCH   1   2
BRANCH   1  75
ATOM     75  C   UNL A   1      38.320  23.617  26.293  1.00  0.00     0.002 C 
BRANCH  75  76
ATOM     76  C   UNL A   1      37.076  23.631  25.391  1.00  0.00     0.002 C 
BRANCH  76  77
ATOM     77  C   UNL A   1      36.618  22.281  24.833  1.00  0.00     0.021 C 
BRANCH  77  78
ATOM     78  C   UNL A   1      35.478  21.619  25.599  1.00  0.00     0.116 C 
BRANCH  78  79
ATOM     79  N   UNL A   1      34.534  20.954  24.714  1.00  0.00    -0.352 N 
ATOM     80  C   UNL A   1      33.400  21.467  24.143  1.00  0.00     0.252 C 
ATOM     81  H   UNL A   1      34.737  20.015  24.497  1.00  0.00     0.163 HD
ATOM     82  O   UNL A   1      32.615  20.756  23.527  1.00  0.00    -0.269 OA
BRANCH  80  83
ATOM     83  C   UNL A   1      33.143  22.906  24.257  1.00  0.00     0.058 A 
ATOM     84  C   UNL A   1      33.573  23.788  23.267  1.00  0.00     0.019 A 
ATOM     85  C   UNL A   1      32.473  23.404  25.361  1.00  0.00     0.127 A 
ATOM     86  C   UNL A   1      33.316  25.144  23.421  1.00  0.00     0.048 A 
ATOM     87  N   UNL A   1      32.240  24.726  25.550  1.00  0.00    -0.238 NA
ATOM     88  C   UNL A   1      32.632  25.568  24.560  1.00  0.00     0.138 A 
BRANCH  88  89
ATOM     89  N   UNL A   1      32.296  26.936  24.684  1.00  0.00    -0.283 N 
ATOM     90  C   UNL A   1      31.433  27.625  23.867  1.00  0.00     0.206 A 
ATOM     91  C   UNL A   1      32.811  27.848  25.592  1.00  0.00     0.074 A 
ATOM     92  N   UNL A   1      31.265  28.869  24.260  1.00  0.00    -0.236 NA
ATOM     93  C   UNL A   1      32.131  29.030  25.310  1.00  0.00     0.089 A 
ATOM     94  C   UNL A   1      33.837  27.785  26.551  1.00  0.00     0.029 A 
ATOM     95  C   UNL A   1      32.422  30.185  26.052  1.00  0.00     0.030 A 
ATOM     96  C   UNL A   1      34.131  28.952  27.260  1.00  0.00     0.002 A 
ATOM     97  C   UNL A   1      33.428  30.132  27.024  1.00  0.00     0.002 A 
ENDBRANCH  88  89
ENDBRANCH  80  83
ENDBRANCH  78  79
ENDBRANCH  77  78
ENDBRANCH  76  77
ENDBRANCH  75  76
ENDBRANCH   1  75
TORSDOF 17
ENDMDL
MODEL 3
REMARK VINA RESULT:     -11.6      2.821      3.851
REMARK SMILES O=C(NCCCCCCNC(=O)c1ccc(-n2cnc3ccccc32)nc1)c1ccc(-c2c3nc(c(-c4c(F)cc(S(=O)(=O)[O-])cc4F)c4ccc([nH]4)c(-c4c(F)cc(S(=O)(=O)[O-])cc4F)c4nc(c(-c5c(F)cc(S(=O)(=O)[O-])cc5F)c5ccc2[nH]5)C=C4)C=C3)cc1
REMARK SMILES IDX 5 1 4 2 3 3 1 4 2 5 28 7 29 8 93 9 30 10 92 11 31 12 32 13
REMARK SMILES IDX 33 14 86 15 34 16 91 17 85 18 87 19 35 20 90 21 84 22 83 23
REMARK SMILES IDX 36 25 70 26 49 27 69 28 50 29 53 30 68 31 88 32 51 33 52 34
REMARK SMILES IDX 67 36 89 37 54 38 37 39 38 40 47 41 39 42 40 43 46 44 48 45
REMARK SMILES IDX 41 46 42 47 43 48 44 49 45 50 71 51 72 52 81 53 73 54 74 55
REMARK SMILES IDX 80 56 82 57 75 58 76 59 77 60 78 61 79 62 55 63 56 64 65 65
REMARK SMILES IDX 57 66 58 67 64 68 66 69 59 70 60 71 61 72 62 73 63 74 6 75
REMARK SMILES IDX 7 76 8 77 9 78 10 79 11 80 12 82 13 83 14 84 27 85 15 86
REMARK SMILES IDX 26 87 16 88 17 89 18 90 25 91 19 92 20 93 24 94 21 95 23 96
REMARK SMILES IDX 22 97
REMARK H PARENT 3 6 87 24 53 35 10 81
REMARK Flexibility Score: inf
ROOT
ATOM      1  C   UNL A   1      38.699  22.551  25.787  1.00  0.00     0.021 C 
ENDROOT
BRANCH   1   2
ATOM      2  C   UNL A   1      39.661  22.552  26.962  1.00  0.00     0.116 C 
BRANCH   2   3
ATOM      3  N   UNL A   1      41.052  22.278  26.580  1.00  0.00    -0.352 N 
ATOM      4  O   UNL A   1      42.989  22.834  25.529  1.00  0.00    -0.269 OA
ATOM      5  C   UNL A   1      42.030  23.188  26.190  1.00  0.00     0.251 C 
ATOM      6  H   UNL A   1      41.327  21.333  26.604  1.00  0.00     0.163 HD
BRANCH   5   7
ATOM      7  C   UNL A   1      41.873  24.593  26.615  1.00  0.00     0.039 A 
ATOM      8  C   UNL A   1      41.179  25.553  25.877  1.00  0.00     0.014 A 
ATOM      9  C   UNL A   1      42.422  24.919  27.845  1.00  0.00     0.014 A 
ATOM     10  C   UNL A   1      41.015  26.819  26.440  1.00  0.00     0.010 A 
ATOM     11  C   UNL A   1      41.972  26.014  28.510  1.00  0.00     0.010 A 
ATOM     12  C   UNL A   1      41.415  27.035  27.771  1.00  0.00    -0.014 A 
BRANCH  12  13
ATOM     13  C   UNL A   1      41.254  28.308  28.455  1.00  0.00     0.031 A 
ATOM     14  C   UNL A   1      42.335  29.274  28.169  1.00  0.00     0.074 A 
ATOM     15  C   UNL A   1      40.139  28.645  29.147  1.00  0.00     0.049 A 
ATOM     16  N   UNL A   1      43.330  29.569  28.935  1.00  0.00    -0.248 NA
ATOM     17  C   UNL A   1      42.445  29.817  26.808  1.00  0.00     0.031 C 
ATOM     18  C   UNL A   1      38.862  27.922  29.268  1.00  0.00     0.029 A 
ATOM     19  N   UNL A   1      39.891  29.779  29.852  1.00  0.00    -0.354 N 
ATOM     20  C   UNL A   1      44.049  30.541  28.253  1.00  0.00     0.074 A 
ATOM     21  C   UNL A   1      43.604  30.477  26.887  1.00  0.00     0.031 C 
ATOM     22  C   UNL A   1      37.921  28.729  29.806  1.00  0.00     0.029 A 
ATOM     23  C   UNL A   1      38.566  29.948  30.249  1.00  0.00     0.049 A 
ATOM     24  H   UNL A   1      40.594  30.433  30.068  1.00  0.00     0.167 HD
ATOM     25  C   UNL A   1      44.745  31.489  28.938  1.00  0.00     0.037 A 
ATOM     26  C   UNL A   1      38.046  31.009  30.916  1.00  0.00     0.037 A 
ATOM     27  C   UNL A   1      44.888  31.114  30.326  1.00  0.00     0.049 A 
ATOM     28  C   UNL A   1      39.190  31.674  31.591  1.00  0.00     0.074 A 
ATOM     29  C   UNL A   1      45.473  30.052  30.990  1.00  0.00     0.029 A 
ATOM     30  N   UNL A   1      44.012  31.682  31.221  1.00  0.00    -0.354 N 
ATOM     31  N   UNL A   1      39.886  31.123  32.549  1.00  0.00    -0.248 NA
ATOM     32  C   UNL A   1      39.851  32.758  30.884  1.00  0.00     0.031 C 
ATOM     33  C   UNL A   1      44.593  29.759  32.073  1.00  0.00     0.029 A 
ATOM     34  C   UNL A   1      43.560  30.700  32.067  1.00  0.00     0.049 A 
ATOM     35  H   UNL A   1      43.755  32.631  31.251  1.00  0.00     0.167 HD
ATOM     36  C   UNL A   1      41.200  31.485  32.287  1.00  0.00     0.074 A 
ATOM     37  C   UNL A   1      41.103  32.565  31.307  1.00  0.00     0.031 C 
ATOM     38  C   UNL A   1      42.242  30.690  32.674  1.00  0.00     0.037 A 
BRANCH  25  39
ATOM     39  C   UNL A   1      44.948  32.909  28.463  1.00  0.00     0.058 A 
ATOM     40  C   UNL A   1      46.261  33.372  28.237  1.00  0.00     0.135 A 
ATOM     41  C   UNL A   1      43.948  33.908  28.480  1.00  0.00     0.135 A 
ATOM     42  F   UNL A   1      47.292  32.513  28.203  1.00  0.00    -0.206 F 
ATOM     43  C   UNL A   1      46.565  34.728  28.115  1.00  0.00     0.059 A 
ATOM     44  C   UNL A   1      44.224  35.259  28.307  1.00  0.00     0.059 A 
ATOM     45  F   UNL A   1      42.668  33.644  28.763  1.00  0.00    -0.206 F 
ATOM     46  C   UNL A   1      45.538  35.664  28.165  1.00  0.00     0.060 A 
BRANCH  46  47
ATOM     47  S   UNL A   1      45.937  37.418  28.105  1.00  0.00     0.124 S 
ATOM     48  O   UNL A   1      47.381  37.380  27.907  1.00  0.00    -0.237 OA
ATOM     49  O   UNL A   1      45.143  37.865  26.965  1.00  0.00    -0.237 OA
ATOM     50  O   UNL A   1      45.489  37.909  29.404  1.00  0.00    -0.744 OA
ENDBRANCH  46  47
ENDBRANCH  25  39
BRANCH  26  51
ATOM     51  C   UNL A   1      36.736  31.687  30.710  1.00  0.00     0.058 A 
ATOM     52  C   UNL A   1      35.888  31.960  31.800  1.00  0.00     0.135 A 
ATOM     53  C   UNL A   1      36.436  32.360  29.509  1.00  0.00     0.135 A 
ATOM     54  F   UNL A   1      36.102  31.368  32.985  1.00  0.00    -0.206 F 
ATOM     55  C   UNL A   1      34.854  32.900  31.727  1.00  0.00     0.059 A 
ATOM     56  C   UNL A   1      35.406  33.297  29.411  1.00  0.00     0.059 A 
ATOM     57  F   UNL A   1      37.198  32.197  28.417  1.00  0.00    -0.206 F 
ATOM     58  C   UNL A   1      34.641  33.588  30.534  1.00  0.00     0.060 A 
BRANCH  58  59
ATOM     59  S   UNL A   1      33.442  34.944  30.496  1.00  0.00     0.124 S 
ATOM     60  O   UNL A   1      32.835  34.848  31.818  1.00  0.00    -0.237 OA
ATOM     61  O   UNL A   1      34.298  36.103  30.269  1.00  0.00    -0.237 OA
ATOM     62  O   UNL A   1      32.568  34.589  29.380  1.00  0.00    -0.744 OA
ENDBRANCH  58  59
ENDBRANCH  26  51
BRANCH  38  63
ATOM     63  C   UNL A   1      41.966  29.586  33.671  1.00  0.00     0.058 A 
ATOM     64  C   UNL A   1      41.762  28.233  33.342  1.00  0.00     0.135 A 
ATOM     65  C   UNL A   1      42.072  29.901  35.034  1.00  0.00     0.135 A 
ATOM     66  F   UNL A   1      41.735  27.830  32.065  1.00  0.00    -0.206 F 
ATOM     67  C   UNL A   1      41.641  27.246  34.326  1.00  0.00     0.059 A 
ATOM     68  C   UNL A   1      41.986  28.930  36.029  1.00  0.00     0.059 A 
ATOM     69  F   UNL A   1      42.319  31.165  35.415  1.00  0.00    -0.206 F 
ATOM     70  C   UNL A   1      41.761  27.604  35.668  1.00  0.00     0.060 A 
BRANCH  70  71
ATOM     71  S   UNL A   1      41.684  26.319  36.938  1.00  0.00     0.124 S 
ATOM     72  O   UNL A   1      41.671  25.097  36.140  1.00  0.00    -0.237 OA
ATOM     73  O   UNL A   1      42.901  26.562  37.707  1.00  0.00    -0.237 OA
ATOM     74  O   UNL A   1      40.441  26.613  37.647  1.00  0.00    -0.744 OA
ENDBRANCH  70  71
ENDBRANCH  38  63
ENDBRANCH  12  13
ENDBRANCH   5   7
ENDBRANCH   2   3
ENDBRANCH   1   2
BRANCH   1  75
ATOM     75  C   UNL A   1      37.649  23.671  25.819  1.00  0.00     0.002 C 
BRANCH  75  76
ATOM     76  C   UNL A   1      36.170  23.258  25.819  1.00  0.00     0.002 C 
BRANCH  76  77
ATOM     77  C   UNL A   1      35.873  21.771  26.034  1.00  0.00     0.021 C 
BRANCH  77  78
ATOM     78  C   UNL A   1      34.645  21.476  26.888  1.00  0.00     0.116 C 
BRANCH  78  79
ATOM     79  N   UNL A   1      33.745  20.529  26.248  1.00  0.00    -0.352 N 
ATOM     80  C   UNL A   1      32.717  20.788  25.381  1.00  0.00     0.252 C 
ATOM     81  H   UNL A   1      33.894  19.580  26.467  1.00  0.00     0.163 HD
ATOM     82  O   UNL A   1      31.944  19.907  25.022  1.00  0.00    -0.269 OA
BRANCH  80  83
ATOM     83  C   UNL A   1      32.563  22.148  24.857  1.00  0.00     0.058 A 
ATOM     84  C   UNL A   1      33.096  22.500  23.618  1.00  0.00     0.019 A 
ATOM     85  C   UNL A   1      31.890  23.104  25.598  1.00  0.00     0.127 A 
ATOM     86  C   UNL A   1      32.934  23.802  23.165  1.00  0.00     0.048 A 
ATOM     87  N   UNL A   1      31.749  24.390  25.193  1.00  0.00    -0.238 NA
ATOM     88  C   UNL A   1      32.240  24.707  23.968  1.00  0.00     0.138 A 
BRANCH  88  89
ATOM     89  N   UNL A   1      32.003  26.011  23.477  1.00  0.00    -0.283 N 
ATOM     90  C   UNL A   1      32.968  26.900  23.070  1.00  0.00     0.206 A 
ATOM     91  C   UNL A   1      30.782  26.660  23.374  1.00  0.00     0.074 A 
ATOM     92  N   UNL A   1      32.448  28.015  22.601  1.00  0.00    -0.236 NA
ATOM     93  C   UNL A   1      31.099  27.893  22.808  1.00  0.00     0.089 A 
ATOM     94  C   UNL A   1      29.478  26.340  23.787  1.00  0.00     0.029 A 
ATOM     95  C   UNL A   1      30.077  28.824  22.570  1.00  0.00     0.030 A 
ATOM     96  C   UNL A   1      28.478  27.291  23.567  1.00  0.00     0.002 A 
ATOM     97  C   UNL A   1      28.768  28.510  22.958  1.00  0.00     0.002 A 
ENDBRANCH  88  89
ENDBRANCH  80  83
ENDBRANCH  78  79
ENDBRANCH  77  78
ENDBRANCH  76  77
ENDBRANCH  75  76
ENDBRANCH   1  75
TORSDOF 17
ENDMDL
