MODEL 1
REMARK VINA RESULT:     -12.6      0.000      0.000
REMARK SMILES Nc1c(Cl)ccc2c1C=C(C(=O)NCCCCCCNC(=O)c1ccc(-c3c4nc(c(-c5c(F)cc(S(=O)(=O)[O-])cc5F)c5ccc([nH]5)c(-c5c(F)cc(S(=O)(=O)[O-])cc5F)c5nc(c(-c6c(F)cc(S(=O)(=O)[O-])cc6F)c6ccc3[nH]6)C=C5)C=C4)cc1)[C@@H](C(F)(F)F)O2
REMARK SMILES IDX 17 1 16 2 15 3 14 4 13 5 11 6 12 7 10 9 2 10 3 11 8 12 4 13
REMARK SMILES IDX 5 14 7 15 9 16 6 17 94 18 89 19 1 20 90 23 91 24 92 25 93 26
REMARK SMILES IDX 18 27 19 28 20 29 21 30 22 32 23 33 24 34 88 35 25 36 87 37
REMARK SMILES IDX 26 38 27 39 28 40 81 41 29 42 86 43 80 44 82 45 30 46 85 47
REMARK SMILES IDX 79 48 78 49 31 51 65 52 44 53 64 54 45 55 48 56 63 57 83 58
REMARK SMILES IDX 46 59 47 60 62 62 84 63 49 64 32 65 33 66 42 67 34 68 35 69
REMARK SMILES IDX 41 70 43 71 36 72 37 73 38 74 39 75 40 76 66 77 67 78 76 79
REMARK SMILES IDX 68 80 69 81 75 82 77 83 70 84 71 85 72 86 73 87 74 88 50 89
REMARK SMILES IDX 51 90 60 91 52 92 53 93 59 94 61 95 54 96 55 97 56 98 57 99
REMARK SMILES IDX 58 100
REMARK H PARENT 13 8 1 21 1 22 20 31 82 50 48 61
REMARK Flexibility Score: inf
ROOT
ATOM      1  C   UNL A   1      37.743  23.822  26.328  1.00  0.00     0.002 C 
ENDROOT
BRANCH   1   2
ATOM      2  C   UNL A   1      36.483  23.122  25.796  1.00  0.00     0.002 C 
BRANCH   2   3
ATOM      3  C   UNL A   1      35.198  23.956  25.831  1.00  0.00     0.021 C 
BRANCH   3   4
ATOM      4  C   UNL A   1      34.159  23.464  26.835  1.00  0.00     0.116 C 
BRANCH   4   5
ATOM      5  N   UNL A   1      32.814  23.842  26.439  1.00  0.00    -0.352 N 
ATOM      6  C   UNL A   1      31.884  23.417  25.555  1.00  0.00     0.251 C 
ATOM      7  O   UNL A   1      30.835  24.071  25.551  1.00  0.00    -0.270 OA
ATOM      8  H   UNL A   1      32.493  24.618  26.953  1.00  0.00     0.163 HD
BRANCH   6   9
ATOM      9  C   UNL A   1      32.030  22.256  24.623  1.00  0.00     0.067 C 
ATOM     10  C   UNL A   1      32.694  18.593  24.990  1.00  0.00     0.061 A 
ATOM     11  C   UNL A   1      32.881  17.496  24.117  1.00  0.00     0.064 A 
ATOM     12  C   UNL A   1      32.371  19.848  24.423  1.00  0.00     0.042 A 
ATOM     13  Cl  UNL A   1      33.312  15.935  24.739  1.00  0.00    -0.082 Cl
ATOM     14  C   UNL A   1      32.708  17.620  22.737  1.00  0.00     0.026 A 
ATOM     15  C   UNL A   1      32.213  19.956  23.035  1.00  0.00     0.130 A 
ATOM     16  C   UNL A   1      32.157  21.057  25.224  1.00  0.00     0.027 C 
ATOM     17  C   UNL A   1      32.365  18.852  22.198  1.00  0.00     0.049 A 
ATOM     18  O   UNL A   1      31.861  21.117  22.410  1.00  0.00    -0.475 OA
ATOM     19  C   UNL A   1      32.096  22.359  23.127  1.00  0.00     0.314 C 
BRANCH  10  20
ATOM     20  N   UNL A   1      32.929  18.436  26.360  1.00  0.00    -0.397 N 
ATOM     21  H   UNL A   1      32.371  17.821  26.887  1.00  0.00     0.156 HD
ATOM     22  H   UNL A   1      33.654  18.939  26.796  1.00  0.00     0.156 HD
ENDBRANCH  10  20
BRANCH  19  23
ATOM     23  C   UNL A   1      33.406  22.991  22.624  1.00  0.00     0.429 C 
ATOM     24  F   UNL A   1      33.475  22.933  21.273  1.00  0.00    -0.167 F 
ATOM     25  F   UNL A   1      33.510  24.299  22.957  1.00  0.00    -0.167 F 
ATOM     26  F   UNL A   1      34.501  22.369  23.116  1.00  0.00    -0.167 F 
ENDBRANCH  19  23
ENDBRANCH   6   9
ENDBRANCH   4   5
ENDBRANCH   3   4
ENDBRANCH   2   3
ENDBRANCH   1   2
BRANCH   1  27
ATOM     27  C   UNL A   1      39.003  22.955  26.393  1.00  0.00     0.021 C 
BRANCH  27  28
ATOM     28  C   UNL A   1      40.208  23.631  27.036  1.00  0.00     0.116 C 
BRANCH  28  29
ATOM     29  N   UNL A   1      41.057  24.274  26.048  1.00  0.00    -0.352 N 
ATOM     30  C   UNL A   1      41.457  25.586  25.994  1.00  0.00     0.251 C 
ATOM     31  H   UNL A   1      41.387  23.695  25.325  1.00  0.00     0.163 HD
ATOM     32  O   UNL A   1      42.011  26.028  24.993  1.00  0.00    -0.269 OA
BRANCH  30  33
ATOM     33  C   UNL A   1      41.196  26.462  27.152  1.00  0.00     0.039 A 
ATOM     34  C   UNL A   1      40.161  26.137  28.030  1.00  0.00     0.014 A 
ATOM     35  C   UNL A   1      41.987  27.597  27.370  1.00  0.00     0.014 A 
ATOM     36  C   UNL A   1      39.941  26.932  29.155  1.00  0.00     0.010 A 
ATOM     37  C   UNL A   1      41.800  28.358  28.520  1.00  0.00     0.010 A 
ATOM     38  C   UNL A   1      40.766  28.039  29.412  1.00  0.00    -0.014 A 
BRANCH  38  39
ATOM     39  C   UNL A   1      40.512  28.908  30.586  1.00  0.00     0.031 A 
ATOM     40  C   UNL A   1      41.346  28.741  31.824  1.00  0.00     0.074 A 
ATOM     41  C   UNL A   1      39.532  29.830  30.541  1.00  0.00     0.049 A 
ATOM     42  N   UNL A   1      41.312  29.422  32.938  1.00  0.00    -0.248 NA
ATOM     43  C   UNL A   1      42.341  27.656  31.813  1.00  0.00     0.031 C 
ATOM     44  C   UNL A   1      38.634  30.056  29.407  1.00  0.00     0.029 A 
ATOM     45  N   UNL A   1      39.131  30.755  31.472  1.00  0.00    -0.354 N 
ATOM     46  C   UNL A   1      42.286  28.860  33.754  1.00  0.00     0.074 A 
ATOM     47  C   UNL A   1      42.848  27.738  33.035  1.00  0.00     0.031 C 
ATOM     48  C   UNL A   1      37.804  31.072  29.699  1.00  0.00     0.029 A 
ATOM     49  C   UNL A   1      38.102  31.560  31.044  1.00  0.00     0.049 A 
ATOM     50  H   UNL A   1      39.542  30.835  32.363  1.00  0.00     0.167 HD
ATOM     51  C   UNL A   1      42.701  29.265  34.975  1.00  0.00     0.037 A 
ATOM     52  C   UNL A   1      37.480  32.582  31.664  1.00  0.00     0.037 A 
ATOM     53  C   UNL A   1      42.153  30.394  35.676  1.00  0.00     0.049 A 
ATOM     54  C   UNL A   1      37.930  32.989  33.041  1.00  0.00     0.074 A 
ATOM     55  C   UNL A   1      42.545  30.925  36.891  1.00  0.00     0.029 A 
ATOM     56  N   UNL A   1      41.090  31.161  35.224  1.00  0.00    -0.354 N 
ATOM     57  N   UNL A   1      38.906  32.496  33.765  1.00  0.00    -0.248 NA
ATOM     58  C   UNL A   1      37.196  34.088  33.685  1.00  0.00     0.031 C 
ATOM     59  C   UNL A   1      41.694  31.995  37.192  1.00  0.00     0.029 A 
ATOM     60  C   UNL A   1      40.792  32.146  36.150  1.00  0.00     0.049 A 
ATOM     61  H   UNL A   1      40.617  31.026  34.372  1.00  0.00     0.167 HD
ATOM     62  C   UNL A   1      38.914  33.233  34.943  1.00  0.00     0.074 A 
ATOM     63  C   UNL A   1      37.852  34.212  34.833  1.00  0.00     0.031 C 
ATOM     64  C   UNL A   1      39.728  33.109  36.020  1.00  0.00     0.037 A 
BRANCH  51  65
ATOM     65  C   UNL A   1      43.822  28.498  35.614  1.00  0.00     0.058 A 
ATOM     66  C   UNL A   1      43.565  27.440  36.500  1.00  0.00     0.135 A 
ATOM     67  C   UNL A   1      45.160  28.803  35.323  1.00  0.00     0.135 A 
ATOM     68  F   UNL A   1      42.302  27.121  36.823  1.00  0.00    -0.206 F 
ATOM     69  C   UNL A   1      44.596  26.726  37.097  1.00  0.00     0.059 A 
ATOM     70  C   UNL A   1      46.210  28.087  35.893  1.00  0.00     0.059 A 
ATOM     71  F   UNL A   1      45.459  29.809  34.486  1.00  0.00    -0.206 F 
ATOM     72  C   UNL A   1      45.917  27.059  36.790  1.00  0.00     0.060 A 
BRANCH  72  73
ATOM     73  S   UNL A   1      47.244  26.122  37.575  1.00  0.00     0.124 S 
ATOM     74  O   UNL A   1      47.083  26.508  38.974  1.00  0.00    -0.237 OA
ATOM     75  O   UNL A   1      46.888  24.744  37.253  1.00  0.00    -0.237 OA
ATOM     76  O   UNL A   1      48.448  26.624  36.922  1.00  0.00    -0.744 OA
ENDBRANCH  72  73
ENDBRANCH  51  65
BRANCH  52  77
ATOM     77  C   UNL A   1      36.390  33.314  30.969  1.00  0.00     0.058 A 
ATOM     78  C   UNL A   1      35.059  33.187  31.391  1.00  0.00     0.135 A 
ATOM     79  C   UNL A   1      36.656  34.170  29.890  1.00  0.00     0.135 A 
ATOM     80  F   UNL A   1      34.756  32.374  32.415  1.00  0.00    -0.206 F 
ATOM     81  C   UNL A   1      34.027  33.880  30.766  1.00  0.00     0.059 A 
ATOM     82  C   UNL A   1      35.644  34.887  29.259  1.00  0.00     0.059 A 
ATOM     83  F   UNL A   1      37.916  34.334  29.456  1.00  0.00    -0.206 F 
ATOM     84  C   UNL A   1      34.330  34.731  29.703  1.00  0.00     0.060 A 
BRANCH  84  85
ATOM     85  S   UNL A   1      32.989  35.668  28.937  1.00  0.00     0.124 S 
ATOM     86  O   UNL A   1      32.351  34.649  28.113  1.00  0.00    -0.237 OA
ATOM     87  O   UNL A   1      32.230  36.120  30.099  1.00  0.00    -0.237 OA
ATOM     88  O   UNL A   1      33.690  36.721  28.208  1.00  0.00    -0.744 OA
ENDBRANCH  84  85
ENDBRANCH  52  77
BRANCH  64  89
ATOM     89  C   UNL A   1      39.508  34.041  37.176  1.00  0.00     0.058 A 
ATOM     90  C   UNL A   1      38.810  33.622  38.318  1.00  0.00     0.135 A 
ATOM     91  C   UNL A   1      40.102  35.313  37.193  1.00  0.00     0.135 A 
ATOM     92  F   UNL A   1      38.218  32.417  38.344  1.00  0.00    -0.206 F 
ATOM     93  C   UNL A   1      38.718  34.429  39.446  1.00  0.00     0.059 A 
ATOM     94  C   UNL A   1      40.038  36.129  38.318  1.00  0.00     0.059 A 
ATOM     95  F   UNL A   1      40.785  35.754  36.125  1.00  0.00    -0.206 F 
ATOM     96  C   UNL A   1      39.347  35.676  39.441  1.00  0.00     0.060 A 
BRANCH  96  97
ATOM     97  S   UNL A   1      39.298  36.670  40.948  1.00  0.00     0.124 S 
ATOM     98  O   UNL A   1      40.698  36.658  41.354  1.00  0.00    -0.237 OA
ATOM     99  O   UNL A   1      38.789  37.949  40.460  1.00  0.00    -0.237 OA
ATOM    100  O   UNL A   1      38.385  35.929  41.814  1.00  0.00    -0.744 OA
ENDBRANCH  96  97
ENDBRANCH  64  89
ENDBRANCH  38  39
ENDBRANCH  30  33
ENDBRANCH  28  29
ENDBRANCH  27  28
ENDBRANCH   1  27
TORSDOF 18
ENDMDL
MODEL 2
REMARK VINA RESULT:     -12.5      6.919     12.260
REMARK SMILES Nc1c(Cl)ccc2c1C=C(C(=O)NCCCCCCNC(=O)c1ccc(-c3c4nc(c(-c5c(F)cc(S(=O)(=O)[O-])cc5F)c5ccc([nH]5)c(-c5c(F)cc(S(=O)(=O)[O-])cc5F)c5nc(c(-c6c(F)cc(S(=O)(=O)[O-])cc6F)c6ccc3[nH]6)C=C5)C=C4)cc1)[C@@H](C(F)(F)F)O2
REMARK SMILES IDX 17 1 16 2 15 3 14 4 13 5 11 6 12 7 10 9 2 10 3 11 8 12 4 13
REMARK SMILES IDX 5 14 7 15 9 16 6 17 94 18 89 19 1 20 90 23 91 24 92 25 93 26
REMARK SMILES IDX 18 27 19 28 20 29 21 30 22 32 23 33 24 34 88 35 25 36 87 37
REMARK SMILES IDX 26 38 27 39 28 40 81 41 29 42 86 43 80 44 82 45 30 46 85 47
REMARK SMILES IDX 79 48 78 49 31 51 65 52 44 53 64 54 45 55 48 56 63 57 83 58
REMARK SMILES IDX 46 59 47 60 62 62 84 63 49 64 32 65 33 66 42 67 34 68 35 69
REMARK SMILES IDX 41 70 43 71 36 72 37 73 38 74 39 75 40 76 66 77 67 78 76 79
REMARK SMILES IDX 68 80 69 81 75 82 77 83 70 84 71 85 72 86 73 87 74 88 50 89
REMARK SMILES IDX 51 90 60 91 52 92 53 93 59 94 61 95 54 96 55 97 56 98 57 99
REMARK SMILES IDX 58 100
REMARK H PARENT 13 8 1 21 1 22 20 31 82 50 48 61
REMARK Flexibility Score: inf
ROOT
ATOM      1  C   UNL A   1      34.625  29.358  27.017  1.00  0.00     0.002 C 
ENDROOT
BRANCH   1   2
ATOM      2  C   UNL A   1      33.434  28.793  26.230  1.00  0.00     0.002 C 
BRANCH   2   3
ATOM      3  C   UNL A   1      33.793  27.917  25.024  1.00  0.00     0.021 C 
BRANCH   3   4
ATOM      4  C   UNL A   1      33.795  26.419  25.317  1.00  0.00     0.116 C 
BRANCH   4   5
ATOM      5  N   UNL A   1      33.510  25.643  24.123  1.00  0.00    -0.352 N 
ATOM      6  C   UNL A   1      32.472  25.477  23.272  1.00  0.00     0.251 C 
ATOM      7  O   UNL A   1      32.678  24.673  22.355  1.00  0.00    -0.270 OA
ATOM      8  H   UNL A   1      34.281  25.090  23.862  1.00  0.00     0.163 HD
BRANCH   6   9
ATOM      9  C   UNL A   1      31.151  26.170  23.360  1.00  0.00     0.067 C 
ATOM     10  C   UNL A   1      29.781  29.473  22.262  1.00  0.00     0.061 A 
ATOM     11  C   UNL A   1      28.549  30.159  22.380  1.00  0.00     0.064 A 
ATOM     12  C   UNL A   1      29.860  28.155  22.768  1.00  0.00     0.042 A 
ATOM     13  Cl  UNL A   1      28.389  31.791  21.813  1.00  0.00    -0.082 Cl
ATOM     14  C   UNL A   1      27.422  29.550  22.932  1.00  0.00     0.026 A 
ATOM     15  C   UNL A   1      28.720  27.563  23.329  1.00  0.00     0.130 A 
ATOM     16  C   UNL A   1      31.081  27.346  22.706  1.00  0.00     0.027 C 
ATOM     17  C   UNL A   1      27.507  28.246  23.400  1.00  0.00     0.049 A 
ATOM     18  O   UNL A   1      28.697  26.283  23.801  1.00  0.00    -0.475 OA
ATOM     19  C   UNL A   1      29.971  25.676  24.147  1.00  0.00     0.314 C 
BRANCH  10  20
ATOM     20  N   UNL A   1      30.899  30.141  21.751  1.00  0.00    -0.397 N 
ATOM     21  H   UNL A   1      30.855  30.564  20.863  1.00  0.00     0.156 HD
ATOM     22  H   UNL A   1      31.728  30.188  22.279  1.00  0.00     0.156 HD
ENDBRANCH  10  20
BRANCH  19  23
ATOM     23  C   UNL A   1      30.180  25.775  25.669  1.00  0.00     0.429 C 
ATOM     24  F   UNL A   1      31.081  24.852  26.086  1.00  0.00    -0.167 F 
ATOM     25  F   UNL A   1      30.663  26.980  26.048  1.00  0.00    -0.167 F 
ATOM     26  F   UNL A   1      29.036  25.570  26.359  1.00  0.00    -0.167 F 
ENDBRANCH  19  23
ENDBRANCH   6   9
ENDBRANCH   4   5
ENDBRANCH   3   4
ENDBRANCH   2   3
ENDBRANCH   1   2
BRANCH   1  27
ATOM     27  C   UNL A   1      34.482  30.811  27.479  1.00  0.00     0.021 C 
BRANCH  27  28
ATOM     28  C   UNL A   1      35.675  31.350  28.261  1.00  0.00     0.116 C 
BRANCH  28  29
ATOM     29  N   UNL A   1      35.520  31.146  29.691  1.00  0.00    -0.352 N 
ATOM     30  C   UNL A   1      36.379  30.521  30.560  1.00  0.00     0.251 C 
ATOM     31  H   UNL A   1      34.693  31.503  30.088  1.00  0.00     0.163 HD
ATOM     32  O   UNL A   1      36.022  30.251  31.702  1.00  0.00    -0.269 OA
BRANCH  30  33
ATOM     33  C   UNL A   1      37.732  30.162  30.094  1.00  0.00     0.039 A 
ATOM     34  C   UNL A   1      38.713  29.845  31.036  1.00  0.00     0.014 A 
ATOM     35  C   UNL A   1      38.020  30.128  28.724  1.00  0.00     0.014 A 
ATOM     36  C   UNL A   1      39.980  29.455  30.601  1.00  0.00     0.010 A 
ATOM     37  C   UNL A   1      39.267  29.689  28.292  1.00  0.00     0.010 A 
ATOM     38  C   UNL A   1      40.261  29.364  29.228  1.00  0.00    -0.014 A 
BRANCH  38  39
ATOM     39  C   UNL A   1      41.616  28.986  28.763  1.00  0.00     0.031 A 
ATOM     40  C   UNL A   1      42.710  30.015  28.757  1.00  0.00     0.074 A 
ATOM     41  C   UNL A   1      41.857  27.730  28.341  1.00  0.00     0.049 A 
ATOM     42  N   UNL A   1      43.967  29.878  28.428  1.00  0.00    -0.248 NA
ATOM     43  C   UNL A   1      42.339  31.382  29.161  1.00  0.00     0.031 C 
ATOM     44  C   UNL A   1      40.862  26.658  28.266  1.00  0.00     0.029 A 
ATOM     45  N   UNL A   1      43.014  27.142  27.899  1.00  0.00    -0.354 N 
ATOM     46  C   UNL A   1      44.539  31.134  28.598  1.00  0.00     0.074 A 
ATOM     47  C   UNL A   1      43.479  32.035  28.993  1.00  0.00     0.031 C 
ATOM     48  C   UNL A   1      41.459  25.536  27.831  1.00  0.00     0.029 A 
ATOM     49  C   UNL A   1      42.872  25.811  27.583  1.00  0.00     0.049 A 
ATOM     50  H   UNL A   1      43.867  27.626  27.816  1.00  0.00     0.167 HD
ATOM     51  C   UNL A   1      45.837  31.493  28.474  1.00  0.00     0.037 A 
ATOM     52  C   UNL A   1      43.783  24.916  27.153  1.00  0.00     0.037 A 
ATOM     53  C   UNL A   1      46.889  30.588  28.102  1.00  0.00     0.049 A 
ATOM     54  C   UNL A   1      45.214  25.348  26.981  1.00  0.00     0.074 A 
ATOM     55  C   UNL A   1      48.245  30.838  28.008  1.00  0.00     0.029 A 
ATOM     56  N   UNL A   1      46.699  29.258  27.757  1.00  0.00    -0.354 N 
ATOM     57  N   UNL A   1      45.752  26.520  27.222  1.00  0.00    -0.248 NA
ATOM     58  C   UNL A   1      46.160  24.342  26.478  1.00  0.00     0.031 C 
ATOM     59  C   UNL A   1      48.874  29.667  27.571  1.00  0.00     0.029 A 
ATOM     60  C   UNL A   1      47.911  28.681  27.421  1.00  0.00     0.049 A 
ATOM     61  H   UNL A   1      45.832  28.793  27.751  1.00  0.00     0.167 HD
ATOM     62  C   UNL A   1      47.101  26.388  26.916  1.00  0.00     0.074 A 
ATOM     63  C   UNL A   1      47.301  25.021  26.480  1.00  0.00     0.031 C 
ATOM     64  C   UNL A   1      48.086  27.317  26.988  1.00  0.00     0.037 A 
BRANCH  51  65
ATOM     65  C   UNL A   1      46.190  32.921  28.773  1.00  0.00     0.058 A 
ATOM     66  C   UNL A   1      46.564  33.320  30.066  1.00  0.00     0.135 A 
ATOM     67  C   UNL A   1      46.179  33.893  27.762  1.00  0.00     0.135 A 
ATOM     68  F   UNL A   1      46.574  32.431  31.072  1.00  0.00    -0.206 F 
ATOM     69  C   UNL A   1      46.890  34.640  30.352  1.00  0.00     0.059 A 
ATOM     70  C   UNL A   1      46.522  35.217  28.021  1.00  0.00     0.059 A 
ATOM     71  F   UNL A   1      45.823  33.563  26.510  1.00  0.00    -0.206 F 
ATOM     72  C   UNL A   1      46.864  35.583  29.323  1.00  0.00     0.060 A 
BRANCH  72  73
ATOM     73  S   UNL A   1      47.289  37.293  29.713  1.00  0.00     0.124 S 
ATOM     74  O   UNL A   1      48.649  37.144  30.223  1.00  0.00    -0.237 OA
ATOM     75  O   UNL A   1      47.168  37.949  28.416  1.00  0.00    -0.237 OA
ATOM     76  O   UNL A   1      46.288  37.676  30.703  1.00  0.00    -0.744 OA
ENDBRANCH  72  73
ENDBRANCH  51  65
BRANCH  52  77
ATOM     77  C   UNL A   1      43.373  23.511  26.894  1.00  0.00     0.058 A 
ATOM     78  C   UNL A   1      43.198  23.047  25.582  1.00  0.00     0.135 A 
ATOM     79  C   UNL A   1      43.173  22.602  27.943  1.00  0.00     0.135 A 
ATOM     80  F   UNL A   1      43.372  23.883  24.547  1.00  0.00    -0.206 F 
ATOM     81  C   UNL A   1      42.834  21.730  25.318  1.00  0.00     0.059 A 
ATOM     82  C   UNL A   1      42.826  21.276  27.704  1.00  0.00     0.059 A 
ATOM     83  F   UNL A   1      43.340  22.996  29.215  1.00  0.00    -0.206 F 
ATOM     84  C   UNL A   1      42.654  20.851  26.387  1.00  0.00     0.060 A 
BRANCH  84  85
ATOM     85  S   UNL A   1      42.238  19.130  26.028  1.00  0.00     0.124 S 
ATOM     86  O   UNL A   1      42.619  18.470  27.270  1.00  0.00    -0.237 OA
ATOM     87  O   UNL A   1      40.805  19.212  25.760  1.00  0.00    -0.237 OA
ATOM     88  O   UNL A   1      43.067  18.820  24.867  1.00  0.00    -0.744 OA
ENDBRANCH  84  85
ENDBRANCH  52  77
BRANCH  64  89
ATOM     89  C   UNL A   1      49.470  26.904  26.581  1.00  0.00     0.058 A 
ATOM     90  C   UNL A   1      50.370  26.374  27.518  1.00  0.00     0.135 A 
ATOM     91  C   UNL A   1      49.855  26.921  25.231  1.00  0.00     0.135 A 
ATOM     92  F   UNL A   1      50.049  26.345  28.821  1.00  0.00    -0.206 F 
ATOM     93  C   UNL A   1      51.602  25.863  27.128  1.00  0.00     0.059 A 
ATOM     94  C   UNL A   1      51.075  26.398  24.817  1.00  0.00     0.059 A 
ATOM     95  F   UNL A   1      49.024  27.413  24.298  1.00  0.00    -0.206 F 
ATOM     96  C   UNL A   1      51.940  25.867  25.773  1.00  0.00     0.060 A 
BRANCH  96  97
ATOM     97  S   UNL A   1      53.504  25.113  25.274  1.00  0.00     0.124 S 
ATOM     98  O   UNL A   1      53.683  25.664  23.936  1.00  0.00    -0.237 OA
ATOM     99  O   UNL A   1      54.426  25.606  26.293  1.00  0.00    -0.237 OA
ATOM    100  O   UNL A   1      53.223  23.681  25.332  1.00  0.00    -0.744 OA
ENDBRANCH  96  97
ENDBRANCH  64  89
ENDBRANCH  38  39
ENDBRANCH  30  33
ENDBRANCH  28  29
ENDBRANCH  27  28
ENDBRANCH   1  27
TORSDOF 18
ENDMDL
MODEL 3
REMARK VINA RESULT:     -12.3      5.102     10.376
REMARK SMILES Nc1c(Cl)ccc2c1C=C(C(=O)NCCCCCCNC(=O)c1ccc(-c3c4nc(c(-c5c(F)cc(S(=O)(=O)[O-])cc5F)c5ccc([nH]5)c(-c5c(F)cc(S(=O)(=O)[O-])cc5F)c5nc(c(-c6c(F)cc(S(=O)(=O)[O-])cc6F)c6ccc3[nH]6)C=C5)C=C4)cc1)[C@@H](C(F)(F)F)O2
REMARK SMILES IDX 17 1 16 2 15 3 14 4 13 5 11 6 12 7 10 9 2 10 3 11 8 12 4 13
REMARK SMILES IDX 5 14 7 15 9 16 6 17 94 18 89 19 1 20 90 23 91 24 92 25 93 26
REMARK SMILES IDX 18 27 19 28 20 29 21 30 22 32 23 33 24 34 88 35 25 36 87 37
REMARK SMILES IDX 26 38 27 39 28 40 81 41 29 42 86 43 80 44 82 45 30 46 85 47
REMARK SMILES IDX 79 48 78 49 31 51 65 52 44 53 64 54 45 55 48 56 63 57 83 58
REMARK SMILES IDX 46 59 47 60 62 62 84 63 49 64 32 65 33 66 42 67 34 68 35 69
REMARK SMILES IDX 41 70 43 71 36 72 37 73 38 74 39 75 40 76 66 77 67 78 76 79
REMARK SMILES IDX 68 80 69 81 75 82 77 83 70 84 71 85 72 86 73 87 74 88 50 89
REMARK SMILES IDX 51 90 60 91 52 92 53 93 59 94 61 95 54 96 55 97 56 98 57 99
REMARK SMILES IDX 58 100
REMARK H PARENT 13 8 1 21 1 22 20 31 82 50 48 61
REMARK Flexibility Score: inf
ROOT
ATOM      1  C   UNL A   1      32.485  29.145  25.169  1.00  0.00     0.002 C 
ENDROOT
BRANCH   1   2
ATOM      2  C   UNL A   1      31.212  28.740  24.410  1.00  0.00     0.002 C 
BRANCH   2   3
ATOM      3  C   UNL A   1      31.346  28.665  22.885  1.00  0.00     0.021 C 
BRANCH   3   4
ATOM      4  C   UNL A   1      30.720  27.419  22.263  1.00  0.00     0.116 C 
BRANCH   4   5
ATOM      5  N   UNL A   1      31.677  26.696  21.443  1.00  0.00    -0.352 N 
ATOM      6  C   UNL A   1      32.626  25.751  21.627  1.00  0.00     0.251 C 
ATOM      7  O   UNL A   1      33.233  25.421  20.602  1.00  0.00    -0.270 OA
ATOM      8  H   UNL A   1      31.617  26.967  20.499  1.00  0.00     0.163 HD
BRANCH   6   9
ATOM      9  C   UNL A   1      32.974  25.105  22.929  1.00  0.00     0.067 C 
ATOM     10  C   UNL A   1      35.970  23.366  24.340  1.00  0.00     0.061 A 
ATOM     11  C   UNL A   1      36.296  22.709  25.550  1.00  0.00     0.064 A 
ATOM     12  C   UNL A   1      34.703  23.984  24.237  1.00  0.00     0.042 A 
ATOM     13  Cl  UNL A   1      37.819  21.899  25.733  1.00  0.00    -0.082 Cl
ATOM     14  C   UNL A   1      35.423  22.704  26.638  1.00  0.00     0.026 A 
ATOM     15  C   UNL A   1      33.835  23.960  25.337  1.00  0.00     0.130 A 
ATOM     16  C   UNL A   1      34.252  24.692  23.036  1.00  0.00     0.027 C 
ATOM     17  C   UNL A   1      34.193  23.339  26.532  1.00  0.00     0.049 A 
ATOM     18  O   UNL A   1      32.613  24.567  25.339  1.00  0.00    -0.475 OA
ATOM     19  C   UNL A   1      32.007  24.852  24.050  1.00  0.00     0.314 C 
BRANCH  10  20
ATOM     20  N   UNL A   1      36.854  23.299  23.257  1.00  0.00    -0.397 N 
ATOM     21  H   UNL A   1      37.088  24.117  22.762  1.00  0.00     0.156 HD
ATOM     22  H   UNL A   1      37.242  22.435  22.990  1.00  0.00     0.156 HD
ENDBRANCH  10  20
BRANCH  19  23
ATOM     23  C   UNL A   1      30.979  23.754  23.722  1.00  0.00     0.429 C 
ATOM     24  F   UNL A   1      31.533  22.806  22.929  1.00  0.00    -0.167 F 
ATOM     25  F   UNL A   1      30.533  23.116  24.828  1.00  0.00    -0.167 F 
ATOM     26  F   UNL A   1      29.894  24.241  23.079  1.00  0.00    -0.167 F 
ENDBRANCH  19  23
ENDBRANCH   6   9
ENDBRANCH   4   5
ENDBRANCH   3   4
ENDBRANCH   2   3
ENDBRANCH   1   2
BRANCH   1  27
ATOM     27  C   UNL A   1      33.323  27.989  25.719  1.00  0.00     0.021 C 
BRANCH  27  28
ATOM     28  C   UNL A   1      34.201  28.350  26.912  1.00  0.00     0.116 C 
BRANCH  28  29
ATOM     29  N   UNL A   1      33.901  29.678  27.419  1.00  0.00    -0.352 N 
ATOM     30  C   UNL A   1      34.691  30.492  28.193  1.00  0.00     0.251 C 
ATOM     31  H   UNL A   1      33.019  30.041  27.178  1.00  0.00     0.163 HD
ATOM     32  O   UNL A   1      34.226  31.502  28.710  1.00  0.00    -0.269 OA
BRANCH  30  33
ATOM     33  C   UNL A   1      36.103  30.123  28.409  1.00  0.00     0.039 A 
ATOM     34  C   UNL A   1      36.489  29.608  29.647  1.00  0.00     0.014 A 
ATOM     35  C   UNL A   1      37.037  30.278  27.377  1.00  0.00     0.014 A 
ATOM     36  C   UNL A   1      37.812  29.210  29.841  1.00  0.00     0.010 A 
ATOM     37  C   UNL A   1      38.343  29.831  27.555  1.00  0.00     0.010 A 
ATOM     38  C   UNL A   1      38.743  29.308  28.794  1.00  0.00    -0.014 A 
BRANCH  38  39
ATOM     39  C   UNL A   1      40.157  28.921  29.008  1.00  0.00     0.031 A 
ATOM     40  C   UNL A   1      41.107  29.902  29.634  1.00  0.00     0.074 A 
ATOM     41  C   UNL A   1      40.584  27.700  28.633  1.00  0.00     0.049 A 
ATOM     42  N   UNL A   1      42.367  29.746  29.943  1.00  0.00    -0.248 NA
ATOM     43  C   UNL A   1      40.574  31.240  29.941  1.00  0.00     0.031 C 
ATOM     44  C   UNL A   1      39.761  26.680  27.981  1.00  0.00     0.029 A 
ATOM     45  N   UNL A   1      41.816  27.109  28.751  1.00  0.00    -0.354 N 
ATOM     46  C   UNL A   1      42.772  30.956  30.492  1.00  0.00     0.074 A 
ATOM     47  C   UNL A   1      41.646  31.859  30.412  1.00  0.00     0.031 C 
ATOM     48  C   UNL A   1      40.505  25.579  27.780  1.00  0.00     0.029 A 
ATOM     49  C   UNL A   1      41.858  25.819  28.276  1.00  0.00     0.049 A 
ATOM     50  H   UNL A   1      42.598  27.564  29.139  1.00  0.00     0.167 HD
ATOM     51  C   UNL A   1      43.964  31.274  31.047  1.00  0.00     0.037 A 
ATOM     52  C   UNL A   1      42.871  24.931  28.254  1.00  0.00     0.037 A 
ATOM     53  C   UNL A   1      45.073  30.365  31.143  1.00  0.00     0.049 A 
ATOM     54  C   UNL A   1      44.202  25.320  28.839  1.00  0.00     0.074 A 
ATOM     55  C   UNL A   1      46.302  30.569  31.742  1.00  0.00     0.029 A 
ATOM     56  N   UNL A   1      45.087  29.081  30.620  1.00  0.00    -0.354 N 
ATOM     57  N   UNL A   1      44.545  26.443  29.425  1.00  0.00    -0.248 NA
ATOM     58  C   UNL A   1      45.283  24.327  28.760  1.00  0.00     0.031 C 
ATOM     59  C   UNL A   1      47.075  29.418  31.550  1.00  0.00     0.029 A 
ATOM     60  C   UNL A   1      46.315  28.489  30.857  1.00  0.00     0.049 A 
ATOM     61  H   UNL A   1      44.336  28.654  30.149  1.00  0.00     0.167 HD
ATOM     62  C   UNL A   1      45.874  26.286  29.799  1.00  0.00     0.074 A 
ATOM     63  C   UNL A   1      46.273  24.958  29.381  1.00  0.00     0.031 C 
ATOM     64  C   UNL A   1      46.691  27.165  30.430  1.00  0.00     0.037 A 
BRANCH  51  65
ATOM     65  C   UNL A   1      44.114  32.653  31.619  1.00  0.00     0.058 A 
ATOM     66  C   UNL A   1      44.570  33.721  30.830  1.00  0.00     0.135 A 
ATOM     67  C   UNL A   1      43.777  32.919  32.955  1.00  0.00     0.135 A 
ATOM     68  F   UNL A   1      44.921  33.514  29.551  1.00  0.00    -0.206 F 
ATOM     69  C   UNL A   1      44.713  35.000  31.352  1.00  0.00     0.059 A 
ATOM     70  C   UNL A   1      43.893  34.198  33.494  1.00  0.00     0.059 A 
ATOM     71  F   UNL A   1      43.341  31.932  33.753  1.00  0.00    -0.206 F 
ATOM     72  C   UNL A   1      44.375  35.229  32.687  1.00  0.00     0.060 A 
BRANCH  72  73
ATOM     73  S   UNL A   1      44.568  36.897  33.349  1.00  0.00     0.124 S 
ATOM     74  O   UNL A   1      43.229  37.444  33.154  1.00  0.00    -0.237 OA
ATOM     75  O   UNL A   1      44.953  36.641  34.733  1.00  0.00    -0.237 OA
ATOM     76  O   UNL A   1      45.610  37.478  32.509  1.00  0.00    -0.744 OA
ENDBRANCH  72  73
ENDBRANCH  51  65
BRANCH  52  77
ATOM     77  C   UNL A   1      42.653  23.574  27.691  1.00  0.00     0.058 A 
ATOM     78  C   UNL A   1      42.785  23.339  26.315  1.00  0.00     0.135 A 
ATOM     79  C   UNL A   1      42.331  22.484  28.513  1.00  0.00     0.135 A 
ATOM     80  F   UNL A   1      43.086  24.353  25.489  1.00  0.00    -0.206 F 
ATOM     81  C   UNL A   1      42.605  22.071  25.772  1.00  0.00     0.059 A 
ATOM     82  C   UNL A   1      42.162  21.203  27.997  1.00  0.00     0.059 A 
ATOM     83  F   UNL A   1      42.205  22.656  29.839  1.00  0.00    -0.206 F 
ATOM     84  C   UNL A   1      42.296  21.008  26.622  1.00  0.00     0.060 A 
BRANCH  84  85
ATOM     85  S   UNL A   1      42.120  19.357  25.911  1.00  0.00     0.124 S 
ATOM     86  O   UNL A   1      42.663  18.519  26.973  1.00  0.00    -0.237 OA
ATOM     87  O   UNL A   1      40.678  19.268  25.699  1.00  0.00    -0.237 OA
ATOM     88  O   UNL A   1      42.920  19.430  24.692  1.00  0.00    -0.744 OA
ENDBRANCH  84  85
ENDBRANCH  52  77
BRANCH  64  89
ATOM     89  C   UNL A   1      48.102  26.735  30.705  1.00  0.00     0.058 A 
ATOM     90  C   UNL A   1      49.138  27.040  29.809  1.00  0.00     0.135 A 
ATOM     91  C   UNL A   1      48.441  26.127  31.924  1.00  0.00     0.135 A 
ATOM     92  F   UNL A   1      48.861  27.613  28.628  1.00  0.00    -0.206 F 
ATOM     93  C   UNL A   1      50.466  26.768  30.118  1.00  0.00     0.059 A 
ATOM     94  C   UNL A   1      49.764  25.863  32.262  1.00  0.00     0.059 A 
ATOM     95  F   UNL A   1      47.484  25.822  32.816  1.00  0.00    -0.206 F 
ATOM     96  C   UNL A   1      50.769  26.191  31.353  1.00  0.00     0.060 A 
BRANCH  96  97
ATOM     97  S   UNL A   1      52.506  25.931  31.777  1.00  0.00     0.124 S 
ATOM     98  O   UNL A   1      52.506  24.528  32.172  1.00  0.00    -0.237 OA
ATOM     99  O   UNL A   1      53.182  26.237  30.520  1.00  0.00    -0.237 OA
ATOM    100  O   UNL A   1      52.738  26.889  32.855  1.00  0.00    -0.744 OA
ENDBRANCH  96  97
ENDBRANCH  64  89
ENDBRANCH  38  39
ENDBRANCH  30  33
ENDBRANCH  28  29
ENDBRANCH  27  28
ENDBRANCH   1  27
TORSDOF 18
ENDMDL
