MODEL 1
REMARK VINA RESULT:     -11.9      0.000      0.000
REMARK SMILES C[C@H]([C@@H]1CCCO1)n1c(SCC(=O)NCCCCCCNC(=O)c2ccc(-c3c4nc(c(-c5c(F)cc(S(=O)(=O)[O-])cc5F)c5ccc([nH]5)c(-c5c(F)cc(S(=O)(=O)[O-])cc5F)c5nc(c(-c6c(F)cc(S(=O)(=O)[O-])cc6F)c6ccc3[nH]6)C=C5)C=C4)cc2)nc2cnccc21
REMARK SMILES IDX 17 1 16 2 15 3 14 4 12 5 13 6 11 8 10 9 9 10 8 11 96 12
REMARK SMILES IDX 90 13 91 14 95 15 92 16 94 17 93 18 2 19 1 20 3 21 4 22 7 23
REMARK SMILES IDX 5 24 6 25 18 26 19 27 20 28 21 29 22 30 23 32 24 33 25 34
REMARK SMILES IDX 89 35 26 36 88 37 27 38 28 39 29 40 82 41 30 42 87 43 81 44
REMARK SMILES IDX 83 45 31 46 86 47 80 48 79 49 32 51 66 52 45 53 65 54 46 55
REMARK SMILES IDX 49 56 64 57 84 58 47 59 48 60 63 62 85 63 50 64 33 65 34 66
REMARK SMILES IDX 43 67 35 68 36 69 42 70 44 71 37 72 38 73 39 74 40 75 41 76
REMARK SMILES IDX 67 77 68 78 77 79 69 80 70 81 76 82 78 83 71 84 72 85 73 86
REMARK SMILES IDX 74 87 75 88 51 89 52 90 61 91 53 92 54 93 60 94 62 95 55 96
REMARK SMILES IDX 56 97 57 98 58 99 59 100
REMARK H PARENT 14 7 21 31 83 50 49 61
REMARK Flexibility Score: inf
ROOT
ATOM      1  C   UNL A   1      37.080  23.695  26.168  1.00  0.00     0.002 C 
ENDROOT
BRANCH   1   2
ATOM      2  C   UNL A   1      36.571  23.554  24.734  1.00  0.00     0.021 C 
BRANCH   2   3
ATOM      3  C   UNL A   1      35.071  23.762  24.575  1.00  0.00     0.116 C 
BRANCH   3   4
ATOM      4  N   UNL A   1      34.650  23.368  23.264  1.00  0.00    -0.355 N 
ATOM      5  C   UNL A   1      33.663  23.937  22.543  1.00  0.00     0.230 C 
ATOM      6  O   UNL A   1      33.428  23.485  21.418  1.00  0.00    -0.274 OA
ATOM      7  H   UNL A   1      35.125  22.612  22.851  1.00  0.00     0.163 HD
BRANCH   5   8
ATOM      8  C   UNL A   1      32.969  25.180  23.031  1.00  0.00     0.178 C 
BRANCH   8   9
ATOM      9  S   UNL A   1      31.645  25.902  22.127  1.00  0.00    -0.078 SA
BRANCH   9  10
ATOM     10  C   UNL A   1      30.806  27.057  23.120  1.00  0.00     0.169 A 
ATOM     11  N   UNL A   1      31.149  28.338  23.532  1.00  0.00    -0.313 N 
ATOM     12  C   UNL A   1      29.938  29.057  23.465  1.00  0.00     0.072 A 
ATOM     13  N   UNL A   1      29.508  26.853  23.244  1.00  0.00    -0.221 NA
ATOM     14  C   UNL A   1      28.949  28.092  23.316  1.00  0.00     0.108 A 
ATOM     15  C   UNL A   1      29.620  30.420  23.451  1.00  0.00     0.049 A 
ATOM     16  C   UNL A   1      27.613  28.486  23.182  1.00  0.00     0.141 A 
ATOM     17  C   UNL A   1      28.274  30.717  23.272  1.00  0.00     0.113 A 
ATOM     18  N   UNL A   1      27.284  29.805  23.152  1.00  0.00    -0.262 NA
BRANCH  11  19
ATOM     19  C   UNL A   1      32.425  29.054  23.672  1.00  0.00     0.116 C 
ATOM     20  C   UNL A   1      33.320  28.769  22.455  1.00  0.00     0.034 C 
BRANCH  19  21
ATOM     21  C   UNL A   1      33.172  29.297  25.052  1.00  0.00     0.141 C 
ATOM     22  C   UNL A   1      33.680  28.226  26.014  1.00  0.00     0.036 C 
ATOM     23  O   UNL A   1      32.357  30.132  25.917  1.00  0.00    -0.376 OA
ATOM     24  C   UNL A   1      33.948  28.991  27.278  1.00  0.00     0.031 C 
ATOM     25  C   UNL A   1      32.820  29.991  27.275  1.00  0.00     0.160 C 
ENDBRANCH  19  21
ENDBRANCH  11  19
ENDBRANCH   9  10
ENDBRANCH   8   9
ENDBRANCH   5   8
ENDBRANCH   3   4
ENDBRANCH   2   3
ENDBRANCH   1   2
BRANCH   1  26
ATOM     26  C   UNL A   1      38.576  23.463  26.327  1.00  0.00     0.002 C 
BRANCH  26  27
ATOM     27  C   UNL A   1      39.050  22.082  25.866  1.00  0.00     0.021 C 
BRANCH  27  28
ATOM     28  C   UNL A   1      40.403  21.658  26.438  1.00  0.00     0.116 C 
BRANCH  28  29
ATOM     29  N   UNL A   1      41.514  22.002  25.591  1.00  0.00    -0.352 N 
ATOM     30  C   UNL A   1      42.253  23.139  25.447  1.00  0.00     0.251 C 
ATOM     31  H   UNL A   1      41.797  21.270  24.995  1.00  0.00     0.163 HD
ATOM     32  O   UNL A   1      43.167  23.099  24.621  1.00  0.00    -0.269 OA
BRANCH  30  33
ATOM     33  C   UNL A   1      41.968  24.407  26.167  1.00  0.00     0.039 A 
ATOM     34  C   UNL A   1      41.299  25.513  25.639  1.00  0.00     0.014 A 
ATOM     35  C   UNL A   1      42.459  24.482  27.480  1.00  0.00     0.014 A 
ATOM     36  C   UNL A   1      41.246  26.706  26.339  1.00  0.00     0.010 A 
ATOM     37  C   UNL A   1      42.351  25.653  28.214  1.00  0.00     0.010 A 
ATOM     38  C   UNL A   1      41.791  26.779  27.619  1.00  0.00    -0.014 A 
BRANCH  38  39
ATOM     39  C   UNL A   1      41.600  28.024  28.350  1.00  0.00     0.031 A 
ATOM     40  C   UNL A   1      42.690  29.014  28.125  1.00  0.00     0.074 A 
ATOM     41  C   UNL A   1      40.492  28.298  29.067  1.00  0.00     0.049 A 
ATOM     42  N   UNL A   1      43.535  29.481  28.984  1.00  0.00    -0.248 NA
ATOM     43  C   UNL A   1      42.974  29.417  26.736  1.00  0.00     0.031 C 
ATOM     44  C   UNL A   1      39.251  27.518  29.103  1.00  0.00     0.029 A 
ATOM     45  N   UNL A   1      40.190  29.389  29.828  1.00  0.00    -0.354 N 
ATOM     46  C   UNL A   1      44.285  30.431  28.292  1.00  0.00     0.074 A 
ATOM     47  C   UNL A   1      44.033  30.212  26.894  1.00  0.00     0.031 C 
ATOM     48  C   UNL A   1      38.264  28.277  29.629  1.00  0.00     0.029 A 
ATOM     49  C   UNL A   1      38.835  29.521  30.113  1.00  0.00     0.049 A 
ATOM     50  H   UNL A   1      40.870  30.026  30.147  1.00  0.00     0.167 HD
ATOM     51  C   UNL A   1      44.814  31.507  28.936  1.00  0.00     0.037 A 
ATOM     52  C   UNL A   1      38.224  30.596  30.668  1.00  0.00     0.037 A 
ATOM     53  C   UNL A   1      44.823  31.313  30.361  1.00  0.00     0.049 A 
ATOM     54  C   UNL A   1      39.253  31.361  31.412  1.00  0.00     0.074 A 
ATOM     55  C   UNL A   1      45.613  30.679  31.291  1.00  0.00     0.029 A 
ATOM     56  N   UNL A   1      43.619  31.572  30.956  1.00  0.00    -0.354 N 
ATOM     57  N   UNL A   1      39.874  30.901  32.463  1.00  0.00    -0.248 NA
ATOM     58  C   UNL A   1      39.839  32.555  30.808  1.00  0.00     0.031 C 
ATOM     59  C   UNL A   1      44.790  30.450  32.434  1.00  0.00     0.029 A 
ATOM     60  C   UNL A   1      43.527  30.978  32.186  1.00  0.00     0.049 A 
ATOM     61  H   UNL A   1      42.908  32.120  30.551  1.00  0.00     0.167 HD
ATOM     62  C   UNL A   1      41.123  31.481  32.397  1.00  0.00     0.074 A 
ATOM     63  C   UNL A   1      40.988  32.608  31.485  1.00  0.00     0.031 C 
ATOM     64  C   UNL A   1      42.233  30.806  32.808  1.00  0.00     0.037 A 
BRANCH  51  65
ATOM     65  C   UNL A   1      44.871  32.901  28.344  1.00  0.00     0.058 A 
ATOM     66  C   UNL A   1      46.119  33.479  28.032  1.00  0.00     0.135 A 
ATOM     67  C   UNL A   1      43.775  33.794  28.352  1.00  0.00     0.135 A 
ATOM     68  F   UNL A   1      47.235  32.732  28.026  1.00  0.00    -0.206 F 
ATOM     69  C   UNL A   1      46.269  34.846  27.777  1.00  0.00     0.059 A 
ATOM     70  C   UNL A   1      43.894  35.146  28.051  1.00  0.00     0.059 A 
ATOM     71  F   UNL A   1      42.554  33.418  28.751  1.00  0.00    -0.206 F 
ATOM     72  C   UNL A   1      45.148  35.672  27.793  1.00  0.00     0.060 A 
BRANCH  72  73
ATOM     73  S   UNL A   1      45.343  37.443  27.520  1.00  0.00     0.124 S 
ATOM     74  O   UNL A   1      44.047  37.798  26.953  1.00  0.00    -0.237 OA
ATOM     75  O   UNL A   1      45.606  37.929  28.870  1.00  0.00    -0.237 OA
ATOM     76  O   UNL A   1      46.477  37.518  26.603  1.00  0.00    -0.744 OA
ENDBRANCH  72  73
ENDBRANCH  51  65
BRANCH  52  77
ATOM     77  C   UNL A   1      36.895  31.186  30.354  1.00  0.00     0.058 A 
ATOM     78  C   UNL A   1      36.109  31.739  31.382  1.00  0.00     0.135 A 
ATOM     79  C   UNL A   1      36.534  31.528  29.038  1.00  0.00     0.135 A 
ATOM     80  F   UNL A   1      36.377  31.455  32.666  1.00  0.00    -0.206 F 
ATOM     81  C   UNL A   1      35.097  32.666  31.128  1.00  0.00     0.059 A 
ATOM     82  C   UNL A   1      35.519  32.443  28.757  1.00  0.00     0.059 A 
ATOM     83  F   UNL A   1      37.227  31.065  27.987  1.00  0.00    -0.206 F 
ATOM     84  C   UNL A   1      34.837  33.042  29.811  1.00  0.00     0.060 A 
BRANCH  84  85
ATOM     85  S   UNL A   1      33.709  34.421  29.501  1.00  0.00     0.124 S 
ATOM     86  O   UNL A   1      34.574  35.368  28.806  1.00  0.00    -0.237 OA
ATOM     87  O   UNL A   1      32.673  33.790  28.691  1.00  0.00    -0.237 OA
ATOM     88  O   UNL A   1      33.292  34.824  30.842  1.00  0.00    -0.744 OA
ENDBRANCH  84  85
ENDBRANCH  52  77
BRANCH  64  89
ATOM     89  C   UNL A   1      42.062  29.744  33.848  1.00  0.00     0.058 A 
ATOM     90  C   UNL A   1      41.857  29.980  35.218  1.00  0.00     0.135 A 
ATOM     91  C   UNL A   1      42.046  28.412  33.411  1.00  0.00     0.135 A 
ATOM     92  F   UNL A   1      41.791  31.228  35.701  1.00  0.00    -0.206 F 
ATOM     93  C   UNL A   1      41.672  28.927  36.117  1.00  0.00     0.059 A 
ATOM     94  C   UNL A   1      41.835  27.351  34.283  1.00  0.00     0.059 A 
ATOM     95  F   UNL A   1      42.200  28.131  32.107  1.00  0.00    -0.206 F 
ATOM     96  C   UNL A   1      41.658  27.615  35.639  1.00  0.00     0.060 A 
BRANCH  96  97
ATOM     97  S   UNL A   1      41.348  26.256  36.785  1.00  0.00     0.124 S 
ATOM     98  O   UNL A   1      42.688  25.976  37.301  1.00  0.00    -0.237 OA
ATOM     99  O   UNL A   1      40.419  26.860  37.741  1.00  0.00    -0.237 OA
ATOM    100  O   UNL A   1      40.775  25.218  35.944  1.00  0.00    -0.744 OA
ENDBRANCH  96  97
ENDBRANCH  64  89
ENDBRANCH  38  39
ENDBRANCH  30  33
ENDBRANCH  28  29
ENDBRANCH  27  28
ENDBRANCH  26  27
ENDBRANCH   1  26
TORSDOF 20
ENDMDL
MODEL 2
REMARK VINA RESULT:     -11.7      3.151      9.835
REMARK SMILES C[C@H]([C@@H]1CCCO1)n1c(SCC(=O)NCCCCCCNC(=O)c2ccc(-c3c4nc(c(-c5c(F)cc(S(=O)(=O)[O-])cc5F)c5ccc([nH]5)c(-c5c(F)cc(S(=O)(=O)[O-])cc5F)c5nc(c(-c6c(F)cc(S(=O)(=O)[O-])cc6F)c6ccc3[nH]6)C=C5)C=C4)cc2)nc2cnccc21
REMARK SMILES IDX 17 1 16 2 15 3 14 4 12 5 13 6 11 8 10 9 9 10 8 11 96 12
REMARK SMILES IDX 90 13 91 14 95 15 92 16 94 17 93 18 2 19 1 20 3 21 4 22 7 23
REMARK SMILES IDX 5 24 6 25 18 26 19 27 20 28 21 29 22 30 23 32 24 33 25 34
REMARK SMILES IDX 89 35 26 36 88 37 27 38 28 39 29 40 82 41 30 42 87 43 81 44
REMARK SMILES IDX 83 45 31 46 86 47 80 48 79 49 32 51 66 52 45 53 65 54 46 55
REMARK SMILES IDX 49 56 64 57 84 58 47 59 48 60 63 62 85 63 50 64 33 65 34 66
REMARK SMILES IDX 43 67 35 68 36 69 42 70 44 71 37 72 38 73 39 74 40 75 41 76
REMARK SMILES IDX 67 77 68 78 77 79 69 80 70 81 76 82 78 83 71 84 72 85 73 86
REMARK SMILES IDX 74 87 75 88 51 89 52 90 61 91 53 92 54 93 60 94 62 95 55 96
REMARK SMILES IDX 56 97 57 98 58 99 59 100
REMARK H PARENT 14 7 21 31 83 50 49 61
REMARK Flexibility Score: inf
ROOT
ATOM      1  C   UNL A   1      34.326  28.362  26.175  1.00  0.00     0.002 C 
ENDROOT
BRANCH   1   2
ATOM      2  C   UNL A   1      33.606  27.019  26.066  1.00  0.00     0.021 C 
BRANCH   2   3
ATOM      3  C   UNL A   1      32.815  26.831  24.779  1.00  0.00     0.116 C 
BRANCH   3   4
ATOM      4  N   UNL A   1      33.610  26.154  23.799  1.00  0.00    -0.355 N 
ATOM      5  C   UNL A   1      33.278  25.017  23.154  1.00  0.00     0.230 C 
ATOM      6  O   UNL A   1      34.073  24.564  22.325  1.00  0.00    -0.274 OA
ATOM      7  H   UNL A   1      34.481  26.555  23.576  1.00  0.00     0.163 HD
BRANCH   5   8
ATOM      8  C   UNL A   1      31.916  24.402  23.328  1.00  0.00     0.178 C 
BRANCH   8   9
ATOM      9  S   UNL A   1      31.564  23.323  24.670  1.00  0.00    -0.078 SA
BRANCH   9  10
ATOM     10  C   UNL A   1      33.042  22.664  25.308  1.00  0.00     0.169 A 
ATOM     11  N   UNL A   1      33.771  21.534  24.961  1.00  0.00    -0.313 N 
ATOM     12  C   UNL A   1      35.115  21.948  25.065  1.00  0.00     0.072 A 
ATOM     13  N   UNL A   1      33.783  23.510  25.997  1.00  0.00    -0.221 NA
ATOM     14  C   UNL A   1      35.073  23.161  25.739  1.00  0.00     0.108 A 
ATOM     15  C   UNL A   1      36.327  21.431  24.591  1.00  0.00     0.049 A 
ATOM     16  C   UNL A   1      36.260  23.864  25.976  1.00  0.00     0.141 A 
ATOM     17  C   UNL A   1      37.447  22.217  24.836  1.00  0.00     0.113 A 
ATOM     18  N   UNL A   1      37.446  23.386  25.512  1.00  0.00    -0.262 NA
BRANCH  11  19
ATOM     19  C   UNL A   1      33.437  20.279  24.276  1.00  0.00     0.116 C 
ATOM     20  C   UNL A   1      32.213  20.488  23.368  1.00  0.00     0.034 C 
BRANCH  19  21
ATOM     21  C   UNL A   1      33.596  18.834  24.917  1.00  0.00     0.141 C 
ATOM     22  C   UNL A   1      34.430  17.680  24.367  1.00  0.00     0.036 C 
ATOM     23  O   UNL A   1      32.290  18.222  25.090  1.00  0.00    -0.376 OA
ATOM     24  C   UNL A   1      33.930  16.491  25.137  1.00  0.00     0.031 C 
ATOM     25  C   UNL A   1      32.460  16.800  25.253  1.00  0.00     0.160 C 
ENDBRANCH  19  21
ENDBRANCH  11  19
ENDBRANCH   9  10
ENDBRANCH   8   9
ENDBRANCH   5   8
ENDBRANCH   3   4
ENDBRANCH   2   3
ENDBRANCH   1   2
BRANCH   1  26
ATOM     26  C   UNL A   1      34.042  29.122  27.463  1.00  0.00     0.002 C 
BRANCH  26  27
ATOM     27  C   UNL A   1      33.455  30.520  27.252  1.00  0.00     0.021 C 
BRANCH  27  28
ATOM     28  C   UNL A   1      34.371  31.661  27.698  1.00  0.00     0.116 C 
BRANCH  28  29
ATOM     29  N   UNL A   1      34.128  32.094  29.048  1.00  0.00    -0.352 N 
ATOM     30  C   UNL A   1      34.895  32.086  30.175  1.00  0.00     0.251 C 
ATOM     31  H   UNL A   1      33.229  32.470  29.186  1.00  0.00     0.163 HD
ATOM     32  O   UNL A   1      34.381  32.554  31.193  1.00  0.00    -0.269 OA
BRANCH  30  33
ATOM     33  C   UNL A   1      36.255  31.490  30.247  1.00  0.00     0.039 A 
ATOM     34  C   UNL A   1      37.459  32.195  30.212  1.00  0.00     0.014 A 
ATOM     35  C   UNL A   1      36.299  30.089  30.322  1.00  0.00     0.014 A 
ATOM     36  C   UNL A   1      38.666  31.527  30.106  1.00  0.00     0.010 A 
ATOM     37  C   UNL A   1      37.508  29.412  30.285  1.00  0.00     0.010 A 
ATOM     38  C   UNL A   1      38.686  30.134  30.123  1.00  0.00    -0.014 A 
BRANCH  38  39
ATOM     39  C   UNL A   1      39.993  29.491  30.128  1.00  0.00     0.031 A 
ATOM     40  C   UNL A   1      40.561  29.319  31.494  1.00  0.00     0.074 A 
ATOM     41  C   UNL A   1      40.579  28.998  29.019  1.00  0.00     0.049 A 
ATOM     42  N   UNL A   1      41.625  29.857  31.992  1.00  0.00    -0.248 NA
ATOM     43  C   UNL A   1      39.757  28.576  32.482  1.00  0.00     0.031 C 
ATOM     44  C   UNL A   1      39.974  28.856  27.692  1.00  0.00     0.029 A 
ATOM     45  N   UNL A   1      41.802  28.414  28.862  1.00  0.00    -0.354 N 
ATOM     46  C   UNL A   1      41.760  29.312  33.268  1.00  0.00     0.074 A 
ATOM     47  C   UNL A   1      40.501  28.694  33.583  1.00  0.00     0.031 C 
ATOM     48  C   UNL A   1      40.721  28.009  26.950  1.00  0.00     0.029 A 
ATOM     49  C   UNL A   1      41.932  27.686  27.684  1.00  0.00     0.049 A 
ATOM     50  H   UNL A   1      42.526  28.499  29.524  1.00  0.00     0.167 HD
ATOM     51  C   UNL A   1      42.987  29.154  33.833  1.00  0.00     0.037 A 
ATOM     52  C   UNL A   1      42.944  26.846  27.358  1.00  0.00     0.037 A 
ATOM     53  C   UNL A   1      43.984  29.933  33.149  1.00  0.00     0.049 A 
ATOM     54  C   UNL A   1      44.124  27.230  28.169  1.00  0.00     0.074 A 
ATOM     55  C   UNL A   1      44.425  31.236  33.149  1.00  0.00     0.029 A 
ATOM     56  N   UNL A   1      44.454  29.341  32.009  1.00  0.00    -0.354 N 
ATOM     57  N   UNL A   1      44.744  28.371  28.045  1.00  0.00    -0.248 NA
ATOM     58  C   UNL A   1      44.456  26.462  29.366  1.00  0.00     0.031 C 
ATOM     59  C   UNL A   1      45.074  31.443  31.894  1.00  0.00     0.029 A 
ATOM     60  C   UNL A   1      45.041  30.253  31.174  1.00  0.00     0.049 A 
ATOM     61  H   UNL A   1      44.381  28.379  31.814  1.00  0.00     0.167 HD
ATOM     62  C   UNL A   1      45.206  28.644  29.314  1.00  0.00     0.074 A 
ATOM     63  C   UNL A   1      45.164  27.377  30.031  1.00  0.00     0.031 C 
ATOM     64  C   UNL A   1      45.257  29.922  29.783  1.00  0.00     0.037 A 
BRANCH  51  65
ATOM     65  C   UNL A   1      43.382  27.954  34.670  1.00  0.00     0.058 A 
ATOM     66  C   UNL A   1      43.804  28.138  36.004  1.00  0.00     0.135 A 
ATOM     67  C   UNL A   1      43.646  26.677  34.124  1.00  0.00     0.135 A 
ATOM     68  F   UNL A   1      43.635  29.321  36.615  1.00  0.00    -0.206 F 
ATOM     69  C   UNL A   1      44.463  27.139  36.726  1.00  0.00     0.059 A 
ATOM     70  C   UNL A   1      44.253  25.652  34.841  1.00  0.00     0.059 A 
ATOM     71  F   UNL A   1      43.417  26.394  32.835  1.00  0.00    -0.206 F 
ATOM     72  C   UNL A   1      44.687  25.899  36.132  1.00  0.00     0.060 A 
BRANCH  72  73
ATOM     73  S   UNL A   1      45.584  24.626  37.039  1.00  0.00     0.124 S 
ATOM     74  O   UNL A   1      44.765  24.483  38.236  1.00  0.00    -0.237 OA
ATOM     75  O   UNL A   1      45.549  23.508  36.102  1.00  0.00    -0.237 OA
ATOM     76  O   UNL A   1      46.902  25.222  37.241  1.00  0.00    -0.744 OA
ENDBRANCH  72  73
ENDBRANCH  51  65
BRANCH  52  77
ATOM     77  C   UNL A   1      42.889  25.547  26.636  1.00  0.00     0.058 A 
ATOM     78  C   UNL A   1      43.457  25.429  25.353  1.00  0.00     0.135 A 
ATOM     79  C   UNL A   1      42.604  24.343  27.307  1.00  0.00     0.135 A 
ATOM     80  F   UNL A   1      43.750  26.527  24.639  1.00  0.00    -0.206 F 
ATOM     81  C   UNL A   1      43.826  24.195  24.814  1.00  0.00     0.059 A 
ATOM     82  C   UNL A   1      42.952  23.098  26.783  1.00  0.00     0.059 A 
ATOM     83  F   UNL A   1      42.074  24.345  28.538  1.00  0.00    -0.206 F 
ATOM     84  C   UNL A   1      43.605  23.037  25.557  1.00  0.00     0.060 A 
BRANCH  84  85
ATOM     85  S   UNL A   1      44.310  21.476  24.975  1.00  0.00     0.124 S 
ATOM     86  O   UNL A   1      44.476  21.734  23.549  1.00  0.00    -0.237 OA
ATOM     87  O   UNL A   1      45.539  21.390  25.755  1.00  0.00    -0.237 OA
ATOM     88  O   UNL A   1      43.284  20.494  25.318  1.00  0.00    -0.744 OA
ENDBRANCH  84  85
ENDBRANCH  52  77
BRANCH  64  89
ATOM     89  C   UNL A   1      45.401  31.029  28.786  1.00  0.00     0.058 A 
ATOM     90  C   UNL A   1      46.609  31.432  28.194  1.00  0.00     0.135 A 
ATOM     91  C   UNL A   1      44.227  31.673  28.367  1.00  0.00     0.135 A 
ATOM     92  F   UNL A   1      47.762  30.817  28.492  1.00  0.00    -0.206 F 
ATOM     93  C   UNL A   1      46.647  32.455  27.244  1.00  0.00     0.059 A 
ATOM     94  C   UNL A   1      44.239  32.673  27.402  1.00  0.00     0.059 A 
ATOM     95  F   UNL A   1      43.040  31.302  28.873  1.00  0.00    -0.206 F 
ATOM     96  C   UNL A   1      45.455  33.067  26.851  1.00  0.00     0.060 A 
BRANCH  96  97
ATOM     97  S   UNL A   1      45.490  34.339  25.571  1.00  0.00     0.124 S 
ATOM     98  O   UNL A   1      46.920  34.446  25.282  1.00  0.00    -0.237 OA
ATOM     99  O   UNL A   1      44.677  33.738  24.513  1.00  0.00    -0.237 OA
ATOM    100  O   UNL A   1      44.896  35.498  26.218  1.00  0.00    -0.744 OA
ENDBRANCH  96  97
ENDBRANCH  64  89
ENDBRANCH  38  39
ENDBRANCH  30  33
ENDBRANCH  28  29
ENDBRANCH  27  28
ENDBRANCH  26  27
ENDBRANCH   1  26
TORSDOF 20
ENDMDL
MODEL 3
REMARK VINA RESULT:     -11.6      0.999      2.307
REMARK SMILES C[C@H]([C@@H]1CCCO1)n1c(SCC(=O)NCCCCCCNC(=O)c2ccc(-c3c4nc(c(-c5c(F)cc(S(=O)(=O)[O-])cc5F)c5ccc([nH]5)c(-c5c(F)cc(S(=O)(=O)[O-])cc5F)c5nc(c(-c6c(F)cc(S(=O)(=O)[O-])cc6F)c6ccc3[nH]6)C=C5)C=C4)cc2)nc2cnccc21
REMARK SMILES IDX 17 1 16 2 15 3 14 4 12 5 13 6 11 8 10 9 9 10 8 11 96 12
REMARK SMILES IDX 90 13 91 14 95 15 92 16 94 17 93 18 2 19 1 20 3 21 4 22 7 23
REMARK SMILES IDX 5 24 6 25 18 26 19 27 20 28 21 29 22 30 23 32 24 33 25 34
REMARK SMILES IDX 89 35 26 36 88 37 27 38 28 39 29 40 82 41 30 42 87 43 81 44
REMARK SMILES IDX 83 45 31 46 86 47 80 48 79 49 32 51 66 52 45 53 65 54 46 55
REMARK SMILES IDX 49 56 64 57 84 58 47 59 48 60 63 62 85 63 50 64 33 65 34 66
REMARK SMILES IDX 43 67 35 68 36 69 42 70 44 71 37 72 38 73 39 74 40 75 41 76
REMARK SMILES IDX 67 77 68 78 77 79 69 80 70 81 76 82 78 83 71 84 72 85 73 86
REMARK SMILES IDX 74 87 75 88 51 89 52 90 61 91 53 92 54 93 60 94 62 95 55 96
REMARK SMILES IDX 56 97 57 98 58 99 59 100
REMARK H PARENT 14 7 21 31 83 50 49 61
REMARK Flexibility Score: inf
ROOT
ATOM      1  C   UNL A   1      37.755  22.950  25.828  1.00  0.00     0.002 C 
ENDROOT
BRANCH   1   2
ATOM      2  C   UNL A   1      36.283  23.268  26.084  1.00  0.00     0.021 C 
BRANCH   2   3
ATOM      3  C   UNL A   1      35.716  24.374  25.205  1.00  0.00     0.116 C 
BRANCH   3   4
ATOM      4  N   UNL A   1      35.220  23.831  23.977  1.00  0.00    -0.355 N 
ATOM      5  C   UNL A   1      33.930  23.801  23.585  1.00  0.00     0.230 C 
ATOM      6  O   UNL A   1      33.667  23.305  22.485  1.00  0.00    -0.274 OA
ATOM      7  H   UNL A   1      35.882  23.443  23.361  1.00  0.00     0.163 HD
BRANCH   5   8
ATOM      8  C   UNL A   1      32.862  24.486  24.393  1.00  0.00     0.178 C 
BRANCH   8   9
ATOM      9  S   UNL A   1      31.704  25.574  23.642  1.00  0.00    -0.078 SA
BRANCH   9  10
ATOM     10  C   UNL A   1      32.161  27.227  23.937  1.00  0.00     0.169 A 
ATOM     11  N   UNL A   1      31.399  28.373  24.121  1.00  0.00    -0.313 N 
ATOM     12  C   UNL A   1      32.083  29.081  25.130  1.00  0.00     0.072 A 
ATOM     13  N   UNL A   1      33.388  27.398  24.389  1.00  0.00    -0.221 NA
ATOM     14  C   UNL A   1      33.320  28.458  25.239  1.00  0.00     0.108 A 
ATOM     15  C   UNL A   1      31.731  30.133  25.984  1.00  0.00     0.049 A 
ATOM     16  C   UNL A   1      34.240  28.907  26.194  1.00  0.00     0.141 A 
ATOM     17  C   UNL A   1      32.690  30.483  26.928  1.00  0.00     0.113 A 
ATOM     18  N   UNL A   1      33.912  29.918  27.042  1.00  0.00    -0.262 NA
BRANCH  11  19
ATOM     19  C   UNL A   1      30.030  28.754  23.751  1.00  0.00     0.116 C 
ATOM     20  C   UNL A   1      29.232  27.506  23.340  1.00  0.00     0.034 C 
BRANCH  19  21
ATOM     21  C   UNL A   1      29.641  30.109  23.019  1.00  0.00     0.141 C 
ATOM     22  C   UNL A   1      28.617  31.138  23.490  1.00  0.00     0.036 C 
ATOM     23  O   UNL A   1      29.202  29.831  21.662  1.00  0.00    -0.376 OA
ATOM     24  C   UNL A   1      28.391  31.988  22.273  1.00  0.00     0.031 C 
ATOM     25  C   UNL A   1      28.462  30.965  21.169  1.00  0.00     0.160 C 
ENDBRANCH  19  21
ENDBRANCH  11  19
ENDBRANCH   9  10
ENDBRANCH   8   9
ENDBRANCH   5   8
ENDBRANCH   3   4
ENDBRANCH   2   3
ENDBRANCH   1   2
BRANCH   1  26
ATOM     26  C   UNL A   1      37.994  21.633  25.101  1.00  0.00     0.002 C 
BRANCH  26  27
ATOM     27  C   UNL A   1      39.094  20.766  25.716  1.00  0.00     0.021 C 
BRANCH  27  28
ATOM     28  C   UNL A   1      40.157  21.551  26.486  1.00  0.00     0.116 C 
BRANCH  28  29
ATOM     29  N   UNL A   1      41.330  21.841  25.704  1.00  0.00    -0.352 N 
ATOM     30  C   UNL A   1      42.139  22.935  25.619  1.00  0.00     0.251 C 
ATOM     31  H   UNL A   1      41.602  21.102  25.113  1.00  0.00     0.163 HD
ATOM     32  O   UNL A   1      43.092  22.854  24.842  1.00  0.00    -0.269 OA
BRANCH  30  33
ATOM     33  C   UNL A   1      41.887  24.209  26.342  1.00  0.00     0.039 A 
ATOM     34  C   UNL A   1      41.032  25.231  25.925  1.00  0.00     0.014 A 
ATOM     35  C   UNL A   1      42.617  24.386  27.529  1.00  0.00     0.014 A 
ATOM     36  C   UNL A   1      41.011  26.447  26.585  1.00  0.00     0.010 A 
ATOM     37  C   UNL A   1      42.550  25.577  28.234  1.00  0.00     0.010 A 
ATOM     38  C   UNL A   1      41.786  26.624  27.728  1.00  0.00    -0.014 A 
BRANCH  38  39
ATOM     39  C   UNL A   1      41.631  27.883  28.445  1.00  0.00     0.031 A 
ATOM     40  C   UNL A   1      42.725  28.856  28.174  1.00  0.00     0.074 A 
ATOM     41  C   UNL A   1      40.547  28.181  29.189  1.00  0.00     0.049 A 
ATOM     42  N   UNL A   1      43.600  29.326  29.000  1.00  0.00    -0.248 NA
ATOM     43  C   UNL A   1      42.974  29.234  26.770  1.00  0.00     0.031 C 
ATOM     44  C   UNL A   1      39.299  27.417  29.274  1.00  0.00     0.029 A 
ATOM     45  N   UNL A   1      40.281  29.287  29.941  1.00  0.00    -0.354 N 
ATOM     46  C   UNL A   1      44.342  30.256  28.272  1.00  0.00     0.074 A 
ATOM     47  C   UNL A   1      44.046  30.018  26.886  1.00  0.00     0.031 C 
ATOM     48  C   UNL A   1      38.337  28.195  29.815  1.00  0.00     0.029 A 
ATOM     49  C   UNL A   1      38.936  29.440  30.263  1.00  0.00     0.049 A 
ATOM     50  H   UNL A   1      40.977  29.920  30.230  1.00  0.00     0.167 HD
ATOM     51  C   UNL A   1      44.901  31.334  28.884  1.00  0.00     0.037 A 
ATOM     52  C   UNL A   1      38.354  30.531  30.818  1.00  0.00     0.037 A 
ATOM     53  C   UNL A   1      44.949  31.162  30.311  1.00  0.00     0.049 A 
ATOM     54  C   UNL A   1      39.413  31.294  31.520  1.00  0.00     0.074 A 
ATOM     55  C   UNL A   1      45.759  30.533  31.228  1.00  0.00     0.029 A 
ATOM     56  N   UNL A   1      43.766  31.446  30.936  1.00  0.00    -0.354 N 
ATOM     57  N   UNL A   1      40.059  30.843  32.560  1.00  0.00    -0.248 NA
ATOM     58  C   UNL A   1      39.995  32.472  30.882  1.00  0.00     0.031 C 
ATOM     59  C   UNL A   1      44.966  30.332  32.398  1.00  0.00     0.029 A 
ATOM     60  C   UNL A   1      43.702  30.871  32.178  1.00  0.00     0.049 A 
ATOM     61  H   UNL A   1      43.050  31.995  30.544  1.00  0.00     0.167 HD
ATOM     62  C   UNL A   1      41.311  31.406  32.450  1.00  0.00     0.074 A 
ATOM     63  C   UNL A   1      41.163  32.521  31.524  1.00  0.00     0.031 C 
ATOM     64  C   UNL A   1      42.425  30.725  32.839  1.00  0.00     0.037 A 
BRANCH  51  65
ATOM     65  C   UNL A   1      44.957  32.718  28.269  1.00  0.00     0.058 A 
ATOM     66  C   UNL A   1      46.205  33.288  27.939  1.00  0.00     0.135 A 
ATOM     67  C   UNL A   1      43.864  33.614  28.270  1.00  0.00     0.135 A 
ATOM     68  F   UNL A   1      47.318  32.539  27.938  1.00  0.00    -0.206 F 
ATOM     69  C   UNL A   1      46.356  34.650  27.661  1.00  0.00     0.059 A 
ATOM     70  C   UNL A   1      43.983  34.961  27.945  1.00  0.00     0.059 A 
ATOM     71  F   UNL A   1      42.644  33.247  28.683  1.00  0.00    -0.206 F 
ATOM     72  C   UNL A   1      45.238  35.480  27.671  1.00  0.00     0.060 A 
BRANCH  72  73
ATOM     73  S   UNL A   1      45.434  37.245  27.367  1.00  0.00     0.124 S 
ATOM     74  O   UNL A   1      46.363  37.250  26.244  1.00  0.00    -0.237 OA
ATOM     75  O   UNL A   1      44.066  37.653  27.068  1.00  0.00    -0.237 OA
ATOM     76  O   UNL A   1      45.967  37.747  28.631  1.00  0.00    -0.744 OA
ENDBRANCH  72  73
ENDBRANCH  51  65
BRANCH  52  77
ATOM     77  C   UNL A   1      37.024  31.132  30.534  1.00  0.00     0.058 A 
ATOM     78  C   UNL A   1      36.230  31.620  31.589  1.00  0.00     0.135 A 
ATOM     79  C   UNL A   1      36.666  31.548  29.238  1.00  0.00     0.135 A 
ATOM     80  F   UNL A   1      36.495  31.263  32.855  1.00  0.00    -0.206 F 
ATOM     81  C   UNL A   1      35.215  32.556  31.384  1.00  0.00     0.059 A 
ATOM     82  C   UNL A   1      35.648  32.473  29.007  1.00  0.00     0.059 A 
ATOM     83  F   UNL A   1      37.365  31.151  28.165  1.00  0.00    -0.206 F 
ATOM     84  C   UNL A   1      34.958  33.007  30.090  1.00  0.00     0.060 A 
BRANCH  84  85
ATOM     85  S   UNL A   1      33.825  34.397  29.857  1.00  0.00     0.124 S 
ATOM     86  O   UNL A   1      32.774  33.796  29.043  1.00  0.00    -0.237 OA
ATOM     87  O   UNL A   1      33.461  34.724  31.231  1.00  0.00    -0.237 OA
ATOM     88  O   UNL A   1      34.650  35.393  29.177  1.00  0.00    -0.744 OA
ENDBRANCH  84  85
ENDBRANCH  52  77
BRANCH  64  89
ATOM     89  C   UNL A   1      42.272  29.681  33.900  1.00  0.00     0.058 A 
ATOM     90  C   UNL A   1      42.265  29.929  35.283  1.00  0.00     0.135 A 
ATOM     91  C   UNL A   1      42.058  28.361  33.478  1.00  0.00     0.135 A 
ATOM     92  F   UNL A   1      42.394  31.174  35.761  1.00  0.00    -0.206 F 
ATOM     93  C   UNL A   1      42.082  28.896  36.206  1.00  0.00     0.059 A 
ATOM     94  C   UNL A   1      41.844  27.323  34.378  1.00  0.00     0.059 A 
ATOM     95  F   UNL A   1      42.018  28.073  32.167  1.00  0.00    -0.206 F 
ATOM     96  C   UNL A   1      41.868  27.597  35.743  1.00  0.00     0.060 A 
BRANCH  96  97
ATOM     97  S   UNL A   1      41.558  26.271  36.928  1.00  0.00     0.124 S 
ATOM     98  O   UNL A   1      41.560  25.086  36.071  1.00  0.00    -0.237 OA
ATOM     99  O   UNL A   1      42.699  26.393  37.837  1.00  0.00    -0.237 OA
ATOM    100  O   UNL A   1      40.272  26.619  37.509  1.00  0.00    -0.744 OA
ENDBRANCH  96  97
ENDBRANCH  64  89
ENDBRANCH  38  39
ENDBRANCH  30  33
ENDBRANCH  28  29
ENDBRANCH  27  28
ENDBRANCH  26  27
ENDBRANCH   1  26
TORSDOF 20
ENDMDL
