MODEL 1
REMARK VINA RESULT:      -9.5      0.000      0.000
REMARK SMILES CC1(C)OC(=O)C(/C=N/[C@@H](CCC(N)=O)C(=O)NCCCCCCNC(=O)c2ccc(-c3c4nc(c(-c5c(F)cc(S(=O)(=O)[O-])cc5F)c5ccc([nH]5)c(-c5c(F)cc(S(=O)(=O)[O-])cc5F)c5nc(c(-c6c(F)cc(S(=O)(=O)[O-])cc6F)c6ccc3[nH]6)C=C5)C=C4)cc2)C(=O)O1
REMARK SMILES IDX 21 1 20 2 19 3 18 4 16 5 17 6 10 8 9 9 8 10 7 11 1 12 2 13
REMARK SMILES IDX 3 14 4 15 96 16 5 17 94 18 6 19 95 20 11 21 12 22 13 23
REMARK SMILES IDX 14 24 15 25 22 28 23 29 24 30 25 31 26 32 27 34 28 35 29 36
REMARK SMILES IDX 93 37 30 38 92 39 31 40 32 41 33 42 86 43 34 44 91 45 85 46
REMARK SMILES IDX 87 47 35 48 90 49 84 50 83 51 36 53 70 54 49 55 69 56 50 57
REMARK SMILES IDX 53 58 68 59 88 60 51 61 52 62 67 64 89 65 54 66 37 67 38 68
REMARK SMILES IDX 47 69 39 70 40 71 46 72 48 73 41 74 42 75 43 76 44 77 45 78
REMARK SMILES IDX 71 79 72 80 81 81 73 82 74 83 80 84 82 85 75 86 76 87 77 88
REMARK SMILES IDX 78 89 79 90 55 91 56 92 65 93 57 94 58 95 64 96 66 97 59 98
REMARK SMILES IDX 60 99 61 100 62 101 63 102
REMARK H PARENT 18 7 14 26 14 27 25 33 87 52 53 63
REMARK Flexibility Score: inf
ROOT
ATOM      1  C   UNL A   1      45.223  25.475  29.756  1.00  0.00     0.002 C 
ENDROOT
BRANCH   1   2
ATOM      2  C   UNL A   1      44.097  24.606  30.316  1.00  0.00     0.021 C 
BRANCH   2   3
ATOM      3  C   UNL A   1      44.467  23.878  31.597  1.00  0.00     0.116 C 
BRANCH   3   4
ATOM      4  N   UNL A   1      45.291  24.644  32.491  1.00  0.00    -0.354 N 
ATOM      5  C   UNL A   1      45.582  24.409  33.805  1.00  0.00     0.244 C 
ATOM      6  O   UNL A   1      46.454  25.108  34.332  1.00  0.00    -0.273 OA
ATOM      7  H   UNL A   1      45.702  25.450  32.103  1.00  0.00     0.163 HD
BRANCH   5   8
ATOM      8  C   UNL A   1      44.828  23.337  34.620  1.00  0.00     0.194 C 
BRANCH   8   9
ATOM      9  N   UNL A   1      45.771  22.277  35.052  1.00  0.00    -0.283 NA
ATOM     10  C   UNL A   1      45.702  21.050  34.711  1.00  0.00     0.105 C 
BRANCH  10  11
ATOM     11  C   UNL A   1      46.683  20.034  35.251  1.00  0.00     0.250 C 
ATOM     12  C   UNL A   1      49.348  22.238  37.105  1.00  0.00     0.106 C 
ATOM     13  C   UNL A   1      48.997  20.807  36.700  1.00  0.00     0.252 C 
ATOM     14  C   UNL A   1      50.091  19.853  37.178  1.00  0.00     0.106 C 
ATOM     15  O   UNL A   1      48.980  20.782  35.278  1.00  0.00    -0.422 OA
ATOM     16  O   UNL A   1      47.792  20.454  37.373  1.00  0.00    -0.422 OA
ATOM     17  C   UNL A   1      48.020  20.125  34.611  1.00  0.00     0.329 C 
ATOM     18  C   UNL A   1      46.681  20.085  36.732  1.00  0.00     0.329 C 
ATOM     19  O   UNL A   1      48.241  19.721  33.474  1.00  0.00    -0.251 OA
ATOM     20  O   UNL A   1      45.651  19.864  37.365  1.00  0.00    -0.251 OA
ENDBRANCH  10  11
ENDBRANCH   8   9
BRANCH   8  21
ATOM     21  C   UNL A   1      43.716  23.788  35.584  1.00  0.00     0.047 C 
BRANCH  21  22
ATOM     22  C   UNL A   1      42.236  23.787  35.188  1.00  0.00     0.102 C 
BRANCH  22  23
ATOM     23  C   UNL A   1      41.354  24.747  35.958  1.00  0.00     0.217 C 
ATOM     24  N   UNL A   1      41.151  24.393  37.262  1.00  0.00    -0.370 N 
ATOM     25  O   UNL A   1      40.849  25.757  35.494  1.00  0.00    -0.275 OA
ATOM     26  H   UNL A   1      41.566  23.576  37.621  1.00  0.00     0.159 HD
ATOM     27  H   UNL A   1      40.589  24.955  37.844  1.00  0.00     0.159 HD
ENDBRANCH  22  23
ENDBRANCH  21  22
ENDBRANCH   8  21
ENDBRANCH   5   8
ENDBRANCH   3   4
ENDBRANCH   2   3
ENDBRANCH   1   2
BRANCH   1  28
ATOM     28  C   UNL A   1      46.163  24.776  28.763  1.00  0.00     0.002 C 
BRANCH  28  29
ATOM     29  C   UNL A   1      45.734  24.826  27.292  1.00  0.00     0.021 C 
BRANCH  29  30
ATOM     30  C   UNL A   1      44.414  24.126  26.986  1.00  0.00     0.116 C 
BRANCH  30  31
ATOM     31  N   UNL A   1      43.699  24.748  25.889  1.00  0.00    -0.352 N 
ATOM     32  C   UNL A   1      42.770  25.756  25.896  1.00  0.00     0.251 C 
ATOM     33  H   UNL A   1      43.915  24.391  24.997  1.00  0.00     0.163 HD
ATOM     34  O   UNL A   1      42.164  26.025  24.864  1.00  0.00    -0.269 OA
BRANCH  32  35
ATOM     35  C   UNL A   1      42.478  26.498  27.141  1.00  0.00     0.039 A 
ATOM     36  C   UNL A   1      43.207  27.660  27.403  1.00  0.00     0.014 A 
ATOM     37  C   UNL A   1      41.526  26.047  28.060  1.00  0.00     0.014 A 
ATOM     38  C   UNL A   1      42.948  28.395  28.560  1.00  0.00     0.010 A 
ATOM     39  C   UNL A   1      41.217  26.820  29.179  1.00  0.00     0.010 A 
ATOM     40  C   UNL A   1      41.929  28.000  29.443  1.00  0.00    -0.014 A 
BRANCH  40  41
ATOM     41  C   UNL A   1      41.598  28.832  30.628  1.00  0.00     0.031 A 
ATOM     42  C   UNL A   1      42.401  28.722  31.895  1.00  0.00     0.074 A 
ATOM     43  C   UNL A   1      40.544  29.671  30.568  1.00  0.00     0.049 A 
ATOM     44  N   UNL A   1      42.259  29.375  33.020  1.00  0.00    -0.248 NA
ATOM     45  C   UNL A   1      43.491  27.735  31.909  1.00  0.00     0.031 C 
ATOM     46  C   UNL A   1      39.657  29.829  29.414  1.00  0.00     0.029 A 
ATOM     47  N   UNL A   1      40.040  30.548  31.494  1.00  0.00    -0.354 N 
ATOM     48  C   UNL A   1      43.233  28.876  33.876  1.00  0.00     0.074 A 
ATOM     49  C   UNL A   1      43.922  27.825  33.158  1.00  0.00     0.031 C 
ATOM     50  C   UNL A   1      38.738  30.767  29.688  1.00  0.00     0.029 A 
ATOM     51  C   UNL A   1      38.944  31.251  31.050  1.00  0.00     0.049 A 
ATOM     52  H   UNL A   1      40.426  30.664  32.393  1.00  0.00     0.167 HD
ATOM     53  C   UNL A   1      43.539  29.272  35.136  1.00  0.00     0.037 A 
ATOM     54  C   UNL A   1      38.184  32.176  31.668  1.00  0.00     0.037 A 
ATOM     55  C   UNL A   1      42.853  30.328  35.837  1.00  0.00     0.049 A 
ATOM     56  C   UNL A   1      38.540  32.598  33.067  1.00  0.00     0.074 A 
ATOM     57  C   UNL A   1      43.128  30.849  37.090  1.00  0.00     0.029 A 
ATOM     58  N   UNL A   1      41.749  31.018  35.354  1.00  0.00    -0.354 N 
ATOM     59  N   UNL A   1      39.516  32.172  33.833  1.00  0.00    -0.248 NA
ATOM     60  C   UNL A   1      37.699  33.633  33.682  1.00  0.00     0.031 C 
ATOM     61  C   UNL A   1      42.153  31.807  37.389  1.00  0.00     0.029 A 
ATOM     62  C   UNL A   1      41.309  31.932  36.298  1.00  0.00     0.049 A 
ATOM     63  H   UNL A   1      41.338  30.877  34.471  1.00  0.00     0.167 HD
ATOM     64  C   UNL A   1      39.417  32.899  35.014  1.00  0.00     0.074 A 
ATOM     65  C   UNL A   1      38.299  33.805  34.852  1.00  0.00     0.031 C 
ATOM     66  C   UNL A   1      40.186  32.823  36.130  1.00  0.00     0.037 A 
BRANCH  53  67
ATOM     67  C   UNL A   1      44.657  28.551  35.842  1.00  0.00     0.058 A 
ATOM     68  C   UNL A   1      44.413  27.487  36.727  1.00  0.00     0.135 A 
ATOM     69  C   UNL A   1      45.994  28.915  35.615  1.00  0.00     0.135 A 
ATOM     70  F   UNL A   1      43.154  27.102  36.992  1.00  0.00    -0.206 F 
ATOM     71  C   UNL A   1      45.450  26.839  37.391  1.00  0.00     0.059 A 
ATOM     72  C   UNL A   1      47.049  28.259  36.244  1.00  0.00     0.059 A 
ATOM     73  F   UNL A   1      46.289  29.923  34.779  1.00  0.00    -0.206 F 
ATOM     74  C   UNL A   1      46.766  27.236  37.146  1.00  0.00     0.060 A 
BRANCH  74  75
ATOM     75  S   UNL A   1      48.098  26.399  38.031  1.00  0.00     0.124 S 
ATOM     76  O   UNL A   1      47.368  25.332  38.709  1.00  0.00    -0.237 OA
ATOM     77  O   UNL A   1      48.975  25.974  36.945  1.00  0.00    -0.237 OA
ATOM     78  O   UNL A   1      48.636  27.440  38.900  1.00  0.00    -0.744 OA
ENDBRANCH  74  75
ENDBRANCH  53  67
BRANCH  54  79
ATOM     79  C   UNL A   1      37.027  32.773  30.951  1.00  0.00     0.058 A 
ATOM     80  C   UNL A   1      37.188  33.879  30.104  1.00  0.00     0.135 A 
ATOM     81  C   UNL A   1      35.741  32.220  31.067  1.00  0.00     0.135 A 
ATOM     82  F   UNL A   1      38.396  34.447  29.965  1.00  0.00    -0.206 F 
ATOM     83  C   UNL A   1      36.118  34.418  29.398  1.00  0.00     0.059 A 
ATOM     84  C   UNL A   1      34.662  32.724  30.351  1.00  0.00     0.059 A 
ATOM     85  F   UNL A   1      35.537  31.150  31.850  1.00  0.00    -0.206 F 
ATOM     86  C   UNL A   1      34.859  33.827  29.521  1.00  0.00     0.060 A 
BRANCH  86  87
ATOM     87  S   UNL A   1      33.493  34.483  28.538  1.00  0.00     0.124 S 
ATOM     88  O   UNL A   1      32.565  34.915  29.576  1.00  0.00    -0.237 OA
ATOM     89  O   UNL A   1      34.147  35.546  27.781  1.00  0.00    -0.237 OA
ATOM     90  O   UNL A   1      33.068  33.333  27.747  1.00  0.00    -0.744 OA
ENDBRANCH  86  87
ENDBRANCH  54  79
BRANCH  66  91
ATOM     91  C   UNL A   1      39.853  33.758  37.262  1.00  0.00     0.058 A 
ATOM     92  C   UNL A   1      38.954  33.399  38.279  1.00  0.00     0.135 A 
ATOM     93  C   UNL A   1      40.473  35.015  37.353  1.00  0.00     0.135 A 
ATOM     94  F   UNL A   1      38.326  32.213  38.238  1.00  0.00    -0.206 F 
ATOM     95  C   UNL A   1      38.657  34.265  39.327  1.00  0.00     0.059 A 
ATOM     96  C   UNL A   1      40.217  35.883  38.409  1.00  0.00     0.059 A 
ATOM     97  F   UNL A   1      41.351  35.405  36.415  1.00  0.00    -0.206 F 
ATOM     98  C   UNL A   1      39.297  35.504  39.385  1.00  0.00     0.060 A 
BRANCH  98  99
ATOM     99  S   UNL A   1      38.920  36.608  40.763  1.00  0.00     0.124 S 
ATOM    100  O   UNL A   1      38.320  37.745  40.073  1.00  0.00    -0.237 OA
ATOM    101  O   UNL A   1      38.009  35.801  41.568  1.00  0.00    -0.237 OA
ATOM    102  O   UNL A   1      40.226  36.858  41.366  1.00  0.00    -0.744 OA
ENDBRANCH  98  99
ENDBRANCH  66  91
ENDBRANCH  40  41
ENDBRANCH  32  35
ENDBRANCH  30  31
ENDBRANCH  29  30
ENDBRANCH  28  29
ENDBRANCH   1  28
TORSDOF 21
ENDMDL
MODEL 2
REMARK VINA RESULT:      -9.3      7.447     14.116
REMARK SMILES CC1(C)OC(=O)C(/C=N/[C@@H](CCC(N)=O)C(=O)NCCCCCCNC(=O)c2ccc(-c3c4nc(c(-c5c(F)cc(S(=O)(=O)[O-])cc5F)c5ccc([nH]5)c(-c5c(F)cc(S(=O)(=O)[O-])cc5F)c5nc(c(-c6c(F)cc(S(=O)(=O)[O-])cc6F)c6ccc3[nH]6)C=C5)C=C4)cc2)C(=O)O1
REMARK SMILES IDX 21 1 20 2 19 3 18 4 16 5 17 6 10 8 9 9 8 10 7 11 1 12 2 13
REMARK SMILES IDX 3 14 4 15 96 16 5 17 94 18 6 19 95 20 11 21 12 22 13 23
REMARK SMILES IDX 14 24 15 25 22 28 23 29 24 30 25 31 26 32 27 34 28 35 29 36
REMARK SMILES IDX 93 37 30 38 92 39 31 40 32 41 33 42 86 43 34 44 91 45 85 46
REMARK SMILES IDX 87 47 35 48 90 49 84 50 83 51 36 53 70 54 49 55 69 56 50 57
REMARK SMILES IDX 53 58 68 59 88 60 51 61 52 62 67 64 89 65 54 66 37 67 38 68
REMARK SMILES IDX 47 69 39 70 40 71 46 72 48 73 41 74 42 75 43 76 44 77 45 78
REMARK SMILES IDX 71 79 72 80 81 81 73 82 74 83 80 84 82 85 75 86 76 87 77 88
REMARK SMILES IDX 78 89 79 90 55 91 56 92 65 93 57 94 58 95 64 96 66 97 59 98
REMARK SMILES IDX 60 99 61 100 62 101 63 102
REMARK H PARENT 18 7 14 26 14 27 25 33 87 52 53 63
REMARK Flexibility Score: inf
ROOT
ATOM      1  C   UNL A   1      34.131  29.032  26.410  1.00  0.00     0.002 C 
ENDROOT
BRANCH   1   2
ATOM      2  C   UNL A   1      32.674  28.757  26.781  1.00  0.00     0.021 C 
BRANCH   2   3
ATOM      3  C   UNL A   1      32.387  27.298  27.089  1.00  0.00     0.116 C 
BRANCH   3   4
ATOM      4  N   UNL A   1      31.030  26.899  26.832  1.00  0.00    -0.354 N 
ATOM      5  C   UNL A   1      30.537  26.147  25.805  1.00  0.00     0.244 C 
ATOM      6  O   UNL A   1      29.358  25.782  25.878  1.00  0.00    -0.273 OA
ATOM      7  H   UNL A   1      30.366  27.212  27.488  1.00  0.00     0.163 HD
BRANCH   5   8
ATOM      8  C   UNL A   1      31.400  25.792  24.576  1.00  0.00     0.194 C 
BRANCH   8   9
ATOM      9  N   UNL A   1      32.166  24.550  24.841  1.00  0.00    -0.283 NA
ATOM     10  C   UNL A   1      31.674  23.470  25.310  1.00  0.00     0.105 C 
BRANCH  10  11
ATOM     11  C   UNL A   1      32.552  22.273  25.597  1.00  0.00     0.250 C 
ATOM     12  C   UNL A   1      36.186  23.742  25.403  1.00  0.00     0.106 C 
ATOM     13  C   UNL A   1      35.384  22.455  25.590  1.00  0.00     0.252 C 
ATOM     14  C   UNL A   1      36.338  21.273  25.756  1.00  0.00     0.106 C 
ATOM     15  O   UNL A   1      34.645  22.261  24.390  1.00  0.00    -0.422 OA
ATOM     16  O   UNL A   1      34.641  22.584  26.799  1.00  0.00    -0.422 OA
ATOM     17  C   UNL A   1      33.366  21.861  24.425  1.00  0.00     0.329 C 
ATOM     18  C   UNL A   1      33.310  22.506  26.849  1.00  0.00     0.329 C 
ATOM     19  O   UNL A   1      32.890  21.270  23.461  1.00  0.00    -0.251 OA
ATOM     20  O   UNL A   1      32.721  22.699  27.910  1.00  0.00    -0.251 OA
ENDBRANCH  10  11
ENDBRANCH   8   9
BRANCH   8  21
ATOM     21  C   UNL A   1      30.817  26.027  23.170  1.00  0.00     0.047 C 
BRANCH  21  22
ATOM     22  C   UNL A   1      30.771  27.415  22.524  1.00  0.00     0.102 C 
BRANCH  22  23
ATOM     23  C   UNL A   1      31.994  28.280  22.749  1.00  0.00     0.217 C 
ATOM     24  N   UNL A   1      33.067  27.941  21.973  1.00  0.00    -0.370 N 
ATOM     25  O   UNL A   1      32.059  29.206  23.542  1.00  0.00    -0.275 OA
ATOM     26  H   UNL A   1      32.997  27.192  21.337  1.00  0.00     0.159 HD
ATOM     27  H   UNL A   1      33.909  28.445  22.049  1.00  0.00     0.159 HD
ENDBRANCH  22  23
ENDBRANCH  21  22
ENDBRANCH   8  21
ENDBRANCH   5   8
ENDBRANCH   3   4
ENDBRANCH   2   3
ENDBRANCH   1   2
BRANCH   1  28
ATOM     28  C   UNL A   1      35.008  29.579  27.545  1.00  0.00     0.002 C 
BRANCH  28  29
ATOM     29  C   UNL A   1      34.624  30.966  28.075  1.00  0.00     0.021 C 
BRANCH  29  30
ATOM     30  C   UNL A   1      35.672  31.623  28.967  1.00  0.00     0.116 C 
BRANCH  30  31
ATOM     31  N   UNL A   1      35.603  31.157  30.338  1.00  0.00    -0.352 N 
ATOM     32  C   UNL A   1      36.505  30.432  31.072  1.00  0.00     0.251 C 
ATOM     33  H   UNL A   1      34.778  31.400  30.817  1.00  0.00     0.163 HD
ATOM     34  O   UNL A   1      36.178  30.001  32.173  1.00  0.00    -0.269 OA
BRANCH  32  35
ATOM     35  C   UNL A   1      37.853  30.148  30.536  1.00  0.00     0.039 A 
ATOM     36  C   UNL A   1      38.852  29.761  31.432  1.00  0.00     0.014 A 
ATOM     37  C   UNL A   1      38.148  30.289  29.176  1.00  0.00     0.014 A 
ATOM     38  C   UNL A   1      40.132  29.469  30.959  1.00  0.00     0.010 A 
ATOM     39  C   UNL A   1      39.406  29.928  28.696  1.00  0.00     0.010 A 
ATOM     40  C   UNL A   1      40.413  29.518  29.583  1.00  0.00    -0.014 A 
BRANCH  40  41
ATOM     41  C   UNL A   1      41.752  29.124  29.076  1.00  0.00     0.031 A 
ATOM     42  C   UNL A   1      42.873  30.123  29.000  1.00  0.00     0.074 A 
ATOM     43  C   UNL A   1      41.947  27.859  28.651  1.00  0.00     0.049 A 
ATOM     44  N   UNL A   1      44.104  29.952  28.593  1.00  0.00    -0.248 NA
ATOM     45  C   UNL A   1      42.565  31.501  29.415  1.00  0.00     0.031 C 
ATOM     46  C   UNL A   1      40.924  26.812  28.626  1.00  0.00     0.029 A 
ATOM     47  N   UNL A   1      43.068  27.238  28.162  1.00  0.00    -0.354 N 
ATOM     48  C   UNL A   1      44.717  31.195  28.694  1.00  0.00     0.074 A 
ATOM     49  C   UNL A   1      43.704  32.125  29.148  1.00  0.00     0.031 C 
ATOM     50  C   UNL A   1      41.471  25.672  28.176  1.00  0.00     0.029 A 
ATOM     51  C   UNL A   1      42.871  25.914  27.844  1.00  0.00     0.049 A 
ATOM     52  H   UNL A   1      43.932  27.696  28.049  1.00  0.00     0.167 HD
ATOM     53  C   UNL A   1      46.009  31.527  28.454  1.00  0.00     0.037 A 
ATOM     54  C   UNL A   1      43.718  24.998  27.335  1.00  0.00     0.037 A 
ATOM     55  C   UNL A   1      47.011  30.591  28.014  1.00  0.00     0.049 A 
ATOM     56  C   UNL A   1      45.146  25.388  27.072  1.00  0.00     0.074 A 
ATOM     57  C   UNL A   1      48.362  30.812  27.803  1.00  0.00     0.029 A 
ATOM     58  N   UNL A   1      46.775  29.258  27.703  1.00  0.00    -0.354 N 
ATOM     59  N   UNL A   1      45.728  26.551  27.251  1.00  0.00    -0.248 NA
ATOM     60  C   UNL A   1      46.034  24.343  26.549  1.00  0.00     0.031 C 
ATOM     61  C   UNL A   1      48.927  29.633  27.307  1.00  0.00     0.029 A 
ATOM     62  C   UNL A   1      47.945  28.656  27.268  1.00  0.00     0.049 A 
ATOM     63  H   UNL A   1      45.903  28.807  27.779  1.00  0.00     0.167 HD
ATOM     64  C   UNL A   1      47.056  26.372  26.879  1.00  0.00     0.074 A 
ATOM     65  C   UNL A   1      47.194  24.985  26.485  1.00  0.00     0.031 C 
ATOM     66  C   UNL A   1      48.069  27.275  26.867  1.00  0.00     0.037 A 
BRANCH  53  67
ATOM     67  C   UNL A   1      46.408  32.967  28.649  1.00  0.00     0.058 A 
ATOM     68  C   UNL A   1      46.350  33.902  27.602  1.00  0.00     0.135 A 
ATOM     69  C   UNL A   1      46.834  33.422  29.907  1.00  0.00     0.135 A 
ATOM     70  F   UNL A   1      45.961  33.522  26.374  1.00  0.00    -0.206 F 
ATOM     71  C   UNL A   1      46.740  35.225  27.785  1.00  0.00     0.059 A 
ATOM     72  C   UNL A   1      47.198  34.749  30.121  1.00  0.00     0.059 A 
ATOM     73  F   UNL A   1      46.907  32.575  30.945  1.00  0.00    -0.206 F 
ATOM     74  C   UNL A   1      47.167  35.638  29.049  1.00  0.00     0.060 A 
BRANCH  74  75
ATOM     75  S   UNL A   1      47.688  37.353  29.264  1.00  0.00     0.124 S 
ATOM     76  O   UNL A   1      46.451  37.975  29.726  1.00  0.00    -0.237 OA
ATOM     77  O   UNL A   1      48.748  37.234  30.261  1.00  0.00    -0.237 OA
ATOM     78  O   UNL A   1      48.126  37.746  27.929  1.00  0.00    -0.744 OA
ENDBRANCH  74  75
ENDBRANCH  53  67
BRANCH  54  79
ATOM     79  C   UNL A   1      43.231  23.620  27.065  1.00  0.00     0.058 A 
ATOM     80  C   UNL A   1      42.913  23.202  25.764  1.00  0.00     0.135 A 
ATOM     81  C   UNL A   1      43.116  22.677  28.100  1.00  0.00     0.135 A 
ATOM     82  F   UNL A   1      43.000  24.068  24.742  1.00  0.00    -0.206 F 
ATOM     83  C   UNL A   1      42.495  21.904  25.497  1.00  0.00     0.059 A 
ATOM     84  C   UNL A   1      42.726  21.365  27.854  1.00  0.00     0.059 A 
ATOM     85  F   UNL A   1      43.425  23.020  29.359  1.00  0.00    -0.206 F 
ATOM     86  C   UNL A   1      42.414  20.988  26.548  1.00  0.00     0.060 A 
BRANCH  86  87
ATOM     87  S   UNL A   1      41.950  19.282  26.180  1.00  0.00     0.124 S 
ATOM     88  O   UNL A   1      42.326  18.602  27.413  1.00  0.00    -0.237 OA
ATOM     89  O   UNL A   1      40.518  19.406  25.927  1.00  0.00    -0.237 OA
ATOM     90  O   UNL A   1      42.759  18.961  25.008  1.00  0.00    -0.744 OA
ENDBRANCH  86  87
ENDBRANCH  54  79
BRANCH  66  91
ATOM     91  C   UNL A   1      49.423  26.787  26.428  1.00  0.00     0.058 A 
ATOM     92  C   UNL A   1      50.266  26.066  27.288  1.00  0.00     0.135 A 
ATOM     93  C   UNL A   1      49.868  27.009  25.114  1.00  0.00     0.135 A 
ATOM     94  F   UNL A   1      49.894  25.832  28.557  1.00  0.00    -0.206 F 
ATOM     95  C   UNL A   1      51.513  25.611  26.873  1.00  0.00     0.059 A 
ATOM     96  C   UNL A   1      51.096  26.534  24.666  1.00  0.00     0.059 A 
ATOM     97  F   UNL A   1      49.098  27.683  24.244  1.00  0.00    -0.206 F 
ATOM     98  C   UNL A   1      51.918  25.848  25.558  1.00  0.00     0.060 A 
BRANCH  98  99
ATOM     99  S   UNL A   1      53.529  25.230  25.025  1.00  0.00     0.124 S 
ATOM    100  O   UNL A   1      53.405  23.804  25.310  1.00  0.00    -0.237 OA
ATOM    101  O   UNL A   1      53.551  25.595  23.612  1.00  0.00    -0.237 OA
ATOM    102  O   UNL A   1      54.470  25.959  25.870  1.00  0.00    -0.744 OA
ENDBRANCH  98  99
ENDBRANCH  66  91
ENDBRANCH  40  41
ENDBRANCH  32  35
ENDBRANCH  30  31
ENDBRANCH  29  30
ENDBRANCH  28  29
ENDBRANCH   1  28
TORSDOF 21
ENDMDL
MODEL 3
REMARK VINA RESULT:      -9.3      4.844     12.146
REMARK SMILES CC1(C)OC(=O)C(/C=N/[C@@H](CCC(N)=O)C(=O)NCCCCCCNC(=O)c2ccc(-c3c4nc(c(-c5c(F)cc(S(=O)(=O)[O-])cc5F)c5ccc([nH]5)c(-c5c(F)cc(S(=O)(=O)[O-])cc5F)c5nc(c(-c6c(F)cc(S(=O)(=O)[O-])cc6F)c6ccc3[nH]6)C=C5)C=C4)cc2)C(=O)O1
REMARK SMILES IDX 21 1 20 2 19 3 18 4 16 5 17 6 10 8 9 9 8 10 7 11 1 12 2 13
REMARK SMILES IDX 3 14 4 15 96 16 5 17 94 18 6 19 95 20 11 21 12 22 13 23
REMARK SMILES IDX 14 24 15 25 22 28 23 29 24 30 25 31 26 32 27 34 28 35 29 36
REMARK SMILES IDX 93 37 30 38 92 39 31 40 32 41 33 42 86 43 34 44 91 45 85 46
REMARK SMILES IDX 87 47 35 48 90 49 84 50 83 51 36 53 70 54 49 55 69 56 50 57
REMARK SMILES IDX 53 58 68 59 88 60 51 61 52 62 67 64 89 65 54 66 37 67 38 68
REMARK SMILES IDX 47 69 39 70 40 71 46 72 48 73 41 74 42 75 43 76 44 77 45 78
REMARK SMILES IDX 71 79 72 80 81 81 73 82 74 83 80 84 82 85 75 86 76 87 77 88
REMARK SMILES IDX 78 89 79 90 55 91 56 92 65 93 57 94 58 95 64 96 66 97 59 98
REMARK SMILES IDX 60 99 61 100 62 101 63 102
REMARK H PARENT 18 7 14 26 14 27 25 33 87 52 53 63
REMARK Flexibility Score: inf
ROOT
ATOM      1  C   UNL A   1      35.040  31.999  28.098  1.00  0.00     0.002 C 
ENDROOT
BRANCH   1   2
ATOM      2  C   UNL A   1      33.786  31.297  27.579  1.00  0.00     0.021 C 
BRANCH   2   3
ATOM      3  C   UNL A   1      33.968  29.805  27.357  1.00  0.00     0.116 C 
BRANCH   3   4
ATOM      4  N   UNL A   1      32.778  29.029  27.574  1.00  0.00    -0.354 N 
ATOM      5  C   UNL A   1      32.181  28.124  26.745  1.00  0.00     0.244 C 
ATOM      6  O   UNL A   1      31.259  27.445  27.208  1.00  0.00    -0.273 OA
ATOM      7  H   UNL A   1      32.332  29.170  28.440  1.00  0.00     0.163 HD
BRANCH   5   8
ATOM      8  C   UNL A   1      32.611  27.972  25.270  1.00  0.00     0.194 C 
BRANCH   8   9
ATOM      9  N   UNL A   1      32.863  26.543  24.963  1.00  0.00    -0.283 NA
ATOM     10  C   UNL A   1      33.954  26.074  24.499  1.00  0.00     0.105 C 
BRANCH  10  11
ATOM     11  C   UNL A   1      34.092  24.605  24.166  1.00  0.00     0.250 C 
ATOM     12  C   UNL A   1      30.796  23.032  25.602  1.00  0.00     0.106 C 
ATOM     13  C   UNL A   1      32.125  22.705  24.922  1.00  0.00     0.252 C 
ATOM     14  C   UNL A   1      32.245  21.195  24.725  1.00  0.00     0.106 C 
ATOM     15  O   UNL A   1      33.150  23.116  25.819  1.00  0.00    -0.422 OA
ATOM     16  O   UNL A   1      32.107  23.309  23.631  1.00  0.00    -0.422 OA
ATOM     17  C   UNL A   1      34.242  23.752  25.372  1.00  0.00     0.329 C 
ATOM     18  C   UNL A   1      33.011  24.206  23.234  1.00  0.00     0.329 C 
ATOM     19  O   UNL A   1      35.283  23.695  26.019  1.00  0.00    -0.251 OA
ATOM     20  O   UNL A   1      32.900  24.746  22.136  1.00  0.00    -0.251 OA
ENDBRANCH  10  11
ENDBRANCH   8   9
BRANCH   8  21
ATOM     21  C   UNL A   1      31.934  28.858  24.208  1.00  0.00     0.047 C 
BRANCH  21  22
ATOM     22  C   UNL A   1      30.495  28.623  23.741  1.00  0.00     0.102 C 
BRANCH  22  23
ATOM     23  C   UNL A   1      30.129  29.255  22.413  1.00  0.00     0.217 C 
ATOM     24  N   UNL A   1      31.169  29.887  21.792  1.00  0.00    -0.370 N 
ATOM     25  O   UNL A   1      29.017  29.226  21.909  1.00  0.00    -0.275 OA
ATOM     26  H   UNL A   1      32.059  29.901  22.212  1.00  0.00     0.159 HD
ATOM     27  H   UNL A   1      31.028  30.330  20.924  1.00  0.00     0.159 HD
ENDBRANCH  22  23
ENDBRANCH  21  22
ENDBRANCH   8  21
ENDBRANCH   5   8
ENDBRANCH   3   4
ENDBRANCH   2   3
ENDBRANCH   1   2
BRANCH   1  28
ATOM     28  C   UNL A   1      34.954  33.531  28.174  1.00  0.00     0.002 C 
BRANCH  28  29
ATOM     29  C   UNL A   1      33.563  34.106  28.465  1.00  0.00     0.021 C 
BRANCH  29  30
ATOM     30  C   UNL A   1      33.554  35.565  28.908  1.00  0.00     0.116 C 
BRANCH  30  31
ATOM     31  N   UNL A   1      32.761  35.776  30.103  1.00  0.00    -0.352 N 
ATOM     32  C   UNL A   1      32.929  35.292  31.375  1.00  0.00     0.251 C 
ATOM     33  H   UNL A   1      31.977  36.359  29.983  1.00  0.00     0.163 HD
ATOM     34  O   UNL A   1      32.045  35.464  32.207  1.00  0.00    -0.269 OA
BRANCH  32  35
ATOM     35  C   UNL A   1      34.153  34.547  31.737  1.00  0.00     0.039 A 
ATOM     36  C   UNL A   1      35.358  35.249  31.807  1.00  0.00     0.014 A 
ATOM     37  C   UNL A   1      34.131  33.169  31.974  1.00  0.00     0.014 A 
ATOM     38  C   UNL A   1      36.531  34.581  32.162  1.00  0.00     0.010 A 
ATOM     39  C   UNL A   1      35.289  32.517  32.399  1.00  0.00     0.010 A 
ATOM     40  C   UNL A   1      36.501  33.215  32.493  1.00  0.00    -0.014 A 
BRANCH  40  41
ATOM     41  C   UNL A   1      37.735  32.528  32.953  1.00  0.00     0.031 A 
ATOM     42  C   UNL A   1      38.407  32.930  34.236  1.00  0.00     0.074 A 
ATOM     43  C   UNL A   1      38.269  31.554  32.189  1.00  0.00     0.049 A 
ATOM     44  N   UNL A   1      39.483  32.436  34.794  1.00  0.00    -0.248 NA
ATOM     45  C   UNL A   1      37.808  34.048  34.981  1.00  0.00     0.031 C 
ATOM     46  C   UNL A   1      37.738  31.110  30.898  1.00  0.00     0.029 A 
ATOM     47  N   UNL A   1      39.371  30.761  32.384  1.00  0.00    -0.354 N 
ATOM     48  C   UNL A   1      39.694  33.183  35.947  1.00  0.00     0.074 A 
ATOM     49  C   UNL A   1      38.666  34.202  35.978  1.00  0.00     0.031 C 
ATOM     50  C   UNL A   1      38.496  30.105  30.433  1.00  0.00     0.029 A 
ATOM     51  C   UNL A   1      39.587  29.858  31.369  1.00  0.00     0.049 A 
ATOM     52  H   UNL A   1      39.952  30.831  33.175  1.00  0.00     0.167 HD
ATOM     53  C   UNL A   1      40.642  33.020  36.901  1.00  0.00     0.037 A 
ATOM     54  C   UNL A   1      40.558  28.938  31.204  1.00  0.00     0.037 A 
ATOM     55  C   UNL A   1      41.654  31.995  36.865  1.00  0.00     0.049 A 
ATOM     56  C   UNL A   1      41.602  28.778  32.274  1.00  0.00     0.074 A 
ATOM     57  C   UNL A   1      42.620  31.705  37.814  1.00  0.00     0.029 A 
ATOM     58  N   UNL A   1      41.841  31.098  35.822  1.00  0.00    -0.354 N 
ATOM     59  N   UNL A   1      41.739  29.441  33.399  1.00  0.00    -0.248 NA
ATOM     60  C   UNL A   1      42.618  27.739  32.060  1.00  0.00     0.031 C 
ATOM     61  C   UNL A   1      43.428  30.677  37.317  1.00  0.00     0.029 A 
ATOM     62  C   UNL A   1      42.928  30.280  36.087  1.00  0.00     0.049 A 
ATOM     63  H   UNL A   1      41.284  31.051  35.012  1.00  0.00     0.167 HD
ATOM     64  C   UNL A   1      42.845  28.887  34.034  1.00  0.00     0.074 A 
ATOM     65  C   UNL A   1      43.327  27.823  33.178  1.00  0.00     0.031 C 
ATOM     66  C   UNL A   1      43.407  29.230  35.221  1.00  0.00     0.037 A 
BRANCH  53  67
ATOM     67  C   UNL A   1      40.638  33.983  38.060  1.00  0.00     0.058 A 
ATOM     68  C   UNL A   1      39.878  33.749  39.218  1.00  0.00     0.135 A 
ATOM     69  C   UNL A   1      41.423  35.148  38.020  1.00  0.00     0.135 A 
ATOM     70  F   UNL A   1      39.099  32.658  39.308  1.00  0.00    -0.206 F 
ATOM     71  C   UNL A   1      39.863  34.654  40.276  1.00  0.00     0.059 A 
ATOM     72  C   UNL A   1      41.448  36.050  39.080  1.00  0.00     0.059 A 
ATOM     73  F   UNL A   1      42.171  35.423  36.941  1.00  0.00    -0.206 F 
ATOM     74  C   UNL A   1      40.649  35.804  40.195  1.00  0.00     0.060 A 
BRANCH  74  75
ATOM     75  S   UNL A   1      40.603  36.977  41.567  1.00  0.00     0.124 S 
ATOM     76  O   UNL A   1      41.454  36.309  42.547  1.00  0.00    -0.237 OA
ATOM     77  O   UNL A   1      41.159  38.184  40.963  1.00  0.00    -0.237 OA
ATOM     78  O   UNL A   1      39.187  37.044  41.910  1.00  0.00    -0.744 OA
ENDBRANCH  74  75
ENDBRANCH  53  67
BRANCH  54  79
ATOM     79  C   UNL A   1      40.566  28.091  29.983  1.00  0.00     0.058 A 
ATOM     80  C   UNL A   1      41.494  28.307  28.953  1.00  0.00     0.135 A 
ATOM     81  C   UNL A   1      39.671  27.018  29.842  1.00  0.00     0.135 A 
ATOM     82  F   UNL A   1      42.365  29.324  29.039  1.00  0.00    -0.206 F 
ATOM     83  C   UNL A   1      41.534  27.494  27.826  1.00  0.00     0.059 A 
ATOM     84  C   UNL A   1      39.710  26.175  28.737  1.00  0.00     0.059 A 
ATOM     85  F   UNL A   1      38.776  26.757  30.806  1.00  0.00    -0.206 F 
ATOM     86  C   UNL A   1      40.643  26.423  27.732  1.00  0.00     0.060 A 
BRANCH  86  87
ATOM     87  S   UNL A   1      40.756  25.324  26.303  1.00  0.00     0.124 S 
ATOM     88  O   UNL A   1      41.271  26.224  25.279  1.00  0.00    -0.237 OA
ATOM     89  O   UNL A   1      41.681  24.301  26.781  1.00  0.00    -0.237 OA
ATOM     90  O   UNL A   1      39.380  24.874  26.117  1.00  0.00    -0.744 OA
ENDBRANCH  86  87
ENDBRANCH  54  79
BRANCH  66  91
ATOM     91  C   UNL A   1      44.602  28.434  35.673  1.00  0.00     0.058 A 
ATOM     92  C   UNL A   1      45.913  28.818  35.350  1.00  0.00     0.135 A 
ATOM     93  C   UNL A   1      44.435  27.293  36.475  1.00  0.00     0.135 A 
ATOM     94  F   UNL A   1      46.131  29.896  34.580  1.00  0.00    -0.206 F 
ATOM     95  C   UNL A   1      47.014  28.083  35.779  1.00  0.00     0.059 A 
ATOM     96  C   UNL A   1      45.522  26.561  36.943  1.00  0.00     0.059 A 
ATOM     97  F   UNL A   1      43.204  26.886  36.824  1.00  0.00    -0.206 F 
ATOM     98  C   UNL A   1      46.808  26.956  36.578  1.00  0.00     0.060 A 
BRANCH  98  99
ATOM     99  S   UNL A   1      48.246  26.025  37.147  1.00  0.00     0.124 S 
ATOM    100  O   UNL A   1      48.776  25.507  35.890  1.00  0.00    -0.237 OA
ATOM    101  O   UNL A   1      49.048  27.058  37.796  1.00  0.00    -0.237 OA
ATOM    102  O   UNL A   1      47.672  25.028  38.044  1.00  0.00    -0.744 OA
ENDBRANCH  98  99
ENDBRANCH  66  91
ENDBRANCH  40  41
ENDBRANCH  32  35
ENDBRANCH  30  31
ENDBRANCH  29  30
ENDBRANCH  28  29
ENDBRANCH   1  28
TORSDOF 21
ENDMDL
