MODEL 1
REMARK VINA RESULT:     -12.0      0.000      0.000
REMARK SMILES O=C(NCCCCCCNC(=O)c1cccnc1-c1ccccn1)c1ccc(-c2c3nc(c(-c4c(F)cc(S(=O)(=O)[O-])cc4F)c4ccc([nH]4)c(-c4c(F)cc(S(=O)(=O)[O-])cc4F)c4nc(c(-c5c(F)cc(S(=O)(=O)[O-])cc5F)c5ccc2[nH]5)C=C4)C=C3)cc1
REMARK SMILES IDX 5 1 4 2 3 3 1 4 2 5 25 7 26 8 90 9 27 10 89 11 28 12 29 13
REMARK SMILES IDX 30 14 83 15 31 16 88 17 82 18 84 19 32 20 87 21 81 22 80 23
REMARK SMILES IDX 33 25 67 26 46 27 66 28 47 29 50 30 65 31 85 32 48 33 49 34
REMARK SMILES IDX 64 36 86 37 51 38 34 39 35 40 44 41 36 42 37 43 43 44 45 45
REMARK SMILES IDX 38 46 39 47 40 48 41 49 42 50 68 51 69 52 78 53 70 54 71 55
REMARK SMILES IDX 77 56 79 57 72 58 73 59 74 60 75 61 76 62 52 63 53 64 62 65
REMARK SMILES IDX 54 66 55 67 61 68 63 69 56 70 57 71 58 72 59 73 60 74 6 75
REMARK SMILES IDX 7 76 8 77 9 78 10 79 11 80 12 82 13 83 14 84 18 85 15 86
REMARK SMILES IDX 17 87 16 88 19 89 20 90 24 91 21 92 23 93 22 94
REMARK H PARENT 3 6 84 24 50 35 10 81
REMARK Flexibility Score: inf
ROOT
ATOM      1  C   UNL A   1      40.335  21.774  27.191  1.00  0.00     0.021 C 
ENDROOT
BRANCH   1   2
ATOM      2  C   UNL A   1      40.921  23.136  27.536  1.00  0.00     0.116 C 
BRANCH   2   3
ATOM      3  N   UNL A   1      41.388  23.858  26.365  1.00  0.00    -0.352 N 
ATOM      4  O   UNL A   1      41.776  25.659  25.063  1.00  0.00    -0.269 OA
ATOM      5  C   UNL A   1      41.515  25.214  26.177  1.00  0.00     0.251 C 
ATOM      6  H   UNL A   1      41.650  23.299  25.598  1.00  0.00     0.163 HD
BRANCH   5   7
ATOM      7  C   UNL A   1      41.315  26.135  27.318  1.00  0.00     0.039 A 
ATOM      8  C   UNL A   1      42.249  27.135  27.599  1.00  0.00     0.014 A 
ATOM      9  C   UNL A   1      40.176  25.996  28.117  1.00  0.00     0.014 A 
ATOM     10  C   UNL A   1      42.116  27.905  28.749  1.00  0.00     0.010 A 
ATOM     11  C   UNL A   1      40.000  26.830  29.226  1.00  0.00     0.010 A 
ATOM     12  C   UNL A   1      40.981  27.775  29.566  1.00  0.00    -0.014 A 
BRANCH  12  13
ATOM     13  C   UNL A   1      40.809  28.690  30.723  1.00  0.00     0.031 A 
ATOM     14  C   UNL A   1      41.689  28.591  31.938  1.00  0.00     0.074 A 
ATOM     15  C   UNL A   1      39.849  29.634  30.655  1.00  0.00     0.049 A 
ATOM     16  N   UNL A   1      41.672  29.320  33.025  1.00  0.00    -0.248 NA
ATOM     17  C   UNL A   1      42.715  27.538  31.939  1.00  0.00     0.031 C 
ATOM     18  C   UNL A   1      38.925  29.814  29.531  1.00  0.00     0.029 A 
ATOM     19  N   UNL A   1      39.496  30.626  31.533  1.00  0.00    -0.354 N 
ATOM     20  C   UNL A   1      42.671  28.807  33.846  1.00  0.00     0.074 A 
ATOM     21  C   UNL A   1      43.258  27.688  33.141  1.00  0.00     0.031 C 
ATOM     22  C   UNL A   1      38.142  30.874  29.770  1.00  0.00     0.029 A 
ATOM     23  C   UNL A   1      38.460  31.411  31.087  1.00  0.00     0.049 A 
ATOM     24  H   UNL A   1      39.943  30.763  32.400  1.00  0.00     0.167 HD
ATOM     25  C   UNL A   1      43.063  29.238  35.070  1.00  0.00     0.037 A 
ATOM     26  C   UNL A   1      37.820  32.437  31.678  1.00  0.00     0.037 A 
ATOM     27  C   UNL A   1      42.473  30.360  35.760  1.00  0.00     0.049 A 
ATOM     28  C   UNL A   1      38.258  32.877  33.044  1.00  0.00     0.074 A 
ATOM     29  C   UNL A   1      42.822  30.895  36.988  1.00  0.00     0.029 A 
ATOM     30  N   UNL A   1      41.409  31.116  35.285  1.00  0.00    -0.354 N 
ATOM     31  N   UNL A   1      39.227  32.402  33.789  1.00  0.00    -0.248 NA
ATOM     32  C   UNL A   1      37.518  33.990  33.652  1.00  0.00     0.031 C 
ATOM     33  C   UNL A   1      41.942  31.943  37.277  1.00  0.00     0.029 A 
ATOM     34  C   UNL A   1      41.076  32.096  36.206  1.00  0.00     0.049 A 
ATOM     35  H   UNL A   1      40.960  30.976  34.421  1.00  0.00     0.167 HD
ATOM     36  C   UNL A   1      39.224  33.168  34.949  1.00  0.00     0.074 A 
ATOM     37  C   UNL A   1      38.168  34.149  34.796  1.00  0.00     0.031 C 
ATOM     38  C   UNL A   1      40.021  33.066  36.041  1.00  0.00     0.037 A 
BRANCH  25  39
ATOM     39  C   UNL A   1      44.170  28.486  35.759  1.00  0.00     0.058 A 
ATOM     40  C   UNL A   1      45.518  28.844  35.597  1.00  0.00     0.135 A 
ATOM     41  C   UNL A   1      43.877  27.425  36.632  1.00  0.00     0.135 A 
ATOM     42  F   UNL A   1      45.859  29.840  34.766  1.00  0.00    -0.206 F 
ATOM     43  C   UNL A   1      46.537  28.161  36.256  1.00  0.00     0.059 A 
ATOM     44  C   UNL A   1      44.877  26.744  37.322  1.00  0.00     0.059 A 
ATOM     45  F   UNL A   1      42.605  27.043  36.827  1.00  0.00    -0.206 F 
ATOM     46  C   UNL A   1      46.206  27.111  37.116  1.00  0.00     0.060 A 
BRANCH  46  47
ATOM     47  S   UNL A   1      47.540  26.237  37.963  1.00  0.00     0.124 S 
ATOM     48  O   UNL A   1      47.312  26.635  39.349  1.00  0.00    -0.237 OA
ATOM     49  O   UNL A   1      47.247  24.842  37.650  1.00  0.00    -0.237 OA
ATOM     50  O   UNL A   1      48.748  26.777  37.347  1.00  0.00    -0.744 OA
ENDBRANCH  46  47
ENDBRANCH  25  39
BRANCH  26  51
ATOM     51  C   UNL A   1      36.694  33.104  30.975  1.00  0.00     0.058 A 
ATOM     52  C   UNL A   1      35.367  32.903  31.380  1.00  0.00     0.135 A 
ATOM     53  C   UNL A   1      36.927  33.985  29.906  1.00  0.00     0.135 A 
ATOM     54  F   UNL A   1      35.094  32.069  32.394  1.00  0.00    -0.206 F 
ATOM     55  C   UNL A   1      34.308  33.542  30.743  1.00  0.00     0.059 A 
ATOM     56  C   UNL A   1      35.888  34.657  29.273  1.00  0.00     0.059 A 
ATOM     57  F   UNL A   1      38.181  34.225  29.493  1.00  0.00    -0.206 F 
ATOM     58  C   UNL A   1      34.580  34.421  29.693  1.00  0.00     0.060 A 
BRANCH  58  59
ATOM     59  S   UNL A   1      33.203  35.288  28.910  1.00  0.00     0.124 S 
ATOM     60  O   UNL A   1      33.895  36.363  28.209  1.00  0.00    -0.237 OA
ATOM     61  O   UNL A   1      32.622  34.246  28.069  1.00  0.00    -0.237 OA
ATOM     62  O   UNL A   1      32.380  35.699  30.043  1.00  0.00    -0.744 OA
ENDBRANCH  58  59
ENDBRANCH  26  51
BRANCH  38  63
ATOM     63  C   UNL A   1      39.799  34.060  37.146  1.00  0.00     0.058 A 
ATOM     64  C   UNL A   1      38.973  33.770  38.243  1.00  0.00     0.135 A 
ATOM     65  C   UNL A   1      40.450  35.304  37.123  1.00  0.00     0.135 A 
ATOM     66  F   UNL A   1      38.320  32.598  38.307  1.00  0.00    -0.206 F 
ATOM     67  C   UNL A   1      38.779  34.690  39.269  1.00  0.00     0.059 A 
ATOM     68  C   UNL A   1      40.292  36.228  38.152  1.00  0.00     0.059 A 
ATOM     69  F   UNL A   1      41.256  35.628  36.100  1.00  0.00    -0.206 F 
ATOM     70  C   UNL A   1      39.445  35.916  39.215  1.00  0.00     0.060 A 
BRANCH  70  71
ATOM     71  S   UNL A   1      39.210  37.089  40.566  1.00  0.00     0.124 S 
ATOM     72  O   UNL A   1      38.259  38.026  39.978  1.00  0.00    -0.237 OA
ATOM     73  O   UNL A   1      38.686  36.239  41.631  1.00  0.00    -0.237 OA
ATOM     74  O   UNL A   1      40.551  37.616  40.795  1.00  0.00    -0.744 OA
ENDBRANCH  70  71
ENDBRANCH  38  63
ENDBRANCH  12  13
ENDBRANCH   5   7
ENDBRANCH   2   3
ENDBRANCH   1   2
BRANCH   1  75
ATOM     75  C   UNL A   1      39.261  21.787  26.104  1.00  0.00     0.002 C 
BRANCH  75  76
ATOM     76  C   UNL A   1      38.335  23.007  26.101  1.00  0.00     0.002 C 
BRANCH  76  77
ATOM     77  C   UNL A   1      37.093  22.902  25.209  1.00  0.00     0.021 C 
BRANCH  77  78
ATOM     78  C   UNL A   1      36.443  21.522  25.146  1.00  0.00     0.116 C 
BRANCH  78  79
ATOM     79  N   UNL A   1      35.517  21.295  26.243  1.00  0.00    -0.352 N 
ATOM     80  C   UNL A   1      34.148  21.216  26.229  1.00  0.00     0.253 C 
ATOM     81  H   UNL A   1      35.936  21.180  27.127  1.00  0.00     0.163 HD
ATOM     82  O   UNL A   1      33.534  21.049  27.277  1.00  0.00    -0.269 OA
BRANCH  80  83
ATOM     83  C   UNL A   1      33.430  21.326  24.948  1.00  0.00     0.067 A 
ATOM     84  C   UNL A   1      33.149  22.595  24.427  1.00  0.00     0.018 A 
ATOM     85  C   UNL A   1      33.044  20.192  24.230  1.00  0.00     0.101 A 
ATOM     86  C   UNL A   1      32.437  22.702  23.239  1.00  0.00     0.021 A 
ATOM     87  N   UNL A   1      32.327  20.296  23.070  1.00  0.00    -0.254 NA
ATOM     88  C   UNL A   1      32.045  21.535  22.607  1.00  0.00     0.112 A 
BRANCH  85  89
ATOM     89  C   UNL A   1      33.354  18.819  24.659  1.00  0.00     0.089 A 
ATOM     90  C   UNL A   1      34.552  18.190  24.317  1.00  0.00     0.031 A 
ATOM     91  N   UNL A   1      32.392  18.191  25.389  1.00  0.00    -0.255 NA
ATOM     92  C   UNL A   1      34.758  16.869  24.710  1.00  0.00     0.004 A 
ATOM     93  C   UNL A   1      32.618  16.910  25.749  1.00  0.00     0.112 A 
ATOM     94  C   UNL A   1      33.770  16.212  25.434  1.00  0.00     0.020 A 
ENDBRANCH  85  89
ENDBRANCH  80  83
ENDBRANCH  78  79
ENDBRANCH  77  78
ENDBRANCH  76  77
ENDBRANCH  75  76
ENDBRANCH   1  75
TORSDOF 17
ENDMDL
MODEL 2
REMARK VINA RESULT:     -12.0      7.318     12.841
REMARK SMILES O=C(NCCCCCCNC(=O)c1cccnc1-c1ccccn1)c1ccc(-c2c3nc(c(-c4c(F)cc(S(=O)(=O)[O-])cc4F)c4ccc([nH]4)c(-c4c(F)cc(S(=O)(=O)[O-])cc4F)c4nc(c(-c5c(F)cc(S(=O)(=O)[O-])cc5F)c5ccc2[nH]5)C=C4)C=C3)cc1
REMARK SMILES IDX 5 1 4 2 3 3 1 4 2 5 25 7 26 8 90 9 27 10 89 11 28 12 29 13
REMARK SMILES IDX 30 14 83 15 31 16 88 17 82 18 84 19 32 20 87 21 81 22 80 23
REMARK SMILES IDX 33 25 67 26 46 27 66 28 47 29 50 30 65 31 85 32 48 33 49 34
REMARK SMILES IDX 64 36 86 37 51 38 34 39 35 40 44 41 36 42 37 43 43 44 45 45
REMARK SMILES IDX 38 46 39 47 40 48 41 49 42 50 68 51 69 52 78 53 70 54 71 55
REMARK SMILES IDX 77 56 79 57 72 58 73 59 74 60 75 61 76 62 52 63 53 64 62 65
REMARK SMILES IDX 54 66 55 67 61 68 63 69 56 70 57 71 58 72 59 73 60 74 6 75
REMARK SMILES IDX 7 76 8 77 9 78 10 79 11 80 12 82 13 83 14 84 18 85 15 86
REMARK SMILES IDX 17 87 16 88 19 89 20 90 24 91 21 92 23 93 22 94
REMARK H PARENT 3 6 84 24 50 35 10 81
REMARK Flexibility Score: inf
ROOT
ATOM      1  C   UNL A   1      35.258  32.068  27.670  1.00  0.00     0.021 C 
ENDROOT
BRANCH   1   2
ATOM      2  C   UNL A   1      36.242  32.203  28.824  1.00  0.00     0.116 C 
BRANCH   2   3
ATOM      3  N   UNL A   1      35.847  31.430  29.990  1.00  0.00    -0.352 N 
ATOM      4  O   UNL A   1      35.924  29.726  31.464  1.00  0.00    -0.269 OA
ATOM      5  C   UNL A   1      36.484  30.363  30.577  1.00  0.00     0.251 C 
ATOM      6  H   UNL A   1      35.005  31.709  30.418  1.00  0.00     0.163 HD
BRANCH   5   7
ATOM      7  C   UNL A   1      37.836  29.972  30.120  1.00  0.00     0.039 A 
ATOM      8  C   UNL A   1      38.860  29.742  31.041  1.00  0.00     0.014 A 
ATOM      9  C   UNL A   1      38.081  29.834  28.750  1.00  0.00     0.014 A 
ATOM     10  C   UNL A   1      40.155  29.507  30.593  1.00  0.00     0.010 A 
ATOM     11  C   UNL A   1      39.367  29.513  28.304  1.00  0.00     0.010 A 
ATOM     12  C   UNL A   1      40.421  29.371  29.221  1.00  0.00    -0.014 A 
BRANCH  12  13
ATOM     13  C   UNL A   1      41.791  29.005  28.778  1.00  0.00     0.031 A 
ATOM     14  C   UNL A   1      42.909  30.010  28.776  1.00  0.00     0.074 A 
ATOM     15  C   UNL A   1      42.020  27.734  28.390  1.00  0.00     0.049 A 
ATOM     16  N   UNL A   1      44.160  29.846  28.427  1.00  0.00    -0.248 NA
ATOM     17  C   UNL A   1      42.584  31.376  29.214  1.00  0.00     0.031 C 
ATOM     18  C   UNL A   1      41.006  26.676  28.337  1.00  0.00     0.029 A 
ATOM     19  N   UNL A   1      43.170  27.109  27.982  1.00  0.00    -0.354 N 
ATOM     20  C   UNL A   1      44.768  31.086  28.588  1.00  0.00     0.074 A 
ATOM     21  C   UNL A   1      43.742  32.000  29.041  1.00  0.00     0.031 C 
ATOM     22  C   UNL A   1      41.587  25.528  27.961  1.00  0.00     0.029 A 
ATOM     23  C   UNL A   1      42.996  25.779  27.684  1.00  0.00     0.049 A 
ATOM     24  H   UNL A   1      44.037  27.570  27.911  1.00  0.00     0.167 HD
ATOM     25  C   UNL A   1      46.065  31.424  28.381  1.00  0.00     0.037 A 
ATOM     26  C   UNL A   1      43.866  24.863  27.219  1.00  0.00     0.037 A 
ATOM     27  C   UNL A   1      47.080  30.501  27.935  1.00  0.00     0.049 A 
ATOM     28  C   UNL A   1      45.290  25.271  26.976  1.00  0.00     0.074 A 
ATOM     29  C   UNL A   1      48.428  30.739  27.729  1.00  0.00     0.029 A 
ATOM     30  N   UNL A   1      46.860  29.167  27.621  1.00  0.00    -0.354 N 
ATOM     31  N   UNL A   1      45.853  26.440  27.167  1.00  0.00    -0.248 NA
ATOM     32  C   UNL A   1      46.195  24.240  26.454  1.00  0.00     0.031 C 
ATOM     33  C   UNL A   1      49.013  29.563  27.247  1.00  0.00     0.029 A 
ATOM     34  C   UNL A   1      48.041  28.576  27.201  1.00  0.00     0.049 A 
ATOM     35  H   UNL A   1      45.992  28.708  27.688  1.00  0.00     0.167 HD
ATOM     36  C   UNL A   1      47.186  26.281  26.803  1.00  0.00     0.074 A 
ATOM     37  C   UNL A   1      47.345  24.899  26.399  1.00  0.00     0.031 C 
ATOM     38  C   UNL A   1      48.184  27.198  26.801  1.00  0.00     0.037 A 
BRANCH  25  39
ATOM     39  C   UNL A   1      46.463  32.857  28.617  1.00  0.00     0.058 A 
ATOM     40  C   UNL A   1      46.928  33.299  29.866  1.00  0.00     0.135 A 
ATOM     41  C   UNL A   1      46.430  33.788  27.566  1.00  0.00     0.135 A 
ATOM     42  F   UNL A   1      46.969  32.457  30.909  1.00  0.00    -0.206 F 
ATOM     43  C   UNL A   1      47.319  34.619  30.070  1.00  0.00     0.059 A 
ATOM     44  C   UNL A   1      46.841  35.107  27.741  1.00  0.00     0.059 A 
ATOM     45  F   UNL A   1      45.999  33.419  26.349  1.00  0.00    -0.206 F 
ATOM     46  C   UNL A   1      47.271  35.517  29.002  1.00  0.00     0.060 A 
BRANCH  46  47
ATOM     47  S   UNL A   1      47.784  37.225  29.286  1.00  0.00     0.124 S 
ATOM     48  O   UNL A   1      47.231  37.892  28.111  1.00  0.00    -0.237 OA
ATOM     49  O   UNL A   1      47.134  37.538  30.554  1.00  0.00    -0.237 OA
ATOM     50  O   UNL A   1      49.240  37.141  29.332  1.00  0.00    -0.744 OA
ENDBRANCH  46  47
ENDBRANCH  25  39
BRANCH  26  51
ATOM     51  C   UNL A   1      43.401  23.478  26.949  1.00  0.00     0.058 A 
ATOM     52  C   UNL A   1      43.194  23.027  25.637  1.00  0.00     0.135 A 
ATOM     53  C   UNL A   1      43.191  22.567  27.996  1.00  0.00     0.135 A 
ATOM     54  F   UNL A   1      43.379  23.862  24.604  1.00  0.00    -0.206 F 
ATOM     55  C   UNL A   1      42.782  21.726  25.374  1.00  0.00     0.059 A 
ATOM     56  C   UNL A   1      42.809  21.253  27.756  1.00  0.00     0.059 A 
ATOM     57  F   UNL A   1      43.396  22.945  29.268  1.00  0.00    -0.206 F 
ATOM     58  C   UNL A   1      42.596  20.844  26.441  1.00  0.00     0.060 A 
BRANCH  58  59
ATOM     59  S   UNL A   1      42.117  19.140  26.084  1.00  0.00     0.124 S 
ATOM     60  O   UNL A   1      42.921  18.851  24.903  1.00  0.00    -0.237 OA
ATOM     61  O   UNL A   1      42.508  18.448  27.308  1.00  0.00    -0.237 OA
ATOM     62  O   UNL A   1      40.678  19.238  25.861  1.00  0.00    -0.744 OA
ENDBRANCH  58  59
ENDBRANCH  26  51
BRANCH  38  63
ATOM     63  C   UNL A   1      49.546  26.727  26.373  1.00  0.00     0.058 A 
ATOM     64  C   UNL A   1      50.434  26.122  27.276  1.00  0.00     0.135 A 
ATOM     65  C   UNL A   1      49.952  26.852  25.035  1.00  0.00     0.135 A 
ATOM     66  F   UNL A   1      50.097  25.990  28.569  1.00  0.00    -0.206 F 
ATOM     67  C   UNL A   1      51.689  25.678  26.873  1.00  0.00     0.059 A 
ATOM     68  C   UNL A   1      51.192  26.389  24.603  1.00  0.00     0.059 A 
ATOM     69  F   UNL A   1      49.138  27.417  24.130  1.00  0.00    -0.206 F 
ATOM     70  C   UNL A   1      52.059  25.816  25.533  1.00  0.00     0.060 A 
BRANCH  70  71
ATOM     71  S   UNL A   1      53.677  25.209  25.015  1.00  0.00     0.124 S 
ATOM     72  O   UNL A   1      54.532  25.698  26.091  1.00  0.00    -0.237 OA
ATOM     73  O   UNL A   1      53.472  23.764  24.975  1.00  0.00    -0.237 OA
ATOM     74  O   UNL A   1      53.878  25.844  23.716  1.00  0.00    -0.744 OA
ENDBRANCH  70  71
ENDBRANCH  38  63
ENDBRANCH  12  13
ENDBRANCH   5   7
ENDBRANCH   2   3
ENDBRANCH   1   2
BRANCH   1  75
ATOM     75  C   UNL A   1      34.064  31.155  27.939  1.00  0.00     0.002 C 
BRANCH  75  76
ATOM     76  C   UNL A   1      34.033  29.849  27.139  1.00  0.00     0.002 C 
BRANCH  76  77
ATOM     77  C   UNL A   1      32.653  29.212  26.947  1.00  0.00     0.021 C 
BRANCH  77  78
ATOM     78  C   UNL A   1      31.750  29.896  25.923  1.00  0.00     0.116 C 
BRANCH  78  79
ATOM     79  N   UNL A   1      32.275  29.800  24.571  1.00  0.00    -0.352 N 
ATOM     80  C   UNL A   1      31.862  29.013  23.526  1.00  0.00     0.253 C 
ATOM     81  H   UNL A   1      33.040  30.389  24.377  1.00  0.00     0.163 HD
ATOM     82  O   UNL A   1      32.461  29.051  22.457  1.00  0.00    -0.269 OA
BRANCH  80  83
ATOM     83  C   UNL A   1      30.693  28.133  23.702  1.00  0.00     0.067 A 
ATOM     84  C   UNL A   1      30.872  26.859  24.254  1.00  0.00     0.018 A 
ATOM     85  C   UNL A   1      29.408  28.551  23.350  1.00  0.00     0.101 A 
ATOM     86  C   UNL A   1      29.779  26.013  24.384  1.00  0.00     0.021 A 
ATOM     87  N   UNL A   1      28.334  27.712  23.460  1.00  0.00    -0.254 NA
ATOM     88  C   UNL A   1      28.543  26.477  23.969  1.00  0.00     0.112 A 
BRANCH  85  89
ATOM     89  C   UNL A   1      29.109  29.894  22.828  1.00  0.00     0.089 A 
ATOM     90  C   UNL A   1      28.965  31.000  23.668  1.00  0.00     0.031 A 
ATOM     91  N   UNL A   1      28.957  29.989  21.479  1.00  0.00    -0.255 NA
ATOM     92  C   UNL A   1      28.628  32.232  23.113  1.00  0.00     0.004 A 
ATOM     93  C   UNL A   1      28.624  31.195  20.971  1.00  0.00     0.112 A 
ATOM     94  C   UNL A   1      28.447  32.332  21.739  1.00  0.00     0.020 A 
ENDBRANCH  85  89
ENDBRANCH  80  83
ENDBRANCH  78  79
ENDBRANCH  77  78
ENDBRANCH  76  77
ENDBRANCH  75  76
ENDBRANCH   1  75
TORSDOF 17
ENDMDL
MODEL 3
REMARK VINA RESULT:     -11.7      4.935     10.363
REMARK SMILES O=C(NCCCCCCNC(=O)c1cccnc1-c1ccccn1)c1ccc(-c2c3nc(c(-c4c(F)cc(S(=O)(=O)[O-])cc4F)c4ccc([nH]4)c(-c4c(F)cc(S(=O)(=O)[O-])cc4F)c4nc(c(-c5c(F)cc(S(=O)(=O)[O-])cc5F)c5ccc2[nH]5)C=C4)C=C3)cc1
REMARK SMILES IDX 5 1 4 2 3 3 1 4 2 5 25 7 26 8 90 9 27 10 89 11 28 12 29 13
REMARK SMILES IDX 30 14 83 15 31 16 88 17 82 18 84 19 32 20 87 21 81 22 80 23
REMARK SMILES IDX 33 25 67 26 46 27 66 28 47 29 50 30 65 31 85 32 48 33 49 34
REMARK SMILES IDX 64 36 86 37 51 38 34 39 35 40 44 41 36 42 37 43 43 44 45 45
REMARK SMILES IDX 38 46 39 47 40 48 41 49 42 50 68 51 69 52 78 53 70 54 71 55
REMARK SMILES IDX 77 56 79 57 72 58 73 59 74 60 75 61 76 62 52 63 53 64 62 65
REMARK SMILES IDX 54 66 55 67 61 68 63 69 56 70 57 71 58 72 59 73 60 74 6 75
REMARK SMILES IDX 7 76 8 77 9 78 10 79 11 80 12 82 13 83 14 84 18 85 15 86
REMARK SMILES IDX 17 87 16 88 19 89 20 90 24 91 21 92 23 93 22 94
REMARK H PARENT 3 6 84 24 50 35 10 81
REMARK Flexibility Score: inf
ROOT
ATOM      1  C   UNL A   1      32.931  27.287  25.786  1.00  0.00     0.021 C 
ENDROOT
BRANCH   1   2
ATOM      2  C   UNL A   1      34.039  28.000  26.549  1.00  0.00     0.116 C 
BRANCH   2   3
ATOM      3  N   UNL A   1      33.645  29.325  26.999  1.00  0.00    -0.352 N 
ATOM      4  O   UNL A   1      33.799  31.237  28.184  1.00  0.00    -0.269 OA
ATOM      5  C   UNL A   1      34.350  30.225  27.761  1.00  0.00     0.251 C 
ATOM      6  H   UNL A   1      32.747  29.618  26.719  1.00  0.00     0.163 HD
BRANCH   5   7
ATOM      7  C   UNL A   1      35.768  29.958  28.089  1.00  0.00     0.039 A 
ATOM      8  C   UNL A   1      36.766  30.131  27.127  1.00  0.00     0.014 A 
ATOM      9  C   UNL A   1      36.103  29.530  29.377  1.00  0.00     0.014 A 
ATOM     10  C   UNL A   1      38.073  29.750  27.409  1.00  0.00     0.010 A 
ATOM     11  C   UNL A   1      37.433  29.228  29.685  1.00  0.00     0.010 A 
ATOM     12  C   UNL A   1      38.427  29.311  28.695  1.00  0.00    -0.014 A 
BRANCH  12  13
ATOM     13  C   UNL A   1      39.851  29.022  29.000  1.00  0.00     0.031 A 
ATOM     14  C   UNL A   1      40.735  30.044  29.659  1.00  0.00     0.074 A 
ATOM     15  C   UNL A   1      40.338  27.804  28.686  1.00  0.00     0.049 A 
ATOM     16  N   UNL A   1      41.995  29.943  29.999  1.00  0.00    -0.248 NA
ATOM     17  C   UNL A   1      40.134  31.348  29.973  1.00  0.00     0.031 C 
ATOM     18  C   UNL A   1      39.575  26.738  28.030  1.00  0.00     0.029 A 
ATOM     19  N   UNL A   1      41.576  27.249  28.886  1.00  0.00    -0.354 N 
ATOM     20  C   UNL A   1      42.344  31.170  30.551  1.00  0.00     0.074 A 
ATOM     21  C   UNL A   1      41.167  32.010  30.478  1.00  0.00     0.031 C 
ATOM     22  C   UNL A   1      40.347  25.648  27.919  1.00  0.00     0.029 A 
ATOM     23  C   UNL A   1      41.676  25.955  28.435  1.00  0.00     0.049 A 
ATOM     24  H   UNL A   1      42.320  27.732  29.313  1.00  0.00     0.167 HD
ATOM     25  C   UNL A   1      43.533  31.554  31.076  1.00  0.00     0.037 A 
ATOM     26  C   UNL A   1      42.725  25.111  28.417  1.00  0.00     0.037 A 
ATOM     27  C   UNL A   1      44.696  30.704  31.149  1.00  0.00     0.049 A 
ATOM     28  C   UNL A   1      44.037  25.571  28.982  1.00  0.00     0.074 A 
ATOM     29  C   UNL A   1      45.937  30.989  31.692  1.00  0.00     0.029 A 
ATOM     30  N   UNL A   1      44.766  29.406  30.660  1.00  0.00    -0.354 N 
ATOM     31  N   UNL A   1      44.336  26.724  29.531  1.00  0.00    -0.248 NA
ATOM     32  C   UNL A   1      45.153  24.620  28.925  1.00  0.00     0.031 C 
ATOM     33  C   UNL A   1      46.770  29.883  31.491  1.00  0.00     0.029 A 
ATOM     34  C   UNL A   1      46.034  28.888  30.868  1.00  0.00     0.049 A 
ATOM     35  H   UNL A   1      44.023  28.926  30.229  1.00  0.00     0.167 HD
ATOM     36  C   UNL A   1      45.673  26.631  29.900  1.00  0.00     0.074 A 
ATOM     37  C   UNL A   1      46.117  25.303  29.527  1.00  0.00     0.031 C 
ATOM     38  C   UNL A   1      46.462  27.563  30.490  1.00  0.00     0.037 A 
BRANCH  25  39
ATOM     39  C   UNL A   1      43.649  32.961  31.598  1.00  0.00     0.058 A 
ATOM     40  C   UNL A   1      44.047  34.025  30.773  1.00  0.00     0.135 A 
ATOM     41  C   UNL A   1      43.309  33.258  32.928  1.00  0.00     0.135 A 
ATOM     42  F   UNL A   1      44.396  33.799  29.498  1.00  0.00    -0.206 F 
ATOM     43  C   UNL A   1      44.129  35.328  31.255  1.00  0.00     0.059 A 
ATOM     44  C   UNL A   1      43.358  34.559  33.425  1.00  0.00     0.059 A 
ATOM     45  F   UNL A   1      42.918  32.281  33.760  1.00  0.00    -0.206 F 
ATOM     46  C   UNL A   1      43.782  35.586  32.583  1.00  0.00     0.060 A 
BRANCH  46  47
ATOM     47  S   UNL A   1      43.893  37.283  33.191  1.00  0.00     0.124 S 
ATOM     48  O   UNL A   1      45.189  37.266  33.862  1.00  0.00    -0.237 OA
ATOM     49  O   UNL A   1      43.830  38.060  31.957  1.00  0.00    -0.237 OA
ATOM     50  O   UNL A   1      42.734  37.407  34.068  1.00  0.00    -0.744 OA
ENDBRANCH  46  47
ENDBRANCH  25  39
BRANCH  26  51
ATOM     51  C   UNL A   1      42.566  23.754  27.834  1.00  0.00     0.058 A 
ATOM     52  C   UNL A   1      42.439  22.624  28.655  1.00  0.00     0.135 A 
ATOM     53  C   UNL A   1      42.502  23.565  26.444  1.00  0.00     0.135 A 
ATOM     54  F   UNL A   1      42.497  22.753  29.988  1.00  0.00    -0.206 F 
ATOM     55  C   UNL A   1      42.267  21.353  28.118  1.00  0.00     0.059 A 
ATOM     56  C   UNL A   1      42.301  22.309  25.885  1.00  0.00     0.059 A 
ATOM     57  F   UNL A   1      42.599  24.618  25.617  1.00  0.00    -0.206 F 
ATOM     58  C   UNL A   1      42.195  21.206  26.731  1.00  0.00     0.060 A 
BRANCH  58  59
ATOM     59  S   UNL A   1      41.913  19.559  26.046  1.00  0.00     0.124 S 
ATOM     60  O   UNL A   1      42.789  19.573  24.881  1.00  0.00    -0.237 OA
ATOM     61  O   UNL A   1      42.328  18.695  27.147  1.00  0.00    -0.237 OA
ATOM     62  O   UNL A   1      40.482  19.555  25.762  1.00  0.00    -0.744 OA
ENDBRANCH  58  59
ENDBRANCH  26  51
BRANCH  38  63
ATOM     63  C   UNL A   1      47.879  27.167  30.795  1.00  0.00     0.058 A 
ATOM     64  C   UNL A   1      48.916  27.372  29.872  1.00  0.00     0.135 A 
ATOM     65  C   UNL A   1      48.208  26.608  32.041  1.00  0.00     0.135 A 
ATOM     66  F   UNL A   1      48.652  27.893  28.664  1.00  0.00    -0.206 F 
ATOM     67  C   UNL A   1      50.229  27.013  30.164  1.00  0.00     0.059 A 
ATOM     68  C   UNL A   1      49.518  26.268  32.365  1.00  0.00     0.059 A 
ATOM     69  F   UNL A   1      47.254  26.398  32.962  1.00  0.00    -0.206 F 
ATOM     70  C   UNL A   1      50.519  26.463  31.414  1.00  0.00     0.060 A 
BRANCH  70  71
ATOM     71  S   UNL A   1      52.230  26.029  31.793  1.00  0.00     0.124 S 
ATOM     72  O   UNL A   1      52.128  24.589  32.003  1.00  0.00    -0.237 OA
ATOM     73  O   UNL A   1      52.933  26.446  30.583  1.00  0.00    -0.237 OA
ATOM     74  O   UNL A   1      52.524  26.818  32.985  1.00  0.00    -0.744 OA
ENDBRANCH  70  71
ENDBRANCH  38  63
ENDBRANCH  12  13
ENDBRANCH   5   7
ENDBRANCH   2   3
ENDBRANCH   1   2
BRANCH   1  75
ATOM     75  C   UNL A   1      31.686  26.956  26.608  1.00  0.00     0.002 C 
BRANCH  75  76
ATOM     76  C   UNL A   1      30.588  26.186  25.868  1.00  0.00     0.002 C 
BRANCH  76  77
ATOM     77  C   UNL A   1      30.516  24.682  26.153  1.00  0.00     0.021 C 
BRANCH  77  78
ATOM     78  C   UNL A   1      31.859  23.956  26.193  1.00  0.00     0.116 C 
BRANCH  78  79
ATOM     79  N   UNL A   1      31.920  22.853  25.249  1.00  0.00    -0.352 N 
ATOM     80  C   UNL A   1      32.144  22.870  23.896  1.00  0.00     0.253 C 
ATOM     81  H   UNL A   1      31.781  21.959  25.640  1.00  0.00     0.163 HD
ATOM     82  O   UNL A   1      32.125  21.823  23.258  1.00  0.00    -0.269 OA
BRANCH  80  83
ATOM     83  C   UNL A   1      32.412  24.154  23.224  1.00  0.00     0.067 A 
ATOM     84  C   UNL A   1      31.349  24.863  22.653  1.00  0.00     0.018 A 
ATOM     85  C   UNL A   1      33.700  24.689  23.165  1.00  0.00     0.101 A 
ATOM     86  C   UNL A   1      31.604  26.054  21.985  1.00  0.00     0.021 A 
ATOM     87  N   UNL A   1      33.956  25.851  22.492  1.00  0.00    -0.254 NA
ATOM     88  C   UNL A   1      32.914  26.499  21.924  1.00  0.00     0.112 A 
BRANCH  85  89
ATOM     89  C   UNL A   1      34.869  24.054  23.794  1.00  0.00     0.089 A 
ATOM     90  C   UNL A   1      35.255  24.346  25.103  1.00  0.00     0.031 A 
ATOM     91  N   UNL A   1      35.566  23.182  23.015  1.00  0.00    -0.255 NA
ATOM     92  C   UNL A   1      36.405  23.751  25.619  1.00  0.00     0.004 A 
ATOM     93  C   UNL A   1      36.678  22.626  23.540  1.00  0.00     0.112 A 
ATOM     94  C   UNL A   1      37.135  22.879  24.821  1.00  0.00     0.020 A 
ENDBRANCH  85  89
ENDBRANCH  80  83
ENDBRANCH  78  79
ENDBRANCH  77  78
ENDBRANCH  76  77
ENDBRANCH  75  76
ENDBRANCH   1  75
TORSDOF 17
ENDMDL
