MODEL 1
REMARK VINA RESULT:     -12.1      0.000      0.000
REMARK SMILES C[C@H]1OCC[C@@H]1C(=O)Nc1sc2c(c1C(=O)NCCCCCCNC(=O)c1ccc(-c3c4nc(c(-c5c(F)cc(S(=O)(=O)[O-])cc5F)c5ccc([nH]5)c(-c5c(F)cc(S(=O)(=O)[O-])cc5F)c5nc(c(-c6c(F)cc(S(=O)(=O)[O-])cc6F)c6ccc3[nH]6)C=C5)C=C4)cc1)CCC2
REMARK SMILES IDX 21 1 20 2 19 3 18 4 17 5 15 6 16 7 14 9 10 10 11 11 12 12
REMARK SMILES IDX 13 13 95 14 93 15 94 16 9 17 7 18 8 19 6 21 1 22 2 23 3 24
REMARK SMILES IDX 4 25 5 26 22 27 23 28 24 29 25 30 26 32 27 33 28 34 92 35
REMARK SMILES IDX 29 36 91 37 30 38 31 39 32 40 85 41 33 42 90 43 84 44 86 45
REMARK SMILES IDX 34 46 89 47 83 48 82 49 35 51 69 52 48 53 68 54 49 55 52 56
REMARK SMILES IDX 67 57 87 58 50 59 51 60 66 62 88 63 53 64 36 65 37 66 46 67
REMARK SMILES IDX 38 68 39 69 45 70 47 71 40 72 41 73 42 74 43 75 44 76 70 77
REMARK SMILES IDX 71 78 80 79 72 80 73 81 79 82 81 83 74 84 75 85 76 86 77 87
REMARK SMILES IDX 78 88 54 89 55 90 64 91 56 92 57 93 63 94 65 95 58 96 59 97
REMARK SMILES IDX 60 98 61 99 62 100
REMARK H PARENT 17 8 9 20 24 31 86 50 52 61
REMARK Flexibility Score: inf
ROOT
ATOM      1  C   UNL A   1      40.397  21.977  27.554  1.00  0.00     0.002 C 
ENDROOT
BRANCH   1   2
ATOM      2  C   UNL A   1      39.570  22.442  26.343  1.00  0.00     0.002 C 
BRANCH   2   3
ATOM      3  C   UNL A   1      38.560  23.560  26.637  1.00  0.00     0.021 C 
BRANCH   3   4
ATOM      4  C   UNL A   1      37.212  23.365  25.950  1.00  0.00     0.116 C 
BRANCH   4   5
ATOM      5  N   UNL A   1      37.294  23.115  24.538  1.00  0.00    -0.352 N 
ATOM      6  C   UNL A   1      36.355  23.023  23.545  1.00  0.00     0.254 C 
ATOM      7  O   UNL A   1      36.819  23.229  22.417  1.00  0.00    -0.269 OA
ATOM      8  H   UNL A   1      38.215  22.982  24.218  1.00  0.00     0.163 HD
BRANCH   6   9
ATOM      9  C   UNL A   1      34.926  22.717  23.721  1.00  0.00     0.078 A 
ATOM     10  C   UNL A   1      33.965  23.618  23.236  1.00  0.00     0.108 A 
ATOM     11  S   UNL A   1      32.429  23.465  23.979  1.00  0.00    -0.122 S 
ATOM     12  C   UNL A   1      32.894  22.014  24.637  1.00  0.00     0.011 A 
ATOM     13  C   UNL A   1      34.209  21.675  24.418  1.00  0.00    -0.019 A 
ATOM     14  C   UNL A   1      32.124  21.068  25.479  1.00  0.00     0.047 C 
ATOM     15  C   UNL A   1      34.470  20.375  25.106  1.00  0.00     0.038 C 
ATOM     16  C   UNL A   1      33.052  19.835  25.450  1.00  0.00     0.010 C 
BRANCH  10  17
ATOM     17  N   UNL A   1      34.000  24.726  22.423  1.00  0.00    -0.317 N 
ATOM     18  C   UNL A   1      33.561  25.997  22.622  1.00  0.00     0.230 C 
ATOM     19  O   UNL A   1      33.659  26.765  21.651  1.00  0.00    -0.274 OA
ATOM     20  H   UNL A   1      34.415  24.572  21.544  1.00  0.00     0.170 HD
BRANCH  18  21
ATOM     21  C   UNL A   1      33.093  26.591  23.950  1.00  0.00     0.110 C 
ATOM     22  C   UNL A   1      30.803  26.804  25.007  1.00  0.00     0.039 C 
ATOM     23  C   UNL A   1      31.741  27.290  23.901  1.00  0.00     0.127 C 
ATOM     24  O   UNL A   1      32.013  28.683  24.106  1.00  0.00    -0.378 OA
ATOM     25  C   UNL A   1      33.193  28.785  24.902  1.00  0.00     0.161 C 
ATOM     26  C   UNL A   1      34.031  27.559  24.627  1.00  0.00     0.044 C 
ENDBRANCH  18  21
ENDBRANCH  10  17
ENDBRANCH   6   9
ENDBRANCH   4   5
ENDBRANCH   3   4
ENDBRANCH   2   3
ENDBRANCH   1   2
BRANCH   1  27
ATOM     27  C   UNL A   1      41.181  20.669  27.364  1.00  0.00     0.021 C 
BRANCH  27  28
ATOM     28  C   UNL A   1      41.178  20.165  25.928  1.00  0.00     0.116 C 
BRANCH  28  29
ATOM     29  N   UNL A   1      42.518  19.781  25.510  1.00  0.00    -0.352 N 
ATOM     30  C   UNL A   1      43.608  20.580  25.256  1.00  0.00     0.251 C 
ATOM     31  H   UNL A   1      42.665  18.814  25.393  1.00  0.00     0.163 HD
ATOM     32  O   UNL A   1      44.532  20.152  24.579  1.00  0.00    -0.269 OA
BRANCH  30  33
ATOM     33  C   UNL A   1      43.644  21.953  25.791  1.00  0.00     0.039 A 
ATOM     34  C   UNL A   1      43.010  22.981  25.089  1.00  0.00     0.014 A 
ATOM     35  C   UNL A   1      44.327  22.217  26.979  1.00  0.00     0.014 A 
ATOM     36  C   UNL A   1      43.004  24.265  25.624  1.00  0.00     0.010 A 
ATOM     37  C   UNL A   1      44.244  23.466  27.554  1.00  0.00     0.010 A 
ATOM     38  C   UNL A   1      43.605  24.500  26.869  1.00  0.00    -0.014 A 
BRANCH  38  39
ATOM     39  C   UNL A   1      43.432  25.795  27.524  1.00  0.00     0.031 A 
ATOM     40  C   UNL A   1      44.462  26.814  27.176  1.00  0.00     0.074 A 
ATOM     41  C   UNL A   1      42.320  26.135  28.209  1.00  0.00     0.049 A 
ATOM     42  N   UNL A   1      45.311  27.384  27.966  1.00  0.00    -0.248 NA
ATOM     43  C   UNL A   1      44.660  27.149  25.756  1.00  0.00     0.031 C 
ATOM     44  C   UNL A   1      41.103  25.341  28.396  1.00  0.00     0.029 A 
ATOM     45  N   UNL A   1      41.993  27.328  28.780  1.00  0.00    -0.354 N 
ATOM     46  C   UNL A   1      46.004  28.311  27.189  1.00  0.00     0.074 A 
ATOM     47  C   UNL A   1      45.694  27.990  25.821  1.00  0.00     0.031 C 
ATOM     48  C   UNL A   1      40.105  26.145  28.819  1.00  0.00     0.029 A 
ATOM     49  C   UNL A   1      40.638  27.473  29.064  1.00  0.00     0.049 A 
ATOM     50  H   UNL A   1      42.657  28.027  28.975  1.00  0.00     0.167 HD
ATOM     51  C   UNL A   1      46.595  29.405  27.748  1.00  0.00     0.037 A 
ATOM     52  C   UNL A   1      39.995  28.612  29.429  1.00  0.00     0.037 A 
ATOM     53  C   UNL A   1      46.712  29.254  29.178  1.00  0.00     0.049 A 
ATOM     54  C   UNL A   1      41.027  29.530  29.979  1.00  0.00     0.074 A 
ATOM     55  C   UNL A   1      47.310  28.325  30.010  1.00  0.00     0.029 A 
ATOM     56  N   UNL A   1      45.833  29.954  29.970  1.00  0.00    -0.354 N 
ATOM     57  N   UNL A   1      41.667  29.313  31.096  1.00  0.00    -0.248 NA
ATOM     58  C   UNL A   1      41.665  30.475  29.074  1.00  0.00     0.031 C 
ATOM     59  C   UNL A   1      46.416  28.188  31.111  1.00  0.00     0.029 A 
ATOM     60  C   UNL A   1      45.366  29.088  30.925  1.00  0.00     0.049 A 
ATOM     61  H   UNL A   1      45.585  30.901  29.869  1.00  0.00     0.167 HD
ATOM     62  C   UNL A   1      42.967  29.723  30.842  1.00  0.00     0.074 A 
ATOM     63  C   UNL A   1      42.878  30.534  29.630  1.00  0.00     0.031 C 
ATOM     64  C   UNL A   1      44.027  29.132  31.467  1.00  0.00     0.037 A 
BRANCH  51  65
ATOM     65  C   UNL A   1      46.734  30.756  27.078  1.00  0.00     0.058 A 
ATOM     66  C   UNL A   1      47.999  31.385  27.062  1.00  0.00     0.135 A 
ATOM     67  C   UNL A   1      45.646  31.583  26.724  1.00  0.00     0.135 A 
ATOM     68  F   UNL A   1      49.111  30.698  27.369  1.00  0.00    -0.206 F 
ATOM     69  C   UNL A   1      48.156  32.750  26.817  1.00  0.00     0.059 A 
ATOM     70  C   UNL A   1      45.786  32.933  26.422  1.00  0.00     0.059 A 
ATOM     71  F   UNL A   1      44.379  31.152  26.748  1.00  0.00    -0.206 F 
ATOM     72  C   UNL A   1      47.036  33.519  26.520  1.00  0.00     0.060 A 
BRANCH  72  73
ATOM     73  S   UNL A   1      47.210  35.302  26.330  1.00  0.00     0.124 S 
ATOM     74  O   UNL A   1      47.477  35.714  27.702  1.00  0.00    -0.237 OA
ATOM     75  O   UNL A   1      48.332  35.399  25.402  1.00  0.00    -0.237 OA
ATOM     76  O   UNL A   1      45.917  35.707  25.786  1.00  0.00    -0.744 OA
ENDBRANCH  72  73
ENDBRANCH  51  65
BRANCH  52  77
ATOM     77  C   UNL A   1      38.613  29.056  29.093  1.00  0.00     0.058 A 
ATOM     78  C   UNL A   1      37.659  29.272  30.106  1.00  0.00     0.135 A 
ATOM     79  C   UNL A   1      38.274  29.552  27.817  1.00  0.00     0.135 A 
ATOM     80  F   UNL A   1      37.890  28.840  31.356  1.00  0.00    -0.206 F 
ATOM     81  C   UNL A   1      36.486  30.005  29.889  1.00  0.00     0.059 A 
ATOM     82  C   UNL A   1      37.102  30.268  27.572  1.00  0.00     0.059 A 
ATOM     83  F   UNL A   1      39.116  29.448  26.780  1.00  0.00    -0.206 F 
ATOM     84  C   UNL A   1      36.232  30.525  28.622  1.00  0.00     0.060 A 
BRANCH  84  85
ATOM     85  S   UNL A   1      34.852  31.671  28.387  1.00  0.00     0.124 S 
ATOM     86  O   UNL A   1      34.555  32.073  29.756  1.00  0.00    -0.237 OA
ATOM     87  O   UNL A   1      35.443  32.694  27.532  1.00  0.00    -0.237 OA
ATOM     88  O   UNL A   1      33.834  30.843  27.743  1.00  0.00    -0.744 OA
ENDBRANCH  84  85
ENDBRANCH  52  77
BRANCH  64  89
ATOM     89  C   UNL A   1      43.758  28.258  32.665  1.00  0.00     0.058 A 
ATOM     90  C   UNL A   1      43.511  28.739  33.964  1.00  0.00     0.135 A 
ATOM     91  C   UNL A   1      43.582  26.883  32.450  1.00  0.00     0.135 A 
ATOM     92  F   UNL A   1      43.550  30.051  34.235  1.00  0.00    -0.206 F 
ATOM     93  C   UNL A   1      43.148  27.887  35.006  1.00  0.00     0.059 A 
ATOM     94  C   UNL A   1      43.187  26.019  33.468  1.00  0.00     0.059 A 
ATOM     95  F   UNL A   1      43.741  26.369  31.218  1.00  0.00    -0.206 F 
ATOM     96  C   UNL A   1      42.986  26.527  34.748  1.00  0.00     0.060 A 
BRANCH  96  97
ATOM     97  S   UNL A   1      42.430  25.440  36.078  1.00  0.00     0.124 S 
ATOM     98  O   UNL A   1      43.227  25.907  37.208  1.00  0.00    -0.237 OA
ATOM     99  O   UNL A   1      41.000  25.727  36.150  1.00  0.00    -0.237 OA
ATOM    100  O   UNL A   1      42.764  24.104  35.589  1.00  0.00    -0.744 OA
ENDBRANCH  96  97
ENDBRANCH  64  89
ENDBRANCH  38  39
ENDBRANCH  30  33
ENDBRANCH  28  29
ENDBRANCH  27  28
ENDBRANCH   1  27
TORSDOF 18
ENDMDL
MODEL 2
REMARK VINA RESULT:     -12.0      1.134      2.733
REMARK SMILES C[C@H]1OCC[C@@H]1C(=O)Nc1sc2c(c1C(=O)NCCCCCCNC(=O)c1ccc(-c3c4nc(c(-c5c(F)cc(S(=O)(=O)[O-])cc5F)c5ccc([nH]5)c(-c5c(F)cc(S(=O)(=O)[O-])cc5F)c5nc(c(-c6c(F)cc(S(=O)(=O)[O-])cc6F)c6ccc3[nH]6)C=C5)C=C4)cc1)CCC2
REMARK SMILES IDX 21 1 20 2 19 3 18 4 17 5 15 6 16 7 14 9 10 10 11 11 12 12
REMARK SMILES IDX 13 13 95 14 93 15 94 16 9 17 7 18 8 19 6 21 1 22 2 23 3 24
REMARK SMILES IDX 4 25 5 26 22 27 23 28 24 29 25 30 26 32 27 33 28 34 92 35
REMARK SMILES IDX 29 36 91 37 30 38 31 39 32 40 85 41 33 42 90 43 84 44 86 45
REMARK SMILES IDX 34 46 89 47 83 48 82 49 35 51 69 52 48 53 68 54 49 55 52 56
REMARK SMILES IDX 67 57 87 58 50 59 51 60 66 62 88 63 53 64 36 65 37 66 46 67
REMARK SMILES IDX 38 68 39 69 45 70 47 71 40 72 41 73 42 74 43 75 44 76 70 77
REMARK SMILES IDX 71 78 80 79 72 80 73 81 79 82 81 83 74 84 75 85 76 86 77 87
REMARK SMILES IDX 78 88 54 89 55 90 64 91 56 92 57 93 63 94 65 95 58 96 59 97
REMARK SMILES IDX 60 98 61 99 62 100
REMARK H PARENT 17 8 9 20 24 31 86 50 52 61
REMARK Flexibility Score: inf
ROOT
ATOM      1  C   UNL A   1      39.622  21.739  26.501  1.00  0.00     0.002 C 
ENDROOT
BRANCH   1   2
ATOM      2  C   UNL A   1      38.359  22.177  25.740  1.00  0.00     0.002 C 
BRANCH   2   3
ATOM      3  C   UNL A   1      37.888  23.607  26.033  1.00  0.00     0.021 C 
BRANCH   3   4
ATOM      4  C   UNL A   1      36.423  23.855  25.687  1.00  0.00     0.116 C 
BRANCH   4   5
ATOM      5  N   UNL A   1      36.024  23.360  24.399  1.00  0.00    -0.352 N 
ATOM      6  C   UNL A   1      34.930  23.582  23.606  1.00  0.00     0.254 C 
ATOM      7  O   UNL A   1      35.135  23.332  22.412  1.00  0.00    -0.269 OA
ATOM      8  H   UNL A   1      36.670  22.731  24.005  1.00  0.00     0.163 HD
BRANCH   6   9
ATOM      9  C   UNL A   1      33.614  24.069  24.050  1.00  0.00     0.078 A 
ATOM     10  C   UNL A   1      32.452  23.524  23.482  1.00  0.00     0.108 A 
ATOM     11  S   UNL A   1      31.068  24.524  23.630  1.00  0.00    -0.122 S 
ATOM     12  C   UNL A   1      31.870  25.465  24.738  1.00  0.00     0.011 A 
ATOM     13  C   UNL A   1      33.190  25.131  24.932  1.00  0.00    -0.019 A 
ATOM     14  C   UNL A   1      31.393  26.647  25.494  1.00  0.00     0.047 C 
ATOM     15  C   UNL A   1      33.768  26.093  25.919  1.00  0.00     0.038 C 
ATOM     16  C   UNL A   1      32.525  26.800  26.532  1.00  0.00     0.010 C 
BRANCH  10  17
ATOM     17  N   UNL A   1      32.183  22.447  22.671  1.00  0.00    -0.317 N 
ATOM     18  C   UNL A   1      32.292  21.110  22.892  1.00  0.00     0.230 C 
ATOM     19  O   UNL A   1      32.050  20.377  21.918  1.00  0.00    -0.274 OA
ATOM     20  H   UNL A   1      31.855  22.686  21.774  1.00  0.00     0.170 HD
BRANCH  18  21
ATOM     21  C   UNL A   1      32.545  20.437  24.239  1.00  0.00     0.110 C 
ATOM     22  C   UNL A   1      34.030  21.048  26.196  1.00  0.00     0.039 C 
ATOM     23  C   UNL A   1      33.974  20.543  24.753  1.00  0.00     0.127 C 
ATOM     24  O   UNL A   1      34.505  19.211  24.710  1.00  0.00    -0.378 OA
ATOM     25  C   UNL A   1      33.419  18.302  24.879  1.00  0.00     0.161 C 
ATOM     26  C   UNL A   1      32.177  18.978  24.348  1.00  0.00     0.044 C 
ENDBRANCH  18  21
ENDBRANCH  10  17
ENDBRANCH   6   9
ENDBRANCH   4   5
ENDBRANCH   3   4
ENDBRANCH   2   3
ENDBRANCH   1   2
BRANCH   1  27
ATOM     27  C   UNL A   1      40.138  20.326  26.182  1.00  0.00     0.021 C 
BRANCH  27  28
ATOM     28  C   UNL A   1      41.341  19.918  27.020  1.00  0.00     0.116 C 
BRANCH  28  29
ATOM     29  N   UNL A   1      42.502  19.671  26.177  1.00  0.00    -0.352 N 
ATOM     30  C   UNL A   1      43.339  20.578  25.570  1.00  0.00     0.251 C 
ATOM     31  H   UNL A   1      42.718  18.723  26.020  1.00  0.00     0.163 HD
ATOM     32  O   UNL A   1      44.030  20.229  24.624  1.00  0.00    -0.269 OA
BRANCH  30  33
ATOM     33  C   UNL A   1      43.384  21.968  26.059  1.00  0.00     0.039 A 
ATOM     34  C   UNL A   1      42.664  22.957  25.384  1.00  0.00     0.014 A 
ATOM     35  C   UNL A   1      44.159  22.287  27.175  1.00  0.00     0.014 A 
ATOM     36  C   UNL A   1      42.670  24.257  25.879  1.00  0.00     0.010 A 
ATOM     37  C   UNL A   1      44.091  23.551  27.718  1.00  0.00     0.010 A 
ATOM     38  C   UNL A   1      43.368  24.547  27.060  1.00  0.00    -0.014 A 
BRANCH  38  39
ATOM     39  C   UNL A   1      43.217  25.857  27.688  1.00  0.00     0.031 A 
ATOM     40  C   UNL A   1      44.266  26.850  27.324  1.00  0.00     0.074 A 
ATOM     41  C   UNL A   1      42.110  26.232  28.362  1.00  0.00     0.049 A 
ATOM     42  N   UNL A   1      45.123  27.420  28.106  1.00  0.00    -0.248 NA
ATOM     43  C   UNL A   1      44.475  27.153  25.898  1.00  0.00     0.031 C 
ATOM     44  C   UNL A   1      40.878  25.463  28.561  1.00  0.00     0.029 A 
ATOM     45  N   UNL A   1      41.803  27.441  28.909  1.00  0.00    -0.354 N 
ATOM     46  C   UNL A   1      45.836  28.318  27.314  1.00  0.00     0.074 A 
ATOM     47  C   UNL A   1      45.524  27.976  25.951  1.00  0.00     0.031 C 
ATOM     48  C   UNL A   1      39.893  26.294  28.964  1.00  0.00     0.029 A 
ATOM     49  C   UNL A   1      40.450  27.616  29.185  1.00  0.00     0.049 A 
ATOM     50  H   UNL A   1      42.479  28.132  29.092  1.00  0.00     0.167 HD
ATOM     51  C   UNL A   1      46.445  29.412  27.853  1.00  0.00     0.037 A 
ATOM     52  C   UNL A   1      39.827  28.775  29.525  1.00  0.00     0.037 A 
ATOM     53  C   UNL A   1      46.555  29.287  29.286  1.00  0.00     0.049 A 
ATOM     54  C   UNL A   1      40.873  29.684  30.060  1.00  0.00     0.074 A 
ATOM     55  C   UNL A   1      47.133  28.364  30.138  1.00  0.00     0.029 A 
ATOM     56  N   UNL A   1      45.687  30.019  30.060  1.00  0.00    -0.354 N 
ATOM     57  N   UNL A   1      41.506  29.477  31.183  1.00  0.00    -0.248 NA
ATOM     58  C   UNL A   1      41.532  30.599  29.139  1.00  0.00     0.031 C 
ATOM     59  C   UNL A   1      46.233  28.266  31.238  1.00  0.00     0.029 A 
ATOM     60  C   UNL A   1      45.201  29.181  31.030  1.00  0.00     0.049 A 
ATOM     61  H   UNL A   1      45.456  30.969  29.940  1.00  0.00     0.167 HD
ATOM     62  C   UNL A   1      42.814  29.858  30.927  1.00  0.00     0.074 A 
ATOM     63  C   UNL A   1      42.744  30.647  29.699  1.00  0.00     0.031 C 
ATOM     64  C   UNL A   1      43.861  29.260  31.567  1.00  0.00     0.037 A 
BRANCH  51  65
ATOM     65  C   UNL A   1      46.612  30.747  27.157  1.00  0.00     0.058 A 
ATOM     66  C   UNL A   1      47.890  31.349  27.127  1.00  0.00     0.135 A 
ATOM     67  C   UNL A   1      45.541  31.589  26.788  1.00  0.00     0.135 A 
ATOM     68  F   UNL A   1      48.987  30.646  27.447  1.00  0.00    -0.206 F 
ATOM     69  C   UNL A   1      48.074  32.705  26.856  1.00  0.00     0.059 A 
ATOM     70  C   UNL A   1      45.709  32.930  26.460  1.00  0.00     0.059 A 
ATOM     71  F   UNL A   1      44.265  31.185  26.821  1.00  0.00    -0.206 F 
ATOM     72  C   UNL A   1      46.970  33.492  26.545  1.00  0.00     0.060 A 
BRANCH  72  73
ATOM     73  S   UNL A   1      47.181  35.266  26.320  1.00  0.00     0.124 S 
ATOM     74  O   UNL A   1      47.627  35.675  27.647  1.00  0.00    -0.237 OA
ATOM     75  O   UNL A   1      48.183  35.320  25.261  1.00  0.00    -0.237 OA
ATOM     76  O   UNL A   1      45.846  35.715  25.935  1.00  0.00    -0.744 OA
ENDBRANCH  72  73
ENDBRANCH  51  65
BRANCH  52  77
ATOM     77  C   UNL A   1      38.454  29.237  29.175  1.00  0.00     0.058 A 
ATOM     78  C   UNL A   1      37.510  29.519  30.182  1.00  0.00     0.135 A 
ATOM     79  C   UNL A   1      38.121  29.686  27.880  1.00  0.00     0.135 A 
ATOM     80  F   UNL A   1      37.737  29.136  31.448  1.00  0.00    -0.206 F 
ATOM     81  C   UNL A   1      36.354  30.270  29.937  1.00  0.00     0.059 A 
ATOM     82  C   UNL A   1      36.966  30.419  27.609  1.00  0.00     0.059 A 
ATOM     83  F   UNL A   1      38.955  29.517  26.845  1.00  0.00    -0.206 F 
ATOM     84  C   UNL A   1      36.107  30.742  28.650  1.00  0.00     0.060 A 
BRANCH  84  85
ATOM     85  S   UNL A   1      34.754  31.909  28.371  1.00  0.00     0.124 S 
ATOM     86  O   UNL A   1      35.390  32.915  27.530  1.00  0.00    -0.237 OA
ATOM     87  O   UNL A   1      33.753  31.071  27.721  1.00  0.00    -0.237 OA
ATOM     88  O   UNL A   1      34.406  32.351  29.720  1.00  0.00    -0.744 OA
ENDBRANCH  84  85
ENDBRANCH  52  77
BRANCH  64  89
ATOM     89  C   UNL A   1      43.572  28.416  32.781  1.00  0.00     0.058 A 
ATOM     90  C   UNL A   1      43.304  28.927  34.063  1.00  0.00     0.135 A 
ATOM     91  C   UNL A   1      43.398  27.035  32.596  1.00  0.00     0.135 A 
ATOM     92  F   UNL A   1      43.340  30.245  34.304  1.00  0.00    -0.206 F 
ATOM     93  C   UNL A   1      42.924  28.101  35.120  1.00  0.00     0.059 A 
ATOM     94  C   UNL A   1      42.986  26.197  33.627  1.00  0.00     0.059 A 
ATOM     95  F   UNL A   1      43.576  26.492  31.379  1.00  0.00    -0.206 F 
ATOM     96  C   UNL A   1      42.764  26.735  34.892  1.00  0.00     0.060 A 
BRANCH  96  97
ATOM     97  S   UNL A   1      42.187  25.681  36.238  1.00  0.00     0.124 S 
ATOM     98  O   UNL A   1      41.593  24.560  35.516  1.00  0.00    -0.237 OA
ATOM     99  O   UNL A   1      43.418  25.384  36.965  1.00  0.00    -0.237 OA
ATOM    100  O   UNL A   1      41.240  26.531  36.956  1.00  0.00    -0.744 OA
ENDBRANCH  96  97
ENDBRANCH  64  89
ENDBRANCH  38  39
ENDBRANCH  30  33
ENDBRANCH  28  29
ENDBRANCH  27  28
ENDBRANCH   1  27
TORSDOF 18
ENDMDL
MODEL 3
REMARK VINA RESULT:     -11.8      2.216      3.827
REMARK SMILES C[C@H]1OCC[C@@H]1C(=O)Nc1sc2c(c1C(=O)NCCCCCCNC(=O)c1ccc(-c3c4nc(c(-c5c(F)cc(S(=O)(=O)[O-])cc5F)c5ccc([nH]5)c(-c5c(F)cc(S(=O)(=O)[O-])cc5F)c5nc(c(-c6c(F)cc(S(=O)(=O)[O-])cc6F)c6ccc3[nH]6)C=C5)C=C4)cc1)CCC2
REMARK SMILES IDX 21 1 20 2 19 3 18 4 17 5 15 6 16 7 14 9 10 10 11 11 12 12
REMARK SMILES IDX 13 13 95 14 93 15 94 16 9 17 7 18 8 19 6 21 1 22 2 23 3 24
REMARK SMILES IDX 4 25 5 26 22 27 23 28 24 29 25 30 26 32 27 33 28 34 92 35
REMARK SMILES IDX 29 36 91 37 30 38 31 39 32 40 85 41 33 42 90 43 84 44 86 45
REMARK SMILES IDX 34 46 89 47 83 48 82 49 35 51 69 52 48 53 68 54 49 55 52 56
REMARK SMILES IDX 67 57 87 58 50 59 51 60 66 62 88 63 53 64 36 65 37 66 46 67
REMARK SMILES IDX 38 68 39 69 45 70 47 71 40 72 41 73 42 74 43 75 44 76 70 77
REMARK SMILES IDX 71 78 80 79 72 80 73 81 79 82 81 83 74 84 75 85 76 86 77 87
REMARK SMILES IDX 78 88 54 89 55 90 64 91 56 92 57 93 63 94 65 95 58 96 59 97
REMARK SMILES IDX 60 98 61 99 62 100
REMARK H PARENT 17 8 9 20 24 31 86 50 52 61
REMARK Flexibility Score: inf
ROOT
ATOM      1  C   UNL A   1      39.575  21.912  26.785  1.00  0.00     0.002 C 
ENDROOT
BRANCH   1   2
ATOM      2  C   UNL A   1      39.408  23.425  27.005  1.00  0.00     0.002 C 
BRANCH   2   3
ATOM      3  C   UNL A   1      38.358  24.099  26.112  1.00  0.00     0.021 C 
BRANCH   3   4
ATOM      4  C   UNL A   1      37.252  23.157  25.646  1.00  0.00     0.116 C 
BRANCH   4   5
ATOM      5  N   UNL A   1      36.313  22.789  26.669  1.00  0.00    -0.352 N 
ATOM      6  C   UNL A   1      35.008  22.377  26.641  1.00  0.00     0.254 C 
ATOM      7  O   UNL A   1      34.673  21.749  27.652  1.00  0.00    -0.269 OA
ATOM      8  H   UNL A   1      36.685  22.845  27.579  1.00  0.00     0.163 HD
BRANCH   6   9
ATOM      9  C   UNL A   1      34.040  22.616  25.557  1.00  0.00     0.078 A 
ATOM     10  C   UNL A   1      33.112  21.615  25.231  1.00  0.00     0.108 A 
ATOM     11  S   UNL A   1      32.463  21.754  23.651  1.00  0.00    -0.122 S 
ATOM     12  C   UNL A   1      33.081  23.290  23.535  1.00  0.00     0.011 A 
ATOM     13  C   UNL A   1      33.862  23.680  24.597  1.00  0.00    -0.019 A 
ATOM     14  C   UNL A   1      32.971  24.272  22.430  1.00  0.00     0.047 C 
ATOM     15  C   UNL A   1      34.367  25.058  24.316  1.00  0.00     0.038 C 
ATOM     16  C   UNL A   1      33.495  25.547  23.124  1.00  0.00     0.010 C 
BRANCH  10  17
ATOM     17  N   UNL A   1      32.719  20.432  25.811  1.00  0.00    -0.317 N 
ATOM     18  C   UNL A   1      32.725  19.158  25.340  1.00  0.00     0.230 C 
ATOM     19  O   UNL A   1      32.218  18.300  26.083  1.00  0.00    -0.274 OA
ATOM     20  H   UNL A   1      32.373  20.525  26.729  1.00  0.00     0.170 HD
BRANCH  18  21
ATOM     21  C   UNL A   1      33.407  18.673  24.062  1.00  0.00     0.110 C 
ATOM     22  C   UNL A   1      32.566  18.360  21.695  1.00  0.00     0.039 C 
ATOM     23  C   UNL A   1      32.526  17.847  23.135  1.00  0.00     0.127 C 
ATOM     24  O   UNL A   1      33.064  16.517  23.166  1.00  0.00    -0.378 OA
ATOM     25  C   UNL A   1      34.462  16.618  23.433  1.00  0.00     0.161 C 
ATOM     26  C   UNL A   1      34.680  17.880  24.232  1.00  0.00     0.044 C 
ENDBRANCH  18  21
ENDBRANCH  10  17
ENDBRANCH   6   9
ENDBRANCH   4   5
ENDBRANCH   3   4
ENDBRANCH   2   3
ENDBRANCH   1   2
BRANCH   1  27
ATOM     27  C   UNL A   1      40.583  21.503  25.699  1.00  0.00     0.021 C 
BRANCH  27  28
ATOM     28  C   UNL A   1      41.906  21.000  26.260  1.00  0.00     0.116 C 
BRANCH  28  29
ATOM     29  N   UNL A   1      43.015  21.388  25.401  1.00  0.00    -0.352 N 
ATOM     30  C   UNL A   1      43.459  22.648  25.076  1.00  0.00     0.251 C 
ATOM     31  H   UNL A   1      43.518  20.644  24.997  1.00  0.00     0.163 HD
ATOM     32  O   UNL A   1      44.152  22.812  24.083  1.00  0.00    -0.269 OA
BRANCH  30  33
ATOM     33  C   UNL A   1      43.080  23.794  25.923  1.00  0.00     0.039 A 
ATOM     34  C   UNL A   1      43.477  23.819  27.262  1.00  0.00     0.014 A 
ATOM     35  C   UNL A   1      42.313  24.830  25.388  1.00  0.00     0.014 A 
ATOM     36  C   UNL A   1      43.161  24.925  28.043  1.00  0.00     0.010 A 
ATOM     37  C   UNL A   1      42.079  25.965  26.133  1.00  0.00     0.010 A 
ATOM     38  C   UNL A   1      42.478  26.008  27.469  1.00  0.00    -0.014 A 
BRANCH  38  39
ATOM     39  C   UNL A   1      42.317  27.247  28.226  1.00  0.00     0.031 A 
ATOM     40  C   UNL A   1      43.408  28.244  28.034  1.00  0.00     0.074 A 
ATOM     41  C   UNL A   1      41.179  27.578  28.871  1.00  0.00     0.049 A 
ATOM     42  N   UNL A   1      44.228  28.702  28.921  1.00  0.00    -0.248 NA
ATOM     43  C   UNL A   1      43.710  28.692  26.664  1.00  0.00     0.031 C 
ATOM     44  C   UNL A   1      39.921  26.828  28.912  1.00  0.00     0.029 A 
ATOM     45  N   UNL A   1      40.866  28.730  29.527  1.00  0.00    -0.354 N 
ATOM     46  C   UNL A   1      45.007  29.660  28.275  1.00  0.00     0.074 A 
ATOM     47  C   UNL A   1      44.772  29.475  26.867  1.00  0.00     0.031 C 
ATOM     48  C   UNL A   1      38.931  27.637  29.345  1.00  0.00     0.029 A 
ATOM     49  C   UNL A   1      39.503  28.913  29.741  1.00  0.00     0.049 A 
ATOM     50  H   UNL A   1      41.544  29.378  29.823  1.00  0.00     0.167 HD
ATOM     51  C   UNL A   1      45.605  30.672  28.965  1.00  0.00     0.037 A 
ATOM     52  C   UNL A   1      38.885  30.045  30.167  1.00  0.00     0.037 A 
ATOM     53  C   UNL A   1      45.624  30.391  30.379  1.00  0.00     0.049 A 
ATOM     54  C   UNL A   1      39.916  30.861  30.859  1.00  0.00     0.074 A 
ATOM     55  C   UNL A   1      46.129  29.366  31.158  1.00  0.00     0.029 A 
ATOM     56  N   UNL A   1      44.726  31.060  31.177  1.00  0.00    -0.354 N 
ATOM     57  N   UNL A   1      40.474  30.518  31.988  1.00  0.00    -0.248 NA
ATOM     58  C   UNL A   1      40.649  31.851  30.083  1.00  0.00     0.031 C 
ATOM     59  C   UNL A   1      45.162  29.176  32.187  1.00  0.00     0.029 A 
ATOM     60  C   UNL A   1      44.164  30.136  32.020  1.00  0.00     0.049 A 
ATOM     61  H   UNL A   1      44.525  32.023  31.147  1.00  0.00     0.167 HD
ATOM     62  C   UNL A   1      41.803  30.887  31.851  1.00  0.00     0.074 A 
ATOM     63  C   UNL A   1      41.826  31.805  30.714  1.00  0.00     0.031 C 
ATOM     64  C   UNL A   1      42.796  30.195  32.483  1.00  0.00     0.037 A 
BRANCH  51  65
ATOM     65  C   UNL A   1      45.843  32.069  28.429  1.00  0.00     0.058 A 
ATOM     66  C   UNL A   1      47.132  32.637  28.544  1.00  0.00     0.135 A 
ATOM     67  C   UNL A   1      44.815  32.973  28.086  1.00  0.00     0.135 A 
ATOM     68  F   UNL A   1      48.192  31.874  28.855  1.00  0.00    -0.206 F 
ATOM     69  C   UNL A   1      47.360  34.009  28.433  1.00  0.00     0.059 A 
ATOM     70  C   UNL A   1      45.030  34.336  27.916  1.00  0.00     0.059 A 
ATOM     71  F   UNL A   1      43.532  32.602  27.996  1.00  0.00    -0.206 F 
ATOM     72  C   UNL A   1      46.294  34.853  28.141  1.00  0.00     0.060 A 
BRANCH  72  73
ATOM     73  S   UNL A   1      46.553  36.635  28.123  1.00  0.00     0.124 S 
ATOM     74  O   UNL A   1      47.917  36.723  27.614  1.00  0.00    -0.237 OA
ATOM     75  O   UNL A   1      45.501  37.085  27.218  1.00  0.00    -0.237 OA
ATOM     76  O   UNL A   1      46.373  37.012  29.521  1.00  0.00    -0.744 OA
ENDBRANCH  72  73
ENDBRANCH  51  65
BRANCH  52  77
ATOM     77  C   UNL A   1      37.546  30.581  29.791  1.00  0.00     0.058 A 
ATOM     78  C   UNL A   1      36.760  31.280  30.727  1.00  0.00     0.135 A 
ATOM     79  C   UNL A   1      37.127  30.673  28.447  1.00  0.00     0.135 A 
ATOM     80  F   UNL A   1      37.079  31.256  32.030  1.00  0.00    -0.206 F 
ATOM     81  C   UNL A   1      35.682  32.087  30.346  1.00  0.00     0.059 A 
ATOM     82  C   UNL A   1      36.044  31.455  28.047  1.00  0.00     0.059 A 
ATOM     83  F   UNL A   1      37.815  30.088  27.458  1.00  0.00    -0.206 F 
ATOM     84  C   UNL A   1      35.350  32.192  28.997  1.00  0.00     0.060 A 
BRANCH  84  85
ATOM     85  S   UNL A   1      34.123  33.411  28.470  1.00  0.00     0.124 S 
ATOM     86  O   UNL A   1      34.922  34.311  27.648  1.00  0.00    -0.237 OA
ATOM     87  O   UNL A   1      33.153  32.585  27.760  1.00  0.00    -0.237 OA
ATOM     88  O   UNL A   1      33.645  33.975  29.732  1.00  0.00    -0.744 OA
ENDBRANCH  84  85
ENDBRANCH  52  77
BRANCH  64  89
ATOM     89  C   UNL A   1      42.415  29.233  33.579  1.00  0.00     0.058 A 
ATOM     90  C   UNL A   1      41.970  27.917  33.366  1.00  0.00     0.135 A 
ATOM     91  C   UNL A   1      42.670  29.614  34.905  1.00  0.00     0.135 A 
ATOM     92  F   UNL A   1      41.805  27.434  32.126  1.00  0.00    -0.206 F 
ATOM     93  C   UNL A   1      41.750  27.035  34.423  1.00  0.00     0.059 A 
ATOM     94  C   UNL A   1      42.489  28.740  35.973  1.00  0.00     0.059 A 
ATOM     95  F   UNL A   1      43.157  30.838  35.172  1.00  0.00    -0.206 F 
ATOM     96  C   UNL A   1      42.014  27.455  35.725  1.00  0.00     0.060 A 
BRANCH  96  97
ATOM     97  S   UNL A   1      41.813  26.285  37.085  1.00  0.00     0.124 S 
ATOM     98  O   UNL A   1      41.887  25.000  36.396  1.00  0.00    -0.237 OA
ATOM     99  O   UNL A   1      42.943  26.604  37.953  1.00  0.00    -0.237 OA
ATOM    100  O   UNL A   1      40.502  26.623  37.634  1.00  0.00    -0.744 OA
ENDBRANCH  96  97
ENDBRANCH  64  89
ENDBRANCH  38  39
ENDBRANCH  30  33
ENDBRANCH  28  29
ENDBRANCH  27  28
ENDBRANCH   1  27
TORSDOF 18
ENDMDL
